MODEL 1
REMARK VINA RESULT:    -5.618      0.000      0.000
REMARK INTER + INTRA:          -8.825
REMARK INTER:                  -7.589
REMARK INTRA:                  -1.237
REMARK UNBOUND:                -1.237
REMARK SMILES O=c1c(-c2ccc(O)cc2)coc2c([C@H]3O[C@@H](CO)[C@@H](O)[C@H](O)[C@@H]3O)c(O)ccc12
REMARK SMILES IDX 3 1 11 2 12 3 13 4 30 5 2 6 1 7 29 8 28 9 26 10 14 11 4 12
REMARK SMILES IDX 5 13 6 14 7 15 10 16 9 17 8 18 15 20 24 21 16 22 22 23 17 24
REMARK SMILES IDX 20 25 25 26 23 28 18 30 19 31 21 33 27 35
REMARK H PARENT 8 19 25 27 23 29 19 32 21 34 27 36
REMARK Flexibility Score: inf
ROOT
ATOM      1  C   UNL     1     104.166  82.520  22.856  1.00  0.00     0.065 A 
ATOM      2  C   UNL     1     104.030  83.605  21.984  1.00  0.00     0.208 A 
ATOM      3  O   UNL     1     104.527  83.555  20.753  1.00  0.00    -0.463 OA
ATOM      4  C   UNL     1     105.180  82.501  20.269  1.00  0.00     0.147 A 
ATOM      5  C   UNL     1     105.371  81.366  21.091  1.00  0.00     0.066 A 
ATOM      6  C   UNL     1     104.854  81.384  22.399  1.00  0.00     0.200 A 
ATOM      7  O   UNL     1     105.031  80.398  23.168  1.00  0.00    -0.288 OA
ATOM      8  C   UNL     1     106.087  80.266  20.599  1.00  0.00     0.020 A 
ATOM      9  C   UNL     1     106.631  80.301  19.320  1.00  0.00     0.047 A 
ATOM     10  C   UNL     1     106.466  81.417  18.493  1.00  0.00     0.125 A 
ATOM     11  C   UNL     1     105.692  82.525  18.943  1.00  0.00     0.069 A 
ENDROOT
BRANCH   1  12
ATOM     12  C   UNL     1     103.626  82.598  24.236  1.00  0.00    -0.011 A 
ATOM     13  C   UNL     1     104.494  82.731  25.333  1.00  0.00     0.013 A 
ATOM     14  C   UNL     1     103.980  82.873  26.627  1.00  0.00     0.047 A 
ATOM     15  C   UNL     1     102.594  82.873  26.839  1.00  0.00     0.115 A 
ATOM     16  C   UNL     1     102.238  82.565  24.458  1.00  0.00     0.013 A 
ATOM     17  C   UNL     1     101.726  82.704  25.754  1.00  0.00     0.047 A 
BRANCH  15  18
ATOM     18  O   UNL     1     102.068  83.050  28.119  1.00  0.00    -0.508 OA
ATOM     19  H   UNL     1     101.511  82.334  28.566  1.00  0.00     0.293 HD
ENDBRANCH  15  18
ENDBRANCH   1  12
BRANCH  11  20
ATOM     20  C   UNL     1     105.482  83.774  18.090  1.00  0.00     0.188 C 
ATOM     21  C   UNL     1     104.271  83.562  17.140  1.00  0.00     0.179 C 
ATOM     22  O   UNL     1     106.668  84.032  17.352  1.00  0.00    -0.362 OA
ATOM     23  C   UNL     1     104.111  84.752  16.168  1.00  0.00     0.177 C 
ATOM     24  C   UNL     1     106.547  85.224  16.592  1.00  0.00     0.176 C 
ATOM     25  C   UNL     1     105.463  85.060  15.502  1.00  0.00     0.177 C 
BRANCH  21  26
ATOM     26  O   UNL     1     103.080  83.326  17.852  1.00  0.00    -0.387 OA
ATOM     27  H   UNL     1     103.304  83.282  18.818  1.00  0.00     0.211 HD
ENDBRANCH  21  26
BRANCH  23  28
ATOM     28  O   UNL     1     103.662  85.898  16.852  1.00  0.00    -0.387 OA
ATOM     29  H   UNL     1     103.353  86.549  16.170  1.00  0.00     0.211 HD
ENDBRANCH  23  28
BRANCH  24  30
ATOM     30  C   UNL     1     107.908  85.560  15.971  1.00  0.00     0.191 C 
BRANCH  30  31
ATOM     31  O   UNL     1     108.633  84.380  15.761  1.00  0.00    -0.394 OA
ATOM     32  H   UNL     1     109.242  84.283  16.540  1.00  0.00     0.210 HD
ENDBRANCH  30  31
ENDBRANCH  24  30
BRANCH  25  33
ATOM     33  O   UNL     1     105.810  84.003  14.641  1.00  0.00    -0.388 OA
ATOM     34  H   UNL     1     106.302  84.391  13.874  1.00  0.00     0.211 HD
ENDBRANCH  25  33
ENDBRANCH  11  20
BRANCH  10  35
ATOM     35  O   UNL     1     107.105  81.372  17.252  1.00  0.00    -0.507 OA
ATOM     36  H   UNL     1     106.658  81.506  16.356  1.00  0.00     0.293 HD
ENDBRANCH  10  35
TORSDOF 9
ENDMDL
MODEL 2
REMARK VINA RESULT:    -5.500      2.021      2.319
REMARK INTER + INTRA:          -8.666
REMARK INTER:                  -7.418
REMARK INTRA:                  -1.248
REMARK UNBOUND:                -1.237
REMARK SMILES O=c1c(-c2ccc(O)cc2)coc2c([C@H]3O[C@@H](CO)[C@@H](O)[C@H](O)[C@@H]3O)c(O)ccc12
REMARK SMILES IDX 3 1 11 2 12 3 13 4 30 5 2 6 1 7 29 8 28 9 26 10 14 11 4 12
REMARK SMILES IDX 5 13 6 14 7 15 10 16 9 17 8 18 15 20 24 21 16 22 22 23 17 24
REMARK SMILES IDX 20 25 25 26 23 28 18 30 19 31 21 33 27 35
REMARK H PARENT 8 19 25 27 23 29 19 32 21 34 27 36
REMARK Flexibility Score: inf
ROOT
ATOM      1  C   UNL     1     103.292  82.606  21.720  1.00  0.00     0.065 A 
ATOM      2  C   UNL     1     103.330  83.803  20.996  1.00  0.00     0.208 A 
ATOM      3  O   UNL     1     103.348  83.794  19.668  1.00  0.00    -0.463 OA
ATOM      4  C   UNL     1     103.339  82.678  18.942  1.00  0.00     0.147 A 
ATOM      5  C   UNL     1     103.312  81.425  19.597  1.00  0.00     0.066 A 
ATOM      6  C   UNL     1     103.288  81.397  21.003  1.00  0.00     0.200 A 
ATOM      7  O   UNL     1     103.292  80.295  21.619  1.00  0.00    -0.288 OA
ATOM      8  C   UNL     1     103.336  80.246  18.840  1.00  0.00     0.020 A 
ATOM      9  C   UNL     1     103.414  80.307  17.452  1.00  0.00     0.047 A 
ATOM     10  C   UNL     1     103.453  81.535  16.782  1.00  0.00     0.125 A 
ATOM     11  C   UNL     1     103.369  82.749  17.522  1.00  0.00     0.069 A 
ENDROOT
BRANCH   1  12
ATOM     12  C   UNL     1     103.295  82.629  23.203  1.00  0.00    -0.011 A 
ATOM     13  C   UNL     1     104.507  82.690  23.911  1.00  0.00     0.013 A 
ATOM     14  C   UNL     1     104.505  82.780  25.308  1.00  0.00     0.047 A 
ATOM     15  C   UNL     1     103.292  82.801  26.012  1.00  0.00     0.115 A 
ATOM     16  C   UNL     1     102.082  82.617  23.916  1.00  0.00     0.013 A 
ATOM     17  C   UNL     1     102.084  82.704  25.312  1.00  0.00     0.047 A 
BRANCH  15  18
ATOM     18  O   UNL     1     103.276  82.927  27.401  1.00  0.00    -0.508 OA
ATOM     19  H   UNL     1     102.889  82.205  27.993  1.00  0.00     0.293 HD
ENDBRANCH  15  18
ENDBRANCH   1  12
BRANCH  11  20
ATOM     20  C   UNL     1     103.414  84.119  16.849  1.00  0.00     0.188 C 
ATOM     21  C   UNL     1     102.109  84.348  16.038  1.00  0.00     0.179 C 
ATOM     22  O   UNL     1     104.555  84.180  16.005  1.00  0.00    -0.362 OA
ATOM     23  C   UNL     1     102.176  85.666  15.235  1.00  0.00     0.177 C 
ATOM     24  C   UNL     1     104.679  85.460  15.407  1.00  0.00     0.176 C 
ATOM     25  C   UNL     1     103.496  85.724  14.447  1.00  0.00     0.177 C 
BRANCH  21  26
ATOM     26  O   UNL     1     100.967  84.313  16.860  1.00  0.00    -0.387 OA
ATOM     27  H   UNL     1     100.221  84.743  16.367  1.00  0.00     0.211 HD
ENDBRANCH  21  26
BRANCH  23  28
ATOM     28  O   UNL     1     102.104  86.778  16.095  1.00  0.00    -0.387 OA
ATOM     29  H   UNL     1     101.179  86.821  16.448  1.00  0.00     0.211 HD
ENDBRANCH  23  28
BRANCH  24  30
ATOM     30  C   UNL     1     106.019  85.536  14.665  1.00  0.00     0.191 C 
BRANCH  30  31
ATOM     31  O   UNL     1     106.392  84.256  14.235  1.00  0.00    -0.394 OA
ATOM     32  H   UNL     1     107.270  84.063  14.657  1.00  0.00     0.210 HD
ENDBRANCH  30  31
ENDBRANCH  24  30
BRANCH  25  33
ATOM     33  O   UNL     1     103.477  84.746  13.436  1.00  0.00    -0.388 OA
ATOM     34  H   UNL     1     104.234  84.128  13.604  1.00  0.00     0.211 HD
ENDBRANCH  25  33
ENDBRANCH  11  20
BRANCH  10  35
ATOM     35  O   UNL     1     103.593  81.482  15.394  1.00  0.00    -0.507 OA
ATOM     36  H   UNL     1     103.382  82.235  14.754  1.00  0.00     0.293 HD
ENDBRANCH  10  35
TORSDOF 9
ENDMDL
MODEL 3
REMARK VINA RESULT:    -5.325      1.199      1.290
REMARK INTER + INTRA:          -8.430
REMARK INTER:                  -7.349
REMARK INTRA:                  -1.081
REMARK UNBOUND:                -1.237
REMARK SMILES O=c1c(-c2ccc(O)cc2)coc2c([C@H]3O[C@@H](CO)[C@@H](O)[C@H](O)[C@@H]3O)c(O)ccc12
REMARK SMILES IDX 3 1 11 2 12 3 13 4 30 5 2 6 1 7 29 8 28 9 26 10 14 11 4 12
REMARK SMILES IDX 5 13 6 14 7 15 10 16 9 17 8 18 15 20 24 21 16 22 22 23 17 24
REMARK SMILES IDX 20 25 25 26 23 28 18 30 19 31 21 33 27 35
REMARK H PARENT 8 19 25 27 23 29 19 32 21 34 27 36
REMARK Flexibility Score: inf
ROOT
ATOM      1  C   UNL     1     104.082  82.643  22.117  1.00  0.00     0.065 A 
ATOM      2  C   UNL     1     104.534  83.799  21.471  1.00  0.00     0.208 A 
ATOM      3  O   UNL     1     104.869  83.775  20.187  1.00  0.00    -0.463 OA
ATOM      4  C   UNL     1     104.811  82.677  19.435  1.00  0.00     0.147 A 
ATOM      5  C   UNL     1     104.375  81.463  20.014  1.00  0.00     0.066 A 
ATOM      6  C   UNL     1     104.007  81.454  21.372  1.00  0.00     0.200 A 
ATOM      7  O   UNL     1     103.641  80.380  21.926  1.00  0.00    -0.288 OA
ATOM      8  C   UNL     1     104.343  80.297  19.237  1.00  0.00     0.020 A 
ATOM      9  C   UNL     1     104.764  80.327  17.912  1.00  0.00     0.047 A 
ATOM     10  C   UNL     1     105.210  81.514  17.320  1.00  0.00     0.125 A 
ATOM     11  C   UNL     1     105.196  82.727  18.067  1.00  0.00     0.069 A 
ENDROOT
BRANCH   1  12
ATOM     12  C   UNL     1     103.731  82.679  23.558  1.00  0.00    -0.011 A 
ATOM     13  C   UNL     1     104.735  82.588  24.537  1.00  0.00     0.013 A 
ATOM     14  C   UNL     1     104.410  82.692  25.894  1.00  0.00     0.047 A 
ATOM     15  C   UNL     1     103.076  82.876  26.287  1.00  0.00     0.115 A 
ATOM     16  C   UNL     1     102.392  82.831  23.959  1.00  0.00     0.013 A 
ATOM     17  C   UNL     1     102.069  82.930  25.317  1.00  0.00     0.047 A 
BRANCH  15  18
ATOM     18  O   UNL     1     102.743  83.016  27.635  1.00  0.00    -0.508 OA
ATOM     19  H   UNL     1     101.785  82.963  27.951  1.00  0.00     0.293 HD
ENDBRANCH  15  18
ENDBRANCH   1  12
BRANCH  11  20
ATOM     20  C   UNL     1     105.677  84.052  17.480  1.00  0.00     0.188 C 
ATOM     21  C   UNL     1     104.657  84.559  16.424  1.00  0.00     0.179 C 
ATOM     22  O   UNL     1     106.959  83.859  16.898  1.00  0.00    -0.362 OA
ATOM     23  C   UNL     1     105.176  85.828  15.713  1.00  0.00     0.177 C 
ATOM     24  C   UNL     1     107.480  85.079  16.397  1.00  0.00     0.176 C 
ATOM     25  C   UNL     1     106.615  85.593  15.223  1.00  0.00     0.177 C 
BRANCH  21  26
ATOM     26  O   UNL     1     103.385  84.777  16.986  1.00  0.00    -0.387 OA
ATOM     27  H   UNL     1     103.504  85.298  17.822  1.00  0.00     0.211 HD
ENDBRANCH  21  26
BRANCH  23  28
ATOM     28  O   UNL     1     105.162  86.932  16.587  1.00  0.00    -0.387 OA
ATOM     29  H   UNL     1     106.104  87.155  16.798  1.00  0.00     0.211 HD
ENDBRANCH  23  28
BRANCH  24  30
ATOM     30  C   UNL     1     108.932  84.858  15.957  1.00  0.00     0.191 C 
BRANCH  30  31
ATOM     31  O   UNL     1     109.331  83.556  16.287  1.00  0.00    -0.394 OA
ATOM     32  H   UNL     1     110.044  83.309  15.641  1.00  0.00     0.210 HD
ENDBRANCH  30  31
ENDBRANCH  24  30
BRANCH  25  33
ATOM     33  O   UNL     1     106.605  84.640  14.187  1.00  0.00    -0.388 OA
ATOM     34  H   UNL     1     105.897  83.979  14.397  1.00  0.00     0.211 HD
ENDBRANCH  25  33
ENDBRANCH  11  20
BRANCH  10  35
ATOM     35  O   UNL     1     105.667  81.420  16.005  1.00  0.00    -0.507 OA
ATOM     36  H   UNL     1     105.089  81.252  15.193  1.00  0.00     0.293 HD
ENDBRANCH  10  35
TORSDOF 9
ENDMDL
MODEL 4
REMARK VINA RESULT:    -5.174      3.661      9.113
REMARK INTER + INTRA:          -8.225
REMARK INTER:                  -7.237
REMARK INTRA:                  -0.988
REMARK UNBOUND:                -1.237
REMARK SMILES O=c1c(-c2ccc(O)cc2)coc2c([C@H]3O[C@@H](CO)[C@@H](O)[C@H](O)[C@@H]3O)c(O)ccc12
REMARK SMILES IDX 3 1 11 2 12 3 13 4 30 5 2 6 1 7 29 8 28 9 26 10 14 11 4 12
REMARK SMILES IDX 5 13 6 14 7 15 10 16 9 17 8 18 15 20 24 21 16 22 22 23 17 24
REMARK SMILES IDX 20 25 25 26 23 28 18 30 19 31 21 33 27 35
REMARK H PARENT 8 19 25 27 23 29 19 32 21 34 27 36
REMARK Flexibility Score: inf
ROOT
ATOM      1  C   UNL     1     109.156  86.707  16.137  1.00  0.00     0.065 A 
ATOM      2  C   UNL     1     108.878  85.335  16.148  1.00  0.00     0.208 A 
ATOM      3  O   UNL     1     107.684  84.885  16.513  1.00  0.00    -0.463 OA
ATOM      4  C   UNL     1     106.686  85.682  16.894  1.00  0.00     0.147 A 
ATOM      5  C   UNL     1     106.888  87.081  16.922  1.00  0.00     0.066 A 
ATOM      6  C   UNL     1     108.141  87.591  16.537  1.00  0.00     0.200 A 
ATOM      7  O   UNL     1     108.362  88.834  16.578  1.00  0.00    -0.288 OA
ATOM      8  C   UNL     1     105.853  87.922  17.354  1.00  0.00     0.020 A 
ATOM      9  C   UNL     1     104.644  87.382  17.780  1.00  0.00     0.047 A 
ATOM     10  C   UNL     1     104.425  86.000  17.772  1.00  0.00     0.125 A 
ATOM     11  C   UNL     1     105.436  85.124  17.281  1.00  0.00     0.069 A 
ENDROOT
BRANCH   1  12
ATOM     12  C   UNL     1     110.502  87.194  15.748  1.00  0.00    -0.011 A 
ATOM     13  C   UNL     1     111.214  88.065  16.591  1.00  0.00     0.013 A 
ATOM     14  C   UNL     1     112.511  88.469  16.254  1.00  0.00     0.047 A 
ATOM     15  C   UNL     1     113.106  88.016  15.067  1.00  0.00     0.115 A 
ATOM     16  C   UNL     1     111.090  86.769  14.543  1.00  0.00     0.013 A 
ATOM     17  C   UNL     1     112.386  87.178  14.208  1.00  0.00     0.047 A 
BRANCH  15  18
ATOM     18  O   UNL     1     114.411  88.383  14.739  1.00  0.00    -0.508 OA
ATOM     19  H   UNL     1     115.139  88.432  15.438  1.00  0.00     0.293 HD
ENDBRANCH  15  18
ENDBRANCH   1  12
BRANCH  11  20
ATOM     20  C   UNL     1     105.260  83.608  17.254  1.00  0.00     0.188 C 
ATOM     21  C   UNL     1     104.597  83.181  15.915  1.00  0.00     0.179 C 
ATOM     22  O   UNL     1     104.463  83.217  18.363  1.00  0.00    -0.362 OA
ATOM     23  C   UNL     1     104.281  81.669  15.908  1.00  0.00     0.177 C 
ATOM     24  C   UNL     1     104.325  81.807  18.421  1.00  0.00     0.176 C 
ATOM     25  C   UNL     1     103.532  81.292  17.197  1.00  0.00     0.177 C 
BRANCH  21  26
ATOM     26  O   UNL     1     105.382  83.541  14.803  1.00  0.00    -0.387 OA
ATOM     27  H   UNL     1     105.607  82.712  14.306  1.00  0.00     0.211 HD
ENDBRANCH  21  26
BRANCH  23  28
ATOM     28  O   UNL     1     105.465  80.912  15.824  1.00  0.00    -0.387 OA
ATOM     29  H   UNL     1     106.158  81.387  16.350  1.00  0.00     0.211 HD
ENDBRANCH  23  28
BRANCH  24  30
ATOM     30  C   UNL     1     103.625  81.427  19.731  1.00  0.00     0.191 C 
BRANCH  30  31
ATOM     31  O   UNL     1     102.674  82.404  20.057  1.00  0.00    -0.394 OA
ATOM     32  H   UNL     1     103.164  83.122  20.538  1.00  0.00     0.210 HD
ENDBRANCH  30  31
ENDBRANCH  24  30
BRANCH  25  33
ATOM     33  O   UNL     1     102.252  81.877  17.180  1.00  0.00    -0.388 OA
ATOM     34  H   UNL     1     102.300  82.716  17.705  1.00  0.00     0.211 HD
ENDBRANCH  25  33
ENDBRANCH  11  20
BRANCH  10  35
ATOM     35  O   UNL     1     103.200  85.561  18.277  1.00  0.00    -0.507 OA
ATOM     36  H   UNL     1     102.627  84.832  17.875  1.00  0.00     0.293 HD
ENDBRANCH  10  35
TORSDOF 9
ENDMDL
MODEL 5
REMARK VINA RESULT:    -4.984      2.701      4.806
REMARK INTER + INTRA:          -7.969
REMARK INTER:                  -6.722
REMARK INTRA:                  -1.248
REMARK UNBOUND:                -1.237
REMARK SMILES O=c1c(-c2ccc(O)cc2)coc2c([C@H]3O[C@@H](CO)[C@@H](O)[C@H](O)[C@@H]3O)c(O)ccc12
REMARK SMILES IDX 3 1 11 2 12 3 13 4 30 5 2 6 1 7 29 8 28 9 26 10 14 11 4 12
REMARK SMILES IDX 5 13 6 14 7 15 10 16 9 17 8 18 15 20 24 21 16 22 22 23 17 24
REMARK SMILES IDX 20 25 25 26 23 28 18 30 19 31 21 33 27 35
REMARK H PARENT 8 19 25 27 23 29 19 32 21 34 27 36
REMARK Flexibility Score: inf
ROOT
ATOM      1  C   UNL     1     104.020  84.833  21.155  1.00  0.00     0.065 A 
ATOM      2  C   UNL     1     104.518  84.235  19.992  1.00  0.00     0.208 A 
ATOM      3  O   UNL     1     104.752  84.956  18.902  1.00  0.00    -0.463 OA
ATOM      4  C   UNL     1     104.530  86.268  18.830  1.00  0.00     0.147 A 
ATOM      5  C   UNL     1     104.016  86.947  19.959  1.00  0.00     0.066 A 
ATOM      6  C   UNL     1     103.760  86.213  21.131  1.00  0.00     0.200 A 
ATOM      7  O   UNL     1     103.275  86.784  22.147  1.00  0.00    -0.288 OA
ATOM      8  C   UNL     1     103.748  88.320  19.878  1.00  0.00     0.020 A 
ATOM      9  C   UNL     1     103.960  89.006  18.687  1.00  0.00     0.047 A 
ATOM     10  C   UNL     1     104.458  88.353  17.554  1.00  0.00     0.125 A 
ATOM     11  C   UNL     1     104.796  86.971  17.623  1.00  0.00     0.069 A 
ENDROOT
BRANCH   1  12
ATOM     12  C   UNL     1     103.742  84.011  22.358  1.00  0.00    -0.011 A 
ATOM     13  C   UNL     1     102.452  83.506  22.593  1.00  0.00     0.013 A 
ATOM     14  C   UNL     1     102.208  82.675  23.692  1.00  0.00     0.047 A 
ATOM     15  C   UNL     1     103.248  82.348  24.574  1.00  0.00     0.115 A 
ATOM     16  C   UNL     1     104.775  83.707  23.264  1.00  0.00     0.013 A 
ATOM     17  C   UNL     1     104.527  82.878  24.364  1.00  0.00     0.047 A 
BRANCH  15  18
ATOM     18  O   UNL     1     103.026  81.492  25.653  1.00  0.00    -0.508 OA
ATOM     19  H   UNL     1     102.990  81.835  26.603  1.00  0.00     0.293 HD
ENDBRANCH  15  18
ENDBRANCH   1  12
BRANCH  11  20
ATOM     20  C   UNL     1     105.336  86.202  16.420  1.00  0.00     0.188 C 
ATOM     21  C   UNL     1     106.801  86.633  16.136  1.00  0.00     0.179 C 
ATOM     22  O   UNL     1     104.503  86.460  15.298  1.00  0.00    -0.362 OA
ATOM     23  C   UNL     1     107.335  85.974  14.845  1.00  0.00     0.177 C 
ATOM     24  C   UNL     1     104.925  85.714  14.168  1.00  0.00     0.176 C 
ATOM     25  C   UNL     1     106.324  86.180  13.704  1.00  0.00     0.177 C 
BRANCH  21  26
ATOM     26  O   UNL     1     107.647  86.365  17.229  1.00  0.00    -0.387 OA
ATOM     27  H   UNL     1     107.175  85.738  17.836  1.00  0.00     0.211 HD
ENDBRANCH  21  26
BRANCH  23  28
ATOM     28  O   UNL     1     107.539  84.594  15.036  1.00  0.00    -0.387 OA
ATOM     29  H   UNL     1     106.650  84.157  15.014  1.00  0.00     0.211 HD
ENDBRANCH  23  28
BRANCH  24  30
ATOM     30  C   UNL     1     103.890  85.876  13.048  1.00  0.00     0.191 C 
BRANCH  30  31
ATOM     31  O   UNL     1     104.530  85.808  11.803  1.00  0.00    -0.394 OA
ATOM     32  H   UNL     1     105.505  85.787  11.991  1.00  0.00     0.210 HD
ENDBRANCH  30  31
ENDBRANCH  24  30
BRANCH  25  33
ATOM     33  O   UNL     1     106.281  87.544  13.361  1.00  0.00    -0.388 OA
ATOM     34  H   UNL     1     105.960  88.042  14.156  1.00  0.00     0.211 HD
ENDBRANCH  25  33
ENDBRANCH  11  20
BRANCH  10  35
ATOM     35  O   UNL     1     104.575  89.122  16.395  1.00  0.00    -0.507 OA
ATOM     36  H   UNL     1     104.028  89.943  16.177  1.00  0.00     0.293 HD
ENDBRANCH  10  35
TORSDOF 9
ENDMDL
MODEL 6
REMARK VINA RESULT:    -4.927     10.533     14.494
REMARK INTER + INTRA:          -7.892
REMARK INTER:                  -6.909
REMARK INTRA:                  -0.983
REMARK UNBOUND:                -1.237
REMARK SMILES O=c1c(-c2ccc(O)cc2)coc2c([C@H]3O[C@@H](CO)[C@@H](O)[C@H](O)[C@@H]3O)c(O)ccc12
REMARK SMILES IDX 3 1 11 2 12 3 13 4 30 5 2 6 1 7 29 8 28 9 26 10 14 11 4 12
REMARK SMILES IDX 5 13 6 14 7 15 10 16 9 17 8 18 15 20 24 21 16 22 22 23 17 24
REMARK SMILES IDX 20 25 25 26 23 28 18 30 19 31 21 33 27 35
REMARK H PARENT 8 19 25 27 23 29 19 32 21 34 27 36
REMARK Flexibility Score: inf
ROOT
ATOM      1  C   UNL     1     112.193  91.677  17.529  1.00  0.00     0.065 A 
ATOM      2  C   UNL     1     111.048  92.007  18.263  1.00  0.00     0.208 A 
ATOM      3  O   UNL     1     111.122  92.816  19.312  1.00  0.00    -0.463 OA
ATOM      4  C   UNL     1     112.261  93.358  19.742  1.00  0.00     0.147 A 
ATOM      5  C   UNL     1     113.466  93.066  19.062  1.00  0.00     0.066 A 
ATOM      6  C   UNL     1     113.423  92.215  17.943  1.00  0.00     0.200 A 
ATOM      7  O   UNL     1     114.486  91.912  17.331  1.00  0.00    -0.288 OA
ATOM      8  C   UNL     1     114.673  93.605  19.529  1.00  0.00     0.020 A 
ATOM      9  C   UNL     1     114.689  94.400  20.670  1.00  0.00     0.047 A 
ATOM     10  C   UNL     1     113.511  94.693  21.366  1.00  0.00     0.125 A 
ATOM     11  C   UNL     1     112.262  94.209  20.880  1.00  0.00     0.069 A 
ENDROOT
BRANCH   1  12
ATOM     12  C   UNL     1     112.100  90.754  16.372  1.00  0.00    -0.011 A 
ATOM     13  C   UNL     1     112.273  89.370  16.550  1.00  0.00     0.013 A 
ATOM     14  C   UNL     1     112.117  88.494  15.470  1.00  0.00     0.047 A 
ATOM     15  C   UNL     1     111.797  88.992  14.198  1.00  0.00     0.115 A 
ATOM     16  C   UNL     1     111.811  91.250  15.088  1.00  0.00     0.013 A 
ATOM     17  C   UNL     1     111.659  90.372  14.009  1.00  0.00     0.047 A 
BRANCH  15  18
ATOM     18  O   UNL     1     111.603  88.127  13.121  1.00  0.00    -0.508 OA
ATOM     19  H   UNL     1     111.947  87.177  13.137  1.00  0.00     0.293 HD
ENDBRANCH  15  18
ENDBRANCH   1  12
BRANCH  11  20
ATOM     20  C   UNL     1     110.944  94.488  21.599  1.00  0.00     0.188 C 
ATOM     21  C   UNL     1     110.756  96.020  21.772  1.00  0.00     0.179 C 
ATOM     22  O   UNL     1     110.959  93.833  22.859  1.00  0.00    -0.362 OA
ATOM     23  C   UNL     1     109.499  96.336  22.612  1.00  0.00     0.177 C 
ATOM     24  C   UNL     1     109.727  94.007  23.539  1.00  0.00     0.176 C 
ATOM     25  C   UNL     1     109.515  95.495  23.900  1.00  0.00     0.177 C 
BRANCH  21  26
ATOM     26  O   UNL     1     110.717  96.687  20.532  1.00  0.00    -0.387 OA
ATOM     27  H   UNL     1     110.219  96.116  19.892  1.00  0.00     0.211 HD
ENDBRANCH  21  26
BRANCH  23  28
ATOM     28  O   UNL     1     108.327  96.046  21.888  1.00  0.00    -0.387 OA
ATOM     29  H   UNL     1     107.572  96.484  22.357  1.00  0.00     0.211 HD
ENDBRANCH  23  28
BRANCH  24  30
ATOM     30  C   UNL     1     109.721  93.128  24.795  1.00  0.00     0.191 C 
BRANCH  30  31
ATOM     31  O   UNL     1     110.896  93.347  25.527  1.00  0.00    -0.394 OA
ATOM     32  H   UNL     1     111.644  93.302  24.875  1.00  0.00     0.210 HD
ENDBRANCH  30  31
ENDBRANCH  24  30
BRANCH  25  33
ATOM     33  O   UNL     1     110.562  95.936  24.731  1.00  0.00    -0.388 OA
ATOM     34  H   UNL     1     111.230  95.205  24.782  1.00  0.00     0.211 HD
ENDBRANCH  25  33
ENDBRANCH  11  20
BRANCH  10  35
ATOM     35  O   UNL     1     113.648  95.448  22.532  1.00  0.00    -0.507 OA
ATOM     36  H   UNL     1     113.911  96.423  22.572  1.00  0.00     0.293 HD
ENDBRANCH  10  35
TORSDOF 9
ENDMDL
MODEL 7
REMARK VINA RESULT:    -4.747     10.427     12.734
REMARK INTER + INTRA:          -7.649
REMARK INTER:                  -6.664
REMARK INTRA:                  -0.985
REMARK UNBOUND:                -1.237
REMARK SMILES O=c1c(-c2ccc(O)cc2)coc2c([C@H]3O[C@@H](CO)[C@@H](O)[C@H](O)[C@@H]3O)c(O)ccc12
REMARK SMILES IDX 3 1 11 2 12 3 13 4 30 5 2 6 1 7 29 8 28 9 26 10 14 11 4 12
REMARK SMILES IDX 5 13 6 14 7 15 10 16 9 17 8 18 15 20 24 21 16 22 22 23 17 24
REMARK SMILES IDX 20 25 25 26 23 28 18 30 19 31 21 33 27 35
REMARK H PARENT 8 19 25 27 23 29 19 32 21 34 27 36
REMARK Flexibility Score: inf
ROOT
ATOM      1  C   UNL     1     113.865  89.079  16.155  1.00  0.00     0.065 A 
ATOM      2  C   UNL     1     114.982  88.513  15.530  1.00  0.00     0.208 A 
ATOM      3  O   UNL     1     114.846  87.511  14.669  1.00  0.00    -0.463 OA
ATOM      4  C   UNL     1     113.669  86.978  14.346  1.00  0.00     0.147 A 
ATOM      5  C   UNL     1     112.491  87.485  14.941  1.00  0.00     0.066 A 
ATOM      6  C   UNL     1     112.599  88.549  15.855  1.00  0.00     0.200 A 
ATOM      7  O   UNL     1     111.570  89.007  16.426  1.00  0.00    -0.288 OA
ATOM      8  C   UNL     1     111.253  86.906  14.632  1.00  0.00     0.020 A 
ATOM      9  C   UNL     1     111.185  85.820  13.765  1.00  0.00     0.047 A 
ATOM     10  C   UNL     1     112.338  85.294  13.173  1.00  0.00     0.125 A 
ATOM     11  C   UNL     1     113.603  85.900  13.421  1.00  0.00     0.069 A 
ENDROOT
BRANCH   1  12
ATOM     12  C   UNL     1     114.034  90.183  17.131  1.00  0.00    -0.011 A 
ATOM     13  C   UNL     1     113.728  91.506  16.769  1.00  0.00     0.013 A 
ATOM     14  C   UNL     1     113.823  92.535  17.712  1.00  0.00     0.047 A 
ATOM     15  C   UNL     1     114.234  92.256  19.024  1.00  0.00     0.115 A 
ATOM     16  C   UNL     1     114.478  89.913  18.438  1.00  0.00     0.013 A 
ATOM     17  C   UNL     1     114.575  90.945  19.378  1.00  0.00     0.047 A 
BRANCH  15  18
ATOM     18  O   UNL     1     114.298  93.267  19.982  1.00  0.00    -0.508 OA
ATOM     19  H   UNL     1     115.174  93.540  20.406  1.00  0.00     0.293 HD
ENDBRANCH  15  18
ENDBRANCH   1  12
BRANCH  11  20
ATOM     20  C   UNL     1     114.897  85.367  12.811  1.00  0.00     0.188 C 
ATOM     21  C   UNL     1     114.922  85.670  11.288  1.00  0.00     0.179 C 
ATOM     22  O   UNL     1     114.979  83.969  13.052  1.00  0.00    -0.362 OA
ATOM     23  C   UNL     1     116.154  85.029  10.612  1.00  0.00     0.177 C 
ATOM     24  C   UNL     1     116.198  83.437  12.561  1.00  0.00     0.176 C 
ATOM     25  C   UNL     1     116.254  83.549  11.020  1.00  0.00     0.177 C 
BRANCH  21  26
ATOM     26  O   UNL     1     114.864  87.053  11.028  1.00  0.00    -0.387 OA
ATOM     27  H   UNL     1     115.419  87.517  11.708  1.00  0.00     0.211 HD
ENDBRANCH  21  26
BRANCH  23  28
ATOM     28  O   UNL     1     117.336  85.693  10.993  1.00  0.00    -0.387 OA
ATOM     29  H   UNL     1     118.072  85.029  10.962  1.00  0.00     0.211 HD
ENDBRANCH  23  28
BRANCH  24  30
ATOM     30  C   UNL     1     116.323  81.977  13.013  1.00  0.00     0.191 C 
BRANCH  30  31
ATOM     31  O   UNL     1     117.650  81.708  13.374  1.00  0.00    -0.394 OA
ATOM     32  H   UNL     1     117.784  82.114  14.271  1.00  0.00     0.210 HD
ENDBRANCH  30  31
ENDBRANCH  24  30
BRANCH  25  33
ATOM     33  O   UNL     1     115.183  82.836  10.452  1.00  0.00    -0.388 OA
ATOM     34  H   UNL     1     115.566  82.080   9.938  1.00  0.00     0.211 HD
ENDBRANCH  25  33
ENDBRANCH  11  20
BRANCH  10  35
ATOM     35  O   UNL     1     112.165  84.166  12.368  1.00  0.00    -0.507 OA
ATOM     36  H   UNL     1     111.880  84.175  11.399  1.00  0.00     0.293 HD
ENDBRANCH  10  35
TORSDOF 9
ENDMDL
MODEL 8
REMARK VINA RESULT:    -4.740      4.416      9.099
REMARK INTER + INTRA:          -7.639
REMARK INTER:                  -6.355
REMARK INTRA:                  -1.284
REMARK UNBOUND:                -1.237
REMARK SMILES O=c1c(-c2ccc(O)cc2)coc2c([C@H]3O[C@@H](CO)[C@@H](O)[C@H](O)[C@@H]3O)c(O)ccc12
REMARK SMILES IDX 3 1 11 2 12 3 13 4 30 5 2 6 1 7 29 8 28 9 26 10 14 11 4 12
REMARK SMILES IDX 5 13 6 14 7 15 10 16 9 17 8 18 15 20 24 21 16 22 22 23 17 24
REMARK SMILES IDX 20 25 25 26 23 28 18 30 19 31 21 33 27 35
REMARK H PARENT 8 19 25 27 23 29 19 32 21 34 27 36
REMARK Flexibility Score: inf
ROOT
ATOM      1  C   UNL     1     108.742  87.662  16.186  1.00  0.00     0.065 A 
ATOM      2  C   UNL     1     108.196  86.909  17.231  1.00  0.00     0.208 A 
ATOM      3  O   UNL     1     107.095  86.188  17.048  1.00  0.00    -0.463 OA
ATOM      4  C   UNL     1     106.440  86.133  15.889  1.00  0.00     0.147 A 
ATOM      5  C   UNL     1     106.920  86.875  14.785  1.00  0.00     0.066 A 
ATOM      6  C   UNL     1     108.086  87.646  14.944  1.00  0.00     0.200 A 
ATOM      7  O   UNL     1     108.525  88.341  13.986  1.00  0.00    -0.288 OA
ATOM      8  C   UNL     1     106.216  86.848  13.574  1.00  0.00     0.020 A 
ATOM      9  C   UNL     1     105.037  86.118  13.465  1.00  0.00     0.047 A 
ATOM     10  C   UNL     1     104.536  85.386  14.547  1.00  0.00     0.125 A 
ATOM     11  C   UNL     1     105.262  85.346  15.773  1.00  0.00     0.069 A 
ENDROOT
BRANCH   1  12
ATOM     12  C   UNL     1     109.959  88.480  16.410  1.00  0.00    -0.011 A 
ATOM     13  C   UNL     1     111.232  87.949  16.142  1.00  0.00     0.013 A 
ATOM     14  C   UNL     1     112.374  88.744  16.289  1.00  0.00     0.047 A 
ATOM     15  C   UNL     1     112.257  90.074  16.717  1.00  0.00     0.115 A 
ATOM     16  C   UNL     1     109.850  89.804  16.871  1.00  0.00     0.013 A 
ATOM     17  C   UNL     1     110.994  90.596  17.020  1.00  0.00     0.047 A 
BRANCH  15  18
ATOM     18  O   UNL     1     113.384  90.888  16.833  1.00  0.00    -0.508 OA
ATOM     19  H   UNL     1     113.640  91.545  16.108  1.00  0.00     0.293 HD
ENDBRANCH  15  18
ENDBRANCH   1  12
BRANCH  11  20
ATOM     20  C   UNL     1     104.763  84.572  16.990  1.00  0.00     0.188 C 
ATOM     21  C   UNL     1     104.989  83.050  16.773  1.00  0.00     0.179 C 
ATOM     22  O   UNL     1     103.386  84.859  17.187  1.00  0.00    -0.362 OA
ATOM     23  C   UNL     1     104.375  82.226  17.926  1.00  0.00     0.177 C 
ATOM     24  C   UNL     1     102.891  84.214  18.349  1.00  0.00     0.176 C 
ATOM     25  C   UNL     1     102.926  82.679  18.170  1.00  0.00     0.177 C 
BRANCH  21  26
ATOM     26  O   UNL     1     106.351  82.741  16.598  1.00  0.00    -0.387 OA
ATOM     27  H   UNL     1     106.635  83.094  15.714  1.00  0.00     0.211 HD
ENDBRANCH  21  26
BRANCH  23  28
ATOM     28  O   UNL     1     105.117  82.395  19.111  1.00  0.00    -0.387 OA
ATOM     29  H   UNL     1     104.511  82.800  19.784  1.00  0.00     0.211 HD
ENDBRANCH  23  28
BRANCH  24  30
ATOM     30  C   UNL     1     101.465  84.705  18.623  1.00  0.00     0.191 C 
BRANCH  30  31
ATOM     31  O   UNL     1     100.739  84.736  17.424  1.00  0.00    -0.394 OA
ATOM     32  H   UNL     1      99.944  85.306  17.593  1.00  0.00     0.210 HD
ENDBRANCH  30  31
ENDBRANCH  24  30
BRANCH  25  33
ATOM     33  O   UNL     1     102.131  82.310  17.069  1.00  0.00    -0.388 OA
ATOM     34  H   UNL     1     101.450  83.019  16.942  1.00  0.00     0.211 HD
ENDBRANCH  25  33
ENDBRANCH  11  20
BRANCH  10  35
ATOM     35  O   UNL     1     103.314  84.740  14.349  1.00  0.00    -0.507 OA
ATOM     36  H   UNL     1     102.405  85.179  14.395  1.00  0.00     0.293 HD
ENDBRANCH  10  35
TORSDOF 9
ENDMDL
MODEL 9
REMARK VINA RESULT:    -4.631      4.203      7.907
REMARK INTER + INTRA:          -7.493
REMARK INTER:                  -6.193
REMARK INTRA:                  -1.300
REMARK UNBOUND:                -1.237
REMARK SMILES O=c1c(-c2ccc(O)cc2)coc2c([C@H]3O[C@@H](CO)[C@@H](O)[C@H](O)[C@@H]3O)c(O)ccc12
REMARK SMILES IDX 3 1 11 2 12 3 13 4 30 5 2 6 1 7 29 8 28 9 26 10 14 11 4 12
REMARK SMILES IDX 5 13 6 14 7 15 10 16 9 17 8 18 15 20 24 21 16 22 22 23 17 24
REMARK SMILES IDX 20 25 25 26 23 28 18 30 19 31 21 33 27 35
REMARK H PARENT 8 19 25 27 23 29 19 32 21 34 27 36
REMARK Flexibility Score: inf
ROOT
ATOM      1  C   UNL     1     106.145  88.758  18.437  1.00  0.00     0.065 A 
ATOM      2  C   UNL     1     106.540  87.588  17.778  1.00  0.00     0.208 A 
ATOM      3  O   UNL     1     105.757  86.515  17.770  1.00  0.00    -0.463 OA
ATOM      4  C   UNL     1     104.572  86.467  18.376  1.00  0.00     0.147 A 
ATOM      5  C   UNL     1     104.105  87.604  19.075  1.00  0.00     0.066 A 
ATOM      6  C   UNL     1     104.907  88.760  19.100  1.00  0.00     0.200 A 
ATOM      7  O   UNL     1     104.531  89.782  19.738  1.00  0.00    -0.288 OA
ATOM      8  C   UNL     1     102.874  87.549  19.743  1.00  0.00     0.020 A 
ATOM      9  C   UNL     1     102.130  86.374  19.744  1.00  0.00     0.047 A 
ATOM     10  C   UNL     1     102.578  85.233  19.070  1.00  0.00     0.125 A 
ATOM     11  C   UNL     1     103.795  85.278  18.331  1.00  0.00     0.069 A 
ENDROOT
BRANCH   1  12
ATOM     12  C   UNL     1     107.038  89.942  18.457  1.00  0.00    -0.011 A 
ATOM     13  C   UNL     1     108.039  90.062  19.437  1.00  0.00     0.013 A 
ATOM     14  C   UNL     1     108.924  91.145  19.414  1.00  0.00     0.047 A 
ATOM     15  C   UNL     1     108.813  92.126  18.417  1.00  0.00     0.115 A 
ATOM     16  C   UNL     1     106.911  90.945  17.480  1.00  0.00     0.013 A 
ATOM     17  C   UNL     1     107.796  92.029  17.461  1.00  0.00     0.047 A 
BRANCH  15  18
ATOM     18  O   UNL     1     109.712  93.191  18.361  1.00  0.00    -0.508 OA
ATOM     19  H   UNL     1     109.525  94.012  17.802  1.00  0.00     0.293 HD
ENDBRANCH  15  18
ENDBRANCH   1  12
BRANCH  11  20
ATOM     20  C   UNL     1     104.339  84.064  17.582  1.00  0.00     0.188 C 
ATOM     21  C   UNL     1     103.529  83.849  16.274  1.00  0.00     0.179 C 
ATOM     22  O   UNL     1     104.253  82.925  18.426  1.00  0.00    -0.362 OA
ATOM     23  C   UNL     1     103.964  82.552  15.556  1.00  0.00     0.177 C 
ATOM     24  C   UNL     1     104.809  81.781  17.798  1.00  0.00     0.176 C 
ATOM     25  C   UNL     1     103.974  81.386  16.559  1.00  0.00     0.177 C 
BRANCH  21  26
ATOM     26  O   UNL     1     103.620  84.959  15.412  1.00  0.00    -0.387 OA
ATOM     27  H   UNL     1     104.580  85.133  15.235  1.00  0.00     0.211 HD
ENDBRANCH  21  26
BRANCH  23  28
ATOM     28  O   UNL     1     105.251  82.694  15.003  1.00  0.00    -0.387 OA
ATOM     29  H   UNL     1     105.150  83.157  14.132  1.00  0.00     0.211 HD
ENDBRANCH  23  28
BRANCH  24  30
ATOM     30  C   UNL     1     104.868  80.633  18.813  1.00  0.00     0.191 C 
BRANCH  30  31
ATOM     31  O   UNL     1     103.790  80.737  19.703  1.00  0.00    -0.394 OA
ATOM     32  H   UNL     1     104.110  81.287  20.467  1.00  0.00     0.210 HD
ENDBRANCH  30  31
ENDBRANCH  24  30
BRANCH  25  33
ATOM     33  O   UNL     1     102.653  81.096  16.949  1.00  0.00    -0.388 OA
ATOM     34  H   UNL     1     102.047  81.542  16.304  1.00  0.00     0.211 HD
ENDBRANCH  25  33
ENDBRANCH  11  20
BRANCH  10  35
ATOM     35  O   UNL     1     101.784  84.090  19.186  1.00  0.00    -0.507 OA
ATOM     36  H   UNL     1     101.512  83.651  20.055  1.00  0.00     0.293 HD
ENDBRANCH  10  35
TORSDOF 9
ENDMDL
