MODEL 1
REMARK VINA RESULT:    -3.804      0.000      0.000
REMARK INTER + INTRA:          -4.749
REMARK INTER:                  -4.693
REMARK INTRA:                  -0.056
REMARK UNBOUND:                -0.056
REMARK SMILES CCCCCC(C)=O
REMARK SMILES IDX 4 1 3 2 2 3 1 4 5 5 6 6 8 7 7 8
REMARK H PARENT
REMARK Flexibility Score: inf
ROOT
ATOM      1  C   UNL     1      25.594  56.933  -9.348  1.00  0.00     0.008 C 
ENDROOT
BRANCH   1   2
ATOM      2  C   UNL     1      25.922  58.421  -9.551  1.00  0.00     0.000 C 
BRANCH   2   3
ATOM      3  C   UNL     1      27.112  58.640 -10.496  1.00  0.00    -0.003 C 
ATOM      4  C   UNL     1      27.574  60.094 -10.469  1.00  0.00     0.004 C 
ENDBRANCH   2   3
ENDBRANCH   1   2
BRANCH   1   5
ATOM      5  C   UNL     1      24.214  56.712  -8.713  1.00  0.00     0.075 C 
BRANCH   5   6
ATOM      6  C   UNL     1      24.153  55.371  -8.029  1.00  0.00     0.129 C 
ATOM      7  O   UNL     1      25.160  54.683  -7.966  1.00  0.00    -0.300 OA
ATOM      8  C   UNL     1      22.881  54.864  -7.414  1.00  0.00     0.087 C 
ENDBRANCH   5   6
ENDBRANCH   1   5
TORSDOF 4
ENDMDL
MODEL 2
REMARK VINA RESULT:    -3.578     16.626     18.348
REMARK INTER + INTRA:          -4.470
REMARK INTER:                  -4.214
REMARK INTRA:                  -0.256
REMARK UNBOUND:                -0.056
REMARK SMILES CCCCCC(C)=O
REMARK SMILES IDX 4 1 3 2 2 3 1 4 5 5 6 6 8 7 7 8
REMARK H PARENT
REMARK Flexibility Score: inf
ROOT
ATOM      1  C   UNL     1      17.038  43.497   1.253  1.00  0.00     0.008 C 
ENDROOT
BRANCH   1   2
ATOM      2  C   UNL     1      15.900  44.258   1.951  1.00  0.00     0.000 C 
BRANCH   2   3
ATOM      3  C   UNL     1      15.006  45.021   0.963  1.00  0.00    -0.003 C 
ATOM      4  C   UNL     1      15.739  45.288  -0.348  1.00  0.00     0.004 C 
ENDBRANCH   2   3
ENDBRANCH   1   2
BRANCH   1   5
ATOM      5  C   UNL     1      18.351  43.538   2.047  1.00  0.00     0.075 C 
BRANCH   5   6
ATOM      6  C   UNL     1      19.515  43.826   1.134  1.00  0.00     0.129 C 
ATOM      7  O   UNL     1      20.582  43.263   1.326  1.00  0.00    -0.300 OA
ATOM      8  C   UNL     1      19.391  44.784  -0.014  1.00  0.00     0.087 C 
ENDBRANCH   5   6
ENDBRANCH   1   5
TORSDOF 4
ENDMDL
MODEL 3
REMARK VINA RESULT:    -3.487      2.344      5.272
REMARK INTER + INTRA:          -4.358
REMARK INTER:                  -4.295
REMARK INTRA:                  -0.063
REMARK UNBOUND:                -0.056
REMARK SMILES CCCCCC(C)=O
REMARK SMILES IDX 4 1 3 2 2 3 1 4 5 5 6 6 8 7 7 8
REMARK H PARENT
REMARK Flexibility Score: inf
ROOT
ATOM      1  C   UNL     1      25.617  57.973  -9.409  1.00  0.00     0.008 C 
ENDROOT
BRANCH   1   2
ATOM      2  C   UNL     1      25.479  56.538  -8.875  1.00  0.00     0.000 C 
BRANCH   2   3
ATOM      3  C   UNL     1      24.067  55.968  -9.071  1.00  0.00    -0.003 C 
ATOM      4  C   UNL     1      23.653  55.105  -7.882  1.00  0.00     0.004 C 
ENDBRANCH   2   3
ENDBRANCH   1   2
BRANCH   1   5
ATOM      5  C   UNL     1      26.720  58.106 -10.468  1.00  0.00     0.075 C 
BRANCH   5   6
ATOM      6  C   UNL     1      27.449  59.416 -10.314  1.00  0.00     0.129 C 
ATOM      7  O   UNL     1      26.847  60.391  -9.892  1.00  0.00    -0.300 OA
ATOM      8  C   UNL     1      28.903  59.547 -10.659  1.00  0.00     0.087 C 
ENDBRANCH   5   6
ENDBRANCH   1   5
TORSDOF 4
ENDMDL
MODEL 4
REMARK VINA RESULT:    -3.471     17.013     17.991
REMARK INTER + INTRA:          -4.339
REMARK INTER:                  -4.142
REMARK INTRA:                  -0.197
REMARK UNBOUND:                -0.056
REMARK SMILES CCCCCC(C)=O
REMARK SMILES IDX 4 1 3 2 2 3 1 4 5 5 6 6 8 7 7 8
REMARK H PARENT
REMARK Flexibility Score: inf
ROOT
ATOM      1  C   UNL     1      18.779  44.436  -0.021  1.00  0.00     0.008 C 
ENDROOT
BRANCH   1   2
ATOM      2  C   UNL     1      19.605  44.213   1.256  1.00  0.00     0.000 C 
BRANCH   2   3
ATOM      3  C   UNL     1      19.970  42.738   1.475  1.00  0.00    -0.003 C 
ATOM      4  C   UNL     1      20.925  42.241   0.394  1.00  0.00     0.004 C 
ENDBRANCH   2   3
ENDBRANCH   1   2
BRANCH   1   5
ATOM      5  C   UNL     1      17.466  43.640  -0.022  1.00  0.00     0.075 C 
BRANCH   5   6
ATOM      6  C   UNL     1      16.303  44.533   0.325  1.00  0.00     0.129 C 
ATOM      7  O   UNL     1      15.960  45.404  -0.459  1.00  0.00    -0.300 OA
ATOM      8  C   UNL     1      15.550  44.371   1.612  1.00  0.00     0.087 C 
ENDBRANCH   5   6
ENDBRANCH   1   5
TORSDOF 4
ENDMDL
MODEL 5
REMARK VINA RESULT:    -3.457     16.560     18.801
REMARK INTER + INTRA:          -4.321
REMARK INTER:                  -3.937
REMARK INTRA:                  -0.384
REMARK UNBOUND:                -0.056
REMARK SMILES CCCCCC(C)=O
REMARK SMILES IDX 4 1 3 2 2 3 1 4 5 5 6 6 8 7 7 8
REMARK H PARENT
REMARK Flexibility Score: inf
ROOT
ATOM      1  C   UNL     1      17.389  43.388   1.839  1.00  0.00     0.008 C 
ENDROOT
BRANCH   1   2
ATOM      2  C   UNL     1      17.104  41.981   1.291  1.00  0.00     0.000 C 
BRANCH   2   3
ATOM      3  C   UNL     1      16.709  41.994  -0.193  1.00  0.00    -0.003 C 
ATOM      4  C   UNL     1      17.731  41.244  -1.041  1.00  0.00     0.004 C 
ENDBRANCH   2   3
ENDBRANCH   1   2
BRANCH   1   5
ATOM      5  C   UNL     1      18.869  43.598   2.190  1.00  0.00     0.075 C 
BRANCH   5   6
ATOM      6  C   UNL     1      19.693  43.765   0.940  1.00  0.00     0.129 C 
ATOM      7  O   UNL     1      20.644  43.024   0.744  1.00  0.00    -0.300 OA
ATOM      8  C   UNL     1      19.366  44.818  -0.078  1.00  0.00     0.087 C 
ENDBRANCH   5   6
ENDBRANCH   1   5
TORSDOF 4
ENDMDL
MODEL 6
REMARK VINA RESULT:    -3.413     17.049     18.136
REMARK INTER + INTRA:          -4.266
REMARK INTER:                  -3.989
REMARK INTRA:                  -0.278
REMARK UNBOUND:                -0.056
REMARK SMILES CCCCCC(C)=O
REMARK SMILES IDX 4 1 3 2 2 3 1 4 5 5 6 6 8 7 7 8
REMARK H PARENT
REMARK Flexibility Score: inf
ROOT
ATOM      1  C   UNL     1      17.497  43.956  -0.027  1.00  0.00     0.008 C 
ENDROOT
BRANCH   1   2
ATOM      2  C   UNL     1      18.904  44.574   0.014  1.00  0.00     0.000 C 
BRANCH   2   3
ATOM      3  C   UNL     1      19.730  44.084   1.212  1.00  0.00    -0.003 C 
ATOM      4  C   UNL     1      19.025  42.941   1.936  1.00  0.00     0.004 C 
ENDBRANCH   2   3
ENDBRANCH   1   2
BRANCH   1   5
ATOM      5  C   UNL     1      16.408  44.984  -0.362  1.00  0.00     0.075 C 
BRANCH   5   6
ATOM      6  C   UNL     1      15.374  45.040   0.732  1.00  0.00     0.129 C 
ATOM      7  O   UNL     1      14.400  45.765   0.601  1.00  0.00    -0.300 OA
ATOM      8  C   UNL     1      15.509  44.216   1.979  1.00  0.00     0.087 C 
ENDBRANCH   5   6
ENDBRANCH   1   5
TORSDOF 4
ENDMDL
MODEL 7
REMARK VINA RESULT:    -3.367      6.245      7.638
REMARK INTER + INTRA:          -4.210
REMARK INTER:                  -3.936
REMARK INTRA:                  -0.274
REMARK UNBOUND:                -0.056
REMARK SMILES CCCCCC(C)=O
REMARK SMILES IDX 4 1 3 2 2 3 1 4 5 5 6 6 8 7 7 8
REMARK H PARENT
REMARK Flexibility Score: inf
ROOT
ATOM      1  C   UNL     1      30.335  57.006 -13.326  1.00  0.00     0.008 C 
ENDROOT
BRANCH   1   2
ATOM      2  C   UNL     1      31.525  56.629 -14.222  1.00  0.00     0.000 C 
BRANCH   2   3
ATOM      3  C   UNL     1      32.594  57.729 -14.281  1.00  0.00    -0.003 C 
ATOM      4  C   UNL     1      33.958  57.194 -13.854  1.00  0.00     0.004 C 
ENDBRANCH   2   3
ENDBRANCH   1   2
BRANCH   1   5
ATOM      5  C   UNL     1      30.150  58.525 -13.196  1.00  0.00     0.075 C 
BRANCH   5   6
ATOM      6  C   UNL     1      30.066  58.928 -11.747  1.00  0.00     0.129 C 
ATOM      7  O   UNL     1      28.973  59.001 -11.207  1.00  0.00    -0.300 OA
ATOM      8  C   UNL     1      31.298  59.235 -10.948  1.00  0.00     0.087 C 
ENDBRANCH   5   6
ENDBRANCH   1   5
TORSDOF 4
ENDMDL
MODEL 8
REMARK VINA RESULT:    -3.346      4.981      6.409
REMARK INTER + INTRA:          -4.184
REMARK INTER:                  -4.043
REMARK INTRA:                  -0.142
REMARK UNBOUND:                -0.056
REMARK SMILES CCCCCC(C)=O
REMARK SMILES IDX 4 1 3 2 2 3 1 4 5 5 6 6 8 7 7 8
REMARK H PARENT
REMARK Flexibility Score: inf
ROOT
ATOM      1  C   UNL     1      30.084  58.812 -12.729  1.00  0.00     0.008 C 
ENDROOT
BRANCH   1   2
ATOM      2  C   UNL     1      29.900  57.363 -13.208  1.00  0.00     0.000 C 
BRANCH   2   3
ATOM      3  C   UNL     1      31.227  56.695 -13.595  1.00  0.00    -0.003 C 
ATOM      4  C   UNL     1      32.147  57.676 -14.315  1.00  0.00     0.004 C 
ENDBRANCH   2   3
ENDBRANCH   1   2
BRANCH   1   5
ATOM      5  C   UNL     1      29.942  58.955 -11.208  1.00  0.00     0.075 C 
BRANCH   5   6
ATOM      6  C   UNL     1      28.551  59.405 -10.844  1.00  0.00     0.129 C 
ATOM      7  O   UNL     1      27.649  58.583 -10.790  1.00  0.00    -0.300 OA
ATOM      8  C   UNL     1      28.249  60.842 -10.536  1.00  0.00     0.087 C 
ENDBRANCH   5   6
ENDBRANCH   1   5
TORSDOF 4
ENDMDL
MODEL 9
REMARK VINA RESULT:    -3.312     18.008     18.830
REMARK INTER + INTRA:          -4.143
REMARK INTER:                  -3.854
REMARK INTRA:                  -0.289
REMARK UNBOUND:                -0.056
REMARK SMILES CCCCCC(C)=O
REMARK SMILES IDX 4 1 3 2 2 3 1 4 5 5 6 6 8 7 7 8
REMARK H PARENT
REMARK Flexibility Score: inf
ROOT
ATOM      1  C   UNL     1      17.876  42.462   1.513  1.00  0.00     0.008 C 
ENDROOT
BRANCH   1   2
ATOM      2  C   UNL     1      18.740  43.489   2.262  1.00  0.00     0.000 C 
BRANCH   2   3
ATOM      3  C   UNL     1      20.053  43.803   1.529  1.00  0.00    -0.003 C 
ATOM      4  C   UNL     1      20.661  42.540   0.927  1.00  0.00     0.004 C 
ENDBRANCH   2   3
ENDBRANCH   1   2
BRANCH   1   5
ATOM      5  C   UNL     1      16.890  43.118   0.536  1.00  0.00     0.075 C 
BRANCH   5   6
ATOM      6  C   UNL     1      16.744  42.285  -0.711  1.00  0.00     0.129 C 
ATOM      7  O   UNL     1      15.776  42.454  -1.435  1.00  0.00    -0.300 OA
ATOM      8  C   UNL     1      17.769  41.256  -1.089  1.00  0.00     0.087 C 
ENDBRANCH   5   6
ENDBRANCH   1   5
TORSDOF 4
ENDMDL
