MODEL 1
REMARK VINA RESULT:    -4.008      0.000      0.000
REMARK INTER + INTRA:          -4.125
REMARK INTER:                  -4.125
REMARK INTRA:                   0.000
REMARK UNBOUND:                 0.000
REMARK SMILES Cc1ccccc1O
REMARK SMILES IDX 1 1 2 2 3 3 4 4 5 5 6 6 7 7 8 8
REMARK H PARENT 8 9
REMARK Flexibility Score: inf
ROOT
ATOM      1  C   UNL     1     -23.069  26.318   7.503  1.00  0.00     0.048 C 
ATOM      2  C   UNL     1     -22.786  25.810   8.888  1.00  0.00    -0.009 A 
ATOM      3  C   UNL     1     -23.322  26.467  10.008  1.00  0.00     0.007 A 
ATOM      4  C   UNL     1     -23.059  25.994  11.297  1.00  0.00     0.001 A 
ATOM      5  C   UNL     1     -22.259  24.864  11.478  1.00  0.00     0.004 A 
ATOM      6  C   UNL     1     -21.721  24.203  10.372  1.00  0.00     0.046 A 
ATOM      7  C   UNL     1     -21.979  24.670   9.075  1.00  0.00     0.118 A 
ENDROOT
BRANCH   7   8
ATOM      8  O   UNL     1     -21.439  24.008   7.972  1.00  0.00    -0.508 OA
ATOM      9  H   UNL     1     -21.872  24.062   7.057  1.00  0.00     0.293 HD
ENDBRANCH   7   8
TORSDOF 1
ENDMDL
MODEL 2
REMARK VINA RESULT:    -3.966      2.052      2.475
REMARK INTER + INTRA:          -4.082
REMARK INTER:                  -4.082
REMARK INTRA:                   0.000
REMARK UNBOUND:                 0.000
REMARK SMILES Cc1ccccc1O
REMARK SMILES IDX 1 1 2 2 3 3 4 4 5 5 6 6 7 7 8 8
REMARK H PARENT 8 9
REMARK Flexibility Score: inf
ROOT
ATOM      1  C   UNL     1     -23.685  26.648   7.421  1.00  0.00     0.048 C 
ATOM      2  C   UNL     1     -23.674  25.703   8.588  1.00  0.00    -0.009 A 
ATOM      3  C   UNL     1     -24.087  24.369   8.424  1.00  0.00     0.007 A 
ATOM      4  C   UNL     1     -24.076  23.489   9.510  1.00  0.00     0.001 A 
ATOM      5  C   UNL     1     -23.655  23.932  10.766  1.00  0.00     0.004 A 
ATOM      6  C   UNL     1     -23.243  25.255  10.940  1.00  0.00     0.046 A 
ATOM      7  C   UNL     1     -23.250  26.145   9.856  1.00  0.00     0.118 A 
ENDROOT
BRANCH   7   8
ATOM      8  O   UNL     1     -22.838  27.466  10.033  1.00  0.00    -0.508 OA
ATOM      9  H   UNL     1     -23.500  28.204  10.247  1.00  0.00     0.293 HD
ENDBRANCH   7   8
TORSDOF 1
ENDMDL
MODEL 3
REMARK VINA RESULT:    -3.861     23.626     24.044
REMARK INTER + INTRA:          -3.974
REMARK INTER:                  -3.974
REMARK INTRA:                   0.000
REMARK UNBOUND:                 0.000
REMARK SMILES Cc1ccccc1O
REMARK SMILES IDX 1 1 2 2 3 3 4 4 5 5 6 6 7 7 8 8
REMARK H PARENT 8 9
REMARK Flexibility Score: inf
ROOT
ATOM      1  C   UNL     1      -8.075  43.125   7.694  1.00  0.00     0.048 C 
ATOM      2  C   UNL     1      -6.755  42.581   7.227  1.00  0.00    -0.009 A 
ATOM      3  C   UNL     1      -6.603  42.127   5.905  1.00  0.00     0.007 A 
ATOM      4  C   UNL     1      -5.374  41.622   5.470  1.00  0.00     0.001 A 
ATOM      5  C   UNL     1      -4.290  41.565   6.349  1.00  0.00     0.004 A 
ATOM      6  C   UNL     1      -4.430  42.013   7.664  1.00  0.00     0.046 A 
ATOM      7  C   UNL     1      -5.659  42.522   8.109  1.00  0.00     0.118 A 
ENDROOT
BRANCH   7   8
ATOM      8  O   UNL     1      -5.796  42.969   9.424  1.00  0.00    -0.508 OA
ATOM      9  H   UNL     1      -5.844  42.322  10.202  1.00  0.00     0.293 HD
ENDBRANCH   7   8
TORSDOF 1
ENDMDL
MODEL 4
REMARK VINA RESULT:    -3.817     23.900     24.369
REMARK INTER + INTRA:          -3.928
REMARK INTER:                  -3.928
REMARK INTRA:                   0.000
REMARK UNBOUND:                 0.000
REMARK SMILES Cc1ccccc1O
REMARK SMILES IDX 1 1 2 2 3 3 4 4 5 5 6 6 7 7 8 8
REMARK H PARENT 8 9
REMARK Flexibility Score: inf
ROOT
ATOM      1  C   UNL     1      -4.416  43.041   9.192  1.00  0.00     0.048 C 
ATOM      2  C   UNL     1      -4.990  42.622   7.868  1.00  0.00    -0.009 A 
ATOM      3  C   UNL     1      -4.140  42.307   6.795  1.00  0.00     0.007 A 
ATOM      4  C   UNL     1      -4.674  41.917   5.563  1.00  0.00     0.001 A 
ATOM      5  C   UNL     1      -6.058  41.839   5.393  1.00  0.00     0.004 A 
ATOM      6  C   UNL     1      -6.912  42.150   6.453  1.00  0.00     0.046 A 
ATOM      7  C   UNL     1      -6.385  42.542   7.693  1.00  0.00     0.118 A 
ENDROOT
BRANCH   7   8
ATOM      8  O   UNL     1      -7.241  42.852   8.750  1.00  0.00    -0.508 OA
ATOM      9  H   UNL     1      -6.891  42.997   9.690  1.00  0.00     0.293 HD
ENDBRANCH   7   8
TORSDOF 1
ENDMDL
MODEL 5
REMARK VINA RESULT:    -3.478      2.058      3.472
REMARK INTER + INTRA:          -3.580
REMARK INTER:                  -3.580
REMARK INTRA:                   0.000
REMARK UNBOUND:                 0.000
REMARK SMILES Cc1ccccc1O
REMARK SMILES IDX 1 1 2 2 3 3 4 4 5 5 6 6 7 7 8 8
REMARK H PARENT 8 9
REMARK Flexibility Score: inf
ROOT
ATOM      1  C   UNL     1     -22.548  24.573  12.078  1.00  0.00     0.048 C 
ATOM      2  C   UNL     1     -23.096  24.636  10.681  1.00  0.00    -0.009 A 
ATOM      3  C   UNL     1     -23.614  23.482  10.069  1.00  0.00     0.007 A 
ATOM      4  C   UNL     1     -24.125  23.541   8.769  1.00  0.00     0.001 A 
ATOM      5  C   UNL     1     -24.122  24.749   8.070  1.00  0.00     0.004 A 
ATOM      6  C   UNL     1     -23.610  25.903   8.668  1.00  0.00     0.046 A 
ATOM      7  C   UNL     1     -23.095  25.853   9.972  1.00  0.00     0.118 A 
ENDROOT
BRANCH   7   8
ATOM      8  O   UNL     1     -22.583  27.007  10.567  1.00  0.00    -0.508 OA
ATOM      9  H   UNL     1     -23.140  27.568  11.202  1.00  0.00     0.293 HD
ENDBRANCH   7   8
TORSDOF 1
ENDMDL
MODEL 6
REMARK VINA RESULT:    -3.342     10.537     11.526
REMARK INTER + INTRA:          -3.440
REMARK INTER:                  -3.440
REMARK INTRA:                   0.000
REMARK UNBOUND:                 0.000
REMARK SMILES Cc1ccccc1O
REMARK SMILES IDX 1 1 2 2 3 3 4 4 5 5 6 6 7 7 8 8
REMARK H PARENT 8 9
REMARK Flexibility Score: inf
ROOT
ATOM      1  C   UNL     1     -23.986  29.778  20.420  1.00  0.00     0.048 C 
ATOM      2  C   UNL     1     -22.488  29.677  20.378  1.00  0.00    -0.009 A 
ATOM      3  C   UNL     1     -21.699  30.484  21.215  1.00  0.00     0.007 A 
ATOM      4  C   UNL     1     -20.304  30.390  21.176  1.00  0.00     0.001 A 
ATOM      5  C   UNL     1     -19.688  29.492  20.303  1.00  0.00     0.004 A 
ATOM      6  C   UNL     1     -20.462  28.686  19.466  1.00  0.00     0.046 A 
ATOM      7  C   UNL     1     -21.862  28.773  19.498  1.00  0.00     0.118 A 
ENDROOT
BRANCH   7   8
ATOM      8  O   UNL     1     -22.633  27.966  18.661  1.00  0.00    -0.508 OA
ATOM      9  H   UNL     1     -22.436  27.890  17.669  1.00  0.00     0.293 HD
ENDBRANCH   7   8
TORSDOF 1
ENDMDL
MODEL 7
REMARK VINA RESULT:    -3.157     10.620     11.828
REMARK INTER + INTRA:          -3.249
REMARK INTER:                  -3.249
REMARK INTRA:                   0.000
REMARK UNBOUND:                 0.000
REMARK SMILES Cc1ccccc1O
REMARK SMILES IDX 1 1 2 2 3 3 4 4 5 5 6 6 7 7 8 8
REMARK H PARENT 8 9
REMARK Flexibility Score: inf
ROOT
ATOM      1  C   UNL     1     -19.533  25.525  21.483  1.00  0.00     0.048 C 
ATOM      2  C   UNL     1     -19.613  26.954  21.026  1.00  0.00    -0.009 A 
ATOM      3  C   UNL     1     -18.942  27.965  21.735  1.00  0.00     0.007 A 
ATOM      4  C   UNL     1     -19.017  29.294  21.310  1.00  0.00     0.001 A 
ATOM      5  C   UNL     1     -19.760  29.625  20.175  1.00  0.00     0.004 A 
ATOM      6  C   UNL     1     -20.431  28.629  19.462  1.00  0.00     0.046 A 
ATOM      7  C   UNL     1     -20.362  27.292  19.882  1.00  0.00     0.118 A 
ENDROOT
BRANCH   7   8
ATOM      8  O   UNL     1     -21.033  26.299  19.168  1.00  0.00    -0.508 OA
ATOM      9  H   UNL     1     -20.543  25.501  18.781  1.00  0.00     0.293 HD
ENDBRANCH   7   8
TORSDOF 1
ENDMDL
MODEL 8
REMARK VINA RESULT:    -3.145      4.632      5.627
REMARK INTER + INTRA:          -3.237
REMARK INTER:                  -3.237
REMARK INTRA:                   0.000
REMARK UNBOUND:                 0.000
REMARK SMILES Cc1ccccc1O
REMARK SMILES IDX 1 1 2 2 3 3 4 4 5 5 6 6 7 7 8 8
REMARK H PARENT 8 9
REMARK Flexibility Score: inf
ROOT
ATOM      1  C   UNL     1     -23.089  22.901  13.537  1.00  0.00     0.048 C 
ATOM      2  C   UNL     1     -21.801  23.269  14.217  1.00  0.00    -0.009 A 
ATOM      3  C   UNL     1     -21.563  22.875  15.545  1.00  0.00     0.007 A 
ATOM      4  C   UNL     1     -20.365  23.217  16.179  1.00  0.00     0.001 A 
ATOM      5  C   UNL     1     -19.396  23.954  15.493  1.00  0.00     0.004 A 
ATOM      6  C   UNL     1     -19.622  24.350  14.173  1.00  0.00     0.046 A 
ATOM      7  C   UNL     1     -20.822  24.012  13.530  1.00  0.00     0.118 A 
ENDROOT
BRANCH   7   8
ATOM      8  O   UNL     1     -21.045  24.409  12.211  1.00  0.00    -0.508 OA
ATOM      9  H   UNL     1     -21.188  25.383  11.968  1.00  0.00     0.293 HD
ENDBRANCH   7   8
TORSDOF 1
ENDMDL
