MODEL 1
REMARK VINA RESULT:    -4.960      0.000      0.000
REMARK INTER + INTRA:          -7.093
REMARK INTER:                  -6.700
REMARK INTRA:                  -0.393
REMARK UNBOUND:                -0.393
REMARK SMILES CCCCCCC=CC(=O)[O-]
REMARK SMILES IDX 5 1 6 2 7 3 8 4 9 5 10 6 11 7 4 8 3 9 2 10 1 11
REMARK H PARENT
REMARK Flexibility Score: inf
ROOT
ATOM      1  C   UNL     1      42.437  40.498  15.038  1.00  0.00     0.004 C 
ENDROOT
BRANCH   1   2
ATOM      2  C   UNL     1      40.984  40.794  15.431  1.00  0.00     0.027 C 
BRANCH   2   3
ATOM      3  C   UNL     1      40.798  40.733  16.920  1.00  0.00    -0.025 C 
ATOM      4  C   UNL     1      41.815  40.951  17.760  1.00  0.00     0.020 C 
BRANCH   4   5
ATOM      5  C   UNL     1      41.651  40.881  19.220  1.00  0.00     0.064 C 
ATOM      6  O   UNL     1      41.672  39.761  19.794  1.00  0.00    -0.545 OA
ATOM      7  O   UNL     1      41.472  42.033  19.976  1.00  0.00    -0.545 OA
ENDBRANCH   4   5
ENDBRANCH   2   3
ENDBRANCH   1   2
BRANCH   1   8
ATOM      8  C   UNL     1      42.676  38.985  14.917  1.00  0.00     0.000 C 
BRANCH   8   9
ATOM      9  C   UNL     1      42.325  38.433  13.524  1.00  0.00    -0.000 C 
BRANCH   9  10
ATOM     10  C   UNL     1      41.003  37.649  13.453  1.00  0.00    -0.003 C 
ATOM     11  C   UNL     1      39.867  38.451  12.820  1.00  0.00     0.004 C 
ENDBRANCH   9  10
ENDBRANCH   8   9
ENDBRANCH   1   8
TORSDOF 6
ENDMDL
MODEL 2
REMARK VINA RESULT:    -4.941      1.795      2.789
REMARK INTER + INTRA:          -7.066
REMARK INTER:                  -6.579
REMARK INTRA:                  -0.487
REMARK UNBOUND:                -0.393
REMARK SMILES CCCCCCC=CC(=O)[O-]
REMARK SMILES IDX 5 1 6 2 7 3 8 4 9 5 10 6 11 7 4 8 3 9 2 10 1 11
REMARK H PARENT
REMARK Flexibility Score: inf
ROOT
ATOM      1  C   UNL     1      42.907  38.402  13.492  1.00  0.00     0.004 C 
ENDROOT
BRANCH   1   2
ATOM      2  C   UNL     1      43.589  38.985  14.736  1.00  0.00     0.027 C 
BRANCH   2   3
ATOM      3  C   UNL     1      42.930  40.262  15.171  1.00  0.00    -0.025 C 
ATOM      4  C   UNL     1      41.756  40.259  15.810  1.00  0.00     0.020 C 
BRANCH   4   5
ATOM      5  C   UNL     1      41.093  41.503  16.230  1.00  0.00     0.064 C 
ATOM      6  O   UNL     1      40.974  42.451  15.410  1.00  0.00    -0.545 OA
ATOM      7  O   UNL     1      40.594  41.649  17.519  1.00  0.00    -0.545 OA
ENDBRANCH   4   5
ENDBRANCH   2   3
ENDBRANCH   1   2
BRANCH   1   8
ATOM      8  C   UNL     1      42.126  37.126  13.841  1.00  0.00     0.000 C 
BRANCH   8   9
ATOM      9  C   UNL     1      40.672  37.156  13.340  1.00  0.00    -0.000 C 
BRANCH   9  10
ATOM     10  C   UNL     1      40.065  38.564  13.201  1.00  0.00    -0.003 C 
ATOM     11  C   UNL     1      39.123  38.692  12.004  1.00  0.00     0.004 C 
ENDBRANCH   9  10
ENDBRANCH   8   9
ENDBRANCH   1   8
TORSDOF 6
ENDMDL
MODEL 3
REMARK VINA RESULT:    -4.875      3.447      5.838
REMARK INTER + INTRA:          -6.977
REMARK INTER:                  -6.706
REMARK INTRA:                  -0.272
REMARK UNBOUND:                -0.393
REMARK SMILES CCCCCCC=CC(=O)[O-]
REMARK SMILES IDX 5 1 6 2 7 3 8 4 9 5 10 6 11 7 4 8 3 9 2 10 1 11
REMARK H PARENT
REMARK Flexibility Score: inf
ROOT
ATOM      1  C   UNL     1      42.028  40.557  16.652  1.00  0.00     0.004 C 
ENDROOT
BRANCH   1   2
ATOM      2  C   UNL     1      41.428  41.202  15.396  1.00  0.00     0.027 C 
BRANCH   2   3
ATOM      3  C   UNL     1      40.621  40.212  14.607  1.00  0.00    -0.025 C 
ATOM      4  C   UNL     1      41.185  39.130  14.060  1.00  0.00     0.020 C 
BRANCH   4   5
ATOM      5  C   UNL     1      40.410  38.160  13.273  1.00  0.00     0.064 C 
ATOM      6  O   UNL     1      40.620  36.928  13.425  1.00  0.00    -0.545 OA
ATOM      7  O   UNL     1      39.446  38.581  12.364  1.00  0.00    -0.545 OA
ENDBRANCH   4   5
ENDBRANCH   2   3
ENDBRANCH   1   2
BRANCH   1   8
ATOM      8  C   UNL     1      41.093  40.728  17.858  1.00  0.00     0.000 C 
BRANCH   8   9
ATOM      9  C   UNL     1      41.430  41.966  18.707  1.00  0.00    -0.000 C 
BRANCH   9  10
ATOM     10  C   UNL     1      42.065  41.661  20.075  1.00  0.00    -0.003 C 
ATOM     11  C   UNL     1      42.119  40.165  20.387  1.00  0.00     0.004 C 
ENDBRANCH   9  10
ENDBRANCH   8   9
ENDBRANCH   1   8
TORSDOF 6
ENDMDL
MODEL 4
REMARK VINA RESULT:    -4.779      3.497      5.941
REMARK INTER + INTRA:          -6.848
REMARK INTER:                  -6.552
REMARK INTRA:                  -0.296
REMARK UNBOUND:                -0.393
REMARK SMILES CCCCCCC=CC(=O)[O-]
REMARK SMILES IDX 5 1 6 2 7 3 8 4 9 5 10 6 11 7 4 8 3 9 2 10 1 11
REMARK H PARENT
REMARK Flexibility Score: inf
ROOT
ATOM      1  C   UNL     1      41.021  41.078  16.234  1.00  0.00     0.004 C 
ENDROOT
BRANCH   1   2
ATOM      2  C   UNL     1      42.248  40.384  15.629  1.00  0.00     0.027 C 
BRANCH   2   3
ATOM      3  C   UNL     1      41.860  39.478  14.498  1.00  0.00    -0.025 C 
ATOM      4  C   UNL     1      40.579  39.193  14.239  1.00  0.00     0.020 C 
BRANCH   4   5
ATOM      5  C   UNL     1      40.185  38.296  13.142  1.00  0.00     0.064 C 
ATOM      6  O   UNL     1      39.591  38.768  12.137  1.00  0.00    -0.545 OA
ATOM      7  O   UNL     1      40.459  36.934  13.197  1.00  0.00    -0.545 OA
ENDBRANCH   4   5
ENDBRANCH   2   3
ENDBRANCH   1   2
BRANCH   1   8
ATOM      8  C   UNL     1      40.927  40.812  17.744  1.00  0.00     0.000 C 
BRANCH   8   9
ATOM      9  C   UNL     1      41.425  41.994  18.593  1.00  0.00    -0.000 C 
BRANCH   9  10
ATOM     10  C   UNL     1      42.046  41.603  19.945  1.00  0.00    -0.003 C 
ATOM     11  C   UNL     1      41.973  40.102  20.224  1.00  0.00     0.004 C 
ENDBRANCH   9  10
ENDBRANCH   8   9
ENDBRANCH   1   8
TORSDOF 6
ENDMDL
MODEL 5
REMARK VINA RESULT:    -4.738      3.398      5.718
REMARK INTER + INTRA:          -6.792
REMARK INTER:                  -6.539
REMARK INTRA:                  -0.253
REMARK UNBOUND:                -0.393
REMARK SMILES CCCCCCC=CC(=O)[O-]
REMARK SMILES IDX 5 1 6 2 7 3 8 4 9 5 10 6 11 7 4 8 3 9 2 10 1 11
REMARK H PARENT
REMARK Flexibility Score: inf
ROOT
ATOM      1  C   UNL     1      40.575  40.888  16.870  1.00  0.00     0.004 C 
ENDROOT
BRANCH   1   2
ATOM      2  C   UNL     1      40.925  41.086  15.390  1.00  0.00     0.027 C 
BRANCH   2   3
ATOM      3  C   UNL     1      41.011  39.772  14.669  1.00  0.00    -0.025 C 
ATOM      4  C   UNL     1      42.183  39.156  14.477  1.00  0.00     0.020 C 
BRANCH   4   5
ATOM      5  C   UNL     1      42.283  37.875  13.762  1.00  0.00     0.064 C 
ATOM      6  O   UNL     1      43.418  37.409  13.480  1.00  0.00    -0.545 OA
ATOM      7  O   UNL     1      41.144  37.171  13.391  1.00  0.00    -0.545 OA
ENDBRANCH   4   5
ENDBRANCH   2   3
ENDBRANCH   1   2
BRANCH   1   8
ATOM      8  C   UNL     1      41.841  40.656  17.708  1.00  0.00     0.000 C 
BRANCH   8   9
ATOM      9  C   UNL     1      41.534  40.259  19.162  1.00  0.00    -0.000 C 
BRANCH   9  10
ATOM     10  C   UNL     1      42.173  41.164  20.230  1.00  0.00    -0.003 C 
ATOM     11  C   UNL     1      42.851  42.399  19.637  1.00  0.00     0.004 C 
ENDBRANCH   9  10
ENDBRANCH   8   9
ENDBRANCH   1   8
TORSDOF 6
ENDMDL
MODEL 6
REMARK VINA RESULT:    -4.565      9.738     10.450
REMARK INTER + INTRA:          -6.559
REMARK INTER:                  -6.270
REMARK INTRA:                  -0.289
REMARK UNBOUND:                -0.393
REMARK SMILES CCCCCCC=CC(=O)[O-]
REMARK SMILES IDX 5 1 6 2 7 3 8 4 9 5 10 6 11 7 4 8 3 9 2 10 1 11
REMARK H PARENT
REMARK Flexibility Score: inf
ROOT
ATOM      1  C   UNL     1      38.153  30.179  14.394  1.00  0.00     0.004 C 
ENDROOT
BRANCH   1   2
ATOM      2  C   UNL     1      39.370  29.604  13.658  1.00  0.00     0.027 C 
BRANCH   2   3
ATOM      3  C   UNL     1      40.607  29.683  14.506  1.00  0.00    -0.025 C 
ATOM      4  C   UNL     1      40.590  30.254  15.714  1.00  0.00     0.020 C 
BRANCH   4   5
ATOM      5  C   UNL     1      41.797  30.350  16.549  1.00  0.00     0.064 C 
ATOM      6  O   UNL     1      41.785  29.874  17.715  1.00  0.00    -0.545 OA
ATOM      7  O   UNL     1      42.952  30.957  16.071  1.00  0.00    -0.545 OA
ENDBRANCH   4   5
ENDBRANCH   2   3
ENDBRANCH   1   2
BRANCH   1   8
ATOM      8  C   UNL     1      37.490  31.295  13.574  1.00  0.00     0.000 C 
BRANCH   8   9
ATOM      9  C   UNL     1      36.235  31.873  14.251  1.00  0.00    -0.000 C 
BRANCH   9  10
ATOM     10  C   UNL     1      34.934  31.716  13.445  1.00  0.00    -0.003 C 
ATOM     11  C   UNL     1      34.500  30.258  13.291  1.00  0.00     0.004 C 
ENDBRANCH   9  10
ENDBRANCH   8   9
ENDBRANCH   1   8
TORSDOF 6
ENDMDL
MODEL 7
REMARK VINA RESULT:    -4.502     10.295     11.301
REMARK INTER + INTRA:          -6.474
REMARK INTER:                  -6.194
REMARK INTRA:                  -0.280
REMARK UNBOUND:                -0.393
REMARK SMILES CCCCCCC=CC(=O)[O-]
REMARK SMILES IDX 5 1 6 2 7 3 8 4 9 5 10 6 11 7 4 8 3 9 2 10 1 11
REMARK H PARENT
REMARK Flexibility Score: inf
ROOT
ATOM      1  C   UNL     1      39.227  29.838  14.251  1.00  0.00     0.004 C 
ENDROOT
BRANCH   1   2
ATOM      2  C   UNL     1      38.380  30.886  14.982  1.00  0.00     0.027 C 
BRANCH   2   3
ATOM      3  C   UNL     1      36.920  30.720  14.673  1.00  0.00    -0.025 C 
ATOM      4  C   UNL     1      36.370  31.268  13.584  1.00  0.00     0.020 C 
BRANCH   4   5
ATOM      5  C   UNL     1      34.940  31.124  13.276  1.00  0.00     0.064 C 
ATOM      6  O   UNL     1      34.408  29.984  13.312  1.00  0.00    -0.545 OA
ATOM      7  O   UNL     1      34.164  32.229  12.945  1.00  0.00    -0.545 OA
ENDBRANCH   4   5
ENDBRANCH   2   3
ENDBRANCH   1   2
BRANCH   1   8
ATOM      8  C   UNL     1      40.596  29.667  14.927  1.00  0.00     0.000 C 
BRANCH   8   9
ATOM      9  C   UNL     1      40.767  30.560  16.168  1.00  0.00    -0.000 C 
BRANCH   9  10
ATOM     10  C   UNL     1      41.821  30.070  17.177  1.00  0.00    -0.003 C 
ATOM     11  C   UNL     1      42.604  28.855  16.680  1.00  0.00     0.004 C 
ENDBRANCH   9  10
ENDBRANCH   8   9
ENDBRANCH   1   8
TORSDOF 6
ENDMDL
MODEL 8
REMARK VINA RESULT:    -4.330      1.498      2.233
REMARK INTER + INTRA:          -6.241
REMARK INTER:                  -6.003
REMARK INTRA:                  -0.238
REMARK UNBOUND:                -0.393
REMARK SMILES CCCCCCC=CC(=O)[O-]
REMARK SMILES IDX 5 1 6 2 7 3 8 4 9 5 10 6 11 7 4 8 3 9 2 10 1 11
REMARK H PARENT
REMARK Flexibility Score: inf
ROOT
ATOM      1  C   UNL     1      40.734  40.687  16.184  1.00  0.00     0.004 C 
ENDROOT
BRANCH   1   2
ATOM      2  C   UNL     1      42.038  40.813  16.982  1.00  0.00     0.027 C 
BRANCH   2   3
ATOM      3  C   UNL     1      41.793  41.416  18.335  1.00  0.00    -0.025 C 
ATOM      4  C   UNL     1      42.798  41.880  19.085  1.00  0.00     0.020 C 
BRANCH   4   5
ATOM      5  C   UNL     1      42.573  42.460  20.418  1.00  0.00     0.064 C 
ATOM      6  O   UNL     1      43.539  42.973  21.042  1.00  0.00    -0.545 OA
ATOM      7  O   UNL     1      41.311  42.452  20.999  1.00  0.00    -0.545 OA
ENDBRANCH   4   5
ENDBRANCH   2   3
ENDBRANCH   1   2
BRANCH   1   8
ATOM      8  C   UNL     1      40.975  39.975  14.845  1.00  0.00     0.000 C 
BRANCH   8   9
ATOM      9  C   UNL     1      42.369  39.332  14.749  1.00  0.00    -0.000 C 
BRANCH   9  10
ATOM     10  C   UNL     1      42.583  38.428  13.523  1.00  0.00    -0.003 C 
ATOM     11  C   UNL     1      42.332  36.950  13.820  1.00  0.00     0.004 C 
ENDBRANCH   9  10
ENDBRANCH   8   9
ENDBRANCH   1   8
TORSDOF 6
ENDMDL
MODEL 9
REMARK VINA RESULT:    -4.320      2.826      3.363
REMARK INTER + INTRA:          -6.228
REMARK INTER:                  -5.896
REMARK INTRA:                  -0.332
REMARK UNBOUND:                -0.393
REMARK SMILES CCCCCCC=CC(=O)[O-]
REMARK SMILES IDX 5 1 6 2 7 3 8 4 9 5 10 6 11 7 4 8 3 9 2 10 1 11
REMARK H PARENT
REMARK Flexibility Score: inf
ROOT
ATOM      1  C   UNL     1      42.229  39.449  14.494  1.00  0.00     0.004 C 
ENDROOT
BRANCH   1   2
ATOM      2  C   UNL     1      41.019  39.926  15.306  1.00  0.00     0.027 C 
BRANCH   2   3
ATOM      3  C   UNL     1      40.949  41.425  15.352  1.00  0.00    -0.025 C 
ATOM      4  C   UNL     1      42.031  42.182  15.139  1.00  0.00     0.020 C 
BRANCH   4   5
ATOM      5  C   UNL     1      41.980  43.650  15.194  1.00  0.00     0.064 C 
ATOM      6  O   UNL     1      42.865  44.324  14.605  1.00  0.00    -0.545 OA
ATOM      7  O   UNL     1      40.969  44.306  15.885  1.00  0.00    -0.545 OA
ENDBRANCH   4   5
ENDBRANCH   2   3
ENDBRANCH   1   2
BRANCH   1   8
ATOM      8  C   UNL     1      41.824  38.356  13.494  1.00  0.00     0.000 C 
BRANCH   8   9
ATOM      9  C   UNL     1      40.309  38.085  13.482  1.00  0.00    -0.000 C 
BRANCH   9  10
ATOM     10  C   UNL     1      39.545  38.736  12.316  1.00  0.00    -0.003 C 
ATOM     11  C   UNL     1      38.461  37.830  11.733  1.00  0.00     0.004 C 
ENDBRANCH   9  10
ENDBRANCH   8   9
ENDBRANCH   1   8
TORSDOF 6
ENDMDL
