MODEL 1
REMARK VINA RESULT:    -4.107      0.000      0.000
REMARK INTER + INTRA:          -5.696
REMARK INTER:                  -5.547
REMARK INTRA:                  -0.149
REMARK UNBOUND:                -0.149
REMARK SMILES O=C[C@@H](O)[C@H](O)[C@@H](O)CO
REMARK SMILES IDX 7 1 9 2 10 3 5 5 3 6 2 7 1 8 4 9 6 11 8 13
REMARK H PARENT 10 4 4 10 6 12 8 14
REMARK Flexibility Score: inf
ROOT
ATOM      1  C   UNL     1       0.737  -1.132   1.425  1.00  0.00     0.171 C 
ENDROOT
BRANCH   1   2
ATOM      2  C   UNL     1       2.258  -1.207   1.658  1.00  0.00     0.190 C 
BRANCH   2   3
ATOM      3  O   UNL     1       2.939  -0.362   0.771  1.00  0.00    -0.394 OA
ATOM      4  H   UNL     1       2.865   0.552   1.151  1.00  0.00     0.210 HD
ENDBRANCH   2   3
ENDBRANCH   1   2
BRANCH   1   5
ATOM      5  C   UNL     1       0.282  -1.687   0.043  1.00  0.00     0.181 C 
BRANCH   5   6
ATOM      6  C   UNL     1      -0.690  -2.889   0.157  1.00  0.00     0.209 C 
BRANCH   6   7
ATOM      7  C   UNL     1      -0.789  -3.632  -1.149  1.00  0.00     0.258 C 
ATOM      8  O   UNL     1      -0.603  -3.059  -2.211  1.00  0.00    -0.300 OA
ENDBRANCH   6   7
BRANCH   6   9
ATOM      9  O   UNL     1      -0.273  -3.763   1.174  1.00  0.00    -0.383 OA
ATOM     10  H   UNL     1       0.426  -4.350   0.781  1.00  0.00     0.211 HD
ENDBRANCH   6   9
ENDBRANCH   5   6
BRANCH   5  11
ATOM     11  O   UNL     1       1.406  -2.028  -0.732  1.00  0.00    -0.387 OA
ATOM     12  H   UNL     1       1.485  -3.017  -0.730  1.00  0.00     0.211 HD
ENDBRANCH   5  11
ENDBRANCH   1   5
BRANCH   1  13
ATOM     13  O   UNL     1       0.062  -1.797   2.466  1.00  0.00    -0.388 OA
ATOM     14  H   UNL     1      -0.223  -2.683   2.122  1.00  0.00     0.211 HD
ENDBRANCH   1  13
TORSDOF 8
ENDMDL
MODEL 2
REMARK VINA RESULT:    -3.916      0.865      3.992
REMARK INTER + INTRA:          -5.439
REMARK INTER:                  -5.256
REMARK INTRA:                  -0.182
REMARK UNBOUND:                -0.149
REMARK SMILES O=C[C@@H](O)[C@H](O)[C@@H](O)CO
REMARK SMILES IDX 7 1 9 2 10 3 5 5 3 6 2 7 1 8 4 9 6 11 8 13
REMARK H PARENT 10 4 4 10 6 12 8 14
REMARK Flexibility Score: inf
ROOT
ATOM      1  C   UNL     1      -1.271  -2.757  -0.464  1.00  0.00     0.171 C 
ENDROOT
BRANCH   1   2
ATOM      2  C   UNL     1      -0.703  -4.125  -0.888  1.00  0.00     0.190 C 
BRANCH   2   3
ATOM      3  O   UNL     1      -0.371  -4.125  -2.249  1.00  0.00    -0.394 OA
ATOM      4  H   UNL     1       0.584  -3.858  -2.300  1.00  0.00     0.210 HD
ENDBRANCH   2   3
ENDBRANCH   1   2
BRANCH   1   5
ATOM      5  C   UNL     1      -0.510  -2.098   0.724  1.00  0.00     0.181 C 
BRANCH   5   6
ATOM      6  C   UNL     1       0.744  -1.302   0.281  1.00  0.00     0.209 C 
BRANCH   6   7
ATOM      7  C   UNL     1       1.746  -1.201   1.401  1.00  0.00     0.258 C 
ATOM      8  O   UNL     1       2.883  -0.810   1.190  1.00  0.00    -0.300 OA
ENDBRANCH   6   7
BRANCH   6   9
ATOM      9  O   UNL     1       1.339  -1.907  -0.838  1.00  0.00    -0.383 OA
ATOM     10  H   UNL     1       1.681  -2.791  -0.541  1.00  0.00     0.211 HD
ENDBRANCH   6   9
ENDBRANCH   5   6
BRANCH   5  11
ATOM     11  O   UNL     1      -0.168  -3.077   1.677  1.00  0.00    -0.387 OA
ATOM     12  H   UNL     1      -0.297  -2.679   2.576  1.00  0.00     0.211 HD
ENDBRANCH   5  11
ENDBRANCH   1   5
BRANCH   1  13
ATOM     13  O   UNL     1      -1.297  -1.887  -1.570  1.00  0.00    -0.388 OA
ATOM     14  H   UNL     1      -0.360  -1.750  -1.869  1.00  0.00     0.211 HD
ENDBRANCH   1  13
TORSDOF 8
ENDMDL
MODEL 3
REMARK VINA RESULT:    -3.839      0.856      3.698
REMARK INTER + INTRA:          -5.334
REMARK INTER:                  -4.652
REMARK INTRA:                  -0.682
REMARK UNBOUND:                -0.149
REMARK SMILES O=C[C@@H](O)[C@H](O)[C@@H](O)CO
REMARK SMILES IDX 7 1 9 2 10 3 5 5 3 6 2 7 1 8 4 9 6 11 8 13
REMARK H PARENT 10 4 4 10 6 12 8 14
REMARK Flexibility Score: inf
ROOT
ATOM      1  C   UNL     1      -0.012  -3.063   0.037  1.00  0.00     0.171 C 
ENDROOT
BRANCH   1   2
ATOM      2  C   UNL     1      -0.954  -2.968  -1.178  1.00  0.00     0.190 C 
BRANCH   2   3
ATOM      3  O   UNL     1      -0.237  -2.649  -2.339  1.00  0.00    -0.394 OA
ATOM      4  H   UNL     1       0.367  -1.901  -2.093  1.00  0.00     0.210 HD
ENDBRANCH   2   3
ENDBRANCH   1   2
BRANCH   1   5
ATOM      5  C   UNL     1       0.918  -1.826   0.214  1.00  0.00     0.181 C 
BRANCH   5   6
ATOM      6  C   UNL     1       1.383  -1.616   1.678  1.00  0.00     0.209 C 
BRANCH   6   7
ATOM      7  C   UNL     1       2.615  -0.752   1.736  1.00  0.00     0.258 C 
ATOM      8  O   UNL     1       3.193  -0.417   0.714  1.00  0.00    -0.300 OA
ENDBRANCH   6   7
BRANCH   6   9
ATOM      9  O   UNL     1       0.356  -1.035   2.440  1.00  0.00    -0.383 OA
ATOM     10  H   UNL     1      -0.008  -0.281   1.906  1.00  0.00     0.211 HD
ENDBRANCH   6   9
ENDBRANCH   5   6
BRANCH   5  11
ATOM     11  O   UNL     1       0.279  -0.672  -0.276  1.00  0.00    -0.387 OA
ATOM     12  H   UNL     1      -0.664  -0.696   0.030  1.00  0.00     0.211 HD
ENDBRANCH   5  11
ENDBRANCH   1   5
BRANCH   1  13
ATOM     13  O   UNL     1      -0.762  -3.283   1.207  1.00  0.00    -0.388 OA
ATOM     14  H   UNL     1      -1.038  -2.397   1.559  1.00  0.00     0.211 HD
ENDBRANCH   1  13
TORSDOF 8
ENDMDL
MODEL 4
REMARK VINA RESULT:    -3.461     16.708     18.725
REMARK INTER + INTRA:          -4.825
REMARK INTER:                  -4.511
REMARK INTRA:                  -0.314
REMARK UNBOUND:                -0.149
REMARK SMILES O=C[C@@H](O)[C@H](O)[C@@H](O)CO
REMARK SMILES IDX 7 1 9 2 10 3 5 5 3 6 2 7 1 8 4 9 6 11 8 13
REMARK H PARENT 10 4 4 10 6 12 8 14
REMARK Flexibility Score: inf
ROOT
ATOM      1  C   UNL     1      15.086  -3.630  13.157  1.00  0.00     0.171 C 
ENDROOT
BRANCH   1   2
ATOM      2  C   UNL     1      15.490  -3.854  14.626  1.00  0.00     0.190 C 
BRANCH   2   3
ATOM      3  O   UNL     1      15.751  -2.632  15.262  1.00  0.00    -0.394 OA
ATOM      4  H   UNL     1      15.752  -1.944  14.546  1.00  0.00     0.210 HD
ENDBRANCH   2   3
ENDBRANCH   1   2
BRANCH   1   5
ATOM      5  C   UNL     1      14.678  -2.162  12.831  1.00  0.00     0.181 C 
BRANCH   5   6
ATOM      6  C   UNL     1      13.810  -2.039  11.552  1.00  0.00     0.209 C 
BRANCH   6   7
ATOM      7  C   UNL     1      12.682  -3.036  11.564  1.00  0.00     0.258 C 
ATOM      8  O   UNL     1      11.644  -2.813  10.960  1.00  0.00    -0.300 OA
ENDBRANCH   6   7
BRANCH   6   9
ATOM      9  O   UNL     1      13.296  -0.737  11.433  1.00  0.00    -0.383 OA
ATOM     10  H   UNL     1      12.563  -0.654  12.098  1.00  0.00     0.211 HD
ENDBRANCH   6   9
ENDBRANCH   5   6
BRANCH   5  11
ATOM     11  O   UNL     1      15.826  -1.355  12.733  1.00  0.00    -0.387 OA
ATOM     12  H   UNL     1      16.586  -1.863  13.121  1.00  0.00     0.211 HD
ENDBRANCH   5  11
ENDBRANCH   1   5
BRANCH   1  13
ATOM     13  O   UNL     1      16.125  -4.049  12.305  1.00  0.00    -0.388 OA
ATOM     14  H   UNL     1      16.981  -3.734  12.698  1.00  0.00     0.211 HD
ENDBRANCH   1  13
TORSDOF 8
ENDMDL
MODEL 5
REMARK VINA RESULT:    -3.163     14.695     17.022
REMARK INTER + INTRA:          -4.422
REMARK INTER:                  -4.381
REMARK INTRA:                  -0.041
REMARK UNBOUND:                -0.149
REMARK SMILES O=C[C@@H](O)[C@H](O)[C@@H](O)CO
REMARK SMILES IDX 7 1 9 2 10 3 5 5 3 6 2 7 1 8 4 9 6 11 8 13
REMARK H PARENT 10 4 4 10 6 12 8 14
REMARK Flexibility Score: inf
ROOT
ATOM      1  C   UNL     1      11.892  -2.527  10.765  1.00  0.00     0.171 C 
ENDROOT
BRANCH   1   2
ATOM      2  C   UNL     1      10.544  -1.847  11.073  1.00  0.00     0.190 C 
BRANCH   2   3
ATOM      3  O   UNL     1       9.558  -2.268  10.171  1.00  0.00    -0.394 OA
ATOM      4  H   UNL     1       8.725  -2.372  10.702  1.00  0.00     0.210 HD
ENDBRANCH   2   3
ENDBRANCH   1   2
BRANCH   1   5
ATOM      5  C   UNL     1      12.852  -2.610  11.989  1.00  0.00     0.181 C 
BRANCH   5   6
ATOM      6  C   UNL     1      13.754  -1.359  12.144  1.00  0.00     0.209 C 
BRANCH   6   7
ATOM      7  C   UNL     1      15.201  -1.749  12.288  1.00  0.00     0.258 C 
ATOM      8  O   UNL     1      16.091  -0.995  11.926  1.00  0.00    -0.300 OA
ENDBRANCH   6   7
BRANCH   6   9
ATOM      9  O   UNL     1      13.597  -0.501  11.043  1.00  0.00    -0.383 OA
ATOM     10  H   UNL     1      13.968   0.381  11.310  1.00  0.00     0.211 HD
ENDBRANCH   6   9
ENDBRANCH   5   6
BRANCH   5  11
ATOM     11  O   UNL     1      13.631  -3.779  11.910  1.00  0.00    -0.387 OA
ATOM     12  H   UNL     1      13.329  -4.392  12.629  1.00  0.00     0.211 HD
ENDBRANCH   5  11
ENDBRANCH   1   5
BRANCH   1  13
ATOM     13  O   UNL     1      11.670  -3.809  10.230  1.00  0.00    -0.388 OA
ATOM     14  H   UNL     1      12.185  -3.876   9.384  1.00  0.00     0.211 HD
ENDBRANCH   1  13
TORSDOF 8
ENDMDL
MODEL 6
REMARK VINA RESULT:    -3.156     15.640     17.914
REMARK INTER + INTRA:          -4.412
REMARK INTER:                  -3.997
REMARK INTRA:                  -0.415
REMARK UNBOUND:                -0.149
REMARK SMILES O=C[C@@H](O)[C@H](O)[C@@H](O)CO
REMARK SMILES IDX 7 1 9 2 10 3 5 5 3 6 2 7 1 8 4 9 6 11 8 13
REMARK H PARENT 10 4 4 10 6 12 8 14
REMARK Flexibility Score: inf
ROOT
ATOM      1  C   UNL     1      12.743  -2.993  11.413  1.00  0.00     0.171 C 
ENDROOT
BRANCH   1   2
ATOM      2  C   UNL     1      11.408  -2.533  10.796  1.00  0.00     0.190 C 
BRANCH   2   3
ATOM      3  O   UNL     1      11.286  -2.993   9.478  1.00  0.00    -0.394 OA
ATOM      4  H   UNL     1      10.542  -2.476   9.073  1.00  0.00     0.210 HD
ENDBRANCH   2   3
ENDBRANCH   1   2
BRANCH   1   5
ATOM      5  C   UNL     1      13.784  -1.848  11.591  1.00  0.00     0.181 C 
BRANCH   5   6
ATOM      6  C   UNL     1      15.072  -2.301  12.323  1.00  0.00     0.209 C 
BRANCH   6   7
ATOM      7  C   UNL     1      16.125  -1.225  12.285  1.00  0.00     0.258 C 
ATOM      8  O   UNL     1      15.871  -0.088  12.649  1.00  0.00    -0.300 OA
ENDBRANCH   6   7
BRANCH   6   9
ATOM      9  O   UNL     1      14.785  -2.641  13.656  1.00  0.00    -0.383 OA
ATOM     10  H   UNL     1      14.855  -3.630  13.723  1.00  0.00     0.211 HD
ENDBRANCH   6   9
ENDBRANCH   5   6
BRANCH   5  11
ATOM     11  O   UNL     1      13.190  -0.758  12.255  1.00  0.00    -0.387 OA
ATOM     12  H   UNL     1      13.490  -0.782  13.201  1.00  0.00     0.211 HD
ENDBRANCH   5  11
ENDBRANCH   1   5
BRANCH   1  13
ATOM     13  O   UNL     1      12.505  -3.632  12.644  1.00  0.00    -0.388 OA
ATOM     14  H   UNL     1      11.767  -3.147  13.098  1.00  0.00     0.211 HD
ENDBRANCH   1  13
TORSDOF 8
ENDMDL
MODEL 7
REMARK VINA RESULT:    -3.023     15.655     17.634
REMARK INTER + INTRA:          -4.233
REMARK INTER:                  -3.977
REMARK INTRA:                  -0.255
REMARK UNBOUND:                -0.149
REMARK SMILES O=C[C@@H](O)[C@H](O)[C@@H](O)CO
REMARK SMILES IDX 7 1 9 2 10 3 5 5 3 6 2 7 1 8 4 9 6 11 8 13
REMARK H PARENT 10 4 4 10 6 12 8 14
REMARK Flexibility Score: inf
ROOT
ATOM      1  C   UNL     1      15.092  -2.155  12.157  1.00  0.00     0.171 C 
ENDROOT
BRANCH   1   2
ATOM      2  C   UNL     1      15.514  -2.757  13.511  1.00  0.00     0.190 C 
BRANCH   2   3
ATOM      3  O   UNL     1      15.208  -4.124  13.564  1.00  0.00    -0.394 OA
ATOM      4  H   UNL     1      15.863  -4.528  14.191  1.00  0.00     0.210 HD
ENDBRANCH   2   3
ENDBRANCH   1   2
BRANCH   1   5
ATOM      5  C   UNL     1      13.623  -1.639  12.126  1.00  0.00     0.181 C 
BRANCH   5   6
ATOM      6  C   UNL     1      12.586  -2.764  11.880  1.00  0.00     0.209 C 
BRANCH   6   7
ATOM      7  C   UNL     1      11.514  -2.314  10.922  1.00  0.00     0.258 C 
ATOM      8  O   UNL     1      11.037  -3.090  10.109  1.00  0.00    -0.300 OA
ENDBRANCH   6   7
BRANCH   6   9
ATOM      9  O   UNL     1      13.219  -3.915  11.383  1.00  0.00    -0.383 OA
ATOM     10  H   UNL     1      13.625  -4.380  12.161  1.00  0.00     0.211 HD
ENDBRANCH   6   9
ENDBRANCH   5   6
BRANCH   5  11
ATOM     11  O   UNL     1      13.492  -0.622  11.162  1.00  0.00    -0.387 OA
ATOM     12  H   UNL     1      13.578   0.249  11.630  1.00  0.00     0.211 HD
ENDBRANCH   5  11
ENDBRANCH   1   5
BRANCH   1  13
ATOM     13  O   UNL     1      15.980  -1.125  11.795  1.00  0.00    -0.388 OA
ATOM     14  H   UNL     1      15.575  -0.264  12.080  1.00  0.00     0.211 HD
ENDBRANCH   1  13
TORSDOF 8
ENDMDL
MODEL 8
REMARK VINA RESULT:    -2.992      1.139      1.758
REMARK INTER + INTRA:          -4.190
REMARK INTER:                  -4.305
REMARK INTRA:                   0.115
REMARK UNBOUND:                -0.149
REMARK SMILES O=C[C@@H](O)[C@H](O)[C@@H](O)CO
REMARK SMILES IDX 7 1 9 2 10 3 5 5 3 6 2 7 1 8 4 9 6 11 8 13
REMARK H PARENT 10 4 4 10 6 12 8 14
REMARK Flexibility Score: inf
ROOT
ATOM      1  C   UNL     1       1.491  -1.218   0.845  1.00  0.00     0.171 C 
ENDROOT
BRANCH   1   2
ATOM      2  C   UNL     1       2.737  -0.798   1.649  1.00  0.00     0.190 C 
BRANCH   2   3
ATOM      3  O   UNL     1       3.769  -0.396   0.792  1.00  0.00    -0.394 OA
ATOM      4  H   UNL     1       4.186  -1.230   0.452  1.00  0.00     0.210 HD
ENDBRANCH   2   3
ENDBRANCH   1   2
BRANCH   1   5
ATOM      5  C   UNL     1       0.432  -1.995   1.681  1.00  0.00     0.181 C 
BRANCH   5   6
ATOM      6  C   UNL     1      -0.540  -2.831   0.810  1.00  0.00     0.209 C 
BRANCH   6   7
ATOM      7  C   UNL     1      -0.061  -2.911  -0.615  1.00  0.00     0.258 C 
ATOM      8  O   UNL     1      -0.478  -3.777  -1.368  1.00  0.00    -0.300 OA
ENDBRANCH   6   7
BRANCH   6   9
ATOM      9  O   UNL     1      -0.683  -4.125   1.339  1.00  0.00    -0.383 OA
ATOM     10  H   UNL     1      -1.653  -4.265   1.499  1.00  0.00     0.211 HD
ENDBRANCH   6   9
ENDBRANCH   5   6
BRANCH   5  11
ATOM     11  O   UNL     1      -0.279  -1.103   2.505  1.00  0.00    -0.387 OA
ATOM     12  H   UNL     1      -0.249  -1.458   3.430  1.00  0.00     0.211 HD
ENDBRANCH   5  11
ENDBRANCH   1   5
BRANCH   1  13
ATOM     13  O   UNL     1       0.907  -0.087   0.245  1.00  0.00    -0.388 OA
ATOM     14  H   UNL     1       0.436   0.422   0.955  1.00  0.00     0.211 HD
ENDBRANCH   1  13
TORSDOF 8
ENDMDL
MODEL 9
REMARK VINA RESULT:    -1.999     16.447     18.707
REMARK INTER + INTRA:          -2.849
REMARK INTER:                  -2.792
REMARK INTRA:                  -0.057
REMARK UNBOUND:                -0.149
REMARK SMILES O=C[C@@H](O)[C@H](O)[C@@H](O)CO
REMARK SMILES IDX 7 1 9 2 10 3 5 5 3 6 2 7 1 8 4 9 6 11 8 13
REMARK H PARENT 10 4 4 10 6 12 8 14
REMARK Flexibility Score: inf
ROOT
ATOM      1  C   UNL     1      13.208  -1.904  11.875  1.00  0.00     0.171 C 
ENDROOT
BRANCH   1   2
ATOM      2  C   UNL     1      12.303  -2.977  11.240  1.00  0.00     0.190 C 
BRANCH   2   3
ATOM      3  O   UNL     1      11.556  -2.436  10.185  1.00  0.00    -0.394 OA
ATOM      4  H   UNL     1      11.349  -3.193   9.577  1.00  0.00     0.210 HD
ENDBRANCH   2   3
ENDBRANCH   1   2
BRANCH   1   5
ATOM      5  C   UNL     1      14.690  -2.351  12.048  1.00  0.00     0.181 C 
BRANCH   5   6
ATOM      6  C   UNL     1      15.141  -2.410  13.530  1.00  0.00     0.209 C 
BRANCH   6   7
ATOM      7  C   UNL     1      15.667  -3.777  13.883  1.00  0.00     0.258 C 
ATOM      8  O   UNL     1      15.775  -4.123  15.049  1.00  0.00    -0.300 OA
ENDBRANCH   6   7
BRANCH   6   9
ATOM      9  O   UNL     1      16.125  -1.440  13.782  1.00  0.00    -0.383 OA
ATOM     10  H   UNL     1      15.706  -0.554  13.616  1.00  0.00     0.211 HD
ENDBRANCH   6   9
ENDBRANCH   5   6
BRANCH   5  11
ATOM     11  O   UNL     1      15.536  -1.508  11.303  1.00  0.00    -0.387 OA
ATOM     12  H   UNL     1      15.804  -1.999  10.484  1.00  0.00     0.211 HD
ENDBRANCH   5  11
ENDBRANCH   1   5
BRANCH   1  13
ATOM     13  O   UNL     1      13.140  -0.716  11.124  1.00  0.00    -0.388 OA
ATOM     14  H   UNL     1      12.935   0.025  11.751  1.00  0.00     0.211 HD
ENDBRANCH   1  13
TORSDOF 8
ENDMDL
