MODEL 1
REMARK VINA RESULT:    -6.075      0.000      0.000
REMARK INTER + INTRA:          -7.217
REMARK INTER:                  -6.963
REMARK INTRA:                  -0.254
REMARK UNBOUND:                -0.254
REMARK SMILES O=c1c(-c2ccc(O)cc2)coc2c(O)c(O)ccc12
REMARK SMILES IDX 3 1 11 2 12 3 13 4 20 5 2 6 1 7 19 8 18 9 16 10 14 11 4 12
REMARK SMILES IDX 5 13 6 14 7 15 10 16 9 17 8 18 15 20 17 22
REMARK H PARENT 8 19 15 21 17 23
REMARK Flexibility Score: inf
ROOT
ATOM      1  C   UNL     1      80.010  64.109 256.802  1.00  0.00     0.065 A 
ATOM      2  C   UNL     1      80.289  65.351 256.210  1.00  0.00     0.208 A 
ATOM      3  O   UNL     1      80.008  66.486 256.839  1.00  0.00    -0.459 OA
ATOM      4  C   UNL     1      79.454  66.522 258.047  1.00  0.00     0.183 A 
ATOM      5  C   UNL     1      79.143  65.320 258.723  1.00  0.00     0.069 A 
ATOM      6  C   UNL     1      79.434  64.100 258.087  1.00  0.00     0.200 A 
ATOM      7  O   UNL     1      79.198  63.007 258.671  1.00  0.00    -0.288 OA
ATOM      8  C   UNL     1      78.563  65.376 260.001  1.00  0.00     0.020 A 
ATOM      9  C   UNL     1      78.295  66.611 260.597  1.00  0.00     0.051 A 
ATOM     10  C   UNL     1      78.601  67.803 259.928  1.00  0.00     0.161 A 
ATOM     11  C   UNL     1      79.183  67.759 258.649  1.00  0.00     0.201 A 
ENDROOT
BRANCH   1  12
ATOM     12  C   UNL     1      80.328  62.854 256.075  1.00  0.00    -0.011 A 
ATOM     13  C   UNL     1      79.315  62.150 255.400  1.00  0.00     0.013 A 
ATOM     14  C   UNL     1      79.611  60.963 254.722  1.00  0.00     0.047 A 
ATOM     15  C   UNL     1      80.916  60.464 254.713  1.00  0.00     0.115 A 
ATOM     16  C   UNL     1      81.637  62.342 256.068  1.00  0.00     0.013 A 
ATOM     17  C   UNL     1      81.929  61.155 255.390  1.00  0.00     0.047 A 
BRANCH  15  18
ATOM     18  O   UNL     1      81.195  59.280 254.033  1.00  0.00    -0.508 OA
ATOM     19  H   UNL     1      80.963  59.166 253.053  1.00  0.00     0.293 HD
ENDBRANCH  15  18
ENDBRANCH   1  12
BRANCH  11  20
ATOM     20  O   UNL     1      79.497  68.934 257.965  1.00  0.00    -0.502 OA
ATOM     21  H   UNL     1      80.434  69.318 257.955  1.00  0.00     0.293 HD
ENDBRANCH  11  20
BRANCH  10  22
ATOM     22  O   UNL     1      78.329  69.032 260.529  1.00  0.00    -0.504 OA
ATOM     23  H   UNL     1      77.876  69.091 261.433  1.00  0.00     0.293 HD
ENDBRANCH  10  22
TORSDOF 4
ENDMDL
MODEL 2
REMARK VINA RESULT:    -5.785      1.400      2.465
REMARK INTER + INTRA:          -6.884
REMARK INTER:                  -6.698
REMARK INTRA:                  -0.186
REMARK UNBOUND:                -0.254
REMARK SMILES O=c1c(-c2ccc(O)cc2)coc2c(O)c(O)ccc12
REMARK SMILES IDX 3 1 11 2 12 3 13 4 20 5 2 6 1 7 19 8 18 9 16 10 14 11 4 12
REMARK SMILES IDX 5 13 6 14 7 15 10 16 9 17 8 18 15 20 17 22
REMARK H PARENT 8 19 15 21 17 23
REMARK Flexibility Score: inf
ROOT
ATOM      1  C   UNL     1      80.427  63.593 256.416  1.00  0.00     0.065 A 
ATOM      2  C   UNL     1      79.669  63.617 257.597  1.00  0.00     0.208 A 
ATOM      3  O   UNL     1      79.353  64.766 258.183  1.00  0.00    -0.459 OA
ATOM      4  C   UNL     1      79.725  65.948 257.700  1.00  0.00     0.183 A 
ATOM      5  C   UNL     1      80.486  66.021 256.511  1.00  0.00     0.069 A 
ATOM      6  C   UNL     1      80.833  64.823 255.862  1.00  0.00     0.200 A 
ATOM      7  O   UNL     1      81.486  64.850 254.783  1.00  0.00    -0.288 OA
ATOM      8  C   UNL     1      80.868  67.278 256.012  1.00  0.00     0.020 A 
ATOM      9  C   UNL     1      80.498  68.443 256.688  1.00  0.00     0.051 A 
ATOM     10  C   UNL     1      79.745  68.372 257.867  1.00  0.00     0.161 A 
ATOM     11  C   UNL     1      79.356  67.120 258.375  1.00  0.00     0.201 A 
ENDROOT
BRANCH   1  12
ATOM     12  C   UNL     1      80.772  62.295 255.784  1.00  0.00    -0.011 A 
ATOM     13  C   UNL     1      79.773  61.514 255.177  1.00  0.00     0.013 A 
ATOM     14  C   UNL     1      80.095  60.287 254.589  1.00  0.00     0.047 A 
ATOM     15  C   UNL     1      81.414  59.823 254.604  1.00  0.00     0.115 A 
ATOM     16  C   UNL     1      82.095  61.819 255.802  1.00  0.00     0.013 A 
ATOM     17  C   UNL     1      82.414  60.592 255.213  1.00  0.00     0.047 A 
BRANCH  15  18
ATOM     18  O   UNL     1      81.719  58.598 254.014  1.00  0.00    -0.508 OA
ATOM     19  H   UNL     1      81.970  57.790 254.572  1.00  0.00     0.293 HD
ENDBRANCH  15  18
ENDBRANCH   1  12
BRANCH  11  20
ATOM     20  O   UNL     1      78.605  67.025 259.547  1.00  0.00    -0.502 OA
ATOM     21  H   UNL     1      78.289  67.843 260.053  1.00  0.00     0.293 HD
ENDBRANCH  11  20
BRANCH  10  22
ATOM     22  O   UNL     1      79.380  69.540 258.536  1.00  0.00    -0.504 OA
ATOM     23  H   UNL     1      78.893  70.291 258.064  1.00  0.00     0.293 HD
ENDBRANCH  10  22
TORSDOF 4
ENDMDL
MODEL 3
REMARK VINA RESULT:    -5.725      9.783     10.496
REMARK INTER + INTRA:          -6.816
REMARK INTER:                  -7.258
REMARK INTRA:                   0.442
REMARK UNBOUND:                -0.254
REMARK SMILES O=c1c(-c2ccc(O)cc2)coc2c(O)c(O)ccc12
REMARK SMILES IDX 3 1 11 2 12 3 13 4 20 5 2 6 1 7 19 8 18 9 16 10 14 11 4 12
REMARK SMILES IDX 5 13 6 14 7 15 10 16 9 17 8 18 15 20 17 22
REMARK H PARENT 8 19 15 21 17 23
REMARK Flexibility Score: inf
ROOT
ATOM      1  C   UNL     1      82.511  55.582 257.664  1.00  0.00     0.065 A 
ATOM      2  C   UNL     1      82.773  55.534 259.042  1.00  0.00     0.208 A 
ATOM      3  O   UNL     1      81.850  55.116 259.899  1.00  0.00    -0.459 OA
ATOM      4  C   UNL     1      80.639  54.720 259.518  1.00  0.00     0.183 A 
ATOM      5  C   UNL     1      80.287  54.729 258.149  1.00  0.00     0.069 A 
ATOM      6  C   UNL     1      81.244  55.161 257.214  1.00  0.00     0.200 A 
ATOM      7  O   UNL     1      80.977  55.155 255.981  1.00  0.00    -0.288 OA
ATOM      8  C   UNL     1      79.005  54.303 257.762  1.00  0.00     0.020 A 
ATOM      9  C   UNL     1      78.087  53.878 258.725  1.00  0.00     0.051 A 
ATOM     10  C   UNL     1      78.433  53.870 260.082  1.00  0.00     0.161 A 
ATOM     11  C   UNL     1      79.713  54.292 260.481  1.00  0.00     0.201 A 
ENDROOT
BRANCH   1  12
ATOM     12  C   UNL     1      83.558  56.061 256.727  1.00  0.00    -0.011 A 
ATOM     13  C   UNL     1      84.593  56.895 257.186  1.00  0.00     0.013 A 
ATOM     14  C   UNL     1      85.575  57.354 256.304  1.00  0.00     0.047 A 
ATOM     15  C   UNL     1      85.534  56.992 254.955  1.00  0.00     0.115 A 
ATOM     16  C   UNL     1      83.519  55.707 255.366  1.00  0.00     0.013 A 
ATOM     17  C   UNL     1      84.503  56.168 254.487  1.00  0.00     0.047 A 
BRANCH  15  18
ATOM     18  O   UNL     1      86.521  57.459 254.088  1.00  0.00    -0.508 OA
ATOM     19  H   UNL     1      86.623  57.083 253.152  1.00  0.00     0.293 HD
ENDBRANCH  15  18
ENDBRANCH   1  12
BRANCH  11  20
ATOM     20  O   UNL     1      80.080  54.292 261.827  1.00  0.00    -0.502 OA
ATOM     21  H   UNL     1      79.796  55.027 262.463  1.00  0.00     0.293 HD
ENDBRANCH  11  20
BRANCH  10  22
ATOM     22  O   UNL     1      77.510  53.445 261.037  1.00  0.00    -0.504 OA
ATOM     23  H   UNL     1      77.532  53.795 261.988  1.00  0.00     0.293 HD
ENDBRANCH  10  22
TORSDOF 4
ENDMDL
MODEL 4
REMARK VINA RESULT:    -5.708      6.747     10.275
REMARK INTER + INTRA:          -6.796
REMARK INTER:                  -6.549
REMARK INTRA:                  -0.248
REMARK UNBOUND:                -0.254
REMARK SMILES O=c1c(-c2ccc(O)cc2)coc2c(O)c(O)ccc12
REMARK SMILES IDX 3 1 11 2 12 3 13 4 20 5 2 6 1 7 19 8 18 9 16 10 14 11 4 12
REMARK SMILES IDX 5 13 6 14 7 15 10 16 9 17 8 18 15 20 17 22
REMARK H PARENT 8 19 15 21 17 23
REMARK Flexibility Score: inf
ROOT
ATOM      1  C   UNL     1      83.728  57.580 255.975  1.00  0.00     0.065 A 
ATOM      2  C   UNL     1      83.365  56.535 255.110  1.00  0.00     0.208 A 
ATOM      3  O   UNL     1      83.056  55.334 255.582  1.00  0.00    -0.459 OA
ATOM      4  C   UNL     1      83.068  55.044 256.880  1.00  0.00     0.183 A 
ATOM      5  C   UNL     1      83.416  56.035 257.825  1.00  0.00     0.069 A 
ATOM      6  C   UNL     1      83.743  57.321 257.359  1.00  0.00     0.200 A 
ATOM      7  O   UNL     1      84.030  58.239 258.175  1.00  0.00    -0.288 OA
ATOM      8  C   UNL     1      83.419  55.714 259.193  1.00  0.00     0.020 A 
ATOM      9  C   UNL     1      83.084  54.424 259.612  1.00  0.00     0.051 A 
ATOM     10  C   UNL     1      82.740  53.441 258.675  1.00  0.00     0.161 A 
ATOM     11  C   UNL     1      82.732  53.751 257.305  1.00  0.00     0.201 A 
ENDROOT
BRANCH   1  12
ATOM     12  C   UNL     1      84.076  58.913 255.421  1.00  0.00    -0.011 A 
ATOM     13  C   UNL     1      85.366  59.156 254.916  1.00  0.00     0.013 A 
ATOM     14  C   UNL     1      85.698  60.412 254.402  1.00  0.00     0.047 A 
ATOM     15  C   UNL     1      84.753  61.442 254.391  1.00  0.00     0.115 A 
ATOM     16  C   UNL     1      83.132  59.955 255.414  1.00  0.00     0.013 A 
ATOM     17  C   UNL     1      83.468  61.211 254.900  1.00  0.00     0.047 A 
BRANCH  15  18
ATOM     18  O   UNL     1      85.099  62.689 253.876  1.00  0.00    -0.508 OA
ATOM     19  H   UNL     1      86.065  62.993 253.832  1.00  0.00     0.293 HD
ENDBRANCH  15  18
ENDBRANCH   1  12
BRANCH  11  20
ATOM     20  O   UNL     1      82.392  52.787 256.355  1.00  0.00    -0.502 OA
ATOM     21  H   UNL     1      83.062  52.434 255.682  1.00  0.00     0.293 HD
ENDBRANCH  11  20
BRANCH  10  22
ATOM     22  O   UNL     1      82.407  52.155 259.102  1.00  0.00    -0.504 OA
ATOM     23  H   UNL     1      81.682  51.996 259.791  1.00  0.00     0.293 HD
ENDBRANCH  10  22
TORSDOF 4
ENDMDL
MODEL 5
REMARK VINA RESULT:    -5.559      9.404     12.037
REMARK INTER + INTRA:          -6.625
REMARK INTER:                  -6.373
REMARK INTRA:                  -0.252
REMARK UNBOUND:                -0.254
REMARK SMILES O=c1c(-c2ccc(O)cc2)coc2c(O)c(O)ccc12
REMARK SMILES IDX 3 1 11 2 12 3 13 4 20 5 2 6 1 7 19 8 18 9 16 10 14 11 4 12
REMARK SMILES IDX 5 13 6 14 7 15 10 16 9 17 8 18 15 20 17 22
REMARK H PARENT 8 19 15 21 17 23
REMARK Flexibility Score: inf
ROOT
ATOM      1  C   UNL     1      80.858  54.071 258.158  1.00  0.00     0.065 A 
ATOM      2  C   UNL     1      81.036  52.840 258.809  1.00  0.00     0.208 A 
ATOM      3  O   UNL     1      80.015  52.014 258.999  1.00  0.00    -0.459 OA
ATOM      4  C   UNL     1      78.779  52.290 258.593  1.00  0.00     0.183 A 
ATOM      5  C   UNL     1      78.506  53.505 257.923  1.00  0.00     0.069 A 
ATOM      6  C   UNL     1      79.567  54.400 257.701  1.00  0.00     0.200 A 
ATOM      7  O   UNL     1      79.368  55.481 257.081  1.00  0.00    -0.288 OA
ATOM      8  C   UNL     1      77.195  53.779 257.497  1.00  0.00     0.020 A 
ATOM      9  C   UNL     1      76.172  52.859 257.736  1.00  0.00     0.051 A 
ATOM     10  C   UNL     1      76.441  51.655 258.401  1.00  0.00     0.161 A 
ATOM     11  C   UNL     1      77.748  51.369 258.830  1.00  0.00     0.201 A 
ENDROOT
BRANCH   1  12
ATOM     12  C   UNL     1      82.015  54.981 257.964  1.00  0.00    -0.011 A 
ATOM     13  C   UNL     1      82.432  55.830 259.005  1.00  0.00     0.013 A 
ATOM     14  C   UNL     1      83.515  56.693 258.823  1.00  0.00     0.047 A 
ATOM     15  C   UNL     1      84.192  56.725 257.600  1.00  0.00     0.115 A 
ATOM     16  C   UNL     1      82.696  55.023 256.735  1.00  0.00     0.013 A 
ATOM     17  C   UNL     1      83.779  55.888 256.555  1.00  0.00     0.047 A 
BRANCH  15  18
ATOM     18  O   UNL     1      85.271  57.591 257.433  1.00  0.00    -0.508 OA
ATOM     19  H   UNL     1      86.086  57.542 258.032  1.00  0.00     0.293 HD
ENDBRANCH  15  18
ENDBRANCH   1  12
BRANCH  11  20
ATOM     20  O   UNL     1      78.039  50.176 259.493  1.00  0.00    -0.502 OA
ATOM     21  H   UNL     1      78.021  49.280 259.023  1.00  0.00     0.293 HD
ENDBRANCH  11  20
BRANCH  10  22
ATOM     22  O   UNL     1      75.414  50.742 258.636  1.00  0.00    -0.504 OA
ATOM     23  H   UNL     1      74.681  50.930 259.310  1.00  0.00     0.293 HD
ENDBRANCH  10  22
TORSDOF 4
ENDMDL
MODEL 6
REMARK VINA RESULT:    -5.528      9.485     12.183
REMARK INTER + INTRA:          -6.589
REMARK INTER:                  -6.519
REMARK INTRA:                  -0.071
REMARK UNBOUND:                -0.254
REMARK SMILES O=c1c(-c2ccc(O)cc2)coc2c(O)c(O)ccc12
REMARK SMILES IDX 3 1 11 2 12 3 13 4 20 5 2 6 1 7 19 8 18 9 16 10 14 11 4 12
REMARK SMILES IDX 5 13 6 14 7 15 10 16 9 17 8 18 15 20 17 22
REMARK H PARENT 8 19 15 21 17 23
REMARK Flexibility Score: inf
ROOT
ATOM      1  C   UNL     1      81.725  54.450 257.731  1.00  0.00     0.065 A 
ATOM      2  C   UNL     1      80.629  54.958 258.447  1.00  0.00     0.208 A 
ATOM      3  O   UNL     1      79.673  54.154 258.895  1.00  0.00    -0.459 OA
ATOM      4  C   UNL     1      79.688  52.838 258.701  1.00  0.00     0.183 A 
ATOM      5  C   UNL     1      80.755  52.237 257.996  1.00  0.00     0.069 A 
ATOM      6  C   UNL     1      81.787  53.060 257.512  1.00  0.00     0.200 A 
ATOM      7  O   UNL     1      82.771  52.555 256.904  1.00  0.00    -0.288 OA
ATOM      8  C   UNL     1      80.757  50.845 257.804  1.00  0.00     0.020 A 
ATOM      9  C   UNL     1      79.712  50.065 258.304  1.00  0.00     0.051 A 
ATOM     10  C   UNL     1      78.654  50.661 259.003  1.00  0.00     0.161 A 
ATOM     11  C   UNL     1      78.641  52.052 259.202  1.00  0.00     0.201 A 
ENDROOT
BRANCH   1  12
ATOM     12  C   UNL     1      82.778  55.371 257.235  1.00  0.00    -0.011 A 
ATOM     13  C   UNL     1      83.494  56.180 258.135  1.00  0.00     0.013 A 
ATOM     14  C   UNL     1      84.479  57.055 257.669  1.00  0.00     0.047 A 
ATOM     15  C   UNL     1      84.759  57.137 256.301  1.00  0.00     0.115 A 
ATOM     16  C   UNL     1      83.059  55.464 255.860  1.00  0.00     0.013 A 
ATOM     17  C   UNL     1      84.044  56.340 255.397  1.00  0.00     0.047 A 
BRANCH  15  18
ATOM     18  O   UNL     1      85.744  58.014 255.852  1.00  0.00    -0.508 OA
ATOM     19  H   UNL     1      86.018  58.824 256.395  1.00  0.00     0.293 HD
ENDBRANCH  15  18
ENDBRANCH   1  12
BRANCH  11  20
ATOM     20  O   UNL     1      77.597  52.666 259.895  1.00  0.00    -0.502 OA
ATOM     21  H   UNL     1      76.630  52.399 259.760  1.00  0.00     0.293 HD
ENDBRANCH  11  20
BRANCH  10  22
ATOM     22  O   UNL     1      77.613  49.875 259.498  1.00  0.00    -0.504 OA
ATOM     23  H   UNL     1      77.767  49.193 260.231  1.00  0.00     0.293 HD
ENDBRANCH  10  22
TORSDOF 4
ENDMDL
MODEL 7
REMARK VINA RESULT:    -5.435     10.433     12.073
REMARK INTER + INTRA:          -6.483
REMARK INTER:                  -6.251
REMARK INTRA:                  -0.232
REMARK UNBOUND:                -0.254
REMARK SMILES O=c1c(-c2ccc(O)cc2)coc2c(O)c(O)ccc12
REMARK SMILES IDX 3 1 11 2 12 3 13 4 20 5 2 6 1 7 19 8 18 9 16 10 14 11 4 12
REMARK SMILES IDX 5 13 6 14 7 15 10 16 9 17 8 18 15 20 17 22
REMARK H PARENT 8 19 15 21 17 23
REMARK Flexibility Score: inf
ROOT
ATOM      1  C   UNL     1      77.252  53.576 258.925  1.00  0.00     0.065 A 
ATOM      2  C   UNL     1      77.659  53.438 260.261  1.00  0.00     0.208 A 
ATOM      3  O   UNL     1      78.904  53.718 260.628  1.00  0.00    -0.459 OA
ATOM      4  C   UNL     1      79.830  54.139 259.772  1.00  0.00     0.183 A 
ATOM      5  C   UNL     1      79.509  54.312 258.407  1.00  0.00     0.069 A 
ATOM      6  C   UNL     1      78.198  54.030 257.986  1.00  0.00     0.200 A 
ATOM      7  O   UNL     1      77.866  54.202 256.780  1.00  0.00    -0.288 OA
ATOM      8  C   UNL     1      80.499  54.763 257.517  1.00  0.00     0.020 A 
ATOM      9  C   UNL     1      81.788  55.034 257.979  1.00  0.00     0.051 A 
ATOM     10  C   UNL     1      82.108  54.862 259.332  1.00  0.00     0.161 A 
ATOM     11  C   UNL     1      81.126  54.413 260.233  1.00  0.00     0.201 A 
ENDROOT
BRANCH   1  12
ATOM     12  C   UNL     1      75.856  53.250 258.539  1.00  0.00    -0.011 A 
ATOM     13  C   UNL     1      74.917  54.278 258.338  1.00  0.00     0.013 A 
ATOM     14  C   UNL     1      73.600  53.973 257.982  1.00  0.00     0.047 A 
ATOM     15  C   UNL     1      73.202  52.642 257.829  1.00  0.00     0.115 A 
ATOM     16  C   UNL     1      75.446  51.913 258.390  1.00  0.00     0.013 A 
ATOM     17  C   UNL     1      74.128  51.612 258.035  1.00  0.00     0.047 A 
BRANCH  15  18
ATOM     18  O   UNL     1      71.886  52.354 257.475  1.00  0.00    -0.508 OA
ATOM     19  H   UNL     1      71.222  53.090 257.263  1.00  0.00     0.293 HD
ENDBRANCH  15  18
ENDBRANCH   1  12
BRANCH  11  20
ATOM     20  O   UNL     1      81.422  54.235 261.584  1.00  0.00    -0.502 OA
ATOM     21  H   UNL     1      81.521  53.316 261.998  1.00  0.00     0.293 HD
ENDBRANCH  11  20
BRANCH  10  22
ATOM     22  O   UNL     1      83.398  55.134 259.786  1.00  0.00    -0.504 OA
ATOM     23  H   UNL     1      83.777  54.682 260.610  1.00  0.00     0.293 HD
ENDBRANCH  10  22
TORSDOF 4
ENDMDL
