MODEL 1
REMARK VINA RESULT:    -3.906      0.000      0.000
REMARK INTER + INTRA:          -6.016
REMARK INTER:                  -5.276
REMARK INTRA:                  -0.740
REMARK UNBOUND:                -0.740
REMARK SMILES O=C[C@H](O)[C@H](O)[C@@H](O)CO
REMARK SMILES IDX 7 1 9 2 10 3 5 5 3 6 2 7 1 8 4 9 6 11 8 13
REMARK H PARENT 10 4 4 10 6 12 8 14
REMARK Flexibility Score: inf
ROOT
ATOM      1  C   UNL     1       0.186  -0.356  14.421  1.00  0.00     0.171 C 
ENDROOT
BRANCH   1   2
ATOM      2  C   UNL     1      -1.334  -0.159  14.586  1.00  0.00     0.190 C 
BRANCH   2   3
ATOM      3  O   UNL     1      -2.028  -1.374  14.476  1.00  0.00    -0.394 OA
ATOM      4  H   UNL     1      -2.993  -1.169  14.581  1.00  0.00     0.210 HD
ENDBRANCH   2   3
ENDBRANCH   1   2
BRANCH   1   5
ATOM      5  C   UNL     1       0.902  -1.079  15.605  1.00  0.00     0.181 C 
BRANCH   5   6
ATOM      6  C   UNL     1       2.442  -0.909  15.711  1.00  0.00     0.209 C 
BRANCH   6   7
ATOM      7  C   UNL     1       3.184  -2.082  15.129  1.00  0.00     0.258 C 
ATOM      8  O   UNL     1       2.941  -2.466  13.997  1.00  0.00    -0.300 OA
ENDBRANCH   6   7
BRANCH   6   9
ATOM      9  O   UNL     1       2.830  -0.700  17.045  1.00  0.00    -0.383 OA
ATOM     10  H   UNL     1       2.120  -0.153  17.471  1.00  0.00     0.211 HD
ENDBRANCH   6   9
ENDBRANCH   5   6
BRANCH   5  11
ATOM     11  O   UNL     1       0.547  -2.440  15.646  1.00  0.00    -0.387 OA
ATOM     12  H   UNL     1       1.131  -2.932  15.014  1.00  0.00     0.211 HD
ENDBRANCH   5  11
ENDBRANCH   1   5
BRANCH   1  13
ATOM     13  O   UNL     1       0.443  -1.017  13.206  1.00  0.00    -0.388 OA
ATOM     14  H   UNL     1       1.309  -0.673  12.865  1.00  0.00     0.211 HD
ENDBRANCH   1  13
TORSDOF 8
ENDMDL
MODEL 2
REMARK VINA RESULT:    -3.906      1.367      4.065
REMARK INTER + INTRA:          -6.016
REMARK INTER:                  -5.311
REMARK INTRA:                  -0.704
REMARK UNBOUND:                -0.740
REMARK SMILES O=C[C@H](O)[C@H](O)[C@@H](O)CO
REMARK SMILES IDX 7 1 9 2 10 3 5 5 3 6 2 7 1 8 4 9 6 11 8 13
REMARK H PARENT 10 4 4 10 6 12 8 14
REMARK Flexibility Score: inf
ROOT
ATOM      1  C   UNL     1       2.167  -0.805  14.724  1.00  0.00     0.171 C 
ENDROOT
BRANCH   1   2
ATOM      2  C   UNL     1       3.179  -1.961  14.585  1.00  0.00     0.190 C 
BRANCH   2   3
ATOM      3  O   UNL     1       2.587  -3.101  14.018  1.00  0.00    -0.394 OA
ATOM      4  H   UNL     1       1.868  -3.393  14.637  1.00  0.00     0.210 HD
ENDBRANCH   2   3
ENDBRANCH   1   2
BRANCH   1   5
ATOM      5  C   UNL     1       0.715  -1.124  14.247  1.00  0.00     0.181 C 
BRANCH   5   6
ATOM      6  C   UNL     1      -0.120   0.059  13.684  1.00  0.00     0.209 C 
BRANCH   6   7
ATOM      7  C   UNL     1      -1.039   0.649  14.720  1.00  0.00     0.258 C 
ATOM      8  O   UNL     1      -0.606   0.981  15.812  1.00  0.00    -0.300 OA
ENDBRANCH   6   7
BRANCH   6   9
ATOM      9  O   UNL     1      -0.853  -0.340  12.555  1.00  0.00    -0.383 OA
ATOM     10  H   UNL     1      -0.841   0.421  11.918  1.00  0.00     0.211 HD
ENDBRANCH   6   9
ENDBRANCH   5   6
BRANCH   5  11
ATOM     11  O   UNL     1      -0.000  -1.807  15.247  1.00  0.00    -0.387 OA
ATOM     12  H   UNL     1      -0.949  -1.522  15.200  1.00  0.00     0.211 HD
ENDBRANCH   5  11
ENDBRANCH   1   5
BRANCH   1  13
ATOM     13  O   UNL     1       2.164  -0.344  16.053  1.00  0.00    -0.388 OA
ATOM     14  H   UNL     1       1.722   0.544  16.052  1.00  0.00     0.211 HD
ENDBRANCH   1  13
TORSDOF 8
ENDMDL
MODEL 3
REMARK VINA RESULT:    -3.877      8.146      8.555
REMARK INTER + INTRA:          -5.976
REMARK INTER:                  -5.380
REMARK INTRA:                  -0.596
REMARK UNBOUND:                -0.740
REMARK SMILES O=C[C@H](O)[C@H](O)[C@@H](O)CO
REMARK SMILES IDX 7 1 9 2 10 3 5 5 3 6 2 7 1 8 4 9 6 11 8 13
REMARK H PARENT 10 4 4 10 6 12 8 14
REMARK Flexibility Score: inf
ROOT
ATOM      1  C   UNL     1       1.095   5.089   9.252  1.00  0.00     0.171 C 
ENDROOT
BRANCH   1   2
ATOM      2  C   UNL     1      -0.238   4.871   8.508  1.00  0.00     0.190 C 
BRANCH   2   3
ATOM      3  O   UNL     1      -1.340   5.068   9.354  1.00  0.00    -0.394 OA
ATOM      4  H   UNL     1      -1.464   6.048   9.447  1.00  0.00     0.210 HD
ENDBRANCH   2   3
ENDBRANCH   1   2
BRANCH   1   5
ATOM      5  C   UNL     1       1.042   6.095  10.444  1.00  0.00     0.181 C 
BRANCH   5   6
ATOM      6  C   UNL     1       2.257   7.046  10.622  1.00  0.00     0.209 C 
BRANCH   6   7
ATOM      7  C   UNL     1       3.531   6.293  10.900  1.00  0.00     0.258 C 
ATOM      8  O   UNL     1       3.534   5.350  11.675  1.00  0.00    -0.300 OA
ENDBRANCH   6   7
BRANCH   6   9
ATOM      9  O   UNL     1       2.013   7.981  11.641  1.00  0.00    -0.383 OA
ATOM     10  H   UNL     1       2.056   8.881  11.223  1.00  0.00     0.211 HD
ENDBRANCH   6   9
ENDBRANCH   5   6
BRANCH   5  11
ATOM     11  O   UNL     1       0.751   5.427  11.648  1.00  0.00    -0.387 OA
ATOM     12  H   UNL     1       1.598   5.061  12.012  1.00  0.00     0.211 HD
ENDBRANCH   5  11
ENDBRANCH   1   5
BRANCH   1  13
ATOM     13  O   UNL     1       1.605   3.847   9.671  1.00  0.00    -0.388 OA
ATOM     14  H   UNL     1       1.903   3.956  10.611  1.00  0.00     0.211 HD
ENDBRANCH   1  13
TORSDOF 8
ENDMDL
MODEL 4
REMARK VINA RESULT:    -3.874      7.956      9.349
REMARK INTER + INTRA:          -5.972
REMARK INTER:                  -5.277
REMARK INTRA:                  -0.695
REMARK UNBOUND:                -0.740
REMARK SMILES O=C[C@H](O)[C@H](O)[C@@H](O)CO
REMARK SMILES IDX 7 1 9 2 10 3 5 5 3 6 2 7 1 8 4 9 6 11 8 13
REMARK H PARENT 10 4 4 10 6 12 8 14
REMARK Flexibility Score: inf
ROOT
ATOM      1  C   UNL     1       0.062   3.255   6.903  1.00  0.00     0.171 C 
ENDROOT
BRANCH   1   2
ATOM      2  C   UNL     1      -1.107   3.295   5.898  1.00  0.00     0.190 C 
BRANCH   2   3
ATOM      3  O   UNL     1      -0.872   4.221   4.869  1.00  0.00    -0.394 OA
ATOM      4  H   UNL     1       0.059   4.546   4.977  1.00  0.00     0.210 HD
ENDBRANCH   2   3
ENDBRANCH   1   2
BRANCH   1   5
ATOM      5  C   UNL     1       0.155   4.474   7.873  1.00  0.00     0.181 C 
BRANCH   5   6
ATOM      6  C   UNL     1       0.304   4.163   9.388  1.00  0.00     0.209 C 
BRANCH   6   7
ATOM      7  C   UNL     1       0.234   5.408  10.232  1.00  0.00     0.258 C 
ATOM      8  O   UNL     1       0.844   6.413   9.902  1.00  0.00    -0.300 OA
ENDBRANCH   6   7
BRANCH   6   9
ATOM      9  O   UNL     1       1.499   3.471   9.640  1.00  0.00    -0.383 OA
ATOM     10  H   UNL     1       1.837   3.147   8.764  1.00  0.00     0.211 HD
ENDBRANCH   6   9
ENDBRANCH   5   6
BRANCH   5  11
ATOM     11  O   UNL     1      -0.906   5.371   7.651  1.00  0.00    -0.387 OA
ATOM     12  H   UNL     1      -1.746   4.848   7.585  1.00  0.00     0.211 HD
ENDBRANCH   5  11
ENDBRANCH   1   5
BRANCH   1  13
ATOM     13  O   UNL     1       0.017   2.048   7.623  1.00  0.00    -0.388 OA
ATOM     14  H   UNL     1       0.328   2.247   8.545  1.00  0.00     0.211 HD
ENDBRANCH   1  13
TORSDOF 8
ENDMDL
MODEL 5
REMARK VINA RESULT:    -3.858      1.765      3.574
REMARK INTER + INTRA:          -5.952
REMARK INTER:                  -5.470
REMARK INTRA:                  -0.481
REMARK UNBOUND:                -0.740
REMARK SMILES O=C[C@H](O)[C@H](O)[C@@H](O)CO
REMARK SMILES IDX 7 1 9 2 10 3 5 5 3 6 2 7 1 8 4 9 6 11 8 13
REMARK H PARENT 10 4 4 10 6 12 8 14
REMARK Flexibility Score: inf
ROOT
ATOM      1  C   UNL     1       1.530  -2.494  15.075  1.00  0.00     0.171 C 
ENDROOT
BRANCH   1   2
ATOM      2  C   UNL     1       2.500  -3.651  15.389  1.00  0.00     0.190 C 
BRANCH   2   3
ATOM      3  O   UNL     1       2.348  -4.713  14.483  1.00  0.00    -0.394 OA
ATOM      4  H   UNL     1       1.717  -4.407  13.780  1.00  0.00     0.210 HD
ENDBRANCH   2   3
ENDBRANCH   1   2
BRANCH   1   5
ATOM      5  C   UNL     1       1.389  -1.415  16.194  1.00  0.00     0.181 C 
BRANCH   5   6
ATOM      6  C   UNL     1      -0.020  -0.798  16.408  1.00  0.00     0.209 C 
BRANCH   6   7
ATOM      7  C   UNL     1      -0.225   0.448  15.588  1.00  0.00     0.258 C 
ATOM      8  O   UNL     1       0.146   0.489  14.426  1.00  0.00    -0.300 OA
ENDBRANCH   6   7
BRANCH   6   9
ATOM      9  O   UNL     1      -0.246  -0.528  17.768  1.00  0.00    -0.383 OA
ATOM     10  H   UNL     1      -0.820   0.281  17.811  1.00  0.00     0.211 HD
ENDBRANCH   6   9
ENDBRANCH   5   6
BRANCH   5  11
ATOM     11  O   UNL     1       2.357  -0.405  16.040  1.00  0.00    -0.387 OA
ATOM     12  H   UNL     1       2.845  -0.571  15.193  1.00  0.00     0.211 HD
ENDBRANCH   5  11
ENDBRANCH   1   5
BRANCH   1  13
ATOM     13  O   UNL     1       1.893  -1.898  13.854  1.00  0.00    -0.388 OA
ATOM     14  H   UNL     1       1.256  -1.156  13.690  1.00  0.00     0.211 HD
ENDBRANCH   1  13
TORSDOF 8
ENDMDL
MODEL 6
REMARK VINA RESULT:    -3.855      6.793      7.886
REMARK INTER + INTRA:          -5.947
REMARK INTER:                  -5.452
REMARK INTRA:                  -0.495
REMARK UNBOUND:                -0.740
REMARK SMILES O=C[C@H](O)[C@H](O)[C@@H](O)CO
REMARK SMILES IDX 7 1 9 2 10 3 5 5 3 6 2 7 1 8 4 9 6 11 8 13
REMARK H PARENT 10 4 4 10 6 12 8 14
REMARK Flexibility Score: inf
ROOT
ATOM      1  C   UNL     1      -4.768   1.136  21.214  1.00  0.00     0.171 C 
ENDROOT
BRANCH   1   2
ATOM      2  C   UNL     1      -4.390   2.515  21.792  1.00  0.00     0.190 C 
BRANCH   2   3
ATOM      3  O   UNL     1      -3.527   2.395  22.892  1.00  0.00    -0.394 OA
ATOM      4  H   UNL     1      -2.605   2.327  22.532  1.00  0.00     0.210 HD
ENDBRANCH   2   3
ENDBRANCH   1   2
BRANCH   1   5
ATOM      5  C   UNL     1      -3.937   0.678  19.974  1.00  0.00     0.181 C 
BRANCH   5   6
ATOM      6  C   UNL     1      -2.880  -0.436  20.203  1.00  0.00     0.209 C 
BRANCH   6   7
ATOM      7  C   UNL     1      -1.900  -0.533  19.065  1.00  0.00     0.258 C 
ATOM      8  O   UNL     1      -0.805   0.000  19.146  1.00  0.00    -0.300 OA
ENDBRANCH   6   7
BRANCH   6   9
ATOM      9  O   UNL     1      -3.501  -1.677  20.417  1.00  0.00    -0.383 OA
ATOM     10  H   UNL     1      -2.896  -2.372  20.048  1.00  0.00     0.211 HD
ENDBRANCH   6   9
ENDBRANCH   5   6
BRANCH   5  11
ATOM     11  O   UNL     1      -3.361   1.785  19.323  1.00  0.00    -0.387 OA
ATOM     12  H   UNL     1      -3.940   2.028  18.556  1.00  0.00     0.211 HD
ENDBRANCH   5  11
ENDBRANCH   1   5
BRANCH   1  13
ATOM     13  O   UNL     1      -4.713   0.170  22.234  1.00  0.00    -0.388 OA
ATOM     14  H   UNL     1      -4.115  -0.556  21.917  1.00  0.00     0.211 HD
ENDBRANCH   1  13
TORSDOF 8
ENDMDL
MODEL 7
REMARK VINA RESULT:    -3.776      1.029      3.787
REMARK INTER + INTRA:          -5.841
REMARK INTER:                  -5.139
REMARK INTRA:                  -0.702
REMARK UNBOUND:                -0.740
REMARK SMILES O=C[C@H](O)[C@H](O)[C@@H](O)CO
REMARK SMILES IDX 7 1 9 2 10 3 5 5 3 6 2 7 1 8 4 9 6 11 8 13
REMARK H PARENT 10 4 4 10 6 12 8 14
REMARK Flexibility Score: inf
ROOT
ATOM      1  C   UNL     1       2.295  -0.985  15.086  1.00  0.00     0.171 C 
ENDROOT
BRANCH   1   2
ATOM      2  C   UNL     1       2.643  -2.487  15.103  1.00  0.00     0.190 C 
BRANCH   2   3
ATOM      3  O   UNL     1       2.603  -3.042  13.815  1.00  0.00    -0.394 OA
ATOM      4  H   UNL     1       2.485  -4.022  13.924  1.00  0.00     0.210 HD
ENDBRANCH   2   3
ENDBRANCH   1   2
BRANCH   1   5
ATOM      5  C   UNL     1       0.814  -0.643  14.733  1.00  0.00     0.181 C 
BRANCH   5   6
ATOM      6  C   UNL     1      -0.274  -1.068  15.757  1.00  0.00     0.209 C 
BRANCH   6   7
ATOM      7  C   UNL     1      -1.638  -0.554  15.384  1.00  0.00     0.258 C 
ATOM      8  O   UNL     1      -2.183  -0.936  14.361  1.00  0.00    -0.300 OA
ENDBRANCH   6   7
BRANCH   6   9
ATOM      9  O   UNL     1       0.068  -0.646  17.052  1.00  0.00    -0.383 OA
ATOM     10  H   UNL     1      -0.761  -0.683  17.597  1.00  0.00     0.211 HD
ENDBRANCH   6   9
ENDBRANCH   5   6
BRANCH   5  11
ATOM     11  O   UNL     1       0.489  -1.103  13.443  1.00  0.00    -0.387 OA
ATOM     12  H   UNL     1       1.115  -0.684  12.798  1.00  0.00     0.211 HD
ENDBRANCH   5  11
ENDBRANCH   1   5
BRANCH   1  13
ATOM     13  O   UNL     1       2.660  -0.406  16.314  1.00  0.00    -0.388 OA
ATOM     14  H   UNL     1       3.067  -1.125  16.865  1.00  0.00     0.211 HD
ENDBRANCH   1  13
TORSDOF 8
ENDMDL
MODEL 8
REMARK VINA RESULT:    -3.746      7.321      8.329
REMARK INTER + INTRA:          -5.800
REMARK INTER:                  -4.843
REMARK INTRA:                  -0.957
REMARK UNBOUND:                -0.740
REMARK SMILES O=C[C@H](O)[C@H](O)[C@@H](O)CO
REMARK SMILES IDX 7 1 9 2 10 3 5 5 3 6 2 7 1 8 4 9 6 11 8 13
REMARK H PARENT 10 4 4 10 6 12 8 14
REMARK Flexibility Score: inf
ROOT
ATOM      1  C   UNL     1      -0.446   4.896  10.037  1.00  0.00     0.171 C 
ENDROOT
BRANCH   1   2
ATOM      2  C   UNL     1      -0.420   3.458   9.479  1.00  0.00     0.190 C 
BRANCH   2   3
ATOM      3  O   UNL     1       0.697   3.243   8.657  1.00  0.00    -0.394 OA
ATOM      4  H   UNL     1       1.490   3.190   9.252  1.00  0.00     0.210 HD
ENDBRANCH   2   3
ENDBRANCH   1   2
BRANCH   1   5
ATOM      5  C   UNL     1       0.706   5.252  11.028  1.00  0.00     0.181 C 
BRANCH   5   6
ATOM      6  C   UNL     1       1.586   6.483  10.677  1.00  0.00     0.209 C 
BRANCH   6   7
ATOM      7  C   UNL     1       2.812   6.100   9.892  1.00  0.00     0.258 C 
ATOM      8  O   UNL     1       2.708   5.454   8.862  1.00  0.00    -0.300 OA
ENDBRANCH   6   7
BRANCH   6   9
ATOM      9  O   UNL     1       1.951   7.183  11.839  1.00  0.00    -0.383 OA
ATOM     10  H   UNL     1       1.766   6.583  12.608  1.00  0.00     0.211 HD
ENDBRANCH   6   9
ENDBRANCH   5   6
BRANCH   5  11
ATOM     11  O   UNL     1       1.508   4.125  11.287  1.00  0.00    -0.387 OA
ATOM     12  H   UNL     1       1.702   3.678  10.424  1.00  0.00     0.211 HD
ENDBRANCH   5  11
ENDBRANCH   1   5
BRANCH   1  13
ATOM     13  O   UNL     1      -0.485   5.811   8.970  1.00  0.00    -0.388 OA
ATOM     14  H   UNL     1       0.314   6.393   9.055  1.00  0.00     0.211 HD
ENDBRANCH   1  13
TORSDOF 8
ENDMDL
MODEL 9
REMARK VINA RESULT:    -3.741      1.939      3.966
REMARK INTER + INTRA:          -5.792
REMARK INTER:                  -5.495
REMARK INTRA:                  -0.297
REMARK UNBOUND:                -0.740
REMARK SMILES O=C[C@H](O)[C@H](O)[C@@H](O)CO
REMARK SMILES IDX 7 1 9 2 10 3 5 5 3 6 2 7 1 8 4 9 6 11 8 13
REMARK H PARENT 10 4 4 10 6 12 8 14
REMARK Flexibility Score: inf
ROOT
ATOM      1  C   UNL     1       2.235  -3.852  15.333  1.00  0.00     0.171 C 
ENDROOT
BRANCH   1   2
ATOM      2  C   UNL     1       3.074  -4.365  16.520  1.00  0.00     0.190 C 
BRANCH   2   3
ATOM      3  O   UNL     1       2.751  -5.692  16.846  1.00  0.00    -0.394 OA
ATOM      4  H   UNL     1       1.910  -5.665  17.373  1.00  0.00     0.210 HD
ENDBRANCH   2   3
ENDBRANCH   1   2
BRANCH   1   5
ATOM      5  C   UNL     1       2.541  -2.390  14.878  1.00  0.00     0.181 C 
BRANCH   5   6
ATOM      6  C   UNL     1       1.711  -1.255  15.537  1.00  0.00     0.209 C 
BRANCH   6   7
ATOM      7  C   UNL     1       1.184  -0.275  14.524  1.00  0.00     0.258 C 
ATOM      8  O   UNL     1       0.199  -0.547  13.855  1.00  0.00    -0.300 OA
ENDBRANCH   6   7
BRANCH   6   9
ATOM      9  O   UNL     1       2.467  -0.586  16.513  1.00  0.00    -0.383 OA
ATOM     10  H   UNL     1       1.933  -0.595  17.350  1.00  0.00     0.211 HD
ENDBRANCH   6   9
ENDBRANCH   5   6
BRANCH   5  11
ATOM     11  O   UNL     1       2.501  -2.286  13.475  1.00  0.00    -0.387 OA
ATOM     12  H   UNL     1       1.904  -2.997  13.128  1.00  0.00     0.211 HD
ENDBRANCH   5  11
ENDBRANCH   1   5
BRANCH   1  13
ATOM     13  O   UNL     1       2.357  -4.745  14.253  1.00  0.00    -0.388 OA
ATOM     14  H   UNL     1       3.250  -5.172  14.328  1.00  0.00     0.211 HD
ENDBRANCH   1  13
TORSDOF 8
ENDMDL
