MODEL 1
REMARK VINA RESULT:    -3.841      0.000      0.000
REMARK INTER + INTRA:         -10.853
REMARK INTER:                  -8.781
REMARK INTRA:                  -2.071
REMARK UNBOUND:                -2.071
REMARK SMILES CCCCCCCCCCCCCCCCCCCCCCCC(=O)[O-]
REMARK SMILES IDX 13 1 14 2 15 3 16 4 17 5 18 6 19 7 20 8 21 9 22 10 23 11
REMARK SMILES IDX 24 12 25 13 26 14 12 15 11 16 10 17 9 18 8 19 7 20 6 21 5 22
REMARK SMILES IDX 4 23 3 24 2 25 1 26
REMARK H PARENT
REMARK Flexibility Score: inf
ROOT
ATOM      1  C   UNL     1      44.476  28.765   2.464  1.00  0.00     0.000 C 
ENDROOT
BRANCH   1   2
ATOM      2  C   UNL     1      43.919  27.427   2.979  1.00  0.00     0.000 C 
BRANCH   2   3
ATOM      3  C   UNL     1      44.999  26.339   3.102  1.00  0.00     0.000 C 
BRANCH   3   4
ATOM      4  C   UNL     1      45.237  25.904   4.560  1.00  0.00     0.000 C 
BRANCH   4   5
ATOM      5  C   UNL     1      46.560  26.441   5.127  1.00  0.00     0.000 C 
BRANCH   5   6
ATOM      6  C   UNL     1      46.352  27.401   6.314  1.00  0.00     0.000 C 
BRANCH   6   7
ATOM      7  C   UNL     1      45.786  28.764   5.879  1.00  0.00     0.000 C 
BRANCH   7   8
ATOM      8  C   UNL     1      46.153  29.894   6.856  1.00  0.00     0.000 C 
BRANCH   8   9
ATOM      9  C   UNL     1      46.285  29.410   8.311  1.00  0.00     0.000 C 
BRANCH   9  10
ATOM     10  C   UNL     1      45.133  29.816   9.251  1.00  0.00     0.006 C 
BRANCH  10  11
ATOM     11  C   UNL     1      44.501  28.636  10.013  1.00  0.00     0.053 C 
BRANCH  11  12
ATOM     12  C   UNL     1      45.436  27.472  10.146  1.00  0.00     0.041 C 
ATOM     13  O   UNL     1      46.427  27.539  10.921  1.00  0.00    -0.550 OA
ATOM     14  O   UNL     1      45.237  26.324   9.388  1.00  0.00    -0.550 OA
ENDBRANCH  11  12
ENDBRANCH  10  11
ENDBRANCH   9  10
ENDBRANCH   8   9
ENDBRANCH   7   8
ENDBRANCH   6   7
ENDBRANCH   5   6
ENDBRANCH   4   5
ENDBRANCH   3   4
ENDBRANCH   2   3
ENDBRANCH   1   2
BRANCH   1  15
ATOM     15  C   UNL     1      45.971  28.690   2.106  1.00  0.00     0.000 C 
BRANCH  15  16
ATOM     16  C   UNL     1      46.423  29.759   1.088  1.00  0.00     0.000 C 
BRANCH  16  17
ATOM     17  C   UNL     1      46.767  29.152  -0.283  1.00  0.00     0.000 C 
BRANCH  17  18
ATOM     18  C   UNL     1      45.592  28.382  -0.915  1.00  0.00    -0.000 C 
BRANCH  18  19
ATOM     19  C   UNL     1      45.455  28.536  -2.441  1.00  0.00    -0.000 C 
BRANCH  19  20
ATOM     20  C   UNL     1      46.480  27.698  -3.225  1.00  0.00    -0.000 C 
BRANCH  20  21
ATOM     21  C   UNL     1      46.619  28.154  -4.694  1.00  0.00    -0.000 C 
BRANCH  21  22
ATOM     22  C   UNL     1      45.702  27.392  -5.671  1.00  0.00    -0.000 C 
BRANCH  22  23
ATOM     23  C   UNL     1      44.783  28.280  -6.531  1.00  0.00    -0.000 C 
BRANCH  23  24
ATOM     24  C   UNL     1      43.812  29.180  -5.737  1.00  0.00    -0.000 C 
BRANCH  24  25
ATOM     25  C   UNL     1      42.419  28.575  -5.494  1.00  0.00    -0.003 C 
ATOM     26  C   UNL     1      42.334  27.776  -4.193  1.00  0.00     0.004 C 
ENDBRANCH  24  25
ENDBRANCH  23  24
ENDBRANCH  22  23
ENDBRANCH  21  22
ENDBRANCH  20  21
ENDBRANCH  19  20
ENDBRANCH  18  19
ENDBRANCH  17  18
ENDBRANCH  16  17
ENDBRANCH  15  16
ENDBRANCH   1  15
TORSDOF 22
ENDMDL
MODEL 2
REMARK VINA RESULT:    -3.508      4.645     11.649
REMARK INTER + INTRA:         -10.092
REMARK INTER:                  -9.020
REMARK INTRA:                  -1.072
REMARK UNBOUND:                -2.071
REMARK SMILES CCCCCCCCCCCCCCCCCCCCCCCC(=O)[O-]
REMARK SMILES IDX 13 1 14 2 15 3 16 4 17 5 18 6 19 7 20 8 21 9 22 10 23 11
REMARK SMILES IDX 24 12 25 13 26 14 12 15 11 16 10 17 9 18 8 19 7 20 6 21 5 22
REMARK SMILES IDX 4 23 3 24 2 25 1 26
REMARK H PARENT
REMARK Flexibility Score: inf
ROOT
ATOM      1  C   UNL     1      46.284  29.543   1.538  1.00  0.00     0.000 C 
ENDROOT
BRANCH   1   2
ATOM      2  C   UNL     1      46.829  28.828   0.289  1.00  0.00     0.000 C 
BRANCH   2   3
ATOM      3  C   UNL     1      46.689  29.671  -0.990  1.00  0.00     0.000 C 
BRANCH   3   4
ATOM      4  C   UNL     1      45.220  29.947  -1.357  1.00  0.00     0.000 C 
BRANCH   4   5
ATOM      5  C   UNL     1      44.928  29.704  -2.846  1.00  0.00     0.000 C 
BRANCH   5   6
ATOM      6  C   UNL     1      45.330  28.290  -3.307  1.00  0.00     0.000 C 
BRANCH   6   7
ATOM      7  C   UNL     1      46.160  28.305  -4.602  1.00  0.00     0.000 C 
BRANCH   7   8
ATOM      8  C   UNL     1      45.593  27.359  -5.676  1.00  0.00     0.000 C 
BRANCH   8   9
ATOM      9  C   UNL     1      44.679  28.076  -6.685  1.00  0.00     0.000 C 
BRANCH   9  10
ATOM     10  C   UNL     1      44.138  29.446  -6.231  1.00  0.00     0.006 C 
BRANCH  10  11
ATOM     11  C   UNL     1      42.938  29.951  -7.054  1.00  0.00     0.053 C 
BRANCH  11  12
ATOM     12  C   UNL     1      41.624  29.497  -6.490  1.00  0.00     0.041 C 
ATOM     13  O   UNL     1      40.556  29.704  -7.125  1.00  0.00    -0.550 OA
ATOM     14  O   UNL     1      41.573  28.880  -5.246  1.00  0.00    -0.550 OA
ENDBRANCH  11  12
ENDBRANCH  10  11
ENDBRANCH   9  10
ENDBRANCH   8   9
ENDBRANCH   7   8
ENDBRANCH   6   7
ENDBRANCH   5   6
ENDBRANCH   4   5
ENDBRANCH   3   4
ENDBRANCH   2   3
ENDBRANCH   1   2
BRANCH   1  15
ATOM     15  C   UNL     1      44.801  29.227   1.806  1.00  0.00     0.000 C 
BRANCH  15  16
ATOM     16  C   UNL     1      44.549  28.516   3.151  1.00  0.00     0.000 C 
BRANCH  16  17
ATOM     17  C   UNL     1      44.211  27.025   2.969  1.00  0.00     0.000 C 
BRANCH  17  18
ATOM     18  C   UNL     1      44.892  26.120   4.014  1.00  0.00    -0.000 C 
BRANCH  18  19
ATOM     19  C   UNL     1      46.431  26.173   4.022  1.00  0.00    -0.000 C 
BRANCH  19  20
ATOM     20  C   UNL     1      46.989  27.363   4.823  1.00  0.00    -0.000 C 
BRANCH  20  21
ATOM     21  C   UNL     1      46.302  27.527   6.196  1.00  0.00    -0.000 C 
BRANCH  21  22
ATOM     22  C   UNL     1      45.866  28.973   6.504  1.00  0.00    -0.000 C 
BRANCH  22  23
ATOM     23  C   UNL     1      46.068  29.418   7.964  1.00  0.00    -0.000 C 
BRANCH  23  24
ATOM     24  C   UNL     1      44.927  29.033   8.930  1.00  0.00    -0.000 C 
BRANCH  24  25
ATOM     25  C   UNL     1      45.296  27.969   9.979  1.00  0.00    -0.003 C 
ATOM     26  C   UNL     1      45.399  26.562   9.390  1.00  0.00     0.004 C 
ENDBRANCH  24  25
ENDBRANCH  23  24
ENDBRANCH  22  23
ENDBRANCH  21  22
ENDBRANCH  20  21
ENDBRANCH  19  20
ENDBRANCH  18  19
ENDBRANCH  17  18
ENDBRANCH  16  17
ENDBRANCH  15  16
ENDBRANCH   1  15
TORSDOF 22
ENDMDL
MODEL 3
REMARK VINA RESULT:    -3.257      4.181     12.166
REMARK INTER + INTRA:          -9.517
REMARK INTER:                  -8.052
REMARK INTRA:                  -1.465
REMARK UNBOUND:                -2.071
REMARK SMILES CCCCCCCCCCCCCCCCCCCCCCCC(=O)[O-]
REMARK SMILES IDX 13 1 14 2 15 3 16 4 17 5 18 6 19 7 20 8 21 9 22 10 23 11
REMARK SMILES IDX 24 12 25 13 26 14 12 15 11 16 10 17 9 18 8 19 7 20 6 21 5 22
REMARK SMILES IDX 4 23 3 24 2 25 1 26
REMARK H PARENT
REMARK Flexibility Score: inf
ROOT
ATOM      1  C   UNL     1      45.339  28.075   1.026  1.00  0.00     0.000 C 
ENDROOT
BRANCH   1   2
ATOM      2  C   UNL     1      46.177  27.891  -0.251  1.00  0.00     0.000 C 
BRANCH   2   3
ATOM      3  C   UNL     1      45.551  28.574  -1.478  1.00  0.00     0.000 C 
BRANCH   3   4
ATOM      4  C   UNL     1      46.514  28.630  -2.678  1.00  0.00     0.000 C 
BRANCH   4   5
ATOM      5  C   UNL     1      46.280  27.485  -3.676  1.00  0.00     0.000 C 
BRANCH   5   6
ATOM      6  C   UNL     1      46.687  27.859  -5.114  1.00  0.00     0.000 C 
BRANCH   6   7
ATOM      7  C   UNL     1      46.240  29.278  -5.505  1.00  0.00     0.000 C 
BRANCH   7   8
ATOM      8  C   UNL     1      45.590  29.329  -6.898  1.00  0.00     0.000 C 
BRANCH   8   9
ATOM      9  C   UNL     1      44.254  28.567  -6.965  1.00  0.00     0.000 C 
BRANCH   9  10
ATOM     10  C   UNL     1      43.001  29.399  -6.627  1.00  0.00     0.006 C 
BRANCH  10  11
ATOM     11  C   UNL     1      42.042  28.712  -5.637  1.00  0.00     0.053 C 
BRANCH  11  12
ATOM     12  C   UNL     1      42.671  28.484  -4.294  1.00  0.00     0.041 C 
ATOM     13  O   UNL     1      43.073  29.460  -3.608  1.00  0.00    -0.550 OA
ATOM     14  O   UNL     1      42.848  27.191  -3.816  1.00  0.00    -0.550 OA
ENDBRANCH  11  12
ENDBRANCH  10  11
ENDBRANCH   9  10
ENDBRANCH   8   9
ENDBRANCH   7   8
ENDBRANCH   6   7
ENDBRANCH   5   6
ENDBRANCH   4   5
ENDBRANCH   3   4
ENDBRANCH   2   3
ENDBRANCH   1   2
BRANCH   1  15
ATOM     15  C   UNL     1      46.203  28.197   2.294  1.00  0.00     0.000 C 
BRANCH  15  16
ATOM     16  C   UNL     1      46.051  29.548   3.025  1.00  0.00     0.000 C 
BRANCH  16  17
ATOM     17  C   UNL     1      45.301  29.408   4.362  1.00  0.00     0.000 C 
BRANCH  17  18
ATOM     18  C   UNL     1      46.153  28.751   5.465  1.00  0.00    -0.000 C 
BRANCH  18  19
ATOM     19  C   UNL     1      45.963  27.231   5.619  1.00  0.00    -0.000 C 
BRANCH  19  20
ATOM     20  C   UNL     1      45.996  26.765   7.085  1.00  0.00    -0.000 C 
BRANCH  20  21
ATOM     21  C   UNL     1      45.536  27.865   8.067  1.00  0.00    -0.000 C 
BRANCH  21  22
ATOM     22  C   UNL     1      45.120  27.328   9.450  1.00  0.00    -0.000 C 
BRANCH  22  23
ATOM     23  C   UNL     1      46.212  26.546  10.203  1.00  0.00    -0.000 C 
BRANCH  23  24
ATOM     24  C   UNL     1      46.870  27.303  11.376  1.00  0.00    -0.000 C 
BRANCH  24  25
ATOM     25  C   UNL     1      46.574  28.813  11.420  1.00  0.00    -0.003 C 
ATOM     26  C   UNL     1      47.022  29.471  12.725  1.00  0.00     0.004 C 
ENDBRANCH  24  25
ENDBRANCH  23  24
ENDBRANCH  22  23
ENDBRANCH  21  22
ENDBRANCH  20  21
ENDBRANCH  19  20
ENDBRANCH  18  19
ENDBRANCH  17  18
ENDBRANCH  16  17
ENDBRANCH  15  16
ENDBRANCH   1  15
TORSDOF 22
ENDMDL
MODEL 4
REMARK VINA RESULT:    -3.086      1.397      2.558
REMARK INTER + INTRA:          -9.126
REMARK INTER:                  -7.724
REMARK INTRA:                  -1.402
REMARK UNBOUND:                -2.071
REMARK SMILES CCCCCCCCCCCCCCCCCCCCCCCC(=O)[O-]
REMARK SMILES IDX 13 1 14 2 15 3 16 4 17 5 18 6 19 7 20 8 21 9 22 10 23 11
REMARK SMILES IDX 24 12 25 13 26 14 12 15 11 16 10 17 9 18 8 19 7 20 6 21 5 22
REMARK SMILES IDX 4 23 3 24 2 25 1 26
REMARK H PARENT
REMARK Flexibility Score: inf
ROOT
ATOM      1  C   UNL     1      45.849  27.853   1.605  1.00  0.00     0.000 C 
ENDROOT
BRANCH   1   2
ATOM      2  C   UNL     1      44.623  27.250   2.313  1.00  0.00     0.000 C 
BRANCH   2   3
ATOM      3  C   UNL     1      44.942  26.742   3.729  1.00  0.00     0.000 C 
BRANCH   3   4
ATOM      4  C   UNL     1      45.720  27.773   4.565  1.00  0.00     0.000 C 
BRANCH   4   5
ATOM      5  C   UNL     1      45.268  29.216   4.293  1.00  0.00     0.000 C 
BRANCH   5   6
ATOM      6  C   UNL     1      45.401  30.124   5.531  1.00  0.00     0.000 C 
BRANCH   6   7
ATOM      7  C   UNL     1      46.724  29.905   6.284  1.00  0.00     0.000 C 
BRANCH   7   8
ATOM      8  C   UNL     1      46.552  29.979   7.811  1.00  0.00     0.000 C 
BRANCH   8   9
ATOM      9  C   UNL     1      45.926  28.706   8.407  1.00  0.00     0.000 C 
BRANCH   9  10
ATOM     10  C   UNL     1      44.853  28.939   9.489  1.00  0.00     0.006 C 
BRANCH  10  11
ATOM     11  C   UNL     1      45.285  29.915  10.599  1.00  0.00     0.053 C 
BRANCH  11  12
ATOM     12  C   UNL     1      46.097  29.245  11.668  1.00  0.00     0.041 C 
ATOM     13  O   UNL     1      46.528  28.074  11.496  1.00  0.00    -0.550 OA
ATOM     14  O   UNL     1      46.347  29.898  12.869  1.00  0.00    -0.550 OA
ENDBRANCH  11  12
ENDBRANCH  10  11
ENDBRANCH   9  10
ENDBRANCH   8   9
ENDBRANCH   7   8
ENDBRANCH   6   7
ENDBRANCH   5   6
ENDBRANCH   4   5
ENDBRANCH   3   4
ENDBRANCH   2   3
ENDBRANCH   1   2
BRANCH   1  15
ATOM     15  C   UNL     1      45.563  28.241   0.143  1.00  0.00     0.000 C 
BRANCH  15  16
ATOM     16  C   UNL     1      46.631  29.167  -0.476  1.00  0.00     0.000 C 
BRANCH  16  17
ATOM     17  C   UNL     1      46.149  29.822  -1.783  1.00  0.00     0.000 C 
BRANCH  17  18
ATOM     18  C   UNL     1      44.636  29.657  -2.018  1.00  0.00    -0.000 C 
BRANCH  18  19
ATOM     19  C   UNL     1      44.134  30.125  -3.397  1.00  0.00    -0.000 C 
BRANCH  19  20
ATOM     20  C   UNL     1      42.909  29.336  -3.892  1.00  0.00    -0.000 C 
BRANCH  20  21
ATOM     21  C   UNL     1      42.370  29.862  -5.240  1.00  0.00    -0.000 C 
BRANCH  21  22
ATOM     22  C   UNL     1      42.702  28.952  -6.440  1.00  0.00    -0.000 C 
BRANCH  22  23
ATOM     23  C   UNL     1      43.780  27.886  -6.171  1.00  0.00    -0.000 C 
BRANCH  23  24
ATOM     24  C   UNL     1      45.192  28.236  -6.688  1.00  0.00    -0.000 C 
BRANCH  24  25
ATOM     25  C   UNL     1      46.325  28.037  -5.667  1.00  0.00    -0.003 C 
ATOM     26  C   UNL     1      45.922  27.138  -4.497  1.00  0.00     0.004 C 
ENDBRANCH  24  25
ENDBRANCH  23  24
ENDBRANCH  22  23
ENDBRANCH  21  22
ENDBRANCH  20  21
ENDBRANCH  19  20
ENDBRANCH  18  19
ENDBRANCH  17  18
ENDBRANCH  16  17
ENDBRANCH  15  16
ENDBRANCH   1  15
TORSDOF 22
ENDMDL
MODEL 5
REMARK VINA RESULT:    -3.082      1.340      2.368
REMARK INTER + INTRA:          -9.117
REMARK INTER:                  -7.956
REMARK INTRA:                  -1.161
REMARK UNBOUND:                -2.071
REMARK SMILES CCCCCCCCCCCCCCCCCCCCCCCC(=O)[O-]
REMARK SMILES IDX 13 1 14 2 15 3 16 4 17 5 18 6 19 7 20 8 21 9 22 10 23 11
REMARK SMILES IDX 24 12 25 13 26 14 12 15 11 16 10 17 9 18 8 19 7 20 6 21 5 22
REMARK SMILES IDX 4 23 3 24 2 25 1 26
REMARK H PARENT
REMARK Flexibility Score: inf
ROOT
ATOM      1  C   UNL     1      44.531  27.567   1.917  1.00  0.00     0.000 C 
ENDROOT
BRANCH   1   2
ATOM      2  C   UNL     1      44.691  28.141   3.335  1.00  0.00     0.000 C 
BRANCH   2   3
ATOM      3  C   UNL     1      45.918  29.059   3.472  1.00  0.00     0.000 C 
BRANCH   3   4
ATOM      4  C   UNL     1      47.093  28.371   4.190  1.00  0.00     0.000 C 
BRANCH   4   5
ATOM      5  C   UNL     1      46.751  27.974   5.635  1.00  0.00     0.000 C 
BRANCH   5   6
ATOM      6  C   UNL     1      46.123  29.131   6.436  1.00  0.00     0.000 C 
BRANCH   6   7
ATOM      7  C   UNL     1      45.275  28.636   7.620  1.00  0.00     0.000 C 
BRANCH   7   8
ATOM      8  C   UNL     1      45.293  29.615   8.807  1.00  0.00     0.000 C 
BRANCH   8   9
ATOM      9  C   UNL     1      44.905  28.949  10.139  1.00  0.00     0.000 C 
BRANCH   9  10
ATOM     10  C   UNL     1      46.071  28.681  11.111  1.00  0.00     0.006 C 
BRANCH  10  11
ATOM     11  C   UNL     1      47.052  27.597  10.628  1.00  0.00     0.053 C 
BRANCH  11  12
ATOM     12  C   UNL     1      46.404  26.250  10.507  1.00  0.00     0.041 C 
ATOM     13  O   UNL     1      46.755  25.307  11.265  1.00  0.00    -0.550 OA
ATOM     14  O   UNL     1      45.439  26.023   9.533  1.00  0.00    -0.550 OA
ENDBRANCH  11  12
ENDBRANCH  10  11
ENDBRANCH   9  10
ENDBRANCH   8   9
ENDBRANCH   7   8
ENDBRANCH   6   7
ENDBRANCH   5   6
ENDBRANCH   4   5
ENDBRANCH   3   4
ENDBRANCH   2   3
ENDBRANCH   1   2
BRANCH   1  15
ATOM     15  C   UNL     1      45.736  27.874   1.010  1.00  0.00     0.000 C 
BRANCH  15  16
ATOM     16  C   UNL     1      45.624  29.216   0.256  1.00  0.00     0.000 C 
BRANCH  16  17
ATOM     17  C   UNL     1      46.706  29.369  -0.827  1.00  0.00     0.000 C 
BRANCH  17  18
ATOM     18  C   UNL     1      46.172  29.995  -2.130  1.00  0.00    -0.000 C 
BRANCH  18  19
ATOM     19  C   UNL     1      44.643  29.939  -2.302  1.00  0.00    -0.000 C 
BRANCH  19  20
ATOM     20  C   UNL     1      44.165  28.677  -3.043  1.00  0.00    -0.000 C 
BRANCH  20  21
ATOM     21  C   UNL     1      42.987  28.961  -3.999  1.00  0.00    -0.000 C 
BRANCH  21  22
ATOM     22  C   UNL     1      42.935  28.020  -5.219  1.00  0.00    -0.000 C 
BRANCH  22  23
ATOM     23  C   UNL     1      44.306  27.535  -5.727  1.00  0.00    -0.000 C 
BRANCH  23  24
ATOM     24  C   UNL     1      44.953  28.424  -6.810  1.00  0.00    -0.000 C 
BRANCH  24  25
ATOM     25  C   UNL     1      46.389  28.884  -6.499  1.00  0.00    -0.003 C 
ATOM     26  C   UNL     1      46.985  28.189  -5.274  1.00  0.00     0.004 C 
ENDBRANCH  24  25
ENDBRANCH  23  24
ENDBRANCH  22  23
ENDBRANCH  21  22
ENDBRANCH  20  21
ENDBRANCH  19  20
ENDBRANCH  18  19
ENDBRANCH  17  18
ENDBRANCH  16  17
ENDBRANCH  15  16
ENDBRANCH   1  15
TORSDOF 22
ENDMDL
MODEL 6
REMARK VINA RESULT:    -2.917      4.390     11.140
REMARK INTER + INTRA:          -8.739
REMARK INTER:                  -6.842
REMARK INTRA:                  -1.897
REMARK UNBOUND:                -2.071
REMARK SMILES CCCCCCCCCCCCCCCCCCCCCCCC(=O)[O-]
REMARK SMILES IDX 13 1 14 2 15 3 16 4 17 5 18 6 19 7 20 8 21 9 22 10 23 11
REMARK SMILES IDX 24 12 25 13 26 14 12 15 11 16 10 17 9 18 8 19 7 20 6 21 5 22
REMARK SMILES IDX 4 23 3 24 2 25 1 26
REMARK H PARENT
REMARK Flexibility Score: inf
ROOT
ATOM      1  C   UNL     1      44.819  27.377   1.780  1.00  0.00     0.000 C 
ENDROOT
BRANCH   1   2
ATOM      2  C   UNL     1      45.126  27.530   0.280  1.00  0.00     0.000 C 
BRANCH   2   3
ATOM      3  C   UNL     1      46.096  28.686  -0.016  1.00  0.00     0.000 C 
BRANCH   3   4
ATOM      4  C   UNL     1      47.010  28.397  -1.220  1.00  0.00     0.000 C 
BRANCH   4   5
ATOM      5  C   UNL     1      47.121  29.595  -2.178  1.00  0.00     0.000 C 
BRANCH   5   6
ATOM      6  C   UNL     1      46.857  29.208  -3.645  1.00  0.00     0.000 C 
BRANCH   6   7
ATOM      7  C   UNL     1      46.042  27.910  -3.777  1.00  0.00     0.000 C 
BRANCH   7   8
ATOM      8  C   UNL     1      45.936  27.425  -5.233  1.00  0.00     0.000 C 
BRANCH   8   9
ATOM      9  C   UNL     1      45.751  28.577  -6.237  1.00  0.00     0.000 C 
BRANCH   9  10
ATOM     10  C   UNL     1      44.290  28.915  -6.594  1.00  0.00     0.006 C 
BRANCH  10  11
ATOM     11  C   UNL     1      43.610  29.878  -5.604  1.00  0.00     0.053 C 
BRANCH  11  12
ATOM     12  C   UNL     1      42.235  29.423  -5.213  1.00  0.00     0.041 C 
ATOM     13  O   UNL     1      42.031  28.931  -4.072  1.00  0.00    -0.550 OA
ATOM     14  O   UNL     1      41.186  29.507  -6.121  1.00  0.00    -0.550 OA
ENDBRANCH  11  12
ENDBRANCH  10  11
ENDBRANCH   9  10
ENDBRANCH   8   9
ENDBRANCH   7   8
ENDBRANCH   6   7
ENDBRANCH   5   6
ENDBRANCH   4   5
ENDBRANCH   3   4
ENDBRANCH   2   3
ENDBRANCH   1   2
BRANCH   1  15
ATOM     15  C   UNL     1      44.452  28.711   2.452  1.00  0.00     0.000 C 
BRANCH  15  16
ATOM     16  C   UNL     1      44.764  28.755   3.963  1.00  0.00     0.000 C 
BRANCH  16  17
ATOM     17  C   UNL     1      45.328  30.118   4.403  1.00  0.00     0.000 C 
BRANCH  17  18
ATOM     18  C   UNL     1      46.731  30.017   5.030  1.00  0.00    -0.000 C 
BRANCH  18  19
ATOM     19  C   UNL     1      46.771  30.125   6.565  1.00  0.00    -0.000 C 
BRANCH  19  20
ATOM     20  C   UNL     1      45.561  29.461   7.247  1.00  0.00    -0.000 C 
BRANCH  20  21
ATOM     21  C   UNL     1      45.909  28.878   8.634  1.00  0.00    -0.000 C 
BRANCH  21  22
ATOM     22  C   UNL     1      45.743  27.348   8.724  1.00  0.00    -0.000 C 
BRANCH  22  23
ATOM     23  C   UNL     1      45.737  26.611   7.372  1.00  0.00    -0.000 C 
BRANCH  23  24
ATOM     24  C   UNL     1      47.119  26.466   6.700  1.00  0.00    -0.000 C 
BRANCH  24  25
ATOM     25  C   UNL     1      47.113  26.603   5.167  1.00  0.00    -0.003 C 
ATOM     26  C   UNL     1      46.259  25.539   4.477  1.00  0.00     0.004 C 
ENDBRANCH  24  25
ENDBRANCH  23  24
ENDBRANCH  22  23
ENDBRANCH  21  22
ENDBRANCH  20  21
ENDBRANCH  19  20
ENDBRANCH  18  19
ENDBRANCH  17  18
ENDBRANCH  16  17
ENDBRANCH  15  16
ENDBRANCH   1  15
TORSDOF 22
ENDMDL
MODEL 7
REMARK VINA RESULT:    -2.858      4.023     11.783
REMARK INTER + INTRA:          -8.605
REMARK INTER:                  -6.881
REMARK INTRA:                  -1.723
REMARK UNBOUND:                -2.071
REMARK SMILES CCCCCCCCCCCCCCCCCCCCCCCC(=O)[O-]
REMARK SMILES IDX 13 1 14 2 15 3 16 4 17 5 18 6 19 7 20 8 21 9 22 10 23 11
REMARK SMILES IDX 24 12 25 13 26 14 12 15 11 16 10 17 9 18 8 19 7 20 6 21 5 22
REMARK SMILES IDX 4 23 3 24 2 25 1 26
REMARK H PARENT
REMARK Flexibility Score: inf
ROOT
ATOM      1  C   UNL     1      44.341  28.781   2.885  1.00  0.00     0.000 C 
ENDROOT
BRANCH   1   2
ATOM      2  C   UNL     1      45.309  29.106   1.734  1.00  0.00     0.000 C 
BRANCH   2   3
ATOM      3  C   UNL     1      45.522  27.918   0.780  1.00  0.00     0.000 C 
BRANCH   3   4
ATOM      4  C   UNL     1      46.462  28.261  -0.389  1.00  0.00     0.000 C 
BRANCH   4   5
ATOM      5  C   UNL     1      46.595  29.775  -0.615  1.00  0.00     0.000 C 
BRANCH   5   6
ATOM      6  C   UNL     1      47.051  30.125  -2.045  1.00  0.00     0.000 C 
BRANCH   6   7
ATOM      7  C   UNL     1      46.210  29.419  -3.122  1.00  0.00     0.000 C 
BRANCH   7   8
ATOM      8  C   UNL     1      47.077  28.693  -4.166  1.00  0.00     0.000 C 
BRANCH   8   9
ATOM      9  C   UNL     1      46.401  28.596  -5.545  1.00  0.00     0.000 C 
BRANCH   9  10
ATOM     10  C   UNL     1      44.895  28.927  -5.568  1.00  0.00     0.006 C 
BRANCH  10  11
ATOM     11  C   UNL     1      43.982  27.688  -5.606  1.00  0.00     0.053 C 
BRANCH  11  12
ATOM     12  C   UNL     1      43.106  27.583  -4.393  1.00  0.00     0.041 C 
ATOM     13  O   UNL     1      43.508  26.966  -3.371  1.00  0.00    -0.550 OA
ATOM     14  O   UNL     1      41.831  28.136  -4.401  1.00  0.00    -0.550 OA
ENDBRANCH  11  12
ENDBRANCH  10  11
ENDBRANCH   9  10
ENDBRANCH   8   9
ENDBRANCH   7   8
ENDBRANCH   6   7
ENDBRANCH   5   6
ENDBRANCH   4   5
ENDBRANCH   3   4
ENDBRANCH   2   3
ENDBRANCH   1   2
BRANCH   1  15
ATOM     15  C   UNL     1      44.885  27.697   3.833  1.00  0.00     0.000 C 
BRANCH  15  16
ATOM     16  C   UNL     1      45.877  28.231   4.887  1.00  0.00     0.000 C 
BRANCH  16  17
ATOM     17  C   UNL     1      45.402  29.551   5.520  1.00  0.00     0.000 C 
BRANCH  17  18
ATOM     18  C   UNL     1      46.254  29.982   6.729  1.00  0.00    -0.000 C 
BRANCH  18  19
ATOM     19  C   UNL     1      45.505  30.028   8.074  1.00  0.00    -0.000 C 
BRANCH  19  20
ATOM     20  C   UNL     1      46.448  30.124   9.286  1.00  0.00    -0.000 C 
BRANCH  20  21
ATOM     21  C   UNL     1      45.703  29.972  10.630  1.00  0.00    -0.000 C 
BRANCH  21  22
ATOM     22  C   UNL     1      45.812  28.563  11.246  1.00  0.00    -0.000 C 
BRANCH  22  23
ATOM     23  C   UNL     1      47.082  27.781  10.865  1.00  0.00    -0.000 C 
BRANCH  23  24
ATOM     24  C   UNL     1      46.909  26.249  10.784  1.00  0.00    -0.000 C 
BRANCH  24  25
ATOM     25  C   UNL     1      46.798  25.684   9.357  1.00  0.00    -0.003 C 
ATOM     26  C   UNL     1      45.799  26.448   8.488  1.00  0.00     0.004 C 
ENDBRANCH  24  25
ENDBRANCH  23  24
ENDBRANCH  22  23
ENDBRANCH  21  22
ENDBRANCH  20  21
ENDBRANCH  19  20
ENDBRANCH  18  19
ENDBRANCH  17  18
ENDBRANCH  16  17
ENDBRANCH  15  16
ENDBRANCH   1  15
TORSDOF 22
ENDMDL
MODEL 8
REMARK VINA RESULT:    -2.837      2.227      4.008
REMARK INTER + INTRA:          -8.556
REMARK INTER:                  -6.724
REMARK INTRA:                  -1.832
REMARK UNBOUND:                -2.071
REMARK SMILES CCCCCCCCCCCCCCCCCCCCCCCC(=O)[O-]
REMARK SMILES IDX 13 1 14 2 15 3 16 4 17 5 18 6 19 7 20 8 21 9 22 10 23 11
REMARK SMILES IDX 24 12 25 13 26 14 12 15 11 16 10 17 9 18 8 19 7 20 6 21 5 22
REMARK SMILES IDX 4 23 3 24 2 25 1 26
REMARK H PARENT
REMARK Flexibility Score: inf
ROOT
ATOM      1  C   UNL     1      46.144  28.432  -0.910  1.00  0.00     0.000 C 
ENDROOT
BRANCH   1   2
ATOM      2  C   UNL     1      47.123  29.369  -0.181  1.00  0.00     0.000 C 
BRANCH   2   3
ATOM      3  C   UNL     1      46.817  29.500   1.321  1.00  0.00     0.000 C 
BRANCH   3   4
ATOM      4  C   UNL     1      45.747  28.500   1.795  1.00  0.00     0.000 C 
BRANCH   4   5
ATOM      5  C   UNL     1      44.979  28.999   3.030  1.00  0.00     0.000 C 
BRANCH   5   6
ATOM      6  C   UNL     1      45.862  29.824   3.985  1.00  0.00     0.000 C 
BRANCH   6   7
ATOM      7  C   UNL     1      45.269  29.922   5.401  1.00  0.00     0.000 C 
BRANCH   7   8
ATOM      8  C   UNL     1      46.226  29.381   6.478  1.00  0.00     0.000 C 
BRANCH   8   9
ATOM      9  C   UNL     1      45.632  28.204   7.272  1.00  0.00     0.000 C 
BRANCH   9  10
ATOM     10  C   UNL     1      46.036  26.801   6.777  1.00  0.00     0.006 C 
BRANCH  10  11
ATOM     11  C   UNL     1      46.879  26.810   5.488  1.00  0.00     0.053 C 
BRANCH  11  12
ATOM     12  C   UNL     1      46.332  25.890   4.438  1.00  0.00     0.041 C 
ATOM     13  O   UNL     1      47.114  25.238   3.695  1.00  0.00    -0.550 OA
ATOM     14  O   UNL     1      44.959  25.777   4.253  1.00  0.00    -0.550 OA
ENDBRANCH  11  12
ENDBRANCH  10  11
ENDBRANCH   9  10
ENDBRANCH   8   9
ENDBRANCH   7   8
ENDBRANCH   6   7
ENDBRANCH   5   6
ENDBRANCH   4   5
ENDBRANCH   3   4
ENDBRANCH   2   3
ENDBRANCH   1   2
BRANCH   1  15
ATOM     15  C   UNL     1      46.511  28.220  -2.389  1.00  0.00     0.000 C 
BRANCH  15  16
ATOM     16  C   UNL     1      45.744  29.142  -3.361  1.00  0.00     0.000 C 
BRANCH  16  17
ATOM     17  C   UNL     1      46.689  29.984  -4.237  1.00  0.00     0.000 C 
BRANCH  17  18
ATOM     18  C   UNL     1      46.511  29.718  -5.744  1.00  0.00    -0.000 C 
BRANCH  18  19
ATOM     19  C   UNL     1      47.097  28.386  -6.246  1.00  0.00    -0.000 C 
BRANCH  19  20
ATOM     20  C   UNL     1      46.102  27.572  -7.093  1.00  0.00    -0.000 C 
BRANCH  20  21
ATOM     21  C   UNL     1      44.632  27.942  -6.799  1.00  0.00    -0.000 C 
BRANCH  21  22
ATOM     22  C   UNL     1      44.093  27.349  -5.482  1.00  0.00    -0.000 C 
BRANCH  22  23
ATOM     23  C   UNL     1      42.623  27.685  -5.169  1.00  0.00    -0.000 C 
BRANCH  23  24
ATOM     24  C   UNL     1      42.365  29.141  -4.724  1.00  0.00    -0.000 C 
BRANCH  24  25
ATOM     25  C   UNL     1      42.064  30.125  -5.868  1.00  0.00    -0.003 C 
ATOM     26  C   UNL     1      40.857  29.709  -6.710  1.00  0.00     0.004 C 
ENDBRANCH  24  25
ENDBRANCH  23  24
ENDBRANCH  22  23
ENDBRANCH  21  22
ENDBRANCH  20  21
ENDBRANCH  19  20
ENDBRANCH  18  19
ENDBRANCH  17  18
ENDBRANCH  16  17
ENDBRANCH  15  16
ENDBRANCH   1  15
TORSDOF 22
ENDMDL
MODEL 9
REMARK VINA RESULT:    -2.835      4.125     11.608
REMARK INTER + INTRA:          -8.553
REMARK INTER:                  -7.203
REMARK INTRA:                  -1.349
REMARK UNBOUND:                -2.071
REMARK SMILES CCCCCCCCCCCCCCCCCCCCCCCC(=O)[O-]
REMARK SMILES IDX 13 1 14 2 15 3 16 4 17 5 18 6 19 7 20 8 21 9 22 10 23 11
REMARK SMILES IDX 24 12 25 13 26 14 12 15 11 16 10 17 9 18 8 19 7 20 6 21 5 22
REMARK SMILES IDX 4 23 3 24 2 25 1 26
REMARK H PARENT
REMARK Flexibility Score: inf
ROOT
ATOM      1  C   UNL     1      46.578  28.322   0.995  1.00  0.00     0.000 C 
ENDROOT
BRANCH   1   2
ATOM      2  C   UNL     1      47.011  28.306  -0.481  1.00  0.00     0.000 C 
BRANCH   2   3
ATOM      3  C   UNL     1      45.866  28.667  -1.442  1.00  0.00     0.000 C 
BRANCH   3   4
ATOM      4  C   UNL     1      46.236  29.819  -2.394  1.00  0.00     0.000 C 
BRANCH   4   5
ATOM      5  C   UNL     1      46.408  29.350  -3.848  1.00  0.00     0.000 C 
BRANCH   5   6
ATOM      6  C   UNL     1      46.770  27.856  -3.952  1.00  0.00     0.000 C 
BRANCH   6   7
ATOM      7  C   UNL     1      46.075  27.162  -5.135  1.00  0.00     0.000 C 
BRANCH   7   8
ATOM      8  C   UNL     1      46.192  27.966  -6.442  1.00  0.00     0.000 C 
BRANCH   8   9
ATOM      9  C   UNL     1      44.865  28.622  -6.863  1.00  0.00     0.000 C 
BRANCH   9  10
ATOM     10  C   UNL     1      43.591  27.845  -6.476  1.00  0.00     0.006 C 
BRANCH  10  11
ATOM     11  C   UNL     1      42.551  28.687  -5.713  1.00  0.00     0.053 C 
BRANCH  11  12
ATOM     12  C   UNL     1      42.630  28.489  -4.229  1.00  0.00     0.041 C 
ATOM     13  O   UNL     1      43.008  27.384  -3.756  1.00  0.00    -0.550 OA
ATOM     14  O   UNL     1      42.252  29.509  -3.365  1.00  0.00    -0.550 OA
ENDBRANCH  11  12
ENDBRANCH  10  11
ENDBRANCH   9  10
ENDBRANCH   8   9
ENDBRANCH   7   8
ENDBRANCH   6   7
ENDBRANCH   5   6
ENDBRANCH   4   5
ENDBRANCH   3   4
ENDBRANCH   2   3
ENDBRANCH   1   2
BRANCH   1  15
ATOM     15  C   UNL     1      45.285  27.525   1.246  1.00  0.00     0.000 C 
BRANCH  15  16
ATOM     16  C   UNL     1      44.371  28.143   2.325  1.00  0.00     0.000 C 
BRANCH  16  17
ATOM     17  C   UNL     1      45.101  28.344   3.665  1.00  0.00     0.000 C 
BRANCH  17  18
ATOM     18  C   UNL     1      45.604  29.785   3.869  1.00  0.00    -0.000 C 
BRANCH  18  19
ATOM     19  C   UNL     1      46.079  30.116   5.295  1.00  0.00    -0.000 C 
BRANCH  19  20
ATOM     20  C   UNL     1      46.001  28.912   6.251  1.00  0.00    -0.000 C 
BRANCH  20  21
ATOM     21  C   UNL     1      47.041  28.991   7.390  1.00  0.00    -0.000 C 
BRANCH  21  22
ATOM     22  C   UNL     1      46.635  29.937   8.537  1.00  0.00    -0.000 C 
BRANCH  22  23
ATOM     23  C   UNL     1      45.881  29.266   9.701  1.00  0.00    -0.000 C 
BRANCH  23  24
ATOM     24  C   UNL     1      44.882  28.165   9.284  1.00  0.00    -0.000 C 
BRANCH  24  25
ATOM     25  C   UNL     1      45.242  26.748   9.763  1.00  0.00    -0.003 C 
ATOM     26  C   UNL     1      46.750  26.515   9.856  1.00  0.00     0.004 C 
ENDBRANCH  24  25
ENDBRANCH  23  24
ENDBRANCH  22  23
ENDBRANCH  21  22
ENDBRANCH  20  21
ENDBRANCH  19  20
ENDBRANCH  18  19
ENDBRANCH  17  18
ENDBRANCH  16  17
ENDBRANCH  15  16
ENDBRANCH   1  15
TORSDOF 22
ENDMDL
