MODEL 1
REMARK VINA RESULT:    -4.202      0.000      0.000
REMARK INTER + INTRA:          -4.904
REMARK INTER:                  -5.184
REMARK INTRA:                   0.280
REMARK UNBOUND:                 0.280
REMARK SMILES C=C1[C@H]2CC[C@@H]3[C@@H]2C(C)(C)CCC[C@]13C
REMARK SMILES IDX 14 1 6 2 7 3 3 4 2 5 1 6 4 7 5 8 15 9 8 10 9 11 10 12 11 13
REMARK SMILES IDX 13 15 12 16
REMARK H PARENT
REMARK Flexibility Score: 80.00
ROOT
ATOM      1  C   UNL     1     166.682 163.300 199.817  1.00  0.00    -0.008 C 
ATOM      2  C   UNL     1     167.652 163.938 198.827  1.00  0.00     0.003 C 
ATOM      3  C   UNL     1     168.362 164.882 199.812  1.00  0.00     0.006 C 
ATOM      4  C   UNL     1     169.010 163.752 200.595  1.00  0.00     0.019 C 
ATOM      5  C   UNL     1     167.713 162.969 200.915  1.00  0.00    -0.068 C 
ATOM      6  C   UNL     1     167.510 162.210 201.995  1.00  0.00     0.009 C 
ATOM      7  C   UNL     1     169.758 162.962 199.534  1.00  0.00     0.008 C 
ATOM      8  C   UNL     1     168.808 163.027 198.339  1.00  0.00     0.005 C 
ATOM      9  C   UNL     1     165.984 162.044 199.259  1.00  0.00     0.016 C 
ENDROOT
BRANCH   3  10
ATOM     10  C   UNL     1     168.313 166.350 199.335  1.00  0.00    -0.032 C 
ATOM     11  C   UNL     1     169.255 167.209 200.215  1.00  0.00     0.011 C 
ATOM     12  C   UNL     1     168.779 166.520 197.868  1.00  0.00     0.011 C 
BRANCH  10  13
ATOM     13  C   UNL     1     166.797 166.838 199.513  1.00  0.00     0.007 CG0
ATOM     14  G   UNL     1     165.609 165.785 199.381  1.00  0.00     0.000 G0
ENDBRANCH  10  13
ENDBRANCH   3  10
BRANCH   1  15
ATOM     15  C   UNL     1     165.624 164.429 200.236  1.00  0.00     0.011 C 
BRANCH  15  16
ATOM     16  C   UNL     1     165.611 165.784 199.389  1.00  0.00     0.001 CG0
ATOM     17  G   UNL     1     166.796 166.841 199.522  1.00  0.00     0.000 G0
ENDBRANCH  15  16
ENDBRANCH   1  15
TORSDOF 0
ENDMDL
MODEL 2
REMARK VINA RESULT:    -4.183      2.840      5.936
REMARK INTER + INTRA:          -4.881
REMARK INTER:                  -5.141
REMARK INTRA:                   0.260
REMARK UNBOUND:                 0.280
REMARK SMILES C=C1[C@H]2CC[C@@H]3[C@@H]2C(C)(C)CCC[C@]13C
REMARK SMILES IDX 14 1 6 2 7 3 3 4 2 5 1 6 4 7 5 8 15 9 8 10 9 11 10 12 11 13
REMARK SMILES IDX 13 15 12 16
REMARK H PARENT
REMARK Flexibility Score: 80.00
ROOT
ATOM      1  C   UNL     1     165.337 168.564 199.898  1.00  0.00    -0.008 C 
ATOM      2  C   UNL     1     164.367 167.927 198.907  1.00  0.00     0.003 C 
ATOM      3  C   UNL     1     163.604 167.041 199.906  1.00  0.00     0.006 C 
ATOM      4  C   UNL     1     162.979 168.218 200.637  1.00  0.00     0.019 C 
ATOM      5  C   UNL     1     164.295 168.966 200.960  1.00  0.00    -0.068 C 
ATOM      6  C   UNL     1     164.500 169.755 202.019  1.00  0.00     0.009 C 
ATOM      7  C   UNL     1     162.282 168.996 199.533  1.00  0.00     0.008 C 
ATOM      8  C   UNL     1     163.255 168.859 198.363  1.00  0.00     0.005 C 
ATOM      9  C   UNL     1     166.090 169.776 199.315  1.00  0.00     0.016 C 
ENDROOT
BRANCH   3  10
ATOM     10  C   UNL     1     163.612 165.557 199.480  1.00  0.00    -0.032 C 
ATOM     11  C   UNL     1     162.637 164.757 200.379  1.00  0.00     0.011 C 
ATOM     12  C   UNL     1     163.154 165.351 198.014  1.00  0.00     0.011 C 
BRANCH  10  13
ATOM     13  C   UNL     1     165.111 165.030 199.688  1.00  0.00     0.007 CG0
ATOM     14  G   UNL     1     166.330 166.048 199.563  1.00  0.00     0.000 G0
ENDBRANCH  10  13
ENDBRANCH   3  10
BRANCH   1  15
ATOM     15  C   UNL     1     166.347 167.415 200.377  1.00  0.00     0.011 C 
BRANCH  15  16
ATOM     16  C   UNL     1     166.340 166.038 199.568  1.00  0.00     0.001 CG0
ATOM     17  G   UNL     1     165.111 165.029 199.680  1.00  0.00     0.000 G0
ENDBRANCH  15  16
ENDBRANCH   1  15
TORSDOF 0
ENDMDL
MODEL 3
REMARK VINA RESULT:    -4.124      2.958      5.227
REMARK INTER + INTRA:          -4.808
REMARK INTER:                  -5.078
REMARK INTRA:                   0.270
REMARK UNBOUND:                 0.280
REMARK SMILES C=C1[C@H]2CC[C@@H]3[C@@H]2C(C)(C)CCC[C@]13C
REMARK SMILES IDX 14 1 6 2 7 3 3 4 2 5 1 6 4 7 5 8 15 9 8 10 9 11 10 12 11 13
REMARK SMILES IDX 13 15 12 16
REMARK H PARENT
REMARK Flexibility Score: 80.00
ROOT
ATOM      1  C   UNL     1     164.155 167.161 200.487  1.00  0.00    -0.008 C 
ATOM      2  C   UNL     1     165.342 167.740 201.252  1.00  0.00     0.003 C 
ATOM      3  C   UNL     1     165.752 168.806 200.222  1.00  0.00     0.006 C 
ATOM      4  C   UNL     1     164.491 169.634 200.417  1.00  0.00     0.019 C 
ATOM      5  C   UNL     1     163.472 168.500 200.144  1.00  0.00    -0.068 C 
ATOM      6  C   UNL     1     162.250 168.662 199.628  1.00  0.00     0.009 C 
ATOM      7  C   UNL     1     164.468 169.905 201.912  1.00  0.00     0.008 C 
ATOM      8  C   UNL     1     164.986 168.591 202.497  1.00  0.00     0.005 C 
ATOM      9  C   UNL     1     163.267 166.244 201.349  1.00  0.00     0.016 C 
ENDROOT
BRANCH   3  10
ATOM     10  C   UNL     1     167.233 168.666 199.809  1.00  0.00    -0.032 C 
ATOM     11  C   UNL     1     167.655 169.901 198.976  1.00  0.00     0.011 C 
ATOM     12  C   UNL     1     168.190 168.587 201.025  1.00  0.00     0.011 C 
BRANCH  10  13
ATOM     13  C   UNL     1     167.335 167.339 198.916  1.00  0.00     0.007 CG0
ATOM     14  G   UNL     1     166.321 166.137 199.171  1.00  0.00     0.000 G0
ENDBRANCH  10  13
ENDBRANCH   3  10
BRANCH   1  15
ATOM     15  C   UNL     1     164.746 166.386 199.214  1.00  0.00     0.011 C 
BRANCH  15  16
ATOM     16  C   UNL     1     166.323 166.133 199.166  1.00  0.00     0.001 CG0
ATOM     17  G   UNL     1     167.337 167.337 198.919  1.00  0.00     0.000 G0
ENDBRANCH  15  16
ENDBRANCH   1  15
TORSDOF 0
ENDMDL
MODEL 4
REMARK VINA RESULT:    -4.101      3.352      5.319
REMARK INTER + INTRA:          -4.779
REMARK INTER:                  -5.050
REMARK INTRA:                   0.271
REMARK UNBOUND:                 0.280
REMARK SMILES C=C1[C@H]2CC[C@@H]3[C@@H]2C(C)(C)CCC[C@]13C
REMARK SMILES IDX 14 1 6 2 7 3 3 4 2 5 1 6 4 7 5 8 15 9 8 10 9 11 10 12 11 13
REMARK SMILES IDX 13 15 12 16
REMARK H PARENT
REMARK Flexibility Score: 80.00
ROOT
ATOM      1  C   UNL     1     163.519 166.122 199.597  1.00  0.00    -0.008 C 
ATOM      2  C   UNL     1     163.481 167.484 200.283  1.00  0.00     0.003 C 
ATOM      3  C   UNL     1     164.650 168.132 199.521  1.00  0.00     0.006 C 
ATOM      4  C   UNL     1     163.915 168.145 198.190  1.00  0.00     0.019 C 
ATOM      5  C   UNL     1     163.571 166.636 198.144  1.00  0.00    -0.068 C 
ATOM      6  C   UNL     1     163.426 165.906 197.035  1.00  0.00     0.009 C 
ATOM      7  C   UNL     1     162.626 168.888 198.499  1.00  0.00     0.008 C 
ATOM      8  C   UNL     1     162.284 168.393 199.904  1.00  0.00     0.005 C 
ATOM      9  C   UNL     1     162.269 165.265 199.880  1.00  0.00     0.016 C 
ENDROOT
BRANCH   3  10
ATOM     10  C   UNL     1     165.728 168.677 200.481  1.00  0.00    -0.032 C 
ATOM     11  C   UNL     1     166.740 169.538 199.685  1.00  0.00     0.011 C 
ATOM     12  C   UNL     1     165.141 169.578 201.596  1.00  0.00     0.011 C 
BRANCH  10  13
ATOM     13  C   UNL     1     166.467 167.401 201.110  1.00  0.00     0.007 CG0
ATOM     14  G   UNL     1     165.668 166.034 201.288  1.00  0.00     0.000 G0
ENDBRANCH  10  13
ENDBRANCH   3  10
BRANCH   1  15
ATOM     15  C   UNL     1     164.861 165.388 200.077  1.00  0.00     0.011 C 
BRANCH  15  16
ATOM     16  C   UNL     1     165.666 166.037 201.294  1.00  0.00     0.001 CG0
ATOM     17  G   UNL     1     166.460 167.406 201.112  1.00  0.00     0.000 G0
ENDBRANCH  15  16
ENDBRANCH   1  15
TORSDOF 0
ENDMDL
MODEL 5
REMARK VINA RESULT:    -4.096      1.248      3.791
REMARK INTER + INTRA:          -4.774
REMARK INTER:                  -5.036
REMARK INTRA:                   0.262
REMARK UNBOUND:                 0.280
REMARK SMILES C=C1[C@H]2CC[C@@H]3[C@@H]2C(C)(C)CCC[C@]13C
REMARK SMILES IDX 14 1 6 2 7 3 3 4 2 5 1 6 4 7 5 8 15 9 8 10 9 11 10 12 11 13
REMARK SMILES IDX 13 15 12 16
REMARK H PARENT
REMARK Flexibility Score: 80.00
ROOT
ATOM      1  C   UNL     1     168.463 165.796 199.708  1.00  0.00    -0.008 C 
ATOM      2  C   UNL     1     168.577 164.420 200.358  1.00  0.00     0.003 C 
ATOM      3  C   UNL     1     167.365 163.766 199.673  1.00  0.00     0.006 C 
ATOM      4  C   UNL     1     167.995 163.796 198.290  1.00  0.00     0.019 C 
ATOM      5  C   UNL     1     168.308 165.312 198.253  1.00  0.00    -0.068 C 
ATOM      6  C   UNL     1     168.354 166.069 197.153  1.00  0.00     0.009 C 
ATOM      7  C   UNL     1     169.317 163.071 198.482  1.00  0.00     0.008 C 
ATOM      8  C   UNL     1     169.757 163.542 199.868  1.00  0.00     0.005 C 
ATOM      9  C   UNL     1     169.715 166.670 199.914  1.00  0.00     0.016 C 
ENDROOT
BRANCH   3  10
ATOM     10  C   UNL     1     166.373 163.180 200.701  1.00  0.00    -0.032 C 
ATOM     11  C   UNL     1     165.317 162.319 199.964  1.00  0.00     0.011 C 
ATOM     12  C   UNL     1     167.060 162.264 201.744  1.00  0.00     0.011 C 
BRANCH  10  13
ATOM     13  C   UNL     1     165.664 164.427 201.416  1.00  0.00     0.007 CG0
ATOM     14  G   UNL     1     166.457 165.801 201.572  1.00  0.00     0.000 G0
ENDBRANCH  10  13
ENDBRANCH   3  10
BRANCH   1  15
ATOM     15  C   UNL     1     167.149 166.493 200.307  1.00  0.00     0.011 C 
BRANCH  15  16
ATOM     16  C   UNL     1     166.459 165.810 201.575  1.00  0.00     0.001 CG0
ATOM     17  G   UNL     1     165.660 164.439 201.432  1.00  0.00     0.000 G0
ENDBRANCH  15  16
ENDBRANCH   1  15
TORSDOF 0
ENDMDL
MODEL 6
REMARK VINA RESULT:    -4.093      1.266      3.735
REMARK INTER + INTRA:          -4.769
REMARK INTER:                  -5.038
REMARK INTRA:                   0.268
REMARK UNBOUND:                 0.280
REMARK SMILES C=C1[C@H]2CC[C@@H]3[C@@H]2C(C)(C)CCC[C@]13C
REMARK SMILES IDX 14 1 6 2 7 3 3 4 2 5 1 6 4 7 5 8 15 9 8 10 9 11 10 12 11 13
REMARK SMILES IDX 13 15 12 16
REMARK H PARENT
REMARK Flexibility Score: 80.00
ROOT
ATOM      1  C   UNL     1     167.826 164.728 200.289  1.00  0.00    -0.008 C 
ATOM      2  C   UNL     1     166.645 164.172 201.080  1.00  0.00     0.003 C 
ATOM      3  C   UNL     1     166.200 163.106 200.064  1.00  0.00     0.006 C 
ATOM      4  C   UNL     1     167.451 162.261 200.241  1.00  0.00     0.019 C 
ATOM      5  C   UNL     1     168.482 163.377 199.943  1.00  0.00    -0.068 C 
ATOM      6  C   UNL     1     169.692 163.194 199.406  1.00  0.00     0.009 C 
ATOM      7  C   UNL     1     167.498 161.999 201.737  1.00  0.00     0.008 C 
ATOM      8  C   UNL     1     167.011 163.324 202.324  1.00  0.00     0.005 C 
ATOM      9  C   UNL     1     168.744 165.637 201.130  1.00  0.00     0.016 C 
ENDROOT
BRANCH   3  10
ATOM     10  C   UNL     1     164.714 163.267 199.678  1.00  0.00    -0.032 C 
ATOM     11  C   UNL     1     164.259 162.036 198.856  1.00  0.00     0.011 C 
ATOM     12  C   UNL     1     163.780 163.362 200.911  1.00  0.00     0.011 C 
BRANCH  10  13
ATOM     13  C   UNL     1     164.614 164.593 198.784  1.00  0.00     0.007 CG0
ATOM     14  G   UNL     1     165.654 165.779 199.013  1.00  0.00     0.000 G0
ENDBRANCH  10  13
ENDBRANCH   3  10
BRANCH   1  15
ATOM     15  C   UNL     1     167.223 165.505 199.023  1.00  0.00     0.011 C 
BRANCH  15  16
ATOM     16  C   UNL     1     165.650 165.781 199.002  1.00  0.00     0.001 CG0
ATOM     17  G   UNL     1     164.613 164.592 198.779  1.00  0.00     0.000 G0
ENDBRANCH  15  16
ENDBRANCH   1  15
TORSDOF 0
ENDMDL
MODEL 7
REMARK VINA RESULT:    -3.930      2.822      5.072
REMARK INTER + INTRA:          -4.569
REMARK INTER:                  -4.825
REMARK INTRA:                   0.257
REMARK UNBOUND:                 0.280
REMARK SMILES C=C1[C@H]2CC[C@@H]3[C@@H]2C(C)(C)CCC[C@]13C
REMARK SMILES IDX 14 1 6 2 7 3 3 4 2 5 1 6 4 7 5 8 15 9 8 10 9 11 10 12 11 13
REMARK SMILES IDX 13 15 12 16
REMARK H PARENT
REMARK Flexibility Score: 80.00
ROOT
ATOM      1  C   UNL     1     167.415 167.449 199.176  1.00  0.00    -0.008 C 
ATOM      2  C   UNL     1     166.846 168.139 197.939  1.00  0.00     0.003 C 
ATOM      3  C   UNL     1     165.636 168.806 198.613  1.00  0.00     0.006 C 
ATOM      4  C   UNL     1     166.485 169.749 199.450  1.00  0.00     0.019 C 
ATOM      5  C   UNL     1     167.372 168.669 200.117  1.00  0.00    -0.068 C 
ATOM      6  C   UNL     1     167.929 168.761 201.328  1.00  0.00     0.009 C 
ATOM      7  C   UNL     1     167.348 170.463 198.422  1.00  0.00     0.008 C 
ATOM      8  C   UNL     1     167.656 169.353 197.417  1.00  0.00     0.005 C 
ATOM      9  C   UNL     1     168.843 166.909 198.966  1.00  0.00     0.016 C 
ENDROOT
BRANCH   3  10
ATOM     10  C   UNL     1     164.311 168.433 197.913  1.00  0.00    -0.032 C 
ATOM     11  C   UNL     1     163.165 169.308 198.478  1.00  0.00     0.011 C 
ATOM     12  C   UNL     1     164.354 168.669 196.383  1.00  0.00     0.011 C 
BRANCH  10  13
ATOM     13  C   UNL     1     164.039 166.888 198.244  1.00  0.00     0.007 CG0
ATOM     14  G   UNL     1     165.267 165.914 198.530  1.00  0.00     0.000 G0
ENDBRANCH  10  13
ENDBRANCH   3  10
BRANCH   1  15
ATOM     15  C   UNL     1     166.393 166.280 199.576  1.00  0.00     0.011 C 
BRANCH  15  16
ATOM     16  C   UNL     1     165.256 165.896 198.523  1.00  0.00     0.001 CG0
ATOM     17  G   UNL     1     164.042 166.887 198.233  1.00  0.00     0.000 G0
ENDBRANCH  15  16
ENDBRANCH   1  15
TORSDOF 0
ENDMDL
MODEL 8
REMARK VINA RESULT:    -3.927      1.825      3.973
REMARK INTER + INTRA:          -4.565
REMARK INTER:                  -4.826
REMARK INTRA:                   0.262
REMARK UNBOUND:                 0.280
REMARK SMILES C=C1[C@H]2CC[C@@H]3[C@@H]2C(C)(C)CCC[C@]13C
REMARK SMILES IDX 14 1 6 2 7 3 3 4 2 5 1 6 4 7 5 8 15 9 8 10 9 11 10 12 11 13
REMARK SMILES IDX 13 15 12 16
REMARK H PARENT
REMARK Flexibility Score: 80.00
ROOT
ATOM      1  C   UNL     1     164.452 165.001 198.799  1.00  0.00    -0.008 C 
ATOM      2  C   UNL     1     165.305 163.763 198.536  1.00  0.00     0.003 C 
ATOM      3  C   UNL     1     165.493 163.327 199.998  1.00  0.00     0.006 C 
ATOM      4  C   UNL     1     164.027 162.975 200.194  1.00  0.00     0.019 C 
ATOM      5  C   UNL     1     163.441 164.340 199.757  1.00  0.00    -0.068 C 
ATOM      6  C   UNL     1     162.299 164.873 200.201  1.00  0.00     0.009 C 
ATOM      7  C   UNL     1     163.742 161.988 199.074  1.00  0.00     0.008 C 
ATOM      8  C   UNL     1     164.560 162.554 197.914  1.00  0.00     0.005 C 
ATOM      9  C   UNL     1     163.787 165.560 197.526  1.00  0.00     0.016 C 
ENDROOT
BRANCH   3  10
ATOM     10  C   UNL     1     166.985 163.178 200.365  1.00  0.00    -0.032 C 
ATOM     11  C   UNL     1     167.109 162.509 201.756  1.00  0.00     0.011 C 
ATOM     12  C   UNL     1     167.765 162.292 199.362  1.00  0.00     0.011 C 
BRANCH  10  13
ATOM     13  C   UNL     1     167.595 164.660 200.411  1.00  0.00     0.007 CG0
ATOM     14  G   UNL     1     166.962 165.801 199.497  1.00  0.00     0.000 G0
ENDBRANCH  10  13
ENDBRANCH   3  10
BRANCH   1  15
ATOM     15  C   UNL     1     165.399 166.088 199.499  1.00  0.00     0.011 C 
BRANCH  15  16
ATOM     16  C   UNL     1     166.972 165.810 199.500  1.00  0.00     0.001 CG0
ATOM     17  G   UNL     1     167.597 164.650 200.396  1.00  0.00     0.000 G0
ENDBRANCH  15  16
ENDBRANCH   1  15
TORSDOF 0
ENDMDL
MODEL 9
REMARK VINA RESULT:    -3.817      3.949      5.756
REMARK INTER + INTRA:          -4.430
REMARK INTER:                  -4.699
REMARK INTRA:                   0.270
REMARK UNBOUND:                 0.280
REMARK SMILES C=C1[C@H]2CC[C@@H]3[C@@H]2C(C)(C)CCC[C@]13C
REMARK SMILES IDX 14 1 6 2 7 3 3 4 2 5 1 6 4 7 5 8 15 9 8 10 9 11 10 12 11 13
REMARK SMILES IDX 13 15 12 16
REMARK H PARENT
REMARK Flexibility Score: 80.00
ROOT
ATOM      1  C   UNL     1     166.401 168.910 199.253  1.00  0.00    -0.008 C 
ATOM      2  C   UNL     1     164.917 169.128 199.531  1.00  0.00     0.003 C 
ATOM      3  C   UNL     1     164.644 167.795 200.248  1.00  0.00     0.006 C 
ATOM      4  C   UNL     1     165.505 168.142 201.452  1.00  0.00     0.019 C 
ATOM      5  C   UNL     1     166.803 168.466 200.673  1.00  0.00    -0.068 C 
ATOM      6  C   UNL     1     168.046 168.309 201.137  1.00  0.00     0.009 C 
ATOM      7  C   UNL     1     164.931 169.465 201.933  1.00  0.00     0.008 C 
ATOM      8  C   UNL     1     164.586 170.175 200.625  1.00  0.00     0.005 C 
ATOM      9  C   UNL     1     167.128 170.193 198.802  1.00  0.00     0.016 C 
ENDROOT
BRANCH   3  10
ATOM     10  C   UNL     1     163.488 167.014 199.586  1.00  0.00    -0.032 C 
ATOM     11  C   UNL     1     163.089 165.820 200.489  1.00  0.00     0.011 C 
ATOM     12  C   UNL     1     162.218 167.877 199.384  1.00  0.00     0.011 C 
BRANCH  10  13
ATOM     13  C   UNL     1     164.044 166.479 198.181  1.00  0.00     0.007 CG0
ATOM     14  G   UNL     1     165.173 167.302 197.415  1.00  0.00     0.000 G0
ENDBRANCH  10  13
ENDBRANCH   3  10
BRANCH   1  15
ATOM     15  C   UNL     1     166.511 167.750 198.152  1.00  0.00     0.011 C 
BRANCH  15  16
ATOM     16  C   UNL     1     165.169 167.306 197.407  1.00  0.00     0.001 CG0
ATOM     17  G   UNL     1     164.037 166.491 198.178  1.00  0.00     0.000 G0
ENDBRANCH  15  16
ENDBRANCH   1  15
TORSDOF 0
ENDMDL
