MODEL 1
REMARK VINA RESULT:    -3.741      0.000      0.000
REMARK INTER + INTRA:          -5.099
REMARK INTER:                  -4.944
REMARK INTRA:                  -0.156
REMARK UNBOUND:                -0.156
REMARK SMILES CCCCCCCO
REMARK SMILES IDX 5 1 4 2 3 3 2 4 1 5 6 6 7 7 8 8
REMARK H PARENT 8 9
REMARK Flexibility Score: inf
ROOT
ATOM      1  C   UNL     1     117.010 116.256 113.653  1.00  0.00     0.002 C 
ENDROOT
BRANCH   1   2
ATOM      2  C   UNL     1     116.278 116.896 114.844  1.00  0.00     0.000 C 
BRANCH   2   3
ATOM      3  C   UNL     1     117.130 116.902 116.125  1.00  0.00    -0.000 C 
BRANCH   3   4
ATOM      4  C   UNL     1     116.724 115.798 117.111  1.00  0.00    -0.003 C 
ATOM      5  C   UNL     1     115.213 115.785 117.328  1.00  0.00     0.004 C 
ENDBRANCH   3   4
ENDBRANCH   2   3
ENDBRANCH   1   2
BRANCH   1   6
ATOM      6  C   UNL     1     116.104 116.068 112.424  1.00  0.00     0.028 C 
BRANCH   6   7
ATOM      7  C   UNL     1     115.563 117.385 111.854  1.00  0.00     0.156 C 
BRANCH   7   8
ATOM      8  O   UNL     1     116.617 118.203 111.432  1.00  0.00    -0.396 OA
ATOM      9  H   UNL     1     117.366 118.036 112.062  1.00  0.00     0.210 HD
ENDBRANCH   7   8
ENDBRANCH   6   7
ENDBRANCH   1   6
TORSDOF 6
ENDMDL
MODEL 2
REMARK VINA RESULT:    -3.735      1.436      1.514
REMARK INTER + INTRA:          -5.092
REMARK INTER:                  -4.938
REMARK INTRA:                  -0.154
REMARK UNBOUND:                -0.156
REMARK SMILES CCCCCCCO
REMARK SMILES IDX 5 1 4 2 3 3 2 4 1 5 6 6 7 7 8 8
REMARK H PARENT 8 9
REMARK Flexibility Score: inf
ROOT
ATOM      1  C   UNL     1     116.999 116.995 113.628  1.00  0.00     0.002 C 
ENDROOT
BRANCH   1   2
ATOM      2  C   UNL     1     116.282 116.280 114.785  1.00  0.00     0.000 C 
BRANCH   2   3
ATOM      3  C   UNL     1     116.295 117.103 116.085  1.00  0.00    -0.000 C 
BRANCH   3   4
ATOM      4  C   UNL     1     117.484 116.756 116.993  1.00  0.00    -0.003 C 
ATOM      5  C   UNL     1     117.455 115.284 117.395  1.00  0.00     0.004 C 
ENDBRANCH   3   4
ENDBRANCH   2   3
ENDBRANCH   1   2
BRANCH   1   6
ATOM      6  C   UNL     1     117.136 116.115 112.374  1.00  0.00     0.028 C 
BRANCH   6   7
ATOM      7  C   UNL     1     115.803 115.544 111.877  1.00  0.00     0.156 C 
BRANCH   7   8
ATOM      8  O   UNL     1     114.968 116.574 111.429  1.00  0.00    -0.396 OA
ATOM      9  H   UNL     1     114.478 116.900 112.228  1.00  0.00     0.210 HD
ENDBRANCH   7   8
ENDBRANCH   6   7
ENDBRANCH   1   6
TORSDOF 6
ENDMDL
MODEL 3
REMARK VINA RESULT:    -3.731      1.590      1.896
REMARK INTER + INTRA:          -5.086
REMARK INTER:                  -4.979
REMARK INTRA:                  -0.107
REMARK UNBOUND:                -0.156
REMARK SMILES CCCCCCCO
REMARK SMILES IDX 5 1 4 2 3 3 2 4 1 5 6 6 7 7 8 8
REMARK H PARENT 8 9
REMARK Flexibility Score: inf
ROOT
ATOM      1  C   UNL     1     116.248 116.940 113.449  1.00  0.00     0.002 C 
ENDROOT
BRANCH   1   2
ATOM      2  C   UNL     1     116.816 116.289 114.721  1.00  0.00     0.000 C 
BRANCH   2   3
ATOM      3  C   UNL     1     116.282 116.945 116.006  1.00  0.00    -0.000 C 
BRANCH   3   4
ATOM      4  C   UNL     1     116.101 115.939 117.152  1.00  0.00    -0.003 C 
ATOM      5  C   UNL     1     117.387 115.157 117.404  1.00  0.00     0.004 C 
ENDBRANCH   3   4
ENDBRANCH   2   3
ENDBRANCH   1   2
BRANCH   1   6
ATOM      6  C   UNL     1     117.287 117.052 112.319  1.00  0.00     0.028 C 
BRANCH   6   7
ATOM      7  C   UNL     1     117.735 115.696 111.761  1.00  0.00     0.156 C 
BRANCH   7   8
ATOM      8  O   UNL     1     116.622 114.921 111.414  1.00  0.00    -0.396 OA
ATOM      9  H   UNL     1     116.321 114.480 112.250  1.00  0.00     0.210 HD
ENDBRANCH   7   8
ENDBRANCH   6   7
ENDBRANCH   1   6
TORSDOF 6
ENDMDL
MODEL 4
REMARK VINA RESULT:    -3.689      2.494      4.742
REMARK INTER + INTRA:          -5.031
REMARK INTER:                  -4.896
REMARK INTRA:                  -0.135
REMARK UNBOUND:                -0.156
REMARK SMILES CCCCCCCO
REMARK SMILES IDX 5 1 4 2 3 3 2 4 1 5 6 6 7 7 8 8
REMARK H PARENT 8 9
REMARK Flexibility Score: inf
ROOT
ATOM      1  C   UNL     1     116.909 116.325 115.052  1.00  0.00     0.002 C 
ENDROOT
BRANCH   1   2
ATOM      2  C   UNL     1     116.182 116.860 113.807  1.00  0.00     0.000 C 
BRANCH   2   3
ATOM      3  C   UNL     1     116.342 115.934 112.589  1.00  0.00    -0.000 C 
BRANCH   3   4
ATOM      4  C   UNL     1     117.487 116.367 111.662  1.00  0.00    -0.003 C 
ATOM      5  C   UNL     1     117.703 117.877 111.726  1.00  0.00     0.004 C 
ENDBRANCH   3   4
ENDBRANCH   2   3
ENDBRANCH   1   2
BRANCH   1   6
ATOM      6  C   UNL     1     116.407 116.965 116.358  1.00  0.00     0.028 C 
BRANCH   6   7
ATOM      7  C   UNL     1     117.403 116.853 117.518  1.00  0.00     0.156 C 
BRANCH   7   8
ATOM      8  O   UNL     1     118.524 117.656 117.276  1.00  0.00    -0.396 OA
ATOM      9  H   UNL     1     119.187 117.424 117.978  1.00  0.00     0.210 HD
ENDBRANCH   7   8
ENDBRANCH   6   7
ENDBRANCH   1   6
TORSDOF 6
ENDMDL
MODEL 5
REMARK VINA RESULT:    -3.687      2.371      4.586
REMARK INTER + INTRA:          -5.028
REMARK INTER:                  -4.872
REMARK INTRA:                  -0.156
REMARK UNBOUND:                -0.156
REMARK SMILES CCCCCCCO
REMARK SMILES IDX 5 1 4 2 3 3 2 4 1 5 6 6 7 7 8 8
REMARK H PARENT 8 9
REMARK Flexibility Score: inf
ROOT
ATOM      1  C   UNL     1     116.345 116.952 114.983  1.00  0.00     0.002 C 
ENDROOT
BRANCH   1   2
ATOM      2  C   UNL     1     117.049 116.420 113.723  1.00  0.00     0.000 C 
BRANCH   2   3
ATOM      3  C   UNL     1     116.737 117.262 112.474  1.00  0.00    -0.000 C 
BRANCH   3   4
ATOM      4  C   UNL     1     115.535 116.726 111.684  1.00  0.00    -0.003 C 
ATOM      5  C   UNL     1     115.473 115.202 111.748  1.00  0.00     0.004 C 
ENDBRANCH   3   4
ENDBRANCH   2   3
ENDBRANCH   1   2
BRANCH   1   6
ATOM      6  C   UNL     1     116.780 116.221 116.265  1.00  0.00     0.028 C 
BRANCH   6   7
ATOM      7  C   UNL     1     117.168 117.166 117.408  1.00  0.00     0.156 C 
BRANCH   7   8
ATOM      8  O   UNL     1     118.495 117.589 117.261  1.00  0.00    -0.396 OA
ATOM      9  H   UNL     1     118.832 117.765 118.177  1.00  0.00     0.210 HD
ENDBRANCH   7   8
ENDBRANCH   6   7
ENDBRANCH   1   6
TORSDOF 6
ENDMDL
MODEL 6
REMARK VINA RESULT:    -3.628      2.935      4.979
REMARK INTER + INTRA:          -4.950
REMARK INTER:                  -4.876
REMARK INTRA:                  -0.074
REMARK UNBOUND:                -0.156
REMARK SMILES CCCCCCCO
REMARK SMILES IDX 5 1 4 2 3 3 2 4 1 5 6 6 7 7 8 8
REMARK H PARENT 8 9
REMARK Flexibility Score: inf
ROOT
ATOM      1  C   UNL     1     116.224 116.016 116.924  1.00  0.00     0.002 C 
ENDROOT
BRANCH   1   2
ATOM      2  C   UNL     1     116.364 117.013 115.762  1.00  0.00     0.000 C 
BRANCH   2   3
ATOM      3  C   UNL     1     116.849 116.343 114.465  1.00  0.00    -0.000 C 
BRANCH   3   4
ATOM      4  C   UNL     1     116.279 117.011 113.205  1.00  0.00    -0.003 C 
ATOM      5  C   UNL     1     115.859 115.966 112.174  1.00  0.00     0.004 C 
ENDBRANCH   3   4
ENDBRANCH   2   3
ENDBRANCH   1   2
BRANCH   1   6
ATOM      6  C   UNL     1     114.941 116.230 117.746  1.00  0.00     0.028 C 
BRANCH   6   7
ATOM      7  C   UNL     1     114.183 114.932 118.049  1.00  0.00     0.156 C 
BRANCH   7   8
ATOM      8  O   UNL     1     112.843 115.049 117.660  1.00  0.00    -0.396 OA
ATOM      9  H   UNL     1     112.567 115.973 117.892  1.00  0.00     0.210 HD
ENDBRANCH   7   8
ENDBRANCH   6   7
ENDBRANCH   1   6
TORSDOF 6
ENDMDL
MODEL 7
REMARK VINA RESULT:    -3.625      2.937      4.964
REMARK INTER + INTRA:          -4.947
REMARK INTER:                  -4.881
REMARK INTRA:                  -0.066
REMARK UNBOUND:                -0.156
REMARK SMILES CCCCCCCO
REMARK SMILES IDX 5 1 4 2 3 3 2 4 1 5 6 6 7 7 8 8
REMARK H PARENT 8 9
REMARK Flexibility Score: inf
ROOT
ATOM      1  C   UNL     1     116.794 117.184 116.674  1.00  0.00     0.002 C 
ENDROOT
BRANCH   1   2
ATOM      2  C   UNL     1     116.655 116.241 115.468  1.00  0.00     0.000 C 
BRANCH   2   3
ATOM      3  C   UNL     1     116.738 116.986 114.125  1.00  0.00    -0.000 C 
BRANCH   3   4
ATOM      4  C   UNL     1     116.553 116.053 112.918  1.00  0.00    -0.003 C 
ATOM      5  C   UNL     1     115.600 116.664 111.894  1.00  0.00     0.004 C 
ENDBRANCH   3   4
ENDBRANCH   2   3
ENDBRANCH   1   2
BRANCH   1   6
ATOM      6  C   UNL     1     118.015 116.857 117.552  1.00  0.00     0.028 C 
BRANCH   6   7
ATOM      7  C   UNL     1     118.889 118.076 117.867  1.00  0.00     0.156 C 
BRANCH   7   8
ATOM      8  O   UNL     1     120.238 117.706 117.927  1.00  0.00    -0.396 OA
ATOM      9  H   UNL     1     120.610 118.149 118.734  1.00  0.00     0.210 HD
ENDBRANCH   7   8
ENDBRANCH   6   7
ENDBRANCH   1   6
TORSDOF 6
ENDMDL
MODEL 8
REMARK VINA RESULT:    -3.570      2.795      4.673
REMARK INTER + INTRA:          -4.874
REMARK INTER:                  -4.779
REMARK INTRA:                  -0.095
REMARK UNBOUND:                -0.156
REMARK SMILES CCCCCCCO
REMARK SMILES IDX 5 1 4 2 3 3 2 4 1 5 6 6 7 7 8 8
REMARK H PARENT 8 9
REMARK Flexibility Score: inf
ROOT
ATOM      1  C   UNL     1     117.277 117.002 116.838  1.00  0.00     0.002 C 
ENDROOT
BRANCH   1   2
ATOM      2  C   UNL     1     116.289 116.877 115.666  1.00  0.00     0.000 C 
BRANCH   2   3
ATOM      3  C   UNL     1     116.986 116.507 114.345  1.00  0.00    -0.000 C 
BRANCH   3   4
ATOM      4  C   UNL     1     116.216 117.001 113.112  1.00  0.00    -0.003 C 
ATOM      5  C   UNL     1     115.894 115.846 112.167  1.00  0.00     0.004 C 
ENDBRANCH   3   4
ENDBRANCH   2   3
ENDBRANCH   1   2
BRANCH   1   6
ATOM      6  C   UNL     1     116.861 118.074 117.860  1.00  0.00     0.028 C 
BRANCH   6   7
ATOM      7  C   UNL     1     115.517 118.738 117.540  1.00  0.00     0.156 C 
BRANCH   7   8
ATOM      8  O   UNL     1     115.536 120.085 117.921  1.00  0.00    -0.396 OA
ATOM      9  H   UNL     1     114.592 120.336 118.095  1.00  0.00     0.210 HD
ENDBRANCH   7   8
ENDBRANCH   6   7
ENDBRANCH   1   6
TORSDOF 6
ENDMDL
MODEL 9
REMARK VINA RESULT:    -3.431      3.399      5.310
REMARK INTER + INTRA:          -4.690
REMARK INTER:                  -4.570
REMARK INTRA:                  -0.120
REMARK UNBOUND:                -0.156
REMARK SMILES CCCCCCCO
REMARK SMILES IDX 5 1 4 2 3 3 2 4 1 5 6 6 7 7 8 8
REMARK H PARENT 8 9
REMARK Flexibility Score: inf
ROOT
ATOM      1  C   UNL     1     117.584 116.499 117.445  1.00  0.00     0.002 C 
ENDROOT
BRANCH   1   2
ATOM      2  C   UNL     1     116.818 117.182 116.300  1.00  0.00     0.000 C 
BRANCH   2   3
ATOM      3  C   UNL     1     116.590 116.244 115.103  1.00  0.00    -0.000 C 
BRANCH   3   4
ATOM      4  C   UNL     1     116.561 116.993 113.762  1.00  0.00    -0.003 C 
ATOM      5  C   UNL     1     116.640 116.020 112.589  1.00  0.00     0.004 C 
ENDBRANCH   3   4
ENDBRANCH   2   3
ENDBRANCH   1   2
BRANCH   1   6
ATOM      6  C   UNL     1     117.570 114.963 117.343  1.00  0.00     0.028 C 
BRANCH   6   7
ATOM      7  C   UNL     1     117.958 114.257 118.647  1.00  0.00     0.156 C 
BRANCH   7   8
ATOM      8  O   UNL     1     117.768 112.876 118.528  1.00  0.00    -0.396 OA
ATOM      9  H   UNL     1     117.917 112.657 117.572  1.00  0.00     0.210 HD
ENDBRANCH   7   8
ENDBRANCH   6   7
ENDBRANCH   1   6
TORSDOF 6
ENDMDL
