MODEL 1
REMARK VINA RESULT:    -4.028      0.000      0.000
REMARK INTER + INTRA:          -6.706
REMARK INTER:                  -5.912
REMARK INTRA:                  -0.794
REMARK UNBOUND:                -0.794
REMARK SMILES O=C([O-])CCCCCCCC(=O)[O-]
REMARK SMILES IDX 7 1 6 2 5 3 4 4 2 5 1 6 3 7 8 8 9 9 10 10 11 11 12 12 13 13
REMARK H PARENT
REMARK Flexibility Score: inf
ROOT
ATOM      1  C   UNL     1      58.492  -3.497  30.716  1.00  0.00     0.000 C 
ENDROOT
BRANCH   1   2
ATOM      2  C   UNL     1      59.372  -2.283  31.056  1.00  0.00     0.000 C 
BRANCH   2   3
ATOM      3  C   UNL     1      58.611  -0.950  30.944  1.00  0.00     0.006 C 
BRANCH   3   4
ATOM      4  C   UNL     1      58.422  -0.512  29.485  1.00  0.00     0.053 C 
BRANCH   4   5
ATOM      5  C   UNL     1      57.325   0.498  29.345  1.00  0.00     0.041 C 
ATOM      6  O   UNL     1      57.131   1.354  30.249  1.00  0.00    -0.550 OA
ATOM      7  O   UNL     1      56.535   0.512  28.203  1.00  0.00    -0.550 OA
ENDBRANCH   4   5
ENDBRANCH   3   4
ENDBRANCH   2   3
ENDBRANCH   1   2
BRANCH   1   8
ATOM      8  C   UNL     1      57.545  -3.881  31.868  1.00  0.00     0.000 C 
BRANCH   8   9
ATOM      9  C   UNL     1      56.187  -4.398  31.366  1.00  0.00     0.006 C 
BRANCH   9  10
ATOM     10  C   UNL     1      55.027  -3.458  31.721  1.00  0.00     0.053 C 
BRANCH  10  11
ATOM     11  C   UNL     1      55.063  -2.236  30.858  1.00  0.00     0.041 C 
ATOM     12  O   UNL     1      54.931  -1.094  31.370  1.00  0.00    -0.550 OA
ATOM     13  O   UNL     1      55.293  -2.355  29.493  1.00  0.00    -0.550 OA
ENDBRANCH  10  11
ENDBRANCH   9  10
ENDBRANCH   8   9
ENDBRANCH   1   8
TORSDOF 8
ENDMDL
MODEL 2
REMARK VINA RESULT:    -4.026      1.357      3.612
REMARK INTER + INTRA:          -6.703
REMARK INTER:                  -5.884
REMARK INTRA:                  -0.819
REMARK UNBOUND:                -0.794
REMARK SMILES O=C([O-])CCCCCCCC(=O)[O-]
REMARK SMILES IDX 7 1 6 2 5 3 4 4 2 5 1 6 3 7 8 8 9 9 10 10 11 11 12 12 13 13
REMARK H PARENT
REMARK Flexibility Score: inf
ROOT
ATOM      1  C   UNL     1      58.448  -3.298  31.519  1.00  0.00     0.000 C 
ENDROOT
BRANCH   1   2
ATOM      2  C   UNL     1      57.289  -3.985  30.780  1.00  0.00     0.000 C 
BRANCH   2   3
ATOM      3  C   UNL     1      56.085  -3.051  30.566  1.00  0.00     0.006 C 
BRANCH   3   4
ATOM      4  C   UNL     1      55.773  -2.840  29.078  1.00  0.00     0.053 C 
BRANCH   4   5
ATOM      5  C   UNL     1      54.801  -1.719  28.866  1.00  0.00     0.041 C 
ATOM      6  O   UNL     1      54.924  -0.951  27.876  1.00  0.00    -0.550 OA
ATOM      7  O   UNL     1      53.743  -1.543  29.748  1.00  0.00    -0.550 OA
ENDBRANCH   4   5
ENDBRANCH   3   4
ENDBRANCH   2   3
ENDBRANCH   1   2
BRANCH   1   8
ATOM      8  C   UNL     1      59.337  -2.465  30.578  1.00  0.00     0.000 C 
BRANCH   8   9
ATOM      9  C   UNL     1      59.091  -0.955  30.719  1.00  0.00     0.006 C 
BRANCH   9  10
ATOM     10  C   UNL     1      58.574  -0.314  29.424  1.00  0.00     0.053 C 
BRANCH  10  11
ATOM     11  C   UNL     1      57.431   0.605  29.717  1.00  0.00     0.041 C 
ATOM     12  O   UNL     1      56.752   0.458  30.766  1.00  0.00    -0.550 OA
ATOM     13  O   UNL     1      57.146   1.658  28.856  1.00  0.00    -0.550 OA
ENDBRANCH  10  11
ENDBRANCH   9  10
ENDBRANCH   8   9
ENDBRANCH   1   8
TORSDOF 8
ENDMDL
MODEL 3
REMARK VINA RESULT:    -4.005      1.601      4.140
REMARK INTER + INTRA:          -6.672
REMARK INTER:                  -5.910
REMARK INTRA:                  -0.762
REMARK UNBOUND:                -0.794
REMARK SMILES O=C([O-])CCCCCCCC(=O)[O-]
REMARK SMILES IDX 7 1 6 2 5 3 4 4 2 5 1 6 3 7 8 8 9 9 10 10 11 11 12 12 13 13
REMARK H PARENT
REMARK Flexibility Score: inf
ROOT
ATOM      1  C   UNL     1      59.151  -2.202  29.798  1.00  0.00     0.000 C 
ENDROOT
BRANCH   1   2
ATOM      2  C   UNL     1      59.009  -3.640  30.321  1.00  0.00     0.000 C 
BRANCH   2   3
ATOM      3  C   UNL     1      57.541  -4.091  30.424  1.00  0.00     0.006 C 
BRANCH   3   4
ATOM      4  C   UNL     1      56.889  -3.643  31.739  1.00  0.00     0.053 C 
BRANCH   4   5
ATOM      5  C   UNL     1      55.448  -4.046  31.811  1.00  0.00     0.041 C 
ATOM      6  O   UNL     1      55.135  -5.258  31.948  1.00  0.00    -0.550 OA
ATOM      7  O   UNL     1      54.452  -3.079  31.757  1.00  0.00    -0.550 OA
ENDBRANCH   4   5
ENDBRANCH   3   4
ENDBRANCH   2   3
ENDBRANCH   1   2
BRANCH   1   8
ATOM      8  C   UNL     1      59.698  -1.236  30.865  1.00  0.00     0.000 C 
BRANCH   8   9
ATOM      9  C   UNL     1      58.605  -0.335  31.460  1.00  0.00     0.006 C 
BRANCH   9  10
ATOM     10  C   UNL     1      57.708   0.297  30.387  1.00  0.00     0.053 C 
BRANCH  10  11
ATOM     11  C   UNL     1      56.313  -0.233  30.493  1.00  0.00     0.041 C 
ATOM     12  O   UNL     1      55.818  -0.906  29.552  1.00  0.00    -0.550 OA
ATOM     13  O   UNL     1      55.577  -0.027  31.653  1.00  0.00    -0.550 OA
ENDBRANCH  10  11
ENDBRANCH   9  10
ENDBRANCH   8   9
ENDBRANCH   1   8
TORSDOF 8
ENDMDL
MODEL 4
REMARK VINA RESULT:    -3.969      1.270      2.046
REMARK INTER + INTRA:          -6.619
REMARK INTER:                  -5.779
REMARK INTRA:                  -0.840
REMARK UNBOUND:                -0.794
REMARK SMILES O=C([O-])CCCCCCCC(=O)[O-]
REMARK SMILES IDX 7 1 6 2 5 3 4 4 2 5 1 6 3 7 8 8 9 9 10 10 11 11 12 12 13 13
REMARK H PARENT
REMARK Flexibility Score: inf
ROOT
ATOM      1  C   UNL     1      56.915  -3.877  31.857  1.00  0.00     0.000 C 
ENDROOT
BRANCH   1   2
ATOM      2  C   UNL     1      57.862  -3.872  30.647  1.00  0.00     0.000 C 
BRANCH   2   3
ATOM      3  C   UNL     1      58.973  -2.814  30.767  1.00  0.00     0.006 C 
BRANCH   3   4
ATOM      4  C   UNL     1      58.466  -1.512  31.400  1.00  0.00     0.053 C 
BRANCH   4   5
ATOM      5  C   UNL     1      58.324  -0.418  30.386  1.00  0.00     0.041 C 
ATOM      6  O   UNL     1      59.014  -0.435  29.334  1.00  0.00    -0.550 OA
ATOM      7  O   UNL     1      57.406   0.604  30.592  1.00  0.00    -0.550 OA
ENDBRANCH   4   5
ENDBRANCH   3   4
ENDBRANCH   2   3
ENDBRANCH   1   2
BRANCH   1   8
ATOM      8  C   UNL     1      55.486  -4.313  31.488  1.00  0.00     0.000 C 
BRANCH   8   9
ATOM      9  C   UNL     1      54.437  -3.244  31.828  1.00  0.00     0.006 C 
BRANCH   9  10
ATOM     10  C   UNL     1      54.828  -1.848  31.324  1.00  0.00     0.053 C 
BRANCH  10  11
ATOM     11  C   UNL     1      54.465  -1.694  29.881  1.00  0.00     0.041 C 
ATOM     12  O   UNL     1      53.298  -1.353  29.554  1.00  0.00    -0.550 OA
ATOM     13  O   UNL     1      55.429  -1.877  28.898  1.00  0.00    -0.550 OA
ENDBRANCH  10  11
ENDBRANCH   9  10
ENDBRANCH   8   9
ENDBRANCH   1   8
TORSDOF 8
ENDMDL
MODEL 5
REMARK VINA RESULT:    -3.959      1.963      3.260
REMARK INTER + INTRA:          -6.605
REMARK INTER:                  -5.648
REMARK INTRA:                  -0.957
REMARK UNBOUND:                -0.794
REMARK SMILES O=C([O-])CCCCCCCC(=O)[O-]
REMARK SMILES IDX 7 1 6 2 5 3 4 4 2 5 1 6 3 7 8 8 9 9 10 10 11 11 12 12 13 13
REMARK H PARENT
REMARK Flexibility Score: inf
ROOT
ATOM      1  C   UNL     1      58.689  -0.633  29.542  1.00  0.00     0.000 C 
ENDROOT
BRANCH   1   2
ATOM      2  C   UNL     1      58.187  -0.116  30.900  1.00  0.00     0.000 C 
BRANCH   2   3
ATOM      3  C   UNL     1      56.651  -0.060  30.981  1.00  0.00     0.006 C 
BRANCH   3   4
ATOM      4  C   UNL     1      55.982  -0.753  29.787  1.00  0.00     0.053 C 
BRANCH   4   5
ATOM      5  C   UNL     1      54.648  -1.329  30.153  1.00  0.00     0.041 C 
ATOM      6  O   UNL     1      54.390  -1.619  31.351  1.00  0.00    -0.550 OA
ATOM      7  O   UNL     1      53.681  -1.517  29.174  1.00  0.00    -0.550 OA
ENDBRANCH   4   5
ENDBRANCH   3   4
ENDBRANCH   2   3
ENDBRANCH   1   2
BRANCH   1   8
ATOM      8  C   UNL     1      59.819  -1.670  29.685  1.00  0.00     0.000 C 
BRANCH   8   9
ATOM      9  C   UNL     1      59.427  -2.846  30.593  1.00  0.00     0.006 C 
BRANCH   9  10
ATOM     10  C   UNL     1      58.391  -3.775  29.947  1.00  0.00     0.053 C 
BRANCH  10  11
ATOM     11  C   UNL     1      57.244  -4.008  30.880  1.00  0.00     0.041 C 
ATOM     12  O   UNL     1      57.236  -3.472  32.019  1.00  0.00    -0.550 OA
ATOM     13  O   UNL     1      56.161  -4.775  30.472  1.00  0.00    -0.550 OA
ENDBRANCH  10  11
ENDBRANCH   9  10
ENDBRANCH   8   9
ENDBRANCH   1   8
TORSDOF 8
ENDMDL
MODEL 6
REMARK VINA RESULT:    -3.956      1.170      3.787
REMARK INTER + INTRA:          -6.600
REMARK INTER:                  -5.750
REMARK INTRA:                  -0.850
REMARK UNBOUND:                -0.794
REMARK SMILES O=C([O-])CCCCCCCC(=O)[O-]
REMARK SMILES IDX 7 1 6 2 5 3 4 4 2 5 1 6 3 7 8 8 9 9 10 10 11 11 12 12 13 13
REMARK H PARENT
REMARK Flexibility Score: inf
ROOT
ATOM      1  C   UNL     1      57.192  -3.806  31.701  1.00  0.00     0.000 C 
ENDROOT
BRANCH   1   2
ATOM      2  C   UNL     1      55.828  -4.497  31.545  1.00  0.00     0.000 C 
BRANCH   2   3
ATOM      3  C   UNL     1      54.648  -3.549  31.820  1.00  0.00     0.006 C 
BRANCH   3   4
ATOM      4  C   UNL     1      54.981  -2.092  31.468  1.00  0.00     0.053 C 
BRANCH   4   5
ATOM      5  C   UNL     1      54.569  -1.749  30.069  1.00  0.00     0.041 C 
ATOM      6  O   UNL     1      53.464  -1.186  29.853  1.00  0.00    -0.550 OA
ATOM      7  O   UNL     1      55.421  -2.026  29.007  1.00  0.00    -0.550 OA
ENDBRANCH   4   5
ENDBRANCH   3   4
ENDBRANCH   2   3
ENDBRANCH   1   2
BRANCH   1   8
ATOM      8  C   UNL     1      58.090  -3.984  30.463  1.00  0.00     0.000 C 
BRANCH   8   9
ATOM      9  C   UNL     1      58.843  -2.697  30.092  1.00  0.00     0.006 C 
BRANCH   9  10
ATOM     10  C   UNL     1      58.515  -1.527  31.028  1.00  0.00     0.053 C 
BRANCH  10  11
ATOM     11  C   UNL     1      58.371  -0.258  30.248  1.00  0.00     0.041 C 
ATOM     12  O   UNL     1      59.146  -0.015  29.287  1.00  0.00    -0.550 OA
ATOM     13  O   UNL     1      57.348   0.632  30.550  1.00  0.00    -0.550 OA
ENDBRANCH  10  11
ENDBRANCH   9  10
ENDBRANCH   8   9
ENDBRANCH   1   8
TORSDOF 8
ENDMDL
MODEL 7
REMARK VINA RESULT:    -3.836      1.315      3.892
REMARK INTER + INTRA:          -6.424
REMARK INTER:                  -5.728
REMARK INTRA:                  -0.696
REMARK UNBOUND:                -0.794
REMARK SMILES O=C([O-])CCCCCCCC(=O)[O-]
REMARK SMILES IDX 7 1 6 2 5 3 4 4 2 5 1 6 3 7 8 8 9 9 10 10 11 11 12 12 13 13
REMARK H PARENT
REMARK Flexibility Score: inf
ROOT
ATOM      1  C   UNL     1      60.111  -1.704  30.511  1.00  0.00     0.000 C 
ENDROOT
BRANCH   1   2
ATOM      2  C   UNL     1      59.716  -3.182  30.662  1.00  0.00     0.000 C 
BRANCH   2   3
ATOM      3  C   UNL     1      58.387  -3.366  31.416  1.00  0.00     0.006 C 
BRANCH   3   4
ATOM      4  C   UNL     1      57.369  -4.180  30.605  1.00  0.00     0.053 C 
BRANCH   4   5
ATOM      5  C   UNL     1      56.163  -3.366  30.250  1.00  0.00     0.041 C 
ATOM      6  O   UNL     1      55.936  -3.057  29.050  1.00  0.00    -0.550 OA
ATOM      7  O   UNL     1      55.273  -2.973  31.242  1.00  0.00    -0.550 OA
ENDBRANCH   4   5
ENDBRANCH   3   4
ENDBRANCH   2   3
ENDBRANCH   1   2
BRANCH   1   8
ATOM      8  C   UNL     1      59.067  -0.890  29.725  1.00  0.00     0.000 C 
BRANCH   8   9
ATOM      9  C   UNL     1      58.336   0.136  30.605  1.00  0.00     0.006 C 
BRANCH   9  10
ATOM     10  C   UNL     1      56.836   0.222  30.295  1.00  0.00     0.053 C 
BRANCH  10  11
ATOM     11  C   UNL     1      56.617   0.767  28.919  1.00  0.00     0.041 C 
ATOM     12  O   UNL     1      57.203   1.819  28.554  1.00  0.00    -0.550 OA
ATOM     13  O   UNL     1      55.805   0.086  28.022  1.00  0.00    -0.550 OA
ENDBRANCH  10  11
ENDBRANCH   9  10
ENDBRANCH   8   9
ENDBRANCH   1   8
TORSDOF 8
ENDMDL
MODEL 8
REMARK VINA RESULT:    -3.772      2.017      3.463
REMARK INTER + INTRA:          -6.330
REMARK INTER:                  -5.424
REMARK INTRA:                  -0.907
REMARK UNBOUND:                -0.794
REMARK SMILES O=C([O-])CCCCCCCC(=O)[O-]
REMARK SMILES IDX 7 1 6 2 5 3 4 4 2 5 1 6 3 7 8 8 9 9 10 10 11 11 12 12 13 13
REMARK H PARENT
REMARK Flexibility Score: inf
ROOT
ATOM      1  C   UNL     1      58.350  -0.119  31.490  1.00  0.00     0.000 C 
ENDROOT
BRANCH   1   2
ATOM      2  C   UNL     1      59.570  -1.052  31.560  1.00  0.00     0.000 C 
BRANCH   2   3
ATOM      3  C   UNL     1      59.604  -2.070  30.407  1.00  0.00     0.006 C 
BRANCH   3   4
ATOM      4  C   UNL     1      59.275  -3.493  30.880  1.00  0.00     0.053 C 
BRANCH   4   5
ATOM      5  C   UNL     1      57.800  -3.756  30.864  1.00  0.00     0.041 C 
ATOM      6  O   UNL     1      57.210  -4.129  31.912  1.00  0.00    -0.550 OA
ATOM      7  O   UNL     1      57.073  -3.562  29.696  1.00  0.00    -0.550 OA
ENDBRANCH   4   5
ENDBRANCH   3   4
ENDBRANCH   2   3
ENDBRANCH   1   2
BRANCH   1   8
ATOM      8  C   UNL     1      57.851   0.094  30.050  1.00  0.00     0.000 C 
BRANCH   8   9
ATOM      9  C   UNL     1      56.340  -0.152  29.908  1.00  0.00     0.006 C 
BRANCH   9  10
ATOM     10  C   UNL     1      55.682  -0.579  31.227  1.00  0.00     0.053 C 
BRANCH  10  11
ATOM     11  C   UNL     1      54.528  -1.494  30.962  1.00  0.00     0.041 C 
ATOM     12  O   UNL     1      54.268  -2.432  31.759  1.00  0.00    -0.550 OA
ATOM     13  O   UNL     1      53.708  -1.278  29.861  1.00  0.00    -0.550 OA
ENDBRANCH  10  11
ENDBRANCH   9  10
ENDBRANCH   8   9
ENDBRANCH   1   8
TORSDOF 8
ENDMDL
MODEL 9
REMARK VINA RESULT:    -3.744      2.558      3.287
REMARK INTER + INTRA:          -6.289
REMARK INTER:                  -5.847
REMARK INTRA:                  -0.442
REMARK UNBOUND:                -0.794
REMARK SMILES O=C([O-])CCCCCCCC(=O)[O-]
REMARK SMILES IDX 7 1 6 2 5 3 4 4 2 5 1 6 3 7 8 8 9 9 10 10 11 11 12 12 13 13
REMARK H PARENT
REMARK Flexibility Score: inf
ROOT
ATOM      1  C   UNL     1      57.012  -4.259  30.387  1.00  0.00     0.000 C 
ENDROOT
BRANCH   1   2
ATOM      2  C   UNL     1      58.019  -3.715  31.413  1.00  0.00     0.000 C 
BRANCH   2   3
ATOM      3  C   UNL     1      59.301  -3.172  30.758  1.00  0.00     0.006 C 
BRANCH   3   4
ATOM      4  C   UNL     1      59.596  -3.853  29.414  1.00  0.00     0.053 C 
BRANCH   4   5
ATOM      5  C   UNL     1      60.647  -3.120  28.638  1.00  0.00     0.041 C 
ATOM      6  O   UNL     1      61.650  -3.735  28.189  1.00  0.00    -0.550 OA
ATOM      7  O   UNL     1      60.503  -1.761  28.386  1.00  0.00    -0.550 OA
ENDBRANCH   4   5
ENDBRANCH   3   4
ENDBRANCH   2   3
ENDBRANCH   1   2
BRANCH   1   8
ATOM      8  C   UNL     1      55.655  -4.615  31.020  1.00  0.00     0.000 C 
BRANCH   8   9
ATOM      9  C   UNL     1      55.244  -3.628  32.125  1.00  0.00     0.006 C 
BRANCH   9  10
ATOM     10  C   UNL     1      54.004  -2.805  31.753  1.00  0.00     0.053 C 
BRANCH  10  11
ATOM     11  C   UNL     1      54.388  -1.642  30.893  1.00  0.00     0.041 C 
ATOM     12  O   UNL     1      53.886  -1.510  29.746  1.00  0.00    -0.550 OA
ATOM     13  O   UNL     1      55.261  -0.677  31.377  1.00  0.00    -0.550 OA
ENDBRANCH  10  11
ENDBRANCH   9  10
ENDBRANCH   8   9
ENDBRANCH   1   8
TORSDOF 8
ENDMDL
