MODEL 1
REMARK VINA RESULT:    -7.202      0.000      0.000
REMARK INTER + INTRA:         -12.621
REMARK INTER:                 -10.780
REMARK INTRA:                  -1.841
REMARK UNBOUND:                -1.841
REMARK SMILES C=C(CC[C@@H](C(=O)[O-])[C@@H]1[C@@H](O)C[C@@]2(C)C3=C(CC[C@@]12C)[C@]1(C)CC[C@@H](OC(C)=O)C(C)(C)[C@@H]1CC3)C(C)C
REMARK SMILES IDX 4 1 5 2 6 3 7 4 8 5 9 6 10 7 19 8 12 9 13 10 18 11 20 12
REMARK SMILES IDX 14 13 15 14 17 15 16 16 35 17 21 18 34 19 33 20 23 21 22 22
REMARK SMILES IDX 30 23 24 24 25 25 31 26 32 27 11 28 26 30 27 31 29 32 28 33
REMARK SMILES IDX 3 34 2 35 1 36 36 37 37 38 38 39
REMARK H PARENT 11 29
REMARK Flexibility Score: inf
ROOT
ATOM      1  C   UNL     1      12.429  19.526   8.296  1.00  0.00     0.014 C 
ENDROOT
BRANCH   1   2
ATOM      2  C   UNL     1      12.976  18.835   7.012  1.00  0.00     0.042 C 
BRANCH   2   3
ATOM      3  C   UNL     1      12.361  19.388   5.750  1.00  0.00     0.045 C 
ATOM      4  O   UNL     1      11.974  18.628   4.824  1.00  0.00    -0.550 OA
ATOM      5  O   UNL     1      12.181  20.759   5.623  1.00  0.00    -0.550 OA
ENDBRANCH   2   3
BRANCH   2   6
ATOM      6  C   UNL     1      14.537  18.692   6.865  1.00  0.00     0.033 C 
ATOM      7  C   UNL     1      15.151  19.695   5.888  1.00  0.00     0.119 C 
ATOM      8  C   UNL     1      15.251  17.318   6.554  1.00  0.00    -0.017 C 
ATOM      9  C   UNL     1      16.611  19.286   5.816  1.00  0.00     0.043 C 
ATOM     10  C   UNL     1      16.635  17.739   5.846  1.00  0.00    -0.003 C 
ATOM     11  C   UNL     1      15.493  16.506   7.858  1.00  0.00     0.012 C 
ATOM     12  C   UNL     1      14.353  16.402   5.672  1.00  0.00     0.013 C 
ATOM     13  C   UNL     1      16.719  17.226   4.369  1.00  0.00     0.017 C 
ATOM     14  C   UNL     1      17.931  17.307   6.593  1.00  0.00    -0.064 C 
ATOM     15  C   UNL     1      16.651  17.027   8.685  1.00  0.00     0.032 C 
ATOM     16  C   UNL     1      17.938  16.920   7.903  1.00  0.00    -0.064 C 
ATOM     17  C   UNL     1      19.274  17.514   5.913  1.00  0.00     0.032 C 
ATOM     18  C   UNL     1      19.243  16.371   8.551  1.00  0.00    -0.008 C 
ATOM     19  C   UNL     1      20.267  18.133   6.883  1.00  0.00     0.009 C 
ATOM     20  C   UNL     1      20.522  17.224   8.114  1.00  0.00     0.009 C 
ATOM     21  C   UNL     1      19.125  16.288  10.112  1.00  0.00     0.015 C 
ATOM     22  C   UNL     1      19.396  14.913   8.039  1.00  0.00     0.016 C 
ATOM     23  C   UNL     1      21.216  18.023   9.282  1.00  0.00     0.005 C 
ATOM     24  C   UNL     1      20.454  16.051  10.830  1.00  0.00     0.047 C 
ATOM     25  C   UNL     1      21.588  17.025  10.433  1.00  0.00     0.182 C 
ATOM     26  C   UNL     1      22.538  18.674   8.778  1.00  0.00     0.015 C 
ATOM     27  C   UNL     1      20.307  19.179   9.815  1.00  0.00     0.015 C 
BRANCH   7  28
ATOM     28  O   UNL     1      15.019  21.009   6.366  1.00  0.00    -0.393 OA
ATOM     29  H   UNL     1      15.337  21.606   5.640  1.00  0.00     0.210 HD
ENDBRANCH   7  28
BRANCH  25  30
ATOM     30  O   UNL     1      22.742  16.261  10.058  1.00  0.00    -0.462 OA
BRANCH  30  31
ATOM     31  C   UNL     1      22.912  14.906  10.369  1.00  0.00     0.302 C 
ATOM     32  O   UNL     1      23.270  14.549  11.525  1.00  0.00    -0.253 OA
ATOM     33  C   UNL     1      22.718  13.883   9.303  1.00  0.00     0.139 C 
ENDBRANCH  30  31
ENDBRANCH  25  30
ENDBRANCH   2   6
ENDBRANCH   1   2
BRANCH   1  34
ATOM     34  C   UNL     1      13.324  19.346   9.542  1.00  0.00     0.031 C 
BRANCH  34  35
ATOM     35  C   UNL     1      12.758  18.398  10.589  1.00  0.00    -0.075 C 
ATOM     36  C   UNL     1      12.687  17.086  10.303  1.00  0.00     0.008 C 
BRANCH  35  37
ATOM     37  C   UNL     1      12.074  18.902  11.859  1.00  0.00     0.008 C 
ATOM     38  C   UNL     1      12.364  17.945  13.020  1.00  0.00     0.012 C 
ATOM     39  C   UNL     1      10.560  19.120  11.713  1.00  0.00     0.012 C 
ENDBRANCH  35  37
ENDBRANCH  34  35
ENDBRANCH   1  34
TORSDOF 9
ENDMDL
MODEL 2
REMARK VINA RESULT:    -6.968      2.278      8.605
REMARK INTER + INTRA:         -12.272
REMARK INTER:                 -10.157
REMARK INTRA:                  -2.114
REMARK UNBOUND:                -1.841
REMARK SMILES C=C(CC[C@@H](C(=O)[O-])[C@@H]1[C@@H](O)C[C@@]2(C)C3=C(CC[C@@]12C)[C@]1(C)CC[C@@H](OC(C)=O)C(C)(C)[C@@H]1CC3)C(C)C
REMARK SMILES IDX 4 1 5 2 6 3 7 4 8 5 9 6 10 7 19 8 12 9 13 10 18 11 20 12
REMARK SMILES IDX 14 13 15 14 17 15 16 16 35 17 21 18 34 19 33 20 23 21 22 22
REMARK SMILES IDX 30 23 24 24 25 25 31 26 32 27 11 28 26 30 27 31 29 32 28 33
REMARK SMILES IDX 3 34 2 35 1 36 36 37 37 38 38 39
REMARK H PARENT 11 29
REMARK Flexibility Score: inf
ROOT
ATOM      1  C   UNL     1      22.512  15.188   8.741  1.00  0.00     0.014 C 
ENDROOT
BRANCH   1   2
ATOM      2  C   UNL     1      22.470  16.354   7.710  1.00  0.00     0.042 C 
BRANCH   2   3
ATOM      3  C   UNL     1      23.568  16.257   6.680  1.00  0.00     0.045 C 
ATOM      4  O   UNL     1      24.161  17.285   6.259  1.00  0.00    -0.550 OA
ATOM      5  O   UNL     1      23.962  15.009   6.217  1.00  0.00    -0.550 OA
ENDBRANCH   2   3
BRANCH   2   6
ATOM      6  C   UNL     1      21.087  16.682   7.032  1.00  0.00     0.033 C 
ATOM      7  C   UNL     1      21.005  16.242   5.571  1.00  0.00     0.119 C 
ATOM      8  C   UNL     1      20.428  18.118   7.072  1.00  0.00    -0.017 C 
ATOM      9  C   UNL     1      19.660  16.771   5.106  1.00  0.00     0.043 C 
ATOM     10  C   UNL     1      19.482  18.158   5.769  1.00  0.00    -0.003 C 
ATOM     11  C   UNL     1      19.617  18.325   8.381  1.00  0.00     0.012 C 
ATOM     12  C   UNL     1      21.511  19.236   7.089  1.00  0.00     0.013 C 
ATOM     13  C   UNL     1      19.939  19.249   4.743  1.00  0.00     0.017 C 
ATOM     14  C   UNL     1      17.962  18.349   6.049  1.00  0.00    -0.064 C 
ATOM     15  C   UNL     1      18.281  17.610   8.382  1.00  0.00     0.032 C 
ATOM     16  C   UNL     1      17.402  18.149   7.278  1.00  0.00    -0.064 C 
ATOM     17  C   UNL     1      17.021  18.566   4.875  1.00  0.00     0.032 C 
ATOM     18  C   UNL     1      15.902  18.488   7.522  1.00  0.00    -0.008 C 
ATOM     19  C   UNL     1      15.789  17.688   5.016  1.00  0.00     0.009 C 
ATOM     20  C   UNL     1      14.985  18.015   6.302  1.00  0.00     0.009 C 
ATOM     21  C   UNL     1      15.387  17.897   8.880  1.00  0.00     0.015 C 
ATOM     22  C   UNL     1      15.828  20.033   7.654  1.00  0.00     0.016 C 
ATOM     23  C   UNL     1      13.965  16.864   6.648  1.00  0.00     0.005 C 
ATOM     24  C   UNL     1      13.867  17.927   9.041  1.00  0.00     0.047 C 
ATOM     25  C   UNL     1      13.078  17.314   7.860  1.00  0.00     0.182 C 
ATOM     26  C   UNL     1      13.017  16.605   5.440  1.00  0.00     0.015 C 
ATOM     27  C   UNL     1      14.695  15.515   6.958  1.00  0.00     0.015 C 
BRANCH   7  28
ATOM     28  O   UNL     1      21.060  14.843   5.464  1.00  0.00    -0.393 OA
ATOM     29  H   UNL     1      20.268  14.569   4.932  1.00  0.00     0.210 HD
ENDBRANCH   7  28
BRANCH  25  30
ATOM     30  O   UNL     1      12.099  18.265   7.417  1.00  0.00    -0.462 OA
BRANCH  30  31
ATOM     31  C   UNL     1      10.807  18.354   7.948  1.00  0.00     0.302 C 
ATOM     32  O   UNL     1      10.331  19.466   8.305  1.00  0.00    -0.253 OA
ATOM     33  C   UNL     1      10.010  17.109   8.141  1.00  0.00     0.139 C 
ENDBRANCH  30  31
ENDBRANCH  25  30
ENDBRANCH   2   6
ENDBRANCH   1   2
BRANCH   1  34
ATOM     34  C   UNL     1      22.951  15.612  10.159  1.00  0.00     0.031 C 
BRANCH  34  35
ATOM     35  C   UNL     1      22.070  16.676  10.796  1.00  0.00    -0.075 C 
ATOM     36  C   UNL     1      20.813  16.351  11.146  1.00  0.00     0.008 C 
BRANCH  35  37
ATOM     37  C   UNL     1      22.483  18.145  10.859  1.00  0.00     0.008 C 
ATOM     38  C   UNL     1      23.796  18.350  10.097  1.00  0.00     0.012 C 
ATOM     39  C   UNL     1      22.602  18.705  12.285  1.00  0.00     0.012 C 
ENDBRANCH  35  37
ENDBRANCH  34  35
ENDBRANCH   1  34
TORSDOF 9
ENDMDL
MODEL 3
REMARK VINA RESULT:    -6.879      4.934      8.950
REMARK INTER + INTRA:         -12.138
REMARK INTER:                  -9.924
REMARK INTRA:                  -2.214
REMARK UNBOUND:                -1.841
REMARK SMILES C=C(CC[C@@H](C(=O)[O-])[C@@H]1[C@@H](O)C[C@@]2(C)C3=C(CC[C@@]12C)[C@]1(C)CC[C@@H](OC(C)=O)C(C)(C)[C@@H]1CC3)C(C)C
REMARK SMILES IDX 4 1 5 2 6 3 7 4 8 5 9 6 10 7 19 8 12 9 13 10 18 11 20 12
REMARK SMILES IDX 14 13 15 14 17 15 16 16 35 17 21 18 34 19 33 20 23 21 22 22
REMARK SMILES IDX 30 23 24 24 25 25 31 26 32 27 11 28 26 30 27 31 29 32 28 33
REMARK SMILES IDX 3 34 2 35 1 36 36 37 37 38 38 39
REMARK H PARENT 11 29
REMARK Flexibility Score: inf
ROOT
ATOM      1  C   UNL     1      23.294  18.102   9.039  1.00  0.00     0.014 C 
ENDROOT
BRANCH   1   2
ATOM      2  C   UNL     1      23.136  17.205  10.302  1.00  0.00     0.042 C 
BRANCH   2   3
ATOM      3  C   UNL     1      23.121  18.005  11.582  1.00  0.00     0.045 C 
ATOM      4  O   UNL     1      23.907  17.738  12.528  1.00  0.00    -0.550 OA
ATOM      5  O   UNL     1      22.254  19.083  11.703  1.00  0.00    -0.550 OA
ENDBRANCH   2   3
BRANCH   2   6
ATOM      6  C   UNL     1      21.989  16.126  10.296  1.00  0.00     0.033 C 
ATOM      7  C   UNL     1      20.770  16.530  11.125  1.00  0.00     0.119 C 
ATOM      8  C   UNL     1      22.238  14.604  10.636  1.00  0.00    -0.017 C 
ATOM      9  C   UNL     1      19.875  15.305  11.076  1.00  0.00     0.043 C 
ATOM     10  C   UNL     1      20.810  14.075  11.163  1.00  0.00    -0.003 C 
ATOM     11  C   UNL     1      22.715  13.822   9.381  1.00  0.00     0.012 C 
ATOM     12  C   UNL     1      23.385  14.436  11.674  1.00  0.00     0.013 C 
ATOM     13  C   UNL     1      20.869  13.614  12.658  1.00  0.00     0.017 C 
ATOM     14  C   UNL     1      20.163  12.937  10.320  1.00  0.00    -0.064 C 
ATOM     15  C   UNL     1      21.600  13.518   8.400  1.00  0.00     0.032 C 
ATOM     16  C   UNL     1      20.563  12.634   9.050  1.00  0.00    -0.064 C 
ATOM     17  C   UNL     1      18.902  12.266  10.839  1.00  0.00     0.032 C 
ATOM     18  C   UNL     1      19.967  11.398   8.314  1.00  0.00    -0.008 C 
ATOM     19  C   UNL     1      17.874  12.141   9.727  1.00  0.00     0.009 C 
ATOM     20  C   UNL     1      18.391  11.274   8.550  1.00  0.00     0.009 C 
ATOM     21  C   UNL     1      20.311  11.412   6.784  1.00  0.00     0.015 C 
ATOM     22  C   UNL     1      20.678  10.156   8.917  1.00  0.00     0.016 C 
ATOM     23  C   UNL     1      17.511  11.477   7.258  1.00  0.00     0.005 C 
ATOM     24  C   UNL     1      19.515  10.407   5.953  1.00  0.00     0.047 C 
ATOM     25  C   UNL     1      17.982  10.469   6.154  1.00  0.00     0.182 C 
ATOM     26  C   UNL     1      16.017  11.168   7.571  1.00  0.00     0.015 C 
ATOM     27  C   UNL     1      17.577  12.951   6.736  1.00  0.00     0.015 C 
BRANCH   7  28
ATOM     28  O   UNL     1      20.127  17.646  10.565  1.00  0.00    -0.393 OA
ATOM     29  H   UNL     1      19.821  17.371   9.662  1.00  0.00     0.210 HD
ENDBRANCH   7  28
BRANCH  25  30
ATOM     30  O   UNL     1      17.505   9.152   6.465  1.00  0.00    -0.462 OA
BRANCH  30  31
ATOM     31  C   UNL     1      16.938   8.288   5.520  1.00  0.00     0.302 C 
ATOM     32  O   UNL     1      17.664   7.666   4.697  1.00  0.00    -0.253 OA
ATOM     33  C   UNL     1      15.456   8.148   5.457  1.00  0.00     0.139 C 
ENDBRANCH  30  31
ENDBRANCH  25  30
ENDBRANCH   2   6
ENDBRANCH   1   2
BRANCH   1  34
ATOM     34  C   UNL     1      22.557  17.571   7.790  1.00  0.00     0.031 C 
BRANCH  34  35
ATOM     35  C   UNL     1      21.388  18.434   7.337  1.00  0.00    -0.075 C 
ATOM     36  C   UNL     1      21.436  19.759   7.561  1.00  0.00     0.008 C 
BRANCH  35  37
ATOM     37  C   UNL     1      20.077  17.831   6.836  1.00  0.00     0.008 C 
ATOM     38  C   UNL     1      18.905  18.739   7.220  1.00  0.00     0.012 C 
ATOM     39  C   UNL     1      19.819  16.395   7.321  1.00  0.00     0.012 C 
ENDBRANCH  35  37
ENDBRANCH  34  35
ENDBRANCH   1  34
TORSDOF 9
ENDMDL
MODEL 4
REMARK VINA RESULT:    -6.666      4.213      8.279
REMARK INTER + INTRA:         -11.819
REMARK INTER:                  -9.595
REMARK INTRA:                  -2.224
REMARK UNBOUND:                -1.841
REMARK SMILES C=C(CC[C@@H](C(=O)[O-])[C@@H]1[C@@H](O)C[C@@]2(C)C3=C(CC[C@@]12C)[C@]1(C)CC[C@@H](OC(C)=O)C(C)(C)[C@@H]1CC3)C(C)C
REMARK SMILES IDX 4 1 5 2 6 3 7 4 8 5 9 6 10 7 19 8 12 9 13 10 18 11 20 12
REMARK SMILES IDX 14 13 15 14 17 15 16 16 35 17 21 18 34 19 33 20 23 21 22 22
REMARK SMILES IDX 30 23 24 24 25 25 31 26 32 27 11 28 26 30 27 31 29 32 28 33
REMARK SMILES IDX 3 34 2 35 1 36 36 37 37 38 38 39
REMARK H PARENT 11 29
REMARK Flexibility Score: inf
ROOT
ATOM      1  C   UNL     1      20.788  19.005   9.691  1.00  0.00     0.014 C 
ENDROOT
BRANCH   1   2
ATOM      2  C   UNL     1      21.904  17.919   9.641  1.00  0.00     0.042 C 
BRANCH   2   3
ATOM      3  C   UNL     1      23.050  18.224  10.574  1.00  0.00     0.045 C 
ATOM      4  O   UNL     1      24.245  18.045  10.220  1.00  0.00    -0.550 OA
ATOM      5  O   UNL     1      22.787  18.750  11.831  1.00  0.00    -0.550 OA
ENDBRANCH   2   3
BRANCH   2   6
ATOM      6  C   UNL     1      21.465  16.412   9.758  1.00  0.00     0.033 C 
ATOM      7  C   UNL     1      21.919  15.745  11.056  1.00  0.00     0.119 C 
ATOM      8  C   UNL     1      21.736  15.345   8.625  1.00  0.00    -0.017 C 
ATOM      9  C   UNL     1      21.502  14.295  10.885  1.00  0.00     0.043 C 
ATOM     10  C   UNL     1      21.764  13.935   9.403  1.00  0.00    -0.003 C 
ATOM     11  C   UNL     1      20.622  15.385   7.542  1.00  0.00     0.012 C 
ATOM     12  C   UNL     1      23.054  15.659   7.858  1.00  0.00     0.013 C 
ATOM     13  C   UNL     1      23.165  13.241   9.311  1.00  0.00     0.017 C 
ATOM     14  C   UNL     1      20.675  12.909   8.973  1.00  0.00    -0.064 C 
ATOM     15  C   UNL     1      19.330  14.726   7.982  1.00  0.00     0.032 C 
ATOM     16  C   UNL     1      19.563  13.260   8.261  1.00  0.00    -0.064 C 
ATOM     17  C   UNL     1      20.733  11.498   9.534  1.00  0.00     0.032 C 
ATOM     18  C   UNL     1      18.582  12.166   7.747  1.00  0.00    -0.008 C 
ATOM     19  C   UNL     1      19.358  11.060  10.007  1.00  0.00     0.009 C 
ATOM     20  C   UNL     1      18.323  11.041   8.852  1.00  0.00     0.009 C 
ATOM     21  C   UNL     1      17.234  12.786   7.242  1.00  0.00     0.015 C 
ATOM     22  C   UNL     1      19.267  11.524   6.509  1.00  0.00     0.016 C 
ATOM     23  C   UNL     1      16.847  10.985   9.405  1.00  0.00     0.005 C 
ATOM     24  C   UNL     1      16.121  11.764   7.011  1.00  0.00     0.047 C 
ATOM     25  C   UNL     1      15.857  10.812   8.202  1.00  0.00     0.182 C 
ATOM     26  C   UNL     1      16.671   9.752  10.341  1.00  0.00     0.015 C 
ATOM     27  C   UNL     1      16.493  12.256  10.245  1.00  0.00     0.015 C 
BRANCH   7  28
ATOM     28  O   UNL     1      21.286  16.323  12.168  1.00  0.00    -0.393 OA
ATOM     29  H   UNL     1      21.790  17.150  12.381  1.00  0.00     0.210 HD
ENDBRANCH   7  28
BRANCH  25  30
ATOM     30  O   UNL     1      15.900   9.459   7.728  1.00  0.00    -0.462 OA
BRANCH  30  31
ATOM     31  C   UNL     1      15.696   9.096   6.392  1.00  0.00     0.302 C 
ATOM     32  O   UNL     1      14.530   8.959   5.931  1.00  0.00    -0.253 OA
ATOM     33  C   UNL     1      16.875   8.817   5.524  1.00  0.00     0.139 C 
ENDBRANCH  30  31
ENDBRANCH  25  30
ENDBRANCH   2   6
ENDBRANCH   1   2
BRANCH   1  34
ATOM     34  C   UNL     1      19.364  18.460   9.451  1.00  0.00     0.031 C 
BRANCH  34  35
ATOM     35  C   UNL     1      18.894  18.547   8.006  1.00  0.00    -0.075 C 
ATOM     36  C   UNL     1      19.751  18.995   7.072  1.00  0.00     0.008 C 
BRANCH  35  37
ATOM     37  C   UNL     1      17.431  18.350   7.612  1.00  0.00     0.008 C 
ATOM     38  C   UNL     1      16.709  19.701   7.599  1.00  0.00     0.012 C 
ATOM     39  C   UNL     1      16.671  17.348   8.496  1.00  0.00     0.012 C 
ENDBRANCH  35  37
ENDBRANCH  34  35
ENDBRANCH   1  34
TORSDOF 9
ENDMDL
MODEL 5
REMARK VINA RESULT:    -6.637      5.945      8.958
REMARK INTER + INTRA:         -11.776
REMARK INTER:                  -9.835
REMARK INTRA:                  -1.942
REMARK UNBOUND:                -1.841
REMARK SMILES C=C(CC[C@@H](C(=O)[O-])[C@@H]1[C@@H](O)C[C@@]2(C)C3=C(CC[C@@]12C)[C@]1(C)CC[C@@H](OC(C)=O)C(C)(C)[C@@H]1CC3)C(C)C
REMARK SMILES IDX 4 1 5 2 6 3 7 4 8 5 9 6 10 7 19 8 12 9 13 10 18 11 20 12
REMARK SMILES IDX 14 13 15 14 17 15 16 16 35 17 21 18 34 19 33 20 23 21 22 22
REMARK SMILES IDX 30 23 24 24 25 25 31 26 32 27 11 28 26 30 27 31 29 32 28 33
REMARK SMILES IDX 3 34 2 35 1 36 36 37 37 38 38 39
REMARK H PARENT 11 29
REMARK Flexibility Score: inf
ROOT
ATOM      1  C   UNL     1      23.759  15.577  12.074  1.00  0.00     0.014 C 
ENDROOT
BRANCH   1   2
ATOM      2  C   UNL     1      22.781  16.520  11.313  1.00  0.00     0.042 C 
BRANCH   2   3
ATOM      3  C   UNL     1      22.756  17.915  11.889  1.00  0.00     0.045 C 
ATOM      4  O   UNL     1      21.725  18.633  11.817  1.00  0.00    -0.550 OA
ATOM      5  O   UNL     1      23.877  18.402  12.548  1.00  0.00    -0.550 OA
ENDBRANCH   2   3
BRANCH   2   6
ATOM      6  C   UNL     1      22.874  16.559   9.742  1.00  0.00     0.033 C 
ATOM      7  C   UNL     1      23.232  17.938   9.187  1.00  0.00     0.119 C 
ATOM      8  C   UNL     1      21.730  16.014   8.798  1.00  0.00    -0.017 C 
ATOM      9  C   UNL     1      23.136  17.760   7.682  1.00  0.00     0.043 C 
ATOM     10  C   UNL     1      21.920  16.838   7.427  1.00  0.00    -0.003 C 
ATOM     11  C   UNL     1      21.871  14.482   8.576  1.00  0.00     0.012 C 
ATOM     12  C   UNL     1      20.327  16.199   9.446  1.00  0.00     0.013 C 
ATOM     13  C   UNL     1      20.682  17.742   7.107  1.00  0.00     0.017 C 
ATOM     14  C   UNL     1      22.243  15.979   6.168  1.00  0.00    -0.064 C 
ATOM     15  C   UNL     1      22.975  14.113   7.606  1.00  0.00     0.032 C 
ATOM     16  C   UNL     1      22.683  14.689   6.242  1.00  0.00    -0.064 C 
ATOM     17  C   UNL     1      22.271  16.655   4.807  1.00  0.00     0.032 C 
ATOM     18  C   UNL     1      22.857  13.844   4.945  1.00  0.00    -0.008 C 
ATOM     19  C   UNL     1      23.504  16.227   4.029  1.00  0.00     0.009 C 
ATOM     20  C   UNL     1      23.528  14.697   3.772  1.00  0.00     0.009 C 
ATOM     21  C   UNL     1      23.660  12.525   5.216  1.00  0.00     0.015 C 
ATOM     22  C   UNL     1      21.428  13.414   4.518  1.00  0.00     0.016 C 
ATOM     23  C   UNL     1      24.963  14.211   3.337  1.00  0.00     0.005 C 
ATOM     24  C   UNL     1      24.129  11.805   3.952  1.00  0.00     0.047 C 
ATOM     25  C   UNL     1      24.892  12.696   2.943  1.00  0.00     0.182 C 
ATOM     26  C   UNL     1      25.441  15.002   2.083  1.00  0.00     0.015 C 
ATOM     27  C   UNL     1      26.022  14.449   4.464  1.00  0.00     0.015 C 
BRANCH   7  28
ATOM     28  O   UNL     1      24.530  18.312   9.568  1.00  0.00    -0.393 OA
ATOM     29  H   UNL     1      25.150  17.684   9.113  1.00  0.00     0.210 HD
ENDBRANCH   7  28
BRANCH  25  30
ATOM     30  O   UNL     1      24.281  12.558   1.652  1.00  0.00    -0.462 OA
BRANCH  30  31
ATOM     31  C   UNL     1      23.426  11.506   1.305  1.00  0.00     0.302 C 
ATOM     32  O   UNL     1      23.888  10.373   0.997  1.00  0.00    -0.253 OA
ATOM     33  C   UNL     1      21.956  11.748   1.250  1.00  0.00     0.139 C 
ENDBRANCH  30  31
ENDBRANCH  25  30
ENDBRANCH   2   6
ENDBRANCH   1   2
BRANCH   1  34
ATOM     34  C   UNL     1      23.612  14.084  11.709  1.00  0.00     0.031 C 
BRANCH  34  35
ATOM     35  C   UNL     1      22.476  13.372  12.429  1.00  0.00    -0.075 C 
ATOM     36  C   UNL     1      22.760  12.633  13.516  1.00  0.00     0.008 C 
BRANCH  35  37
ATOM     37  C   UNL     1      21.067  13.288  11.845  1.00  0.00     0.008 C 
ATOM     38  C   UNL     1      20.048  13.795  12.869  1.00  0.00     0.012 C 
ATOM     39  C   UNL     1      20.673  11.886  11.350  1.00  0.00     0.012 C 
ENDBRANCH  35  37
ENDBRANCH  34  35
ENDBRANCH   1  34
TORSDOF 9
ENDMDL
MODEL 6
REMARK VINA RESULT:    -6.627      5.661     10.123
REMARK INTER + INTRA:         -11.761
REMARK INTER:                  -9.091
REMARK INTRA:                  -2.670
REMARK UNBOUND:                -1.841
REMARK SMILES C=C(CC[C@@H](C(=O)[O-])[C@@H]1[C@@H](O)C[C@@]2(C)C3=C(CC[C@@]12C)[C@]1(C)CC[C@@H](OC(C)=O)C(C)(C)[C@@H]1CC3)C(C)C
REMARK SMILES IDX 4 1 5 2 6 3 7 4 8 5 9 6 10 7 19 8 12 9 13 10 18 11 20 12
REMARK SMILES IDX 14 13 15 14 17 15 16 16 35 17 21 18 34 19 33 20 23 21 22 22
REMARK SMILES IDX 30 23 24 24 25 25 31 26 32 27 11 28 26 30 27 31 29 32 28 33
REMARK SMILES IDX 3 34 2 35 1 36 36 37 37 38 38 39
REMARK H PARENT 11 29
REMARK Flexibility Score: inf
ROOT
ATOM      1  C   UNL     1      23.623   8.297   4.072  1.00  0.00     0.014 C 
ENDROOT
BRANCH   1   2
ATOM      2  C   UNL     1      23.876   9.429   3.032  1.00  0.00     0.042 C 
BRANCH   2   3
ATOM      3  C   UNL     1      23.579   8.994   1.618  1.00  0.00     0.045 C 
ATOM      4  O   UNL     1      24.269   9.406   0.649  1.00  0.00    -0.550 OA
ATOM      5  O   UNL     1      22.551   8.090   1.384  1.00  0.00    -0.550 OA
ENDBRANCH   2   3
BRANCH   2   6
ATOM      6  C   UNL     1      23.259  10.847   3.329  1.00  0.00     0.033 C 
ATOM      7  C   UNL     1      22.138  11.237   2.366  1.00  0.00     0.119 C 
ATOM      8  C   UNL     1      24.137  12.150   3.494  1.00  0.00    -0.017 C 
ATOM      9  C   UNL     1      21.799  12.663   2.761  1.00  0.00     0.043 C 
ATOM     10  C   UNL     1      23.141  13.354   3.102  1.00  0.00    -0.003 C 
ATOM     11  C   UNL     1      24.665  12.288   4.950  1.00  0.00     0.012 C 
ATOM     12  C   UNL     1      25.416  12.087   2.609  1.00  0.00     0.013 C 
ATOM     13  C   UNL     1      23.627  14.128   1.830  1.00  0.00     0.017 C 
ATOM     14  C   UNL     1      22.860  14.388   4.232  1.00  0.00    -0.064 C 
ATOM     15  C   UNL     1      23.610  12.762   5.930  1.00  0.00     0.032 C 
ATOM     16  C   UNL     1      23.127  14.140   5.549  1.00  0.00    -0.064 C 
ATOM     17  C   UNL     1      22.069  15.642   3.899  1.00  0.00     0.032 C 
ATOM     18  C   UNL     1      22.948  15.265   6.610  1.00  0.00    -0.008 C 
ATOM     19  C   UNL     1      21.000  15.888   4.951  1.00  0.00     0.009 C 
ATOM     20  C   UNL     1      21.610  16.103   6.361  1.00  0.00     0.009 C 
ATOM     21  C   UNL     1      22.996  14.697   8.071  1.00  0.00     0.015 C 
ATOM     22  C   UNL     1      24.178  16.200   6.456  1.00  0.00     0.016 C 
ATOM     23  C   UNL     1      20.517  15.955   7.487  1.00  0.00     0.005 C 
ATOM     24  C   UNL     1      22.529  15.682   9.142  1.00  0.00     0.047 C 
ATOM     25  C   UNL     1      21.153  16.333   8.869  1.00  0.00     0.182 C 
ATOM     26  C   UNL     1      19.339  16.940   7.225  1.00  0.00     0.015 C 
ATOM     27  C   UNL     1      19.912  14.512   7.523  1.00  0.00     0.015 C 
BRANCH   7  28
ATOM     28  O   UNL     1      21.026  10.394   2.523  1.00  0.00    -0.393 OA
ATOM     29  H   UNL     1      21.336   9.611   3.047  1.00  0.00     0.210 HD
ENDBRANCH   7  28
BRANCH  25  30
ATOM     30  O   UNL     1      21.288  17.757   8.968  1.00  0.00    -0.462 OA
BRANCH  30  31
ATOM     31  C   UNL     1      21.089  18.477  10.152  1.00  0.00     0.302 C 
ATOM     32  O   UNL     1      21.873  18.340  11.130  1.00  0.00    -0.253 OA
ATOM     33  C   UNL     1      19.903  19.372  10.271  1.00  0.00     0.139 C 
ENDBRANCH  30  31
ENDBRANCH  25  30
ENDBRANCH   2   6
ENDBRANCH   1   2
BRANCH   1  34
ATOM     34  C   UNL     1      22.325   8.468   4.890  1.00  0.00     0.031 C 
BRANCH  34  35
ATOM     35  C   UNL     1      22.510   9.194   6.215  1.00  0.00    -0.075 C 
ATOM     36  C   UNL     1      23.683   9.074   6.861  1.00  0.00     0.008 C 
BRANCH  35  37
ATOM     37  C   UNL     1      21.349   9.874   6.940  1.00  0.00     0.008 C 
ATOM     38  C   UNL     1      20.596  10.790   5.971  1.00  0.00     0.012 C 
ATOM     39  C   UNL     1      21.765  10.654   8.197  1.00  0.00     0.012 C 
ENDBRANCH  35  37
ENDBRANCH  34  35
ENDBRANCH   1  34
TORSDOF 9
ENDMDL
MODEL 7
REMARK VINA RESULT:    -6.401      1.921      8.982
REMARK INTER + INTRA:         -11.422
REMARK INTER:                  -9.284
REMARK INTRA:                  -2.138
REMARK UNBOUND:                -1.841
REMARK SMILES C=C(CC[C@@H](C(=O)[O-])[C@@H]1[C@@H](O)C[C@@]2(C)C3=C(CC[C@@]12C)[C@]1(C)CC[C@@H](OC(C)=O)C(C)(C)[C@@H]1CC3)C(C)C
REMARK SMILES IDX 4 1 5 2 6 3 7 4 8 5 9 6 10 7 19 8 12 9 13 10 18 11 20 12
REMARK SMILES IDX 14 13 15 14 17 15 16 16 35 17 21 18 34 19 33 20 23 21 22 22
REMARK SMILES IDX 30 23 24 24 25 25 31 26 32 27 11 28 26 30 27 31 29 32 28 33
REMARK SMILES IDX 3 34 2 35 1 36 36 37 37 38 38 39
REMARK H PARENT 11 29
REMARK Flexibility Score: inf
ROOT
ATOM      1  C   UNL     1      20.993  16.884  11.000  1.00  0.00     0.014 C 
ENDROOT
BRANCH   1   2
ATOM      2  C   UNL     1      20.800  15.933   9.782  1.00  0.00     0.042 C 
BRANCH   2   3
ATOM      3  C   UNL     1      21.603  14.661   9.907  1.00  0.00     0.045 C 
ATOM      4  O   UNL     1      22.159  14.139   8.905  1.00  0.00    -0.550 OA
ATOM      5  O   UNL     1      21.767  14.077  11.156  1.00  0.00    -0.550 OA
ENDBRANCH   2   3
BRANCH   2   6
ATOM      6  C   UNL     1      19.327  15.629   9.316  1.00  0.00     0.033 C 
ATOM      7  C   UNL     1      18.877  14.199   9.616  1.00  0.00     0.119 C 
ATOM      8  C   UNL     1      18.806  15.932   7.856  1.00  0.00    -0.017 C 
ATOM      9  C   UNL     1      17.505  14.107   8.973  1.00  0.00     0.043 C 
ATOM     10  C   UNL     1      17.590  14.896   7.645  1.00  0.00    -0.003 C 
ATOM     11  C   UNL     1      18.337  17.408   7.725  1.00  0.00     0.012 C 
ATOM     12  C   UNL     1      19.944  15.777   6.806  1.00  0.00     0.013 C 
ATOM     13  C   UNL     1      17.879  13.878   6.491  1.00  0.00     0.017 C 
ATOM     14  C   UNL     1      16.194  15.541   7.396  1.00  0.00    -0.064 C 
ATOM     15  C   UNL     1      16.986  17.670   8.362  1.00  0.00     0.032 C 
ATOM     16  C   UNL     1      15.920  16.850   7.677  1.00  0.00    -0.064 C 
ATOM     17  C   UNL     1      15.027  14.643   7.021  1.00  0.00     0.032 C 
ATOM     18  C   UNL     1      14.547  17.466   7.279  1.00  0.00    -0.008 C 
ATOM     19  C   UNL     1      13.798  15.004   7.838  1.00  0.00     0.009 C 
ATOM     20  C   UNL     1      13.340  16.464   7.586  1.00  0.00     0.009 C 
ATOM     21  C   UNL     1      14.316  18.858   7.962  1.00  0.00     0.015 C 
ATOM     22  C   UNL     1      14.621  17.728   5.750  1.00  0.00     0.016 C 
ATOM     23  C   UNL     1      12.344  16.953   8.706  1.00  0.00     0.005 C 
ATOM     24  C   UNL     1      12.881  19.375   7.863  1.00  0.00     0.047 C 
ATOM     25  C   UNL     1      11.797  18.371   8.320  1.00  0.00     0.182 C 
ATOM     26  C   UNL     1      11.125  15.988   8.800  1.00  0.00     0.015 C 
ATOM     27  C   UNL     1      13.022  16.979  10.116  1.00  0.00     0.015 C 
BRANCH   7  28
ATOM     28  O   UNL     1      18.801  13.975  11.000  1.00  0.00    -0.393 OA
ATOM     29  H   UNL     1      19.293  13.132  11.177  1.00  0.00     0.210 HD
ENDBRANCH   7  28
BRANCH  25  30
ATOM     30  O   UNL     1      10.816  18.246   7.280  1.00  0.00    -0.462 OA
BRANCH  30  31
ATOM     31  C   UNL     1      10.724  19.119   6.190  1.00  0.00     0.302 C 
ATOM     32  O   UNL     1      10.163  20.242   6.308  1.00  0.00    -0.253 OA
ATOM     33  C   UNL     1      11.250  18.687   4.863  1.00  0.00     0.139 C 
ENDBRANCH  30  31
ENDBRANCH  25  30
ENDBRANCH   2   6
ENDBRANCH   1   2
BRANCH   1  34
ATOM     34  C   UNL     1      21.542  18.280  10.633  1.00  0.00     0.031 C 
BRANCH  34  35
ATOM     35  C   UNL     1      22.834  18.254   9.829  1.00  0.00    -0.075 C 
ATOM     36  C   UNL     1      24.000  18.103  10.481  1.00  0.00     0.008 C 
BRANCH  35  37
ATOM     37  C   UNL     1      22.875  18.606   8.343  1.00  0.00     0.008 C 
ATOM     38  C   UNL     1      21.533  19.206   7.913  1.00  0.00     0.012 C 
ATOM     39  C   UNL     1      23.250  17.428   7.429  1.00  0.00     0.012 C 
ENDBRANCH  35  37
ENDBRANCH  34  35
ENDBRANCH   1  34
TORSDOF 9
ENDMDL
MODEL 8
REMARK VINA RESULT:    -6.373      1.690      2.726
REMARK INTER + INTRA:         -11.381
REMARK INTER:                 -10.420
REMARK INTRA:                  -0.960
REMARK UNBOUND:                -1.841
REMARK SMILES C=C(CC[C@@H](C(=O)[O-])[C@@H]1[C@@H](O)C[C@@]2(C)C3=C(CC[C@@]12C)[C@]1(C)CC[C@@H](OC(C)=O)C(C)(C)[C@@H]1CC3)C(C)C
REMARK SMILES IDX 4 1 5 2 6 3 7 4 8 5 9 6 10 7 19 8 12 9 13 10 18 11 20 12
REMARK SMILES IDX 14 13 15 14 17 15 16 16 35 17 21 18 34 19 33 20 23 21 22 22
REMARK SMILES IDX 30 23 24 24 25 25 31 26 32 27 11 28 26 30 27 31 29 32 28 33
REMARK SMILES IDX 3 34 2 35 1 36 36 37 37 38 38 39
REMARK H PARENT 11 29
REMARK Flexibility Score: inf
ROOT
ATOM      1  C   UNL     1      12.678  18.408   5.829  1.00  0.00     0.014 C 
ENDROOT
BRANCH   1   2
ATOM      2  C   UNL     1      13.553  19.033   6.956  1.00  0.00     0.042 C 
BRANCH   2   3
ATOM      3  C   UNL     1      13.022  18.731   8.336  1.00  0.00     0.045 C 
ATOM      4  O   UNL     1      13.074  19.587   9.258  1.00  0.00    -0.550 OA
ATOM      5  O   UNL     1      12.427  17.501   8.585  1.00  0.00    -0.550 OA
ENDBRANCH   2   3
BRANCH   2   6
ATOM      6  C   UNL     1      15.109  18.803   6.887  1.00  0.00     0.033 C 
ATOM      7  C   UNL     1      15.827  19.780   5.955  1.00  0.00     0.119 C 
ATOM      8  C   UNL     1      15.759  17.394   6.594  1.00  0.00    -0.017 C 
ATOM      9  C   UNL     1      17.264  19.289   5.952  1.00  0.00     0.043 C 
ATOM     10  C   UNL     1      17.199  17.743   5.962  1.00  0.00    -0.003 C 
ATOM     11  C   UNL     1      15.889  16.556   7.896  1.00  0.00     0.012 C 
ATOM     12  C   UNL     1      14.859  16.540   5.655  1.00  0.00     0.013 C 
ATOM     13  C   UNL     1      17.330  17.242   4.484  1.00  0.00     0.017 C 
ATOM     14  C   UNL     1      18.429  17.230   6.768  1.00  0.00    -0.064 C 
ATOM     15  C   UNL     1      17.031  17.001   8.788  1.00  0.00     0.032 C 
ATOM     16  C   UNL     1      18.348  16.830   8.071  1.00  0.00    -0.064 C 
ATOM     17  C   UNL     1      19.815  17.368   6.159  1.00  0.00     0.032 C 
ATOM     18  C   UNL     1      19.585  16.201   8.777  1.00  0.00    -0.008 C 
ATOM     19  C   UNL     1      20.790  17.919   7.186  1.00  0.00     0.009 C 
ATOM     20  C   UNL     1      20.931  16.984   8.416  1.00  0.00     0.009 C 
ATOM     21  C   UNL     1      19.383  16.108  10.328  1.00  0.00     0.015 C 
ATOM     22  C   UNL     1      19.682  14.742   8.253  1.00  0.00     0.016 C 
ATOM     23  C   UNL     1      21.608  17.730   9.629  1.00  0.00     0.005 C 
ATOM     24  C   UNL     1      20.658  15.789  11.109  1.00  0.00     0.047 C 
ATOM     25  C   UNL     1      21.864  16.701  10.783  1.00  0.00     0.182 C 
ATOM     26  C   UNL     1      22.988  18.310   9.200  1.00  0.00     0.015 C 
ATOM     27  C   UNL     1      20.739  18.931  10.130  1.00  0.00     0.015 C 
BRANCH   7  28
ATOM     28  O   UNL     1      15.745  21.094   6.444  1.00  0.00    -0.393 OA
ATOM     29  H   UNL     1      16.582  21.550   6.168  1.00  0.00     0.210 HD
ENDBRANCH   7  28
BRANCH  25  30
ATOM     30  O   UNL     1      22.991  15.876  10.457  1.00  0.00    -0.462 OA
BRANCH  30  31
ATOM     31  C   UNL     1      23.175  14.580  10.953  1.00  0.00     0.302 C 
ATOM     32  O   UNL     1      23.600  14.393  12.126  1.00  0.00    -0.253 OA
ATOM     33  C   UNL     1      22.917  13.414  10.062  1.00  0.00     0.139 C 
ENDBRANCH  30  31
ENDBRANCH  25  30
ENDBRANCH   2   6
ENDBRANCH   1   2
BRANCH   1  34
ATOM     34  C   UNL     1      11.536  19.322   5.335  1.00  0.00     0.031 C 
BRANCH  34  35
ATOM     35  C   UNL     1      10.193  18.622   5.185  1.00  0.00    -0.075 C 
ATOM     36  C   UNL     1       9.764  18.301   3.951  1.00  0.00     0.008 C 
BRANCH  35  37
ATOM     37  C   UNL     1       9.222  18.463   6.354  1.00  0.00     0.008 C 
ATOM     38  C   UNL     1       9.426  19.601   7.358  1.00  0.00     0.012 C 
ATOM     39  C   UNL     1       9.312  17.103   7.065  1.00  0.00     0.012 C 
ENDBRANCH  35  37
ENDBRANCH  34  35
ENDBRANCH   1  34
TORSDOF 9
ENDMDL
MODEL 9
REMARK VINA RESULT:    -6.336      4.527      7.287
REMARK INTER + INTRA:         -11.325
REMARK INTER:                  -9.427
REMARK INTRA:                  -1.898
REMARK UNBOUND:                -1.841
REMARK SMILES C=C(CC[C@@H](C(=O)[O-])[C@@H]1[C@@H](O)C[C@@]2(C)C3=C(CC[C@@]12C)[C@]1(C)CC[C@@H](OC(C)=O)C(C)(C)[C@@H]1CC3)C(C)C
REMARK SMILES IDX 4 1 5 2 6 3 7 4 8 5 9 6 10 7 19 8 12 9 13 10 18 11 20 12
REMARK SMILES IDX 14 13 15 14 17 15 16 16 35 17 21 18 34 19 33 20 23 21 22 22
REMARK SMILES IDX 30 23 24 24 25 25 31 26 32 27 11 28 26 30 27 31 29 32 28 33
REMARK SMILES IDX 3 34 2 35 1 36 36 37 37 38 38 39
REMARK H PARENT 11 29
REMARK Flexibility Score: inf
ROOT
ATOM      1  C   UNL     1      18.604  18.371   8.705  1.00  0.00     0.014 C 
ENDROOT
BRANCH   1   2
ATOM      2  C   UNL     1      17.975  16.958   8.527  1.00  0.00     0.042 C 
BRANCH   2   3
ATOM      3  C   UNL     1      16.491  17.014   8.258  1.00  0.00     0.045 C 
ATOM      4  O   UNL     1      15.715  16.123   8.691  1.00  0.00    -0.550 OA
ATOM      5  O   UNL     1      15.965  18.090   7.555  1.00  0.00    -0.550 OA
ENDBRANCH   2   3
BRANCH   2   6
ATOM      6  C   UNL     1      18.690  15.956   7.544  1.00  0.00     0.033 C 
ATOM      7  C   UNL     1      17.733  15.277   6.565  1.00  0.00     0.119 C 
ATOM      8  C   UNL     1      19.662  14.813   8.037  1.00  0.00    -0.017 C 
ATOM      9  C   UNL     1      18.613  14.284   5.827  1.00  0.00     0.043 C 
ATOM     10  C   UNL     1      19.589  13.700   6.875  1.00  0.00    -0.003 C 
ATOM     11  C   UNL     1      21.106  15.352   8.232  1.00  0.00     0.012 C 
ATOM     12  C   UNL     1      19.241  14.278   9.437  1.00  0.00     0.013 C 
ATOM     13  C   UNL     1      18.995  12.347   7.393  1.00  0.00     0.017 C 
ATOM     14  C   UNL     1      20.933  13.402   6.146  1.00  0.00    -0.064 C 
ATOM     15  C   UNL     1      21.854  15.554   6.929  1.00  0.00     0.032 C 
ATOM     16  C   UNL     1      22.013  14.235   6.211  1.00  0.00    -0.064 C 
ATOM     17  C   UNL     1      20.991  12.250   5.156  1.00  0.00     0.032 C 
ATOM     18  C   UNL     1      23.369  13.812   5.571  1.00  0.00    -0.008 C 
ATOM     19  C   UNL     1      21.693  12.685   3.881  1.00  0.00     0.009 C 
ATOM     20  C   UNL     1      23.157  13.125   4.143  1.00  0.00     0.009 C 
ATOM     21  C   UNL     1      24.366  15.018   5.477  1.00  0.00     0.015 C 
ATOM     22  C   UNL     1      24.003  12.786   6.548  1.00  0.00     0.016 C 
ATOM     23  C   UNL     1      23.739  13.939   2.925  1.00  0.00     0.005 C 
ATOM     24  C   UNL     1      25.586  14.756   4.594  1.00  0.00     0.047 C 
ATOM     25  C   UNL     1      25.260  14.223   3.179  1.00  0.00     0.182 C 
ATOM     26  C   UNL     1      23.628  13.101   1.617  1.00  0.00     0.015 C 
ATOM     27  C   UNL     1      22.952  15.270   2.687  1.00  0.00     0.015 C 
BRANCH   7  28
ATOM     28  O   UNL     1      17.175  16.211   5.677  1.00  0.00    -0.393 OA
ATOM     29  H   UNL     1      17.050  15.740   4.813  1.00  0.00     0.210 HD
ENDBRANCH   7  28
BRANCH  25  30
ATOM     30  O   UNL     1      26.021  13.029   2.949  1.00  0.00    -0.462 OA
BRANCH  30  31
ATOM     31  C   UNL     1      27.321  13.024   2.430  1.00  0.00     0.302 C 
ATOM     32  O   UNL     1      28.029  11.981   2.472  1.00  0.00    -0.253 OA
ATOM     33  C   UNL     1      27.889  14.285   1.872  1.00  0.00     0.139 C 
ENDBRANCH  30  31
ENDBRANCH  25  30
ENDBRANCH   2   6
ENDBRANCH   1   2
BRANCH   1  34
ATOM     34  C   UNL     1      19.576  18.486   9.899  1.00  0.00     0.031 C 
BRANCH  34  35
ATOM     35  C   UNL     1      21.019  18.769   9.509  1.00  0.00    -0.075 C 
ATOM     36  C   UNL     1      21.278  19.228   8.272  1.00  0.00     0.008 C 
BRANCH  35  37
ATOM     37  C   UNL     1      22.198  18.351  10.387  1.00  0.00     0.008 C 
ATOM     38  C   UNL     1      23.409  18.020   9.511  1.00  0.00     0.012 C 
ATOM     39  C   UNL     1      21.891  17.183  11.337  1.00  0.00     0.012 C 
ENDBRANCH  35  37
ENDBRANCH  34  35
ENDBRANCH   1  34
TORSDOF 9
ENDMDL
