MODEL 1
REMARK VINA RESULT:    -6.137      0.000      0.000
REMARK INTER + INTRA:          -6.316
REMARK INTER:                  -6.316
REMARK INTRA:                   0.000
REMARK UNBOUND:                 0.000
REMARK SMILES O=c1ccc2ccc(O)cc2o1
REMARK SMILES IDX 6 1 7 2 8 3 10 4 11 5 5 6 4 7 3 8 2 9 1 10 12 11 9 12
REMARK H PARENT 9 13
REMARK Flexibility Score: inf
ROOT
ATOM      1  C   UNL     1      13.186   8.245  20.374  1.00  0.00     0.016 A 
ATOM      2  C   UNL     1      13.015   9.072  21.489  1.00  0.00     0.047 A 
ATOM      3  C   UNL     1      11.768   9.162  22.120  1.00  0.00     0.119 A 
ATOM      4  C   UNL     1      10.682   8.421  21.630  1.00  0.00     0.094 A 
ATOM      5  C   UNL     1      10.844   7.591  20.516  1.00  0.00     0.142 A 
ATOM      6  C   UNL     1      12.103   7.502  19.883  1.00  0.00     0.018 A 
ATOM      7  C   UNL     1      12.234   6.665  18.770  1.00  0.00     0.019 A 
ATOM      8  C   UNL     1      11.126   5.947  18.322  1.00  0.00     0.094 A 
ATOM      9  C   UNL     1       9.909   6.085  18.998  1.00  0.00     0.336 A 
ATOM     10  O   UNL     1       8.897   5.445  18.607  1.00  0.00    -0.246 OA
ATOM     11  O   UNL     1       9.812   6.888  20.054  1.00  0.00    -0.423 OA
ENDROOT
BRANCH   3  12
ATOM     12  O   UNL     1      11.619   9.991  23.229  1.00  0.00    -0.508 OA
ATOM     13  H   UNL     1      12.153   9.843  24.077  1.00  0.00     0.293 HD
ENDBRANCH   3  12
TORSDOF 1
ENDMDL
MODEL 2
REMARK VINA RESULT:    -6.131      8.832      8.963
REMARK INTER + INTRA:          -6.310
REMARK INTER:                  -6.310
REMARK INTRA:                   0.000
REMARK UNBOUND:                 0.000
REMARK SMILES O=c1ccc2ccc(O)cc2o1
REMARK SMILES IDX 6 1 7 2 8 3 10 4 11 5 5 6 4 7 3 8 2 9 1 10 12 11 9 12
REMARK H PARENT 9 13
REMARK Flexibility Score: inf
ROOT
ATOM      1  C   UNL     1      14.660   0.558  26.706  1.00  0.00     0.016 A 
ATOM      2  C   UNL     1      15.490   1.493  26.079  1.00  0.00     0.047 A 
ATOM      3  C   UNL     1      14.991   2.312  25.059  1.00  0.00     0.119 A 
ATOM      4  C   UNL     1      13.650   2.194  24.661  1.00  0.00     0.094 A 
ATOM      5  C   UNL     1      12.812   1.262  25.283  1.00  0.00     0.142 A 
ATOM      6  C   UNL     1      13.319   0.438  26.312  1.00  0.00     0.018 A 
ATOM      7  C   UNL     1      12.458  -0.484  26.914  1.00  0.00     0.019 A 
ATOM      8  C   UNL     1      11.134  -0.563  26.485  1.00  0.00     0.094 A 
ATOM      9  C   UNL     1      10.701   0.284  25.460  1.00  0.00     0.336 A 
ATOM     10  O   UNL     1       9.509   0.227  25.059  1.00  0.00    -0.246 OA
ATOM     11  O   UNL     1      11.541   1.153  24.904  1.00  0.00    -0.423 OA
ENDROOT
BRANCH   3  12
ATOM     12  O   UNL     1      15.833   3.236  24.447  1.00  0.00    -0.508 OA
ATOM     13  H   UNL     1      16.814   3.303  24.693  1.00  0.00     0.293 HD
ENDBRANCH   3  12
TORSDOF 1
ENDMDL
MODEL 3
REMARK VINA RESULT:    -5.994     20.837     21.255
REMARK INTER + INTRA:          -6.169
REMARK INTER:                  -6.169
REMARK INTRA:                   0.000
REMARK UNBOUND:                 0.000
REMARK SMILES O=c1ccc2ccc(O)cc2o1
REMARK SMILES IDX 6 1 7 2 8 3 10 4 11 5 5 6 4 7 3 8 2 9 1 10 12 11 9 12
REMARK H PARENT 9 13
REMARK Flexibility Score: inf
ROOT
ATOM      1  C   UNL     1      17.305  -8.792  31.893  1.00  0.00     0.016 A 
ATOM      2  C   UNL     1      16.089  -9.383  31.531  1.00  0.00     0.047 A 
ATOM      3  C   UNL     1      14.920  -9.091  32.243  1.00  0.00     0.119 A 
ATOM      4  C   UNL     1      14.965  -8.202  33.328  1.00  0.00     0.094 A 
ATOM      5  C   UNL     1      16.176  -7.606  33.697  1.00  0.00     0.142 A 
ATOM      6  C   UNL     1      17.353  -7.902  32.976  1.00  0.00     0.018 A 
ATOM      7  C   UNL     1      18.548  -7.292  33.369  1.00  0.00     0.019 A 
ATOM      8  C   UNL     1      18.542  -6.414  34.453  1.00  0.00     0.094 A 
ATOM      9  C   UNL     1      17.339  -6.168  35.121  1.00  0.00     0.336 A 
ATOM     10  O   UNL     1      17.314  -5.379  36.102  1.00  0.00    -0.246 OA
ATOM     11  O   UNL     1      16.215  -6.762  34.727  1.00  0.00    -0.423 OA
ENDROOT
BRANCH   3  12
ATOM     12  O   UNL     1      13.720  -9.690  31.867  1.00  0.00    -0.508 OA
ATOM     13  H   UNL     1      13.560 -10.682  31.998  1.00  0.00     0.293 HD
ENDBRANCH   3  12
TORSDOF 1
ENDMDL
MODEL 4
REMARK VINA RESULT:    -5.903      2.621      5.320
REMARK INTER + INTRA:          -6.076
REMARK INTER:                  -6.076
REMARK INTRA:                   0.000
REMARK UNBOUND:                 0.000
REMARK SMILES O=c1ccc2ccc(O)cc2o1
REMARK SMILES IDX 6 1 7 2 8 3 10 4 11 5 5 6 4 7 3 8 2 9 1 10 12 11 9 12
REMARK H PARENT 9 13
REMARK Flexibility Score: inf
ROOT
ATOM      1  C   UNL     1      10.243   3.569  20.964  1.00  0.00     0.016 A 
ATOM      2  C   UNL     1       9.996   2.671  19.920  1.00  0.00     0.047 A 
ATOM      3  C   UNL     1      10.426   2.961  18.620  1.00  0.00     0.119 A 
ATOM      4  C   UNL     1      11.109   4.159  18.360  1.00  0.00     0.094 A 
ATOM      5  C   UNL     1      11.361   5.063  19.398  1.00  0.00     0.142 A 
ATOM      6  C   UNL     1      10.926   4.767  20.708  1.00  0.00     0.018 A 
ATOM      7  C   UNL     1      11.192   5.690  21.724  1.00  0.00     0.019 A 
ATOM      8  C   UNL     1      11.875   6.866  21.417  1.00  0.00     0.094 A 
ATOM      9  C   UNL     1      12.275   7.093  20.096  1.00  0.00     0.336 A 
ATOM     10  O   UNL     1      12.892   8.150  19.799  1.00  0.00    -0.246 OA
ATOM     11  O   UNL     1      12.009   6.198  19.148  1.00  0.00    -0.423 OA
ENDROOT
BRANCH   3  12
ATOM     12  O   UNL     1      10.170   2.054  17.594  1.00  0.00    -0.508 OA
ATOM     13  H   UNL     1       9.572   2.295  16.812  1.00  0.00     0.293 HD
ENDBRANCH   3  12
TORSDOF 1
ENDMDL
MODEL 5
REMARK VINA RESULT:    -5.900     19.199     19.731
REMARK INTER + INTRA:          -6.072
REMARK INTER:                  -6.072
REMARK INTRA:                   0.000
REMARK UNBOUND:                 0.000
REMARK SMILES O=c1ccc2ccc(O)cc2o1
REMARK SMILES IDX 6 1 7 2 8 3 10 4 11 5 5 6 4 7 3 8 2 9 1 10 12 11 9 12
REMARK H PARENT 9 13
REMARK Flexibility Score: inf
ROOT
ATOM      1  C   UNL     1      18.411  -7.069  33.435  1.00  0.00     0.016 A 
ATOM      2  C   UNL     1      17.408  -7.897  32.919  1.00  0.00     0.047 A 
ATOM      3  C   UNL     1      16.179  -7.357  32.520  1.00  0.00     0.119 A 
ATOM      4  C   UNL     1      15.950  -5.978  32.640  1.00  0.00     0.094 A 
ATOM      5  C   UNL     1      16.947  -5.142  33.155  1.00  0.00     0.142 A 
ATOM      6  C   UNL     1      18.185  -5.691  33.555  1.00  0.00     0.018 A 
ATOM      7  C   UNL     1      19.161  -4.831  34.067  1.00  0.00     0.019 A 
ATOM      8  C   UNL     1      18.887  -3.467  34.165  1.00  0.00     0.094 A 
ATOM      9  C   UNL     1      17.638  -2.994  33.750  1.00  0.00     0.336 A 
ATOM     10  O   UNL     1      17.371  -1.767  33.832  1.00  0.00    -0.246 OA
ATOM     11  O   UNL     1      16.726  -3.834  33.267  1.00  0.00    -0.423 OA
ENDROOT
BRANCH   3  12
ATOM     12  O   UNL     1      15.193  -8.198  32.009  1.00  0.00    -0.508 OA
ATOM     13  H   UNL     1      15.406  -8.899  31.308  1.00  0.00     0.293 HD
ENDBRANCH   3  12
TORSDOF 1
ENDMDL
MODEL 6
REMARK VINA RESULT:    -5.897      9.666     10.335
REMARK INTER + INTRA:          -6.069
REMARK INTER:                  -6.069
REMARK INTRA:                   0.000
REMARK UNBOUND:                 0.000
REMARK SMILES O=c1ccc2ccc(O)cc2o1
REMARK SMILES IDX 6 1 7 2 8 3 10 4 11 5 5 6 4 7 3 8 2 9 1 10 12 11 9 12
REMARK H PARENT 9 13
REMARK Flexibility Score: inf
ROOT
ATOM      1  C   UNL     1      12.889   1.493  24.873  1.00  0.00     0.016 A 
ATOM      2  C   UNL     1      11.617   1.142  24.408  1.00  0.00     0.047 A 
ATOM      3  C   UNL     1      10.738   0.421  25.225  1.00  0.00     0.119 A 
ATOM      4  C   UNL     1      11.134   0.047  26.519  1.00  0.00     0.094 A 
ATOM      5  C   UNL     1      12.403   0.395  26.992  1.00  0.00     0.142 A 
ATOM      6  C   UNL     1      13.287   1.122  26.165  1.00  0.00     0.018 A 
ATOM      7  C   UNL     1      14.550   1.454  26.666  1.00  0.00     0.019 A 
ATOM      8  C   UNL     1      14.897   1.061  27.958  1.00  0.00     0.094 A 
ATOM      9  C   UNL     1      13.971   0.341  28.720  1.00  0.00     0.336 A 
ATOM     10  O   UNL     1      14.267  -0.023  29.889  1.00  0.00    -0.246 OA
ATOM     11  O   UNL     1      12.776   0.038  28.220  1.00  0.00    -0.423 OA
ENDROOT
BRANCH   3  12
ATOM     12  O   UNL     1       9.476   0.081  24.744  1.00  0.00    -0.508 OA
ATOM     13  H   UNL     1       9.135   0.434  23.857  1.00  0.00     0.293 HD
ENDBRANCH   3  12
TORSDOF 1
ENDMDL
MODEL 7
REMARK VINA RESULT:    -5.847      2.187      2.920
REMARK INTER + INTRA:          -6.018
REMARK INTER:                  -6.018
REMARK INTRA:                   0.000
REMARK UNBOUND:                 0.000
REMARK SMILES O=c1ccc2ccc(O)cc2o1
REMARK SMILES IDX 6 1 7 2 8 3 10 4 11 5 5 6 4 7 3 8 2 9 1 10 12 11 9 12
REMARK H PARENT 9 13
REMARK Flexibility Score: inf
ROOT
ATOM      1  C   UNL     1      11.811   6.248  19.575  1.00  0.00     0.016 A 
ATOM      2  C   UNL     1      11.423   7.192  20.532  1.00  0.00     0.047 A 
ATOM      3  C   UNL     1      10.255   7.003  21.282  1.00  0.00     0.119 A 
ATOM      4  C   UNL     1       9.467   5.861  21.072  1.00  0.00     0.094 A 
ATOM      5  C   UNL     1       9.848   4.911  20.117  1.00  0.00     0.142 A 
ATOM      6  C   UNL     1      11.026   5.106  19.364  1.00  0.00     0.018 A 
ATOM      7  C   UNL     1      11.379   4.139  18.416  1.00  0.00     0.019 A 
ATOM      8  C   UNL     1      10.565   3.021  18.245  1.00  0.00     0.094 A 
ATOM      9  C   UNL     1       9.411   2.895  19.026  1.00  0.00     0.336 A 
ATOM     10  O   UNL     1       8.663   1.892  18.885  1.00  0.00    -0.246 OA
ATOM     11  O   UNL     1       9.098   3.829  19.921  1.00  0.00    -0.423 OA
ENDROOT
BRANCH   3  12
ATOM     12  O   UNL     1       9.887   7.954  22.229  1.00  0.00    -0.508 OA
ATOM     13  H   UNL     1      10.573   8.554  22.672  1.00  0.00     0.293 HD
ENDBRANCH   3  12
TORSDOF 1
ENDMDL
MODEL 8
REMARK VINA RESULT:    -5.831      2.382      4.863
REMARK INTER + INTRA:          -6.002
REMARK INTER:                  -6.002
REMARK INTRA:                   0.000
REMARK UNBOUND:                 0.000
REMARK SMILES O=c1ccc2ccc(O)cc2o1
REMARK SMILES IDX 6 1 7 2 8 3 10 4 11 5 5 6 4 7 3 8 2 9 1 10 12 11 9 12
REMARK H PARENT 9 13
REMARK Flexibility Score: inf
ROOT
ATOM      1  C   UNL     1       8.955   6.052  20.980  1.00  0.00     0.016 A 
ATOM      2  C   UNL     1       9.001   4.662  20.831  1.00  0.00     0.047 A 
ATOM      3  C   UNL     1      10.210   3.973  20.988  1.00  0.00     0.119 A 
ATOM      4  C   UNL     1      11.383   4.679  21.295  1.00  0.00     0.094 A 
ATOM      5  C   UNL     1      11.346   6.069  21.446  1.00  0.00     0.142 A 
ATOM      6  C   UNL     1      10.125   6.761  21.287  1.00  0.00     0.018 A 
ATOM      7  C   UNL     1      10.120   8.151  21.443  1.00  0.00     0.019 A 
ATOM      8  C   UNL     1      11.311   8.808  21.749  1.00  0.00     0.094 A 
ATOM      9  C   UNL     1      12.483   8.058  21.891  1.00  0.00     0.336 A 
ATOM     10  O   UNL     1      13.568   8.634  22.166  1.00  0.00    -0.246 OA
ATOM     11  O   UNL     1      12.460   6.737  21.737  1.00  0.00    -0.423 OA
ENDROOT
BRANCH   3  12
ATOM     12  O   UNL     1      10.235   2.589  20.836  1.00  0.00    -0.508 OA
ATOM     13  H   UNL     1       9.471   2.006  21.159  1.00  0.00     0.293 HD
ENDBRANCH   3  12
TORSDOF 1
ENDMDL
MODEL 9
REMARK VINA RESULT:    -5.691     19.620     19.813
REMARK INTER + INTRA:          -5.858
REMARK INTER:                  -5.858
REMARK INTRA:                   0.000
REMARK UNBOUND:                 0.000
REMARK SMILES O=c1ccc2ccc(O)cc2o1
REMARK SMILES IDX 6 1 7 2 8 3 10 4 11 5 5 6 4 7 3 8 2 9 1 10 12 11 9 12
REMARK H PARENT 9 13
REMARK Flexibility Score: inf
ROOT
ATOM      1  C   UNL     1      16.296  -4.412  35.286  1.00  0.00     0.016 A 
ATOM      2  C   UNL     1      17.396  -3.555  35.169  1.00  0.00     0.047 A 
ATOM      3  C   UNL     1      18.379  -3.792  34.200  1.00  0.00     0.119 A 
ATOM      4  C   UNL     1      18.261  -4.896  33.341  1.00  0.00     0.094 A 
ATOM      5  C   UNL     1      17.165  -5.757  33.451  1.00  0.00     0.142 A 
ATOM      6  C   UNL     1      16.176  -5.515  34.429  1.00  0.00     0.018 A 
ATOM      7  C   UNL     1      15.092  -6.394  34.515  1.00  0.00     0.019 A 
ATOM      8  C   UNL     1      15.019  -7.476  33.638  1.00  0.00     0.094 A 
ATOM      9  C   UNL     1      16.036  -7.655  32.695  1.00  0.00     0.336 A 
ATOM     10  O   UNL     1      15.988  -8.626  31.895  1.00  0.00    -0.246 OA
ATOM     11  O   UNL     1      17.056  -6.803  32.634  1.00  0.00    -0.423 OA
ENDROOT
BRANCH   3  12
ATOM     12  O   UNL     1      19.466  -2.928  34.100  1.00  0.00    -0.508 OA
ATOM     13  H   UNL     1      20.263  -3.006  34.720  1.00  0.00     0.293 HD
ENDBRANCH   3  12
TORSDOF 1
ENDMDL
