MODEL 1
REMARK VINA RESULT:    -4.312      0.000      0.000
REMARK INTER + INTRA:          -6.942
REMARK INTER:                  -6.581
REMARK INTRA:                  -0.361
REMARK UNBOUND:                -0.361
REMARK SMILES O=C([O-])CCCCCCCCC(=O)[O-]
REMARK SMILES IDX 7 1 6 2 5 3 4 4 2 5 1 6 3 7 8 8 9 9 10 10 11 11 12 12 13 13
REMARK SMILES IDX 14 14
REMARK H PARENT
REMARK Flexibility Score: inf
ROOT
ATOM      1  C   UNL     1      -9.679  -3.463   3.456  1.00  0.00     0.000 C 
ENDROOT
BRANCH   1   2
ATOM      2  C   UNL     1     -10.208  -2.183   2.790  1.00  0.00     0.000 C 
BRANCH   2   3
ATOM      3  C   UNL     1      -9.111  -1.408   2.039  1.00  0.00     0.006 C 
BRANCH   3   4
ATOM      4  C   UNL     1      -8.748  -0.093   2.742  1.00  0.00     0.053 C 
BRANCH   4   5
ATOM      5  C   UNL     1      -9.965   0.704   3.094  1.00  0.00     0.041 C 
ATOM      6  O   UNL     1     -10.620   1.292   2.193  1.00  0.00    -0.550 OA
ATOM      7  O   UNL     1     -10.356   0.829   4.422  1.00  0.00    -0.550 OA
ENDBRANCH   4   5
ENDBRANCH   3   4
ENDBRANCH   2   3
ENDBRANCH   1   2
BRANCH   1   8
ATOM      8  C   UNL     1      -8.504  -3.191   4.410  1.00  0.00     0.000 C 
BRANCH   8   9
ATOM      9  C   UNL     1      -8.604  -3.984   5.726  1.00  0.00     0.000 C 
BRANCH   9  10
ATOM     10  C   UNL     1      -9.600  -5.157   5.708  1.00  0.00     0.006 C 
BRANCH  10  11
ATOM     11  C   UNL     1      -9.157  -6.333   6.587  1.00  0.00     0.053 C 
BRANCH  11  12
ATOM     12  C   UNL     1      -8.927  -7.552   5.752  1.00  0.00     0.041 C 
ATOM     13  O   UNL     1      -9.659  -7.785   4.755  1.00  0.00    -0.550 OA
ATOM     14  O   UNL     1      -7.871  -8.407   6.044  1.00  0.00    -0.550 OA
ENDBRANCH  11  12
ENDBRANCH  10  11
ENDBRANCH   9  10
ENDBRANCH   8   9
ENDBRANCH   1   8
TORSDOF 9
ENDMDL
MODEL 2
REMARK VINA RESULT:    -4.291      0.500      7.301
REMARK INTER + INTRA:          -6.909
REMARK INTER:                  -6.501
REMARK INTRA:                  -0.408
REMARK UNBOUND:                -0.361
REMARK SMILES O=C([O-])CCCCCCCCC(=O)[O-]
REMARK SMILES IDX 7 1 6 2 5 3 4 4 2 5 1 6 3 7 8 8 9 9 10 10 11 11 12 12 13 13
REMARK SMILES IDX 14 14
REMARK H PARENT
REMARK Flexibility Score: inf
ROOT
ATOM      1  C   UNL     1      -8.423  -3.298   4.570  1.00  0.00     0.000 C 
ENDROOT
BRANCH   1   2
ATOM      2  C   UNL     1      -8.683  -3.998   5.913  1.00  0.00     0.000 C 
BRANCH   2   3
ATOM      3  C   UNL     1      -9.582  -5.239   5.771  1.00  0.00     0.006 C 
BRANCH   3   4
ATOM      4  C   UNL     1      -9.052  -6.432   6.577  1.00  0.00     0.053 C 
BRANCH   4   5
ATOM      5  C   UNL     1      -9.017  -7.685   5.758  1.00  0.00     0.041 C 
ATOM      6  O   UNL     1      -9.405  -7.669   4.560  1.00  0.00    -0.550 OA
ATOM      7  O   UNL     1      -8.592  -8.879   6.328  1.00  0.00    -0.550 OA
ENDBRANCH   4   5
ENDBRANCH   3   4
ENDBRANCH   2   3
ENDBRANCH   1   2
BRANCH   1   8
ATOM      8  C   UNL     1      -9.541  -3.552   3.545  1.00  0.00     0.000 C 
BRANCH   8   9
ATOM      9  C   UNL     1      -9.814  -2.336   2.641  1.00  0.00     0.000 C 
BRANCH   9  10
ATOM     10  C   UNL     1      -8.840  -1.157   2.819  1.00  0.00     0.006 C 
BRANCH  10  11
ATOM     11  C   UNL     1      -9.236   0.076   1.998  1.00  0.00     0.053 C 
BRANCH  11  12
ATOM     12  C   UNL     1     -10.230   0.906   2.748  1.00  0.00     0.041 C 
ATOM     13  O   UNL     1     -11.053   1.626   2.124  1.00  0.00    -0.550 OA
ATOM     14  O   UNL     1     -10.280   0.847   4.135  1.00  0.00    -0.550 OA
ENDBRANCH  11  12
ENDBRANCH  10  11
ENDBRANCH   9  10
ENDBRANCH   8   9
ENDBRANCH   1   8
TORSDOF 9
ENDMDL
MODEL 3
REMARK VINA RESULT:    -4.277      1.154      7.135
REMARK INTER + INTRA:          -6.888
REMARK INTER:                  -6.271
REMARK INTRA:                  -0.617
REMARK UNBOUND:                -0.361
REMARK SMILES O=C([O-])CCCCCCCCC(=O)[O-]
REMARK SMILES IDX 7 1 6 2 5 3 4 4 2 5 1 6 3 7 8 8 9 9 10 10 11 11 12 12 13 13
REMARK SMILES IDX 14 14
REMARK H PARENT
REMARK Flexibility Score: inf
ROOT
ATOM      1  C   UNL     1      -9.960  -3.261   3.405  1.00  0.00     0.000 C 
ENDROOT
BRANCH   1   2
ATOM      2  C   UNL     1      -8.614  -3.132   4.135  1.00  0.00     0.000 C 
BRANCH   2   3
ATOM      3  C   UNL     1      -8.638  -3.760   5.540  1.00  0.00     0.006 C 
BRANCH   3   4
ATOM      4  C   UNL     1      -9.915  -4.574   5.788  1.00  0.00     0.053 C 
BRANCH   4   5
ATOM      5  C   UNL     1      -9.622  -6.034   5.945  1.00  0.00     0.041 C 
ATOM      6  O   UNL     1      -9.604  -6.788   4.937  1.00  0.00    -0.550 OA
ATOM      7  O   UNL     1      -9.406  -6.569   7.209  1.00  0.00    -0.550 OA
ENDBRANCH   4   5
ENDBRANCH   3   4
ENDBRANCH   2   3
ENDBRANCH   1   2
BRANCH   1   8
ATOM      8  C   UNL     1     -10.187  -2.136   2.382  1.00  0.00     0.000 C 
BRANCH   8   9
ATOM      9  C   UNL     1      -8.910  -1.332   2.081  1.00  0.00     0.000 C 
BRANCH   9  10
ATOM     10  C   UNL     1      -9.061   0.196   2.177  1.00  0.00     0.006 C 
BRANCH  10  11
ATOM     11  C   UNL     1      -9.862   0.643   3.406  1.00  0.00     0.053 C 
BRANCH  11  12
ATOM     12  C   UNL     1     -10.801   1.750   3.044  1.00  0.00     0.041 C 
ATOM     13  O   UNL     1     -11.493   1.676   1.994  1.00  0.00    -0.550 OA
ATOM     14  O   UNL     1     -10.951   2.841   3.890  1.00  0.00    -0.550 OA
ENDBRANCH  11  12
ENDBRANCH  10  11
ENDBRANCH   9  10
ENDBRANCH   8   9
ENDBRANCH   1   8
TORSDOF 9
ENDMDL
MODEL 4
REMARK VINA RESULT:    -4.232      2.550      5.940
REMARK INTER + INTRA:          -6.819
REMARK INTER:                  -6.038
REMARK INTRA:                  -0.782
REMARK UNBOUND:                -0.361
REMARK SMILES O=C([O-])CCCCCCCCC(=O)[O-]
REMARK SMILES IDX 7 1 6 2 5 3 4 4 2 5 1 6 3 7 8 8 9 9 10 10 11 11 12 12 13 13
REMARK SMILES IDX 14 14
REMARK H PARENT
REMARK Flexibility Score: inf
ROOT
ATOM      1  C   UNL     1      -9.314  -4.975   6.088  1.00  0.00     0.000 C 
ENDROOT
BRANCH   1   2
ATOM      2  C   UNL     1      -9.864  -5.773   4.895  1.00  0.00     0.000 C 
BRANCH   2   3
ATOM      3  C   UNL     1     -11.346  -6.149   5.065  1.00  0.00     0.006 C 
BRANCH   3   4
ATOM      4  C   UNL     1     -12.238  -4.914   5.257  1.00  0.00     0.053 C 
BRANCH   4   5
ATOM      5  C   UNL     1     -12.838  -4.455   3.964  1.00  0.00     0.041 C 
ATOM      6  O   UNL     1     -13.011  -3.227   3.747  1.00  0.00    -0.550 OA
ATOM      7  O   UNL     1     -13.239  -5.385   3.013  1.00  0.00    -0.550 OA
ENDBRANCH   4   5
ENDBRANCH   3   4
ENDBRANCH   2   3
ENDBRANCH   1   2
BRANCH   1   8
ATOM      8  C   UNL     1      -8.631  -3.666   5.658  1.00  0.00     0.000 C 
BRANCH   8   9
ATOM      9  C   UNL     1      -8.771  -3.383   4.152  1.00  0.00     0.000 C 
BRANCH   9  10
ATOM     10  C   UNL     1      -9.717  -2.224   3.789  1.00  0.00     0.006 C 
BRANCH  10  11
ATOM     11  C   UNL     1      -9.767  -1.941   2.283  1.00  0.00     0.053 C 
BRANCH  11  12
ATOM     12  C   UNL     1      -9.242  -0.571   1.991  1.00  0.00     0.041 C 
ATOM     13  O   UNL     1     -10.033   0.404   1.894  1.00  0.00    -0.550 OA
ATOM     14  O   UNL     1      -7.873  -0.360   1.875  1.00  0.00    -0.550 OA
ENDBRANCH  11  12
ENDBRANCH  10  11
ENDBRANCH   9  10
ENDBRANCH   8   9
ENDBRANCH   1   8
TORSDOF 9
ENDMDL
MODEL 5
REMARK VINA RESULT:    -4.231      1.900      2.365
REMARK INTER + INTRA:          -6.818
REMARK INTER:                  -5.902
REMARK INTRA:                  -0.915
REMARK UNBOUND:                -0.361
REMARK SMILES O=C([O-])CCCCCCCCC(=O)[O-]
REMARK SMILES IDX 7 1 6 2 5 3 4 4 2 5 1 6 3 7 8 8 9 9 10 10 11 11 12 12 13 13
REMARK SMILES IDX 14 14
REMARK H PARENT
REMARK Flexibility Score: inf
ROOT
ATOM      1  C   UNL     1      -9.308  -2.348   3.912  1.00  0.00     0.000 C 
ENDROOT
BRANCH   1   2
ATOM      2  C   UNL     1     -10.006  -2.863   2.643  1.00  0.00     0.000 C 
BRANCH   2   3
ATOM      3  C   UNL     1     -11.470  -3.266   2.893  1.00  0.00     0.006 C 
BRANCH   3   4
ATOM      4  C   UNL     1     -12.064  -2.558   4.118  1.00  0.00     0.053 C 
BRANCH   4   5
ATOM      5  C   UNL     1     -12.963  -1.427   3.724  1.00  0.00     0.041 C 
ATOM      6  O   UNL     1     -12.632  -0.652   2.788  1.00  0.00    -0.550 OA
ATOM      7  O   UNL     1     -14.147  -1.205   4.415  1.00  0.00    -0.550 OA
ENDBRANCH   4   5
ENDBRANCH   3   4
ENDBRANCH   2   3
ENDBRANCH   1   2
BRANCH   1   8
ATOM      8  C   UNL     1      -8.339  -3.381   4.512  1.00  0.00     0.000 C 
BRANCH   8   9
ATOM      9  C   UNL     1      -8.704  -3.778   5.954  1.00  0.00     0.000 C 
BRANCH   9  10
ATOM     10  C   UNL     1      -9.771  -4.881   6.078  1.00  0.00     0.006 C 
BRANCH  10  11
ATOM     11  C   UNL     1      -9.755  -5.865   4.902  1.00  0.00     0.053 C 
BRANCH  11  12
ATOM     12  C   UNL     1      -9.270  -7.207   5.349  1.00  0.00     0.041 C 
ATOM     13  O   UNL     1      -9.256  -8.177   4.546  1.00  0.00    -0.550 OA
ATOM     14  O   UNL     1      -8.784  -7.377   6.640  1.00  0.00    -0.550 OA
ENDBRANCH  11  12
ENDBRANCH  10  11
ENDBRANCH   9  10
ENDBRANCH   8   9
ENDBRANCH   1   8
TORSDOF 9
ENDMDL
MODEL 6
REMARK VINA RESULT:    -4.187      1.409      2.409
REMARK INTER + INTRA:          -6.751
REMARK INTER:                  -6.347
REMARK INTRA:                  -0.405
REMARK UNBOUND:                -0.361
REMARK SMILES O=C([O-])CCCCCCCCC(=O)[O-]
REMARK SMILES IDX 7 1 6 2 5 3 4 4 2 5 1 6 3 7 8 8 9 9 10 10 11 11 12 12 13 13
REMARK SMILES IDX 14 14
REMARK H PARENT
REMARK Flexibility Score: inf
ROOT
ATOM      1  C   UNL     1      -8.642  -3.884   5.991  1.00  0.00     0.000 C 
ENDROOT
BRANCH   1   2
ATOM      2  C   UNL     1      -8.585  -3.470   4.512  1.00  0.00     0.000 C 
BRANCH   2   3
ATOM      3  C   UNL     1      -9.512  -2.284   4.192  1.00  0.00     0.006 C 
BRANCH   3   4
ATOM      4  C   UNL     1      -9.383  -1.826   2.733  1.00  0.00     0.053 C 
BRANCH   4   5
ATOM      5  C   UNL     1      -8.756  -0.470   2.629  1.00  0.00     0.041 C 
ATOM      6  O   UNL     1      -7.561  -0.353   2.249  1.00  0.00    -0.550 OA
ATOM      7  O   UNL     1      -9.478   0.661   2.988  1.00  0.00    -0.550 OA
ENDBRANCH   4   5
ENDBRANCH   3   4
ENDBRANCH   2   3
ENDBRANCH   1   2
BRANCH   1   8
ATOM      8  C   UNL     1      -9.278  -5.270   6.192  1.00  0.00     0.000 C 
BRANCH   8   9
ATOM      9  C   UNL     1      -9.762  -5.904   4.875  1.00  0.00     0.000 C 
BRANCH   9  10
ATOM     10  C   UNL     1      -9.664  -7.439   4.814  1.00  0.00     0.006 C 
BRANCH  10  11
ATOM     11  C   UNL     1      -9.662  -8.095   6.200  1.00  0.00     0.053 C 
BRANCH  11  12
ATOM     12  C   UNL     1      -8.354  -8.773   6.457  1.00  0.00     0.041 C 
ATOM     13  O   UNL     1      -8.014  -9.072   7.632  1.00  0.00    -0.550 OA
ATOM     14  O   UNL     1      -7.529  -9.120   5.393  1.00  0.00    -0.550 OA
ENDBRANCH  11  12
ENDBRANCH  10  11
ENDBRANCH   9  10
ENDBRANCH   8   9
ENDBRANCH   1   8
TORSDOF 9
ENDMDL
MODEL 7
REMARK VINA RESULT:    -4.169      2.319      6.889
REMARK INTER + INTRA:          -6.723
REMARK INTER:                  -6.106
REMARK INTRA:                  -0.617
REMARK UNBOUND:                -0.361
REMARK SMILES O=C([O-])CCCCCCCCC(=O)[O-]
REMARK SMILES IDX 7 1 6 2 5 3 4 4 2 5 1 6 3 7 8 8 9 9 10 10 11 11 12 12 13 13
REMARK SMILES IDX 14 14
REMARK H PARENT
REMARK Flexibility Score: inf
ROOT
ATOM      1  C   UNL     1      -9.013  -1.332   2.164  1.00  0.00     0.000 C 
ENDROOT
BRANCH   1   2
ATOM      2  C   UNL     1     -10.146  -2.235   2.677  1.00  0.00     0.000 C 
BRANCH   2   3
ATOM      3  C   UNL     1      -9.625  -3.501   3.379  1.00  0.00     0.006 C 
BRANCH   3   4
ATOM      4  C   UNL     1      -8.618  -3.174   4.490  1.00  0.00     0.053 C 
BRANCH   4   5
ATOM      5  C   UNL     1      -8.979  -3.841   5.781  1.00  0.00     0.041 C 
ATOM      6  O   UNL     1      -8.171  -3.829   6.747  1.00  0.00    -0.550 OA
ATOM      7  O   UNL     1     -10.192  -4.507   5.906  1.00  0.00    -0.550 OA
ENDBRANCH   4   5
ENDBRANCH   3   4
ENDBRANCH   2   3
ENDBRANCH   1   2
BRANCH   1   8
ATOM      8  C   UNL     1      -9.063   0.081   2.770  1.00  0.00     0.000 C 
BRANCH   8   9
ATOM      9  C   UNL     1     -10.136   0.227   3.864  1.00  0.00     0.000 C 
BRANCH   9  10
ATOM     10  C   UNL     1     -10.596   1.669   4.139  1.00  0.00     0.006 C 
BRANCH  10  11
ATOM     11  C   UNL     1     -11.376   2.283   2.970  1.00  0.00     0.053 C 
BRANCH  11  12
ATOM     12  C   UNL     1     -12.732   1.660   2.861  1.00  0.00     0.041 C 
ATOM     13  O   UNL     1     -13.015   0.926   1.878  1.00  0.00    -0.550 OA
ATOM     14  O   UNL     1     -13.668   1.849   3.870  1.00  0.00    -0.550 OA
ENDBRANCH  11  12
ENDBRANCH  10  11
ENDBRANCH   9  10
ENDBRANCH   8   9
ENDBRANCH   1   8
TORSDOF 9
ENDMDL
MODEL 8
REMARK VINA RESULT:    -4.152      2.328      2.868
REMARK INTER + INTRA:          -6.697
REMARK INTER:                  -5.936
REMARK INTRA:                  -0.761
REMARK UNBOUND:                -0.361
REMARK SMILES O=C([O-])CCCCCCCCC(=O)[O-]
REMARK SMILES IDX 7 1 6 2 5 3 4 4 2 5 1 6 3 7 8 8 9 9 10 10 11 11 12 12 13 13
REMARK SMILES IDX 14 14
REMARK H PARENT
REMARK Flexibility Score: inf
ROOT
ATOM      1  C   UNL     1      -8.560  -3.354   4.582  1.00  0.00     0.000 C 
ENDROOT
BRANCH   1   2
ATOM      2  C   UNL     1      -9.842  -2.613   4.169  1.00  0.00     0.000 C 
BRANCH   2   3
ATOM      3  C   UNL     1     -10.133  -2.726   2.662  1.00  0.00     0.006 C 
BRANCH   3   4
ATOM      4  C   UNL     1      -9.630  -1.504   1.883  1.00  0.00     0.053 C 
BRANCH   4   5
ATOM      5  C   UNL     1     -10.174  -0.225   2.441  1.00  0.00     0.041 C 
ATOM      6  O   UNL     1      -9.398   0.622   2.955  1.00  0.00    -0.550 OA
ATOM      7  O   UNL     1     -11.543   0.014   2.427  1.00  0.00    -0.550 OA
ENDBRANCH   4   5
ENDBRANCH   3   4
ENDBRANCH   2   3
ENDBRANCH   1   2
BRANCH   1   8
ATOM      8  C   UNL     1      -8.618  -3.872   6.029  1.00  0.00     0.000 C 
BRANCH   8   9
ATOM      9  C   UNL     1      -9.000  -5.360   6.118  1.00  0.00     0.000 C 
BRANCH   9  10
ATOM     10  C   UNL     1     -10.510  -5.643   6.222  1.00  0.00     0.006 C 
BRANCH  10  11
ATOM     11  C   UNL     1     -11.118  -6.139   4.904  1.00  0.00     0.053 C 
BRANCH  11  12
ATOM     12  C   UNL     1     -12.354  -5.363   4.574  1.00  0.00     0.041 C 
ATOM     13  O   UNL     1     -12.693  -4.380   5.284  1.00  0.00    -0.550 OA
ATOM     14  O   UNL     1     -13.104  -5.693   3.452  1.00  0.00    -0.550 OA
ENDBRANCH  11  12
ENDBRANCH  10  11
ENDBRANCH   9  10
ENDBRANCH   8   9
ENDBRANCH   1   8
TORSDOF 9
ENDMDL
