MODEL 1
REMARK VINA RESULT:    11.333      0.000      0.000
REMARK INTER + INTRA:          11.333
REMARK INTER:                  11.333
REMARK INTRA:                   0.000
REMARK UNBOUND:                 0.000
REMARK SMILES CC1=CC[C@]2(C)CCCC(C)(C)[C@]23C[C@H]13
REMARK SMILES IDX 1 1 2 2 3 3 4 4 5 5 7 6 8 7 9 8 10 9 13 10 15 11 14 12 11 13
REMARK SMILES IDX 12 14 6 15
REMARK H PARENT
REMARK Flexibility Score: inf
ROOT
ATOM      1  C   UNL     1     -12.754  -1.993  21.038  1.00  0.00     0.039 C 
ATOM      2  C   UNL     1     -13.867  -1.979  20.030  1.00  0.00    -0.074 C 
ATOM      3  C   UNL     1     -15.000  -1.301  20.310  1.00  0.00    -0.027 C 
ATOM      4  C   UNL     1     -16.161  -1.254  19.348  1.00  0.00     0.034 C 
ATOM      5  C   UNL     1     -15.666  -1.258  17.871  1.00  0.00    -0.022 C 
ATOM      6  C   UNL     1     -16.889  -1.390  16.933  1.00  0.00     0.008 C 
ATOM      7  C   UNL     1     -16.504  -1.554  15.451  1.00  0.00     0.001 C 
ATOM      8  C   UNL     1     -15.568  -2.750  15.216  1.00  0.00     0.007 C 
ATOM      9  C   UNL     1     -14.274  -2.747  16.081  1.00  0.00    -0.029 C 
ATOM     10  C   UNL     1     -14.690  -2.470  17.589  1.00  0.00    -0.012 C 
ATOM     11  C   UNL     1     -13.684  -2.732  18.721  1.00  0.00     0.022 C 
ATOM     12  C   UNL     1     -14.804  -3.741  18.476  1.00  0.00     0.017 C 
ATOM     13  C   UNL     1     -13.278  -1.672  15.577  1.00  0.00     0.012 C 
ATOM     14  C   UNL     1     -13.580  -4.120  15.839  1.00  0.00     0.012 C 
ATOM     15  C   UNL     1     -14.956   0.114  17.644  1.00  0.00     0.012 C 
ENDROOT
TORSDOF 0
ENDMDL
MODEL 2
REMARK VINA RESULT:    12.326      1.212      4.010
REMARK INTER + INTRA:          12.326
REMARK INTER:                  12.326
REMARK INTRA:                   0.000
REMARK UNBOUND:                 0.000
REMARK SMILES CC1=CC[C@]2(C)CCCC(C)(C)[C@]23C[C@H]13
REMARK SMILES IDX 1 1 2 2 3 3 4 4 5 5 7 6 8 7 9 8 10 9 13 10 15 11 14 12 11 13
REMARK SMILES IDX 12 14 6 15
REMARK H PARENT
REMARK Flexibility Score: inf
ROOT
ATOM      1  C   UNL     1     -15.355  -5.580  15.454  1.00  0.00     0.039 C 
ATOM      2  C   UNL     1     -15.346  -4.116  15.790  1.00  0.00    -0.074 C 
ATOM      3  C   UNL     1     -15.980  -3.249  14.972  1.00  0.00    -0.027 C 
ATOM      4  C   UNL     1     -16.002  -1.765  15.245  1.00  0.00     0.034 C 
ATOM      5  C   UNL     1     -16.038  -1.477  16.775  1.00  0.00    -0.022 C 
ATOM      6  C   UNL     1     -15.879   0.046  17.002  1.00  0.00     0.008 C 
ATOM      7  C   UNL     1     -15.751   0.430  18.487  1.00  0.00     0.001 C 
ATOM      8  C   UNL     1     -14.592  -0.299  19.184  1.00  0.00     0.007 C 
ATOM      9  C   UNL     1     -14.626  -1.850  19.061  1.00  0.00    -0.029 C 
ATOM     10  C   UNL     1     -14.864  -2.217  17.534  1.00  0.00    -0.012 C 
ATOM     11  C   UNL     1     -14.620  -3.653  17.045  1.00  0.00     0.022 C 
ATOM     12  C   UNL     1     -13.578  -2.579  16.742  1.00  0.00     0.017 C 
ATOM     13  C   UNL     1     -15.741  -2.449  19.954  1.00  0.00     0.012 C 
ATOM     14  C   UNL     1     -13.281  -2.368  19.652  1.00  0.00     0.012 C 
ATOM     15  C   UNL     1     -17.437  -1.954  17.278  1.00  0.00     0.012 C 
ENDROOT
TORSDOF 0
ENDMDL
MODEL 3
REMARK VINA RESULT:    13.625      1.166      2.958
REMARK INTER + INTRA:          13.625
REMARK INTER:                  13.625
REMARK INTRA:                   0.000
REMARK UNBOUND:                 0.000
REMARK SMILES CC1=CC[C@]2(C)CCCC(C)(C)[C@]23C[C@H]13
REMARK SMILES IDX 1 1 2 2 3 3 4 4 5 5 7 6 8 7 9 8 10 9 13 10 15 11 14 12 11 13
REMARK SMILES IDX 12 14 6 15
REMARK H PARENT
REMARK Flexibility Score: inf
ROOT
ATOM      1  C   UNL     1     -15.746  -2.759  21.246  1.00  0.00     0.039 C 
ATOM      2  C   UNL     1     -14.956  -2.422  20.014  1.00  0.00    -0.074 C 
ATOM      3  C   UNL     1     -13.615  -2.287  20.109  1.00  0.00    -0.027 C 
ATOM      4  C   UNL     1     -12.762  -1.940  18.913  1.00  0.00     0.034 C 
ATOM      5  C   UNL     1     -13.336  -2.574  17.612  1.00  0.00    -0.022 C 
ATOM      6  C   UNL     1     -12.533  -2.044  16.400  1.00  0.00     0.008 C 
ATOM      7  C   UNL     1     -13.110  -2.491  15.045  1.00  0.00     0.001 C 
ATOM      8  C   UNL     1     -14.584  -2.092  14.875  1.00  0.00     0.007 C 
ATOM      9  C   UNL     1     -15.528  -2.575  16.014  1.00  0.00    -0.029 C 
ATOM     10  C   UNL     1     -14.857  -2.195  17.403  1.00  0.00    -0.012 C 
ATOM     11  C   UNL     1     -15.690  -2.244  18.694  1.00  0.00     0.022 C 
ATOM     12  C   UNL     1     -15.396  -0.890  18.051  1.00  0.00     0.017 C 
ATOM     13  C   UNL     1     -15.771  -4.102  15.917  1.00  0.00     0.012 C 
ATOM     14  C   UNL     1     -16.910  -1.904  15.755  1.00  0.00     0.012 C 
ATOM     15  C   UNL     1     -13.143  -4.117  17.755  1.00  0.00     0.012 C 
ENDROOT
TORSDOF 0
ENDMDL
MODEL 4
REMARK VINA RESULT:    14.064      1.293      3.554
REMARK INTER + INTRA:          14.064
REMARK INTER:                  14.064
REMARK INTRA:                   0.000
REMARK UNBOUND:                 0.000
REMARK SMILES CC1=CC[C@]2(C)CCCC(C)(C)[C@]23C[C@H]13
REMARK SMILES IDX 1 1 2 2 3 3 4 4 5 5 7 6 8 7 9 8 10 9 13 10 15 11 14 12 11 13
REMARK SMILES IDX 12 14 6 15
REMARK H PARENT
REMARK Flexibility Score: inf
ROOT
ATOM      1  C   UNL     1     -17.118   1.026  17.510  1.00  0.00     0.039 C 
ATOM      2  C   UNL     1     -16.718  -0.373  17.136  1.00  0.00    -0.074 C 
ATOM      3  C   UNL     1     -17.325  -0.973  16.090  1.00  0.00    -0.027 C 
ATOM      4  C   UNL     1     -16.980  -2.380  15.666  1.00  0.00     0.034 C 
ATOM      5  C   UNL     1     -15.470  -2.680  15.897  1.00  0.00    -0.022 C 
ATOM      6  C   UNL     1     -15.209  -4.179  15.617  1.00  0.00     0.008 C 
ATOM      7  C   UNL     1     -13.775  -4.622  15.959  1.00  0.00     0.001 C 
ATOM      8  C   UNL     1     -13.398  -4.317  17.417  1.00  0.00     0.007 C 
ATOM      9  C   UNL     1     -13.588  -2.833  17.845  1.00  0.00    -0.029 C 
ATOM     10  C   UNL     1     -15.037  -2.370  17.386  1.00  0.00    -0.012 C 
ATOM     11  C   UNL     1     -15.641  -1.074  17.949  1.00  0.00     0.022 C 
ATOM     12  C   UNL     1     -16.118  -2.416  18.501  1.00  0.00     0.017 C 
ATOM     13  C   UNL     1     -12.496  -1.933  17.214  1.00  0.00     0.012 C 
ATOM     14  C   UNL     1     -13.347  -2.784  19.383  1.00  0.00     0.012 C 
ATOM     15  C   UNL     1     -14.686  -1.795  14.876  1.00  0.00     0.012 C 
ENDROOT
TORSDOF 0
ENDMDL
MODEL 5
REMARK VINA RESULT:    14.288      1.259      3.809
REMARK INTER + INTRA:          14.288
REMARK INTER:                  14.288
REMARK INTRA:                   0.000
REMARK UNBOUND:                 0.000
REMARK SMILES CC1=CC[C@]2(C)CCCC(C)(C)[C@]23C[C@H]13
REMARK SMILES IDX 1 1 2 2 3 3 4 4 5 5 7 6 8 7 9 8 10 9 13 10 15 11 14 12 11 13
REMARK SMILES IDX 12 14 6 15
REMARK H PARENT
REMARK Flexibility Score: inf
ROOT
ATOM      1  C   UNL     1     -11.337  -4.834  16.853  1.00  0.00     0.039 C 
ATOM      2  C   UNL     1     -12.427  -3.845  16.549  1.00  0.00    -0.074 C 
ATOM      3  C   UNL     1     -12.816  -3.669  15.268  1.00  0.00    -0.027 C 
ATOM      4  C   UNL     1     -13.897  -2.686  14.890  1.00  0.00     0.034 C 
ATOM      5  C   UNL     1     -14.989  -2.601  15.997  1.00  0.00    -0.022 C 
ATOM      6  C   UNL     1     -15.970  -1.458  15.646  1.00  0.00     0.008 C 
ATOM      7  C   UNL     1     -17.008  -1.185  16.750  1.00  0.00     0.001 C 
ATOM      8  C   UNL     1     -16.355  -0.879  18.107  1.00  0.00     0.007 C 
ATOM      9  C   UNL     1     -15.350  -1.957  18.607  1.00  0.00    -0.029 C 
ATOM     10  C   UNL     1     -14.357  -2.295  17.414  1.00  0.00    -0.012 C 
ATOM     11  C   UNL     1     -13.061  -3.072  17.695  1.00  0.00     0.022 C 
ATOM     12  C   UNL     1     -12.989  -1.562  17.478  1.00  0.00     0.017 C 
ATOM     13  C   UNL     1     -16.098  -3.228  19.082  1.00  0.00     0.012 C 
ATOM     14  C   UNL     1     -14.666  -1.365  19.875  1.00  0.00     0.012 C 
ATOM     15  C   UNL     1     -15.732  -3.974  15.985  1.00  0.00     0.012 C 
ENDROOT
TORSDOF 0
ENDMDL
