MODEL 1
REMARK VINA RESULT:    -5.082      0.000      0.000
REMARK INTER + INTRA:          -5.991
REMARK INTER:                  -5.825
REMARK INTRA:                  -0.166
REMARK UNBOUND:                -0.166
REMARK SMILES CC=Cc1ccc(O)c(OC)c1
REMARK SMILES IDX 4 1 12 2 9 3 7 4 6 5 5 6 3 7 1 8 2 9 10 10 11 11 8 12
REMARK H PARENT 8 13
REMARK Flexibility Score: inf
ROOT
ATOM      1  C   UNL     1      -6.787 -26.596  -2.567  1.00  0.00    -0.022 A 
ATOM      2  C   UNL     1      -7.851 -27.510  -2.636  1.00  0.00     0.058 A 
ATOM      3  C   UNL     1      -7.686 -28.769  -3.250  1.00  0.00     0.161 A 
ATOM      4  C   UNL     1      -6.433 -29.110  -3.789  1.00  0.00     0.157 A 
ATOM      5  C   UNL     1      -5.368 -28.209  -3.708  1.00  0.00     0.051 A 
ATOM      6  C   UNL     1      -5.537 -26.964  -3.100  1.00  0.00     0.012 A 
ENDROOT
BRANCH   1   7
ATOM      7  C   UNL     1      -7.016 -25.289  -1.901  1.00  0.00     0.003 C 
ATOM      8  C   UNL     1      -7.602 -22.899  -1.800  1.00  0.00     0.035 C 
ATOM      9  C   UNL     1      -7.377 -24.174  -2.546  1.00  0.00    -0.030 C 
ENDBRANCH   1   7
BRANCH   3  10
ATOM     10  O   UNL     1      -8.736 -29.696  -3.341  1.00  0.00    -0.493 OA
ATOM     11  C   UNL     1      -9.178 -30.526  -2.270  1.00  0.00     0.278 C 
ENDBRANCH   3  10
BRANCH   4  12
ATOM     12  O   UNL     1      -6.225 -30.344  -4.405  1.00  0.00    -0.504 OA
ATOM     13  H   UNL     1      -6.990 -30.909  -4.754  1.00  0.00     0.293 HD
ENDBRANCH   4  12
TORSDOF 3
ENDMDL
MODEL 2
REMARK VINA RESULT:    -5.002     11.297     12.593
REMARK INTER + INTRA:          -5.899
REMARK INTER:                  -5.739
REMARK INTRA:                  -0.160
REMARK UNBOUND:                -0.166
REMARK SMILES CC=Cc1ccc(O)c(OC)c1
REMARK SMILES IDX 4 1 12 2 9 3 7 4 6 5 5 6 3 7 1 8 2 9 10 10 11 11 8 12
REMARK H PARENT 8 13
REMARK Flexibility Score: inf
ROOT
ATOM      1  C   UNL     1       2.858 -20.095  -7.061  1.00  0.00    -0.022 A 
ATOM      2  C   UNL     1       2.153 -20.202  -5.852  1.00  0.00     0.058 A 
ATOM      3  C   UNL     1       1.012 -21.024  -5.750  1.00  0.00     0.161 A 
ATOM      4  C   UNL     1       0.587 -21.752  -6.876  1.00  0.00     0.157 A 
ATOM      5  C   UNL     1       1.296 -21.658  -8.076  1.00  0.00     0.051 A 
ATOM      6  C   UNL     1       2.425 -20.842  -8.172  1.00  0.00     0.012 A 
ENDROOT
BRANCH   1   7
ATOM      7  C   UNL     1       4.058 -19.221  -7.109  1.00  0.00     0.003 C 
ATOM      8  C   UNL     1       6.295 -18.526  -7.872  1.00  0.00     0.035 C 
ATOM      9  C   UNL     1       5.131 -19.464  -7.871  1.00  0.00    -0.030 C 
ENDBRANCH   1   7
BRANCH   3  10
ATOM     10  O   UNL     1       0.284 -21.141  -4.555  1.00  0.00    -0.493 OA
ATOM     11  C   UNL     1       0.513 -20.357  -3.388  1.00  0.00     0.278 C 
ENDBRANCH   3  10
BRANCH   4  12
ATOM     12  O   UNL     1      -0.536 -22.576  -6.820  1.00  0.00    -0.504 OA
ATOM     13  H   UNL     1      -0.485 -23.539  -6.507  1.00  0.00     0.293 HD
ENDBRANCH   4  12
TORSDOF 3
ENDMDL
MODEL 3
REMARK VINA RESULT:    -4.921     11.157     12.751
REMARK INTER + INTRA:          -5.807
REMARK INTER:                  -5.635
REMARK INTRA:                  -0.171
REMARK UNBOUND:                -0.166
REMARK SMILES CC=Cc1ccc(O)c(OC)c1
REMARK SMILES IDX 4 1 12 2 9 3 7 4 6 5 5 6 3 7 1 8 2 9 10 10 11 11 8 12
REMARK H PARENT 8 13
REMARK Flexibility Score: inf
ROOT
ATOM      1  C   UNL     1       1.692 -20.255  -5.267  1.00  0.00    -0.022 A 
ATOM      2  C   UNL     1       2.950 -20.124  -4.656  1.00  0.00     0.058 A 
ATOM      3  C   UNL     1       3.087 -20.212  -3.255  1.00  0.00     0.161 A 
ATOM      4  C   UNL     1       1.946 -20.445  -2.467  1.00  0.00     0.157 A 
ATOM      5  C   UNL     1       0.696 -20.591  -3.074  1.00  0.00     0.051 A 
ATOM      6  C   UNL     1       0.565 -20.502  -4.461  1.00  0.00     0.012 A 
ENDROOT
BRANCH   1   7
ATOM      7  C   UNL     1       1.608 -20.162  -6.746  1.00  0.00     0.003 C 
ATOM      8  C   UNL     1       1.226 -21.014  -9.026  1.00  0.00     0.035 C 
ATOM      9  C   UNL     1       1.304 -21.193  -7.544  1.00  0.00    -0.030 C 
ENDBRANCH   1   7
BRANCH   3  10
ATOM     10  O   UNL     1       4.332 -20.075  -2.620  1.00  0.00    -0.493 OA
ATOM     11  C   UNL     1       4.992 -18.834  -2.393  1.00  0.00     0.278 C 
ENDBRANCH   3  10
BRANCH   4  12
ATOM     12  O   UNL     1       2.036 -20.539  -1.079  1.00  0.00    -0.504 OA
ATOM     13  H   UNL     1       1.559 -21.263  -0.554  1.00  0.00     0.293 HD
ENDBRANCH   4  12
TORSDOF 3
ENDMDL
MODEL 4
REMARK VINA RESULT:    -4.756     10.764     12.223
REMARK INTER + INTRA:          -5.617
REMARK INTER:                  -5.463
REMARK INTRA:                  -0.154
REMARK UNBOUND:                -0.166
REMARK SMILES CC=Cc1ccc(O)c(OC)c1
REMARK SMILES IDX 4 1 12 2 9 3 7 4 6 5 5 6 3 7 1 8 2 9 10 10 11 11 8 12
REMARK H PARENT 8 13
REMARK Flexibility Score: inf
ROOT
ATOM      1  C   UNL     1       1.569 -19.909  -4.254  1.00  0.00    -0.022 A 
ATOM      2  C   UNL     1       2.597 -20.093  -5.192  1.00  0.00     0.058 A 
ATOM      3  C   UNL     1       2.462 -21.025  -6.242  1.00  0.00     0.161 A 
ATOM      4  C   UNL     1       1.273 -21.769  -6.349  1.00  0.00     0.157 A 
ATOM      5  C   UNL     1       0.242 -21.577  -5.426  1.00  0.00     0.051 A 
ATOM      6  C   UNL     1       0.382 -20.653  -4.388  1.00  0.00     0.012 A 
ENDROOT
BRANCH   1   7
ATOM      7  C   UNL     1       1.763 -18.908  -3.175  1.00  0.00     0.003 C 
ATOM      8  C   UNL     1       3.054 -17.630  -1.510  1.00  0.00     0.035 C 
ATOM      9  C   UNL     1       2.938 -18.667  -2.581  1.00  0.00    -0.030 C 
ENDBRANCH   1   7
BRANCH   3  10
ATOM     10  O   UNL     1       3.478 -21.235  -7.187  1.00  0.00    -0.493 OA
ATOM     11  C   UNL     1       4.869 -21.279  -6.882  1.00  0.00     0.278 C 
ENDBRANCH   3  10
BRANCH   4  12
ATOM     12  O   UNL     1       1.096 -22.701  -7.371  1.00  0.00    -0.504 OA
ATOM     13  H   UNL     1       0.877 -22.427  -8.322  1.00  0.00     0.293 HD
ENDBRANCH   4  12
TORSDOF 3
ENDMDL
MODEL 5
REMARK VINA RESULT:    -4.604     13.826     15.058
REMARK INTER + INTRA:          -5.444
REMARK INTER:                  -5.267
REMARK INTRA:                  -0.177
REMARK UNBOUND:                -0.166
REMARK SMILES CC=Cc1ccc(O)c(OC)c1
REMARK SMILES IDX 4 1 12 2 9 3 7 4 6 5 5 6 3 7 1 8 2 9 10 10 11 11 8 12
REMARK H PARENT 8 13
REMARK Flexibility Score: inf
ROOT
ATOM      1  C   UNL     1       4.966 -24.631   5.544  1.00  0.00    -0.022 A 
ATOM      2  C   UNL     1       5.361 -25.213   4.328  1.00  0.00     0.058 A 
ATOM      3  C   UNL     1       4.981 -24.644   3.095  1.00  0.00     0.161 A 
ATOM      4  C   UNL     1       4.205 -23.472   3.092  1.00  0.00     0.157 A 
ATOM      5  C   UNL     1       3.823 -22.882   4.299  1.00  0.00     0.051 A 
ATOM      6  C   UNL     1       4.201 -23.450   5.517  1.00  0.00     0.012 A 
ENDROOT
BRANCH   1   7
ATOM      7  C   UNL     1       5.403 -25.269   6.812  1.00  0.00     0.003 C 
ATOM      8  C   UNL     1       5.229 -25.864   9.196  1.00  0.00     0.035 C 
ATOM      9  C   UNL     1       4.729 -25.181   7.964  1.00  0.00    -0.030 C 
ENDBRANCH   1   7
BRANCH   3  10
ATOM     10  O   UNL     1       5.355 -25.212   1.867  1.00  0.00    -0.493 OA
ATOM     11  C   UNL     1       6.611 -25.002   1.228  1.00  0.00     0.278 C 
ENDBRANCH   3  10
BRANCH   4  12
ATOM     12  O   UNL     1       3.806 -22.875   1.896  1.00  0.00    -0.504 OA
ATOM     13  H   UNL     1       2.830 -22.763   1.647  1.00  0.00     0.293 HD
ENDBRANCH   4  12
TORSDOF 3
ENDMDL
MODEL 6
REMARK VINA RESULT:    -4.560     11.873     13.261
REMARK INTER + INTRA:          -5.393
REMARK INTER:                  -5.220
REMARK INTRA:                  -0.173
REMARK UNBOUND:                -0.166
REMARK SMILES CC=Cc1ccc(O)c(OC)c1
REMARK SMILES IDX 4 1 12 2 9 3 7 4 6 5 5 6 3 7 1 8 2 9 10 10 11 11 8 12
REMARK H PARENT 8 13
REMARK Flexibility Score: inf
ROOT
ATOM      1  C   UNL     1       3.702 -20.942  -6.044  1.00  0.00    -0.022 A 
ATOM      2  C   UNL     1       2.933 -20.427  -4.987  1.00  0.00     0.058 A 
ATOM      3  C   UNL     1       3.446 -20.380  -3.675  1.00  0.00     0.161 A 
ATOM      4  C   UNL     1       4.750 -20.847  -3.430  1.00  0.00     0.157 A 
ATOM      5  C   UNL     1       5.522 -21.346  -4.482  1.00  0.00     0.051 A 
ATOM      6  C   UNL     1       5.010 -21.391  -5.779  1.00  0.00     0.012 A 
ENDROOT
BRANCH   1   7
ATOM      7  C   UNL     1       3.115 -20.959  -7.407  1.00  0.00     0.003 C 
ATOM      8  C   UNL     1       1.287 -20.979  -9.059  1.00  0.00     0.035 C 
ATOM      9  C   UNL     1       1.800 -20.976  -7.655  1.00  0.00    -0.030 C 
ENDBRANCH   1   7
BRANCH   3  10
ATOM     10  O   UNL     1       2.694 -19.879  -2.600  1.00  0.00    -0.493 OA
ATOM     11  C   UNL     1       1.691 -20.612  -1.903  1.00  0.00     0.278 C 
ENDBRANCH   3  10
BRANCH   4  12
ATOM     12  O   UNL     1       5.296 -20.819  -2.147  1.00  0.00    -0.504 OA
ATOM     13  H   UNL     1       6.281 -20.985  -1.976  1.00  0.00     0.293 HD
ENDBRANCH   4  12
TORSDOF 3
ENDMDL
MODEL 7
REMARK VINA RESULT:    -4.462     14.470     15.628
REMARK INTER + INTRA:          -5.280
REMARK INTER:                  -5.115
REMARK INTRA:                  -0.165
REMARK UNBOUND:                -0.166
REMARK SMILES CC=Cc1ccc(O)c(OC)c1
REMARK SMILES IDX 4 1 12 2 9 3 7 4 6 5 5 6 3 7 1 8 2 9 10 10 11 11 8 12
REMARK H PARENT 8 13
REMARK Flexibility Score: inf
ROOT
ATOM      1  C   UNL     1       4.358 -24.781   6.954  1.00  0.00    -0.022 A 
ATOM      2  C   UNL     1       3.956 -24.397   5.664  1.00  0.00     0.058 A 
ATOM      3  C   UNL     1       4.388 -23.178   5.104  1.00  0.00     0.161 A 
ATOM      4  C   UNL     1       5.242 -22.345   5.849  1.00  0.00     0.157 A 
ATOM      5  C   UNL     1       5.655 -22.730   7.126  1.00  0.00     0.051 A 
ATOM      6  C   UNL     1       5.224 -23.939   7.677  1.00  0.00     0.012 A 
ENDROOT
BRANCH   1   7
ATOM      7  C   UNL     1       3.880 -26.080   7.490  1.00  0.00     0.003 C 
ATOM      8  C   UNL     1       2.282 -27.933   7.778  1.00  0.00     0.035 C 
ATOM      9  C   UNL     1       2.684 -26.611   7.208  1.00  0.00    -0.030 C 
ENDBRANCH   1   7
BRANCH   3  10
ATOM     10  O   UNL     1       3.993 -22.768   3.821  1.00  0.00    -0.493 OA
ATOM     11  C   UNL     1       4.289 -23.472   2.619  1.00  0.00     0.278 C 
ENDBRANCH   3  10
BRANCH   4  12
ATOM     12  O   UNL     1       5.692 -21.130   5.334  1.00  0.00    -0.504 OA
ATOM     13  H   UNL     1       6.635 -21.007   4.983  1.00  0.00     0.293 HD
ENDBRANCH   4  12
TORSDOF 3
ENDMDL
MODEL 8
REMARK VINA RESULT:    -4.412     15.498     16.275
REMARK INTER + INTRA:          -5.224
REMARK INTER:                  -5.071
REMARK INTRA:                  -0.152
REMARK UNBOUND:                -0.166
REMARK SMILES CC=Cc1ccc(O)c(OC)c1
REMARK SMILES IDX 4 1 12 2 9 3 7 4 6 5 5 6 3 7 1 8 2 9 10 10 11 11 8 12
REMARK H PARENT 8 13
REMARK Flexibility Score: inf
ROOT
ATOM      1  C   UNL     1       5.128 -23.980   7.616  1.00  0.00    -0.022 A 
ATOM      2  C   UNL     1       4.346 -24.964   6.990  1.00  0.00     0.058 A 
ATOM      3  C   UNL     1       3.912 -26.103   7.698  1.00  0.00     0.161 A 
ATOM      4  C   UNL     1       4.262 -26.244   9.053  1.00  0.00     0.157 A 
ATOM      5  C   UNL     1       5.027 -25.259   9.683  1.00  0.00     0.051 A 
ATOM      6  C   UNL     1       5.455 -24.133   8.976  1.00  0.00     0.012 A 
ENDROOT
BRANCH   1   7
ATOM      7  C   UNL     1       5.549 -22.797   6.824  1.00  0.00     0.003 C 
ATOM      8  C   UNL     1       6.941 -21.562   5.210  1.00  0.00     0.035 C 
ATOM      9  C   UNL     1       6.590 -22.792   5.983  1.00  0.00    -0.030 C 
ENDBRANCH   1   7
BRANCH   3  10
ATOM     10  O   UNL     1       3.137 -27.105   7.092  1.00  0.00    -0.493 OA
ATOM     11  C   UNL     1       1.713 -27.115   7.054  1.00  0.00     0.278 C 
ENDBRANCH   3  10
BRANCH   4  12
ATOM     12  O   UNL     1       3.855 -27.354   9.791  1.00  0.00    -0.504 OA
ATOM     13  H   UNL     1       3.384 -27.267  10.684  1.00  0.00     0.293 HD
ENDBRANCH   4  12
TORSDOF 3
ENDMDL
MODEL 9
REMARK VINA RESULT:    -4.390     13.350     14.922
REMARK INTER + INTRA:          -5.198
REMARK INTER:                  -5.037
REMARK INTRA:                  -0.161
REMARK UNBOUND:                -0.166
REMARK SMILES CC=Cc1ccc(O)c(OC)c1
REMARK SMILES IDX 4 1 12 2 9 3 7 4 6 5 5 6 3 7 1 8 2 9 10 10 11 11 8 12
REMARK H PARENT 8 13
REMARK Flexibility Score: inf
ROOT
ATOM      1  C   UNL     1       4.496 -20.999  -6.531  1.00  0.00    -0.022 A 
ATOM      2  C   UNL     1       5.837 -21.211  -6.890  1.00  0.00     0.058 A 
ATOM      3  C   UNL     1       6.833 -21.377  -5.906  1.00  0.00     0.161 A 
ATOM      4  C   UNL     1       6.469 -21.339  -4.548  1.00  0.00     0.157 A 
ATOM      5  C   UNL     1       5.134 -21.143  -4.188  1.00  0.00     0.051 A 
ATOM      6  C   UNL     1       4.152 -20.979  -5.166  1.00  0.00     0.012 A 
ENDROOT
BRANCH   1   7
ATOM      7  C   UNL     1       3.489 -20.840  -7.609  1.00  0.00     0.003 C 
ATOM      8  C   UNL     1       1.250 -21.000  -8.625  1.00  0.00     0.035 C 
ATOM      9  C   UNL     1       2.207 -21.207  -7.496  1.00  0.00    -0.030 C 
ENDBRANCH   1   7
BRANCH   3  10
ATOM     10  O   UNL     1       8.182 -21.581  -6.240  1.00  0.00    -0.493 OA
ATOM     11  C   UNL     1       8.638 -22.085  -7.491  1.00  0.00     0.278 C 
ENDBRANCH   3  10
BRANCH   4  12
ATOM     12  O   UNL     1       7.422 -21.498  -3.542  1.00  0.00    -0.504 OA
ATOM     13  H   UNL     1       7.469 -20.879  -2.741  1.00  0.00     0.293 HD
ENDBRANCH   4  12
TORSDOF 3
ENDMDL
