MODEL 1
REMARK VINA RESULT:    -4.961      0.000      0.000
REMARK INTER + INTRA:          -9.035
REMARK INTER:                  -7.861
REMARK INTRA:                  -1.173
REMARK UNBOUND:                -1.173
REMARK SMILES CCCCCCCCCCCC(=O)[O-]
REMARK SMILES IDX 7 1 8 2 9 3 10 4 11 5 12 6 13 7 14 8 6 9 5 10 4 11 3 12 2 13
REMARK SMILES IDX 1 14
REMARK H PARENT
REMARK Flexibility Score: inf
ROOT
ATOM      1  C   UNL     1      15.719  73.411  69.929  1.00  0.00     0.000 C 
ENDROOT
BRANCH   1   2
ATOM      2  C   UNL     1      16.228  74.297  71.081  1.00  0.00     0.000 C 
BRANCH   2   3
ATOM      3  C   UNL     1      15.151  74.736  72.094  1.00  0.00     0.000 C 
BRANCH   3   4
ATOM      4  C   UNL     1      15.589  75.840  73.077  1.00  0.00     0.006 C 
BRANCH   4   5
ATOM      5  C   UNL     1      16.468  76.935  72.452  1.00  0.00     0.053 C 
BRANCH   5   6
ATOM      6  C   UNL     1      17.835  76.973  73.063  1.00  0.00     0.041 C 
ATOM      7  O   UNL     1      18.351  78.073  73.392  1.00  0.00    -0.550 OA
ATOM      8  O   UNL     1      18.554  75.796  73.237  1.00  0.00    -0.550 OA
ENDBRANCH   5   6
ENDBRANCH   4   5
ENDBRANCH   3   4
ENDBRANCH   2   3
ENDBRANCH   1   2
BRANCH   1   9
ATOM      9  C   UNL     1      14.241  73.659  69.594  1.00  0.00     0.000 C 
BRANCH   9  10
ATOM     10  C   UNL     1      14.103  74.583  68.378  1.00  0.00    -0.000 C 
BRANCH  10  11
ATOM     11  C   UNL     1      12.922  75.547  68.550  1.00  0.00    -0.000 C 
BRANCH  11  12
ATOM     12  C   UNL     1      13.145  76.478  69.751  1.00  0.00    -0.000 C 
BRANCH  12  13
ATOM     13  C   UNL     1      14.383  77.372  69.583  1.00  0.00    -0.003 C 
ATOM     14  C   UNL     1      14.040  78.765  69.056  1.00  0.00     0.004 C 
ENDBRANCH  12  13
ENDBRANCH  11  12
ENDBRANCH  10  11
ENDBRANCH   9  10
ENDBRANCH   1   9
TORSDOF 10
ENDMDL
MODEL 2
REMARK VINA RESULT:    -4.883      2.393      4.892
REMARK INTER + INTRA:          -8.911
REMARK INTER:                  -7.945
REMARK INTRA:                  -0.966
REMARK UNBOUND:                -1.173
REMARK SMILES CCCCCCCCCCCC(=O)[O-]
REMARK SMILES IDX 7 1 8 2 9 3 10 4 11 5 12 6 13 7 14 8 6 9 5 10 4 11 3 12 2 13
REMARK SMILES IDX 1 14
REMARK H PARENT
REMARK Flexibility Score: inf
ROOT
ATOM      1  C   UNL     1      14.898  73.879  70.628  1.00  0.00     0.000 C 
ENDROOT
BRANCH   1   2
ATOM      2  C   UNL     1      15.431  73.635  69.204  1.00  0.00     0.000 C 
BRANCH   2   3
ATOM      3  C   UNL     1      14.638  74.331  68.080  1.00  0.00     0.000 C 
BRANCH   3   4
ATOM      4  C   UNL     1      13.295  74.952  68.515  1.00  0.00     0.006 C 
BRANCH   4   5
ATOM      5  C   UNL     1      13.172  76.458  68.235  1.00  0.00     0.053 C 
BRANCH   5   6
ATOM      6  C   UNL     1      13.559  77.282  69.424  1.00  0.00     0.041 C 
ATOM      7  O   UNL     1      13.202  76.933  70.580  1.00  0.00    -0.550 OA
ATOM      8  O   UNL     1      14.286  78.454  69.252  1.00  0.00    -0.550 OA
ENDBRANCH   5   6
ENDBRANCH   4   5
ENDBRANCH   3   4
ENDBRANCH   2   3
ENDBRANCH   1   2
BRANCH   1   9
ATOM      9  C   UNL     1      15.849  74.730  71.483  1.00  0.00     0.000 C 
BRANCH   9  10
ATOM     10  C   UNL     1      15.196  75.107  72.818  1.00  0.00    -0.000 C 
BRANCH  10  11
ATOM     11  C   UNL     1      15.478  76.572  73.175  1.00  0.00    -0.000 C 
BRANCH  11  12
ATOM     12  C   UNL     1      16.621  77.135  72.316  1.00  0.00    -0.000 C 
BRANCH  12  13
ATOM     13  C   UNL     1      17.885  77.432  73.138  1.00  0.00    -0.003 C 
ATOM     14  C   UNL     1      18.821  76.228  73.239  1.00  0.00     0.004 C 
ENDBRANCH  12  13
ENDBRANCH  11  12
ENDBRANCH  10  11
ENDBRANCH   9  10
ENDBRANCH   1   9
TORSDOF 10
ENDMDL
MODEL 3
REMARK VINA RESULT:    -4.739      2.820      5.477
REMARK INTER + INTRA:          -8.683
REMARK INTER:                  -7.691
REMARK INTRA:                  -0.992
REMARK UNBOUND:                -1.173
REMARK SMILES CCCCCCCCCCCC(=O)[O-]
REMARK SMILES IDX 7 1 8 2 9 3 10 4 11 5 12 6 13 7 14 8 6 9 5 10 4 11 3 12 2 13
REMARK SMILES IDX 1 14
REMARK H PARENT
REMARK Flexibility Score: inf
ROOT
ATOM      1  C   UNL     1      14.396  76.415  71.784  1.00  0.00     0.000 C 
ENDROOT
BRANCH   1   2
ATOM      2  C   UNL     1      14.718  76.588  70.288  1.00  0.00     0.000 C 
BRANCH   2   3
ATOM      3  C   UNL     1      13.498  76.531  69.346  1.00  0.00     0.000 C 
BRANCH   3   4
ATOM      4  C   UNL     1      13.459  75.314  68.399  1.00  0.00     0.006 C 
BRANCH   4   5
ATOM      5  C   UNL     1      14.819  74.629  68.190  1.00  0.00     0.053 C 
BRANCH   5   6
ATOM      6  C   UNL     1      14.838  73.239  68.749  1.00  0.00     0.041 C 
ATOM      7  O   UNL     1      14.219  72.977  69.814  1.00  0.00    -0.550 OA
ATOM      8  O   UNL     1      15.568  72.243  68.113  1.00  0.00    -0.550 OA
ENDBRANCH   5   6
ENDBRANCH   4   5
ENDBRANCH   3   4
ENDBRANCH   2   3
ENDBRANCH   1   2
BRANCH   1   9
ATOM      9  C   UNL     1      15.094  75.196  72.406  1.00  0.00     0.000 C 
BRANCH   9  10
ATOM     10  C   UNL     1      16.492  75.000  71.807  1.00  0.00    -0.000 C 
BRANCH  10  11
ATOM     11  C   UNL     1      17.530  74.737  72.905  1.00  0.00    -0.000 C 
BRANCH  11  12
ATOM     12  C   UNL     1      18.624  75.815  72.896  1.00  0.00    -0.000 C 
BRANCH  12  13
ATOM     13  C   UNL     1      18.065  77.225  73.142  1.00  0.00    -0.003 C 
ATOM     14  C   UNL     1      18.912  78.034  74.124  1.00  0.00     0.004 C 
ENDBRANCH  12  13
ENDBRANCH  11  12
ENDBRANCH  10  11
ENDBRANCH   9  10
ENDBRANCH   1   9
TORSDOF 10
ENDMDL
MODEL 4
REMARK VINA RESULT:    -4.584      1.439      3.068
REMARK INTER + INTRA:          -8.438
REMARK INTER:                  -7.598
REMARK INTRA:                  -0.840
REMARK UNBOUND:                -1.173
REMARK SMILES CCCCCCCCCCCC(=O)[O-]
REMARK SMILES IDX 7 1 8 2 9 3 10 4 11 5 12 6 13 7 14 8 6 9 5 10 4 11 3 12 2 13
REMARK SMILES IDX 1 14
REMARK H PARENT
REMARK Flexibility Score: inf
ROOT
ATOM      1  C   UNL     1      15.340  76.472  71.018  1.00  0.00     0.000 C 
ENDROOT
BRANCH   1   2
ATOM      2  C   UNL     1      15.499  75.309  72.014  1.00  0.00     0.000 C 
BRANCH   2   3
ATOM      3  C   UNL     1      16.883  74.627  72.009  1.00  0.00     0.000 C 
BRANCH   3   4
ATOM      4  C   UNL     1      17.734  74.865  73.273  1.00  0.00     0.006 C 
BRANCH   4   5
ATOM      5  C   UNL     1      18.916  75.826  73.071  1.00  0.00     0.053 C 
BRANCH   5   6
ATOM      6  C   UNL     1      18.603  77.208  73.556  1.00  0.00     0.041 C 
ATOM      7  O   UNL     1      19.125  77.640  74.617  1.00  0.00    -0.550 OA
ATOM      8  O   UNL     1      17.708  78.006  72.854  1.00  0.00    -0.550 OA
ENDBRANCH   5   6
ENDBRANCH   4   5
ENDBRANCH   3   4
ENDBRANCH   2   3
ENDBRANCH   1   2
BRANCH   1   9
ATOM      9  C   UNL     1      13.883  76.690  70.585  1.00  0.00     0.000 C 
BRANCH   9  10
ATOM     10  C   UNL     1      13.193  75.353  70.287  1.00  0.00    -0.000 C 
BRANCH  10  11
ATOM     11  C   UNL     1      13.157  75.076  68.779  1.00  0.00    -0.000 C 
BRANCH  11  12
ATOM     12  C   UNL     1      14.396  74.283  68.337  1.00  0.00    -0.000 C 
BRANCH  12  13
ATOM     13  C   UNL     1      14.363  72.823  68.815  1.00  0.00    -0.003 C 
ATOM     14  C   UNL     1      15.604  72.035  68.396  1.00  0.00     0.004 C 
ENDBRANCH  12  13
ENDBRANCH  11  12
ENDBRANCH  10  11
ENDBRANCH   9  10
ENDBRANCH   1   9
TORSDOF 10
ENDMDL
MODEL 5
REMARK VINA RESULT:    -4.122      1.457      3.372
REMARK INTER + INTRA:          -7.705
REMARK INTER:                  -6.958
REMARK INTRA:                  -0.747
REMARK UNBOUND:                -1.173
REMARK SMILES CCCCCCCCCCCC(=O)[O-]
REMARK SMILES IDX 7 1 8 2 9 3 10 4 11 5 12 6 13 7 14 8 6 9 5 10 4 11 3 12 2 13
REMARK SMILES IDX 1 14
REMARK H PARENT
REMARK Flexibility Score: inf
ROOT
ATOM      1  C   UNL     1      15.068  77.084  69.879  1.00  0.00     0.000 C 
ENDROOT
BRANCH   1   2
ATOM      2  C   UNL     1      15.371  77.218  71.382  1.00  0.00     0.000 C 
BRANCH   2   3
ATOM      3  C   UNL     1      14.757  76.120  72.274  1.00  0.00     0.000 C 
BRANCH   3   4
ATOM      4  C   UNL     1      15.776  75.260  73.048  1.00  0.00     0.006 C 
BRANCH   4   5
ATOM      5  C   UNL     1      16.956  74.758  72.201  1.00  0.00     0.053 C 
BRANCH   5   6
ATOM      6  C   UNL     1      18.231  74.715  72.985  1.00  0.00     0.041 C 
ATOM      7  O   UNL     1      18.739  75.779  73.426  1.00  0.00    -0.550 OA
ATOM      8  O   UNL     1      18.877  73.503  73.199  1.00  0.00    -0.550 OA
ENDBRANCH   5   6
ENDBRANCH   4   5
ENDBRANCH   3   4
ENDBRANCH   2   3
ENDBRANCH   1   2
BRANCH   1   9
ATOM      9  C   UNL     1      13.564  77.003  69.578  1.00  0.00     0.000 C 
BRANCH   9  10
ATOM     10  C   UNL     1      13.238  75.763  68.736  1.00  0.00    -0.000 C 
BRANCH  10  11
ATOM     11  C   UNL     1      13.676  74.480  69.453  1.00  0.00    -0.000 C 
BRANCH  11  12
ATOM     12  C   UNL     1      14.752  73.740  68.646  1.00  0.00    -0.000 C 
BRANCH  12  13
ATOM     13  C   UNL     1      14.563  72.215  68.669  1.00  0.00    -0.003 C 
ATOM     14  C   UNL     1      15.855  71.454  68.374  1.00  0.00     0.004 C 
ENDBRANCH  12  13
ENDBRANCH  11  12
ENDBRANCH  10  11
ENDBRANCH   9  10
ENDBRANCH   1   9
TORSDOF 10
ENDMDL
MODEL 6
REMARK VINA RESULT:    -3.882     10.898     12.781
REMARK INTER + INTRA:          -7.325
REMARK INTER:                  -6.042
REMARK INTRA:                  -1.283
REMARK UNBOUND:                -1.173
REMARK SMILES CCCCCCCCCCCC(=O)[O-]
REMARK SMILES IDX 7 1 8 2 9 3 10 4 11 5 12 6 13 7 14 8 6 9 5 10 4 11 3 12 2 13
REMARK SMILES IDX 1 14
REMARK H PARENT
REMARK Flexibility Score: inf
ROOT
ATOM      1  C   UNL     1       6.745  78.321  67.616  1.00  0.00     0.000 C 
ENDROOT
BRANCH   1   2
ATOM      2  C   UNL     1       6.718  76.936  66.944  1.00  0.00     0.000 C 
BRANCH   2   3
ATOM      3  C   UNL     1       5.732  76.800  65.765  1.00  0.00     0.000 C 
BRANCH   3   4
ATOM      4  C   UNL     1       6.309  77.171  64.384  1.00  0.00     0.006 C 
BRANCH   4   5
ATOM      5  C   UNL     1       6.152  78.652  64.008  1.00  0.00     0.053 C 
BRANCH   5   6
ATOM      6  C   UNL     1       4.806  78.941  63.417  1.00  0.00     0.041 C 
ATOM      7  O   UNL     1       3.901  79.454  64.126  1.00  0.00    -0.550 OA
ATOM      8  O   UNL     1       4.542  78.611  62.094  1.00  0.00    -0.550 OA
ENDBRANCH   5   6
ENDBRANCH   4   5
ENDBRANCH   3   4
ENDBRANCH   2   3
ENDBRANCH   1   2
BRANCH   1   9
ATOM      9  C   UNL     1       5.508  78.585  68.487  1.00  0.00     0.000 C 
BRANCH   9  10
ATOM     10  C   UNL     1       4.475  79.429  67.730  1.00  0.00    -0.000 C 
BRANCH  10  11
ATOM     11  C   UNL     1       3.108  78.735  67.705  1.00  0.00    -0.000 C 
BRANCH  11  12
ATOM     12  C   UNL     1       2.998  77.701  68.835  1.00  0.00    -0.000 C 
BRANCH  12  13
ATOM     13  C   UNL     1       2.568  76.315  68.328  1.00  0.00    -0.003 C 
ATOM     14  C   UNL     1       3.659  75.258  68.498  1.00  0.00     0.004 C 
ENDBRANCH  12  13
ENDBRANCH  11  12
ENDBRANCH  10  11
ENDBRANCH   9  10
ENDBRANCH   1   9
TORSDOF 10
ENDMDL
MODEL 7
REMARK VINA RESULT:    -3.832     16.827     19.121
REMARK INTER + INTRA:          -7.246
REMARK INTER:                  -6.076
REMARK INTRA:                  -1.170
REMARK UNBOUND:                -1.173
REMARK SMILES CCCCCCCCCCCC(=O)[O-]
REMARK SMILES IDX 7 1 8 2 9 3 10 4 11 5 12 6 13 7 14 8 6 9 5 10 4 11 3 12 2 13
REMARK SMILES IDX 1 14
REMARK H PARENT
REMARK Flexibility Score: inf
ROOT
ATOM      1  C   UNL     1       4.965  84.784  62.499  1.00  0.00     0.000 C 
ENDROOT
BRANCH   1   2
ATOM      2  C   UNL     1       4.712  86.019  61.615  1.00  0.00     0.000 C 
BRANCH   2   3
ATOM      3  C   UNL     1       3.887  87.140  62.278  1.00  0.00     0.000 C 
BRANCH   3   4
ATOM      4  C   UNL     1       3.768  88.439  61.455  1.00  0.00     0.006 C 
BRANCH   4   5
ATOM      5  C   UNL     1       2.839  89.497  62.070  1.00  0.00     0.053 C 
BRANCH   5   6
ATOM      6  C   UNL     1       1.404  89.262  61.708  1.00  0.00     0.041 C 
ATOM      7  O   UNL     1       0.606  88.791  62.559  1.00  0.00    -0.550 OA
ATOM      8  O   UNL     1       0.958  89.531  60.419  1.00  0.00    -0.550 OA
ENDBRANCH   5   6
ENDBRANCH   4   5
ENDBRANCH   3   4
ENDBRANCH   2   3
ENDBRANCH   1   2
BRANCH   1   9
ATOM      9  C   UNL     1       4.468  84.970  63.940  1.00  0.00     0.000 C 
BRANCH   9  10
ATOM     10  C   UNL     1       3.758  83.707  64.443  1.00  0.00    -0.000 C 
BRANCH  10  11
ATOM     11  C   UNL     1       2.401  84.051  65.069  1.00  0.00    -0.000 C 
BRANCH  11  12
ATOM     12  C   UNL     1       1.273  83.932  64.035  1.00  0.00    -0.000 C 
BRANCH  12  13
ATOM     13  C   UNL     1       0.850  85.294  63.462  1.00  0.00    -0.003 C 
ATOM     14  C   UNL     1       0.832  85.314  61.934  1.00  0.00     0.004 C 
ENDBRANCH  12  13
ENDBRANCH  11  12
ENDBRANCH  10  11
ENDBRANCH   9  10
ENDBRANCH   1   9
TORSDOF 10
ENDMDL
MODEL 8
REMARK VINA RESULT:    -3.805     16.062     18.794
REMARK INTER + INTRA:          -7.203
REMARK INTER:                  -6.064
REMARK INTRA:                  -1.139
REMARK UNBOUND:                -1.173
REMARK SMILES CCCCCCCCCCCC(=O)[O-]
REMARK SMILES IDX 7 1 8 2 9 3 10 4 11 5 12 6 13 7 14 8 6 9 5 10 4 11 3 12 2 13
REMARK SMILES IDX 1 14
REMARK H PARENT
REMARK Flexibility Score: inf
ROOT
ATOM      1  C   UNL     1       4.110  88.538  60.823  1.00  0.00     0.000 C 
ENDROOT
BRANCH   1   2
ATOM      2  C   UNL     1       4.411  87.049  61.072  1.00  0.00     0.000 C 
BRANCH   2   3
ATOM      3  C   UNL     1       4.025  86.529  62.472  1.00  0.00     0.000 C 
BRANCH   3   4
ATOM      4  C   UNL     1       4.716  85.217  62.896  1.00  0.00     0.006 C 
BRANCH   4   5
ATOM      5  C   UNL     1       4.479  84.820  64.361  1.00  0.00     0.053 C 
BRANCH   5   6
ATOM      6  C   UNL     1       3.587  83.622  64.480  1.00  0.00     0.041 C 
ATOM      7  O   UNL     1       3.771  82.621  63.740  1.00  0.00    -0.550 OA
ATOM      8  O   UNL     1       2.533  83.626  65.385  1.00  0.00    -0.550 OA
ENDBRANCH   5   6
ENDBRANCH   4   5
ENDBRANCH   3   4
ENDBRANCH   2   3
ENDBRANCH   1   2
BRANCH   1   9
ATOM      9  C   UNL     1       3.203  89.152  61.899  1.00  0.00     0.000 C 
BRANCH   9  10
ATOM     10  C   UNL     1       1.810  89.456  61.334  1.00  0.00    -0.000 C 
BRANCH  10  11
ATOM     11  C   UNL     1       0.715  88.801  62.184  1.00  0.00    -0.000 C 
BRANCH  11  12
ATOM     12  C   UNL     1       0.513  87.332  61.781  1.00  0.00    -0.000 C 
BRANCH  12  13
ATOM     13  C   UNL     1       0.260  86.418  62.990  1.00  0.00    -0.003 C 
ATOM     14  C   UNL     1       0.618  84.958  62.713  1.00  0.00     0.004 C 
ENDBRANCH  12  13
ENDBRANCH  11  12
ENDBRANCH  10  11
ENDBRANCH   9  10
ENDBRANCH   1   9
TORSDOF 10
ENDMDL
MODEL 9
REMARK VINA RESULT:    -3.741     10.557     12.294
REMARK INTER + INTRA:          -7.101
REMARK INTER:                  -5.542
REMARK INTRA:                  -1.559
REMARK UNBOUND:                -1.173
REMARK SMILES CCCCCCCCCCCC(=O)[O-]
REMARK SMILES IDX 7 1 8 2 9 3 10 4 11 5 12 6 13 7 14 8 6 9 5 10 4 11 3 12 2 13
REMARK SMILES IDX 1 14
REMARK H PARENT
REMARK Flexibility Score: inf
ROOT
ATOM      1  C   UNL     1       5.146  75.758  68.747  1.00  0.00     0.000 C 
ENDROOT
BRANCH   1   2
ATOM      2  C   UNL     1       6.272  76.163  67.779  1.00  0.00     0.000 C 
BRANCH   2   3
ATOM      3  C   UNL     1       6.671  77.653  67.825  1.00  0.00     0.000 C 
BRANCH   3   4
ATOM      4  C   UNL     1       6.463  78.426  66.507  1.00  0.00     0.006 C 
BRANCH   4   5
ATOM      5  C   UNL     1       5.790  77.611  65.392  1.00  0.00     0.053 C 
BRANCH   5   6
ATOM      6  C   UNL     1       5.381  78.472  64.237  1.00  0.00     0.041 C 
ATOM      7  O   UNL     1       4.303  79.120  64.282  1.00  0.00    -0.550 OA
ATOM      8  O   UNL     1       6.173  78.531  63.097  1.00  0.00    -0.550 OA
ENDBRANCH   5   6
ENDBRANCH   4   5
ENDBRANCH   3   4
ENDBRANCH   2   3
ENDBRANCH   1   2
BRANCH   1   9
ATOM      9  C   UNL     1       3.871  75.303  68.021  1.00  0.00     0.000 C 
BRANCH   9  10
ATOM     10  C   UNL     1       2.649  76.086  68.518  1.00  0.00    -0.000 C 
BRANCH  10  11
ATOM     11  C   UNL     1       2.992  77.565  68.733  1.00  0.00    -0.000 C 
BRANCH  11  12
ATOM     12  C   UNL     1       2.596  78.403  67.509  1.00  0.00    -0.000 C 
BRANCH  12  13
ATOM     13  C   UNL     1       3.159  79.832  67.564  1.00  0.00    -0.003 C 
ATOM     14  C   UNL     1       4.009  80.084  68.809  1.00  0.00     0.004 C 
ENDBRANCH  12  13
ENDBRANCH  11  12
ENDBRANCH  10  11
ENDBRANCH   9  10
ENDBRANCH   1   9
TORSDOF 10
ENDMDL
