MODEL 1
REMARK VINA RESULT:    -5.660      0.000      0.000
REMARK INTER + INTRA:          -6.406
REMARK INTER:                  -6.156
REMARK INTRA:                  -0.250
REMARK UNBOUND:                -0.250
REMARK SMILES O=C([O-])c1ccccc1O
REMARK SMILES IDX 4 1 9 2 5 3 8 4 6 5 7 6 2 7 1 8 3 9 10 10
REMARK H PARENT 10 11
REMARK Flexibility Score: inf
ROOT
ATOM      1  C   UNL     1      29.113  57.537  -7.186  1.00  0.00     0.039 A 
ATOM      2  C   UNL     1      29.322  58.841  -7.696  1.00  0.00     0.124 A 
ATOM      3  C   UNL     1      28.422  56.600  -7.979  1.00  0.00     0.014 A 
ATOM      4  C   UNL     1      28.842  59.177  -8.972  1.00  0.00     0.047 A 
ATOM      5  C   UNL     1      27.951  56.949  -9.248  1.00  0.00     0.001 A 
ATOM      6  C   UNL     1      28.161  58.235  -9.743  1.00  0.00     0.004 A 
ENDROOT
BRANCH   1   7
ATOM      7  C   UNL     1      29.603  57.138  -5.841  1.00  0.00     0.075 C 
ATOM      8  O   UNL     1      30.781  57.411  -5.485  1.00  0.00    -0.545 OA
ATOM      9  O   UNL     1      28.780  56.459  -4.950  1.00  0.00    -0.545 OA
ENDBRANCH   1   7
BRANCH   2  10
ATOM     10  O   UNL     1      30.000  59.801  -6.946  1.00  0.00    -0.507 OA
ATOM     11  H   UNL     1      30.667  60.436  -7.371  1.00  0.00     0.293 HD
ENDBRANCH   2  10
TORSDOF 2
ENDMDL
MODEL 2
REMARK VINA RESULT:    -5.531      2.136      3.479
REMARK INTER + INTRA:          -6.267
REMARK INTER:                  -6.017
REMARK INTRA:                  -0.249
REMARK UNBOUND:                -0.250
REMARK SMILES O=C([O-])c1ccccc1O
REMARK SMILES IDX 4 1 9 2 5 3 8 4 6 5 7 6 2 7 1 8 3 9 10 10
REMARK H PARENT 10 11
REMARK Flexibility Score: inf
ROOT
ATOM      1  C   UNL     1      28.772  57.597  -7.820  1.00  0.00     0.039 A 
ATOM      2  C   UNL     1      29.552  58.700  -7.398  1.00  0.00     0.124 A 
ATOM      3  C   UNL     1      28.646  56.487  -6.961  1.00  0.00     0.014 A 
ATOM      4  C   UNL     1      30.182  58.672  -6.144  1.00  0.00     0.047 A 
ATOM      5  C   UNL     1      29.278  56.474  -5.715  1.00  0.00     0.001 A 
ATOM      6  C   UNL     1      30.045  57.564  -5.307  1.00  0.00     0.004 A 
ENDROOT
BRANCH   1   7
ATOM      7  C   UNL     1      28.088  57.583  -9.138  1.00  0.00     0.075 C 
ATOM      8  O   UNL     1      28.039  56.523  -9.819  1.00  0.00    -0.545 OA
ATOM      9  O   UNL     1      27.490  58.729  -9.650  1.00  0.00    -0.545 OA
ENDBRANCH   1   7
BRANCH   2  10
ATOM     10  O   UNL     1      29.705  59.820  -8.215  1.00  0.00    -0.507 OA
ATOM     11  H   UNL     1      30.273  60.612  -7.933  1.00  0.00     0.293 HD
ENDBRANCH   2  10
TORSDOF 2
ENDMDL
MODEL 3
REMARK VINA RESULT:    -5.423      1.060      2.406
REMARK INTER + INTRA:          -6.148
REMARK INTER:                  -5.900
REMARK INTRA:                  -0.248
REMARK UNBOUND:                -0.250
REMARK SMILES O=C([O-])c1ccccc1O
REMARK SMILES IDX 4 1 9 2 5 3 8 4 6 5 7 6 2 7 1 8 3 9 10 10
REMARK H PARENT 10 11
REMARK Flexibility Score: inf
ROOT
ATOM      1  C   UNL     1      29.081  57.563  -7.171  1.00  0.00     0.039 A 
ATOM      2  C   UNL     1      28.359  56.814  -8.131  1.00  0.00     0.124 A 
ATOM      3  C   UNL     1      29.417  58.900  -7.466  1.00  0.00     0.014 A 
ATOM      4  C   UNL     1      27.993  57.408  -9.349  1.00  0.00     0.047 A 
ATOM      5  C   UNL     1      29.045  59.477  -8.682  1.00  0.00     0.001 A 
ATOM      6  C   UNL     1      28.334  58.733  -9.623  1.00  0.00     0.004 A 
ENDROOT
BRANCH   1   7
ATOM      7  C   UNL     1      29.489  56.976  -5.869  1.00  0.00     0.075 C 
ATOM      8  O   UNL     1      28.673  56.290  -5.196  1.00  0.00    -0.545 OA
ATOM      9  O   UNL     1      30.771  57.166  -5.366  1.00  0.00    -0.545 OA
ENDBRANCH   1   7
BRANCH   2  10
ATOM     10  O   UNL     1      28.005  55.489  -7.883  1.00  0.00    -0.507 OA
ATOM     11  H   UNL     1      27.036  55.203  -7.800  1.00  0.00     0.293 HD
ENDBRANCH   2  10
TORSDOF 2
ENDMDL
MODEL 4
REMARK VINA RESULT:    -5.399      2.065      3.601
REMARK INTER + INTRA:          -6.122
REMARK INTER:                  -5.887
REMARK INTRA:                  -0.235
REMARK UNBOUND:                -0.250
REMARK SMILES O=C([O-])c1ccccc1O
REMARK SMILES IDX 4 1 9 2 5 3 8 4 6 5 7 6 2 7 1 8 3 9 10 10
REMARK H PARENT 10 11
REMARK Flexibility Score: inf
ROOT
ATOM      1  C   UNL     1      28.504  57.848  -8.553  1.00  0.00     0.039 A 
ATOM      2  C   UNL     1      29.248  58.523  -7.556  1.00  0.00     0.124 A 
ATOM      3  C   UNL     1      28.118  56.512  -8.325  1.00  0.00     0.014 A 
ATOM      4  C   UNL     1      29.587  57.858  -6.367  1.00  0.00     0.047 A 
ATOM      5  C   UNL     1      28.463  55.864  -7.136  1.00  0.00     0.001 A 
ATOM      6  C   UNL     1      29.195  56.535  -6.159  1.00  0.00     0.004 A 
ENDROOT
BRANCH   1   7
ATOM      7  C   UNL     1      28.123  58.512  -9.827  1.00  0.00     0.075 C 
ATOM      8  O   UNL     1      27.386  59.534  -9.816  1.00  0.00    -0.545 OA
ATOM      9  O   UNL     1      28.568  58.026 -11.051  1.00  0.00    -0.545 OA
ENDBRANCH   1   7
BRANCH   2  10
ATOM     10  O   UNL     1      29.652  59.845  -7.739  1.00  0.00    -0.507 OA
ATOM     11  H   UNL     1      29.639  60.284  -8.653  1.00  0.00     0.293 HD
ENDBRANCH   2  10
TORSDOF 2
ENDMDL
MODEL 5
REMARK VINA RESULT:    -5.361      1.276      1.775
REMARK INTER + INTRA:          -6.081
REMARK INTER:                  -5.937
REMARK INTRA:                  -0.144
REMARK UNBOUND:                -0.250
REMARK SMILES O=C([O-])c1ccccc1O
REMARK SMILES IDX 4 1 9 2 5 3 8 4 6 5 7 6 2 7 1 8 3 9 10 10
REMARK H PARENT 10 11
REMARK Flexibility Score: inf
ROOT
ATOM      1  C   UNL     1      29.629  57.843  -6.356  1.00  0.00     0.039 A 
ATOM      2  C   UNL     1      29.334  58.508  -7.570  1.00  0.00     0.124 A 
ATOM      3  C   UNL     1      29.166  56.525  -6.174  1.00  0.00     0.014 A 
ATOM      4  C   UNL     1      28.592  57.851  -8.564  1.00  0.00     0.047 A 
ATOM      5  C   UNL     1      28.429  55.883  -7.172  1.00  0.00     0.001 A 
ATOM      6  C   UNL     1      28.143  56.545  -8.366  1.00  0.00     0.004 A 
ENDROOT
BRANCH   1   7
ATOM      7  C   UNL     1      30.410  58.500  -5.276  1.00  0.00     0.075 C 
ATOM      8  O   UNL     1      31.111  59.518  -5.526  1.00  0.00    -0.545 OA
ATOM      9  O   UNL     1      30.388  58.013  -3.975  1.00  0.00    -0.545 OA
ENDBRANCH   1   7
BRANCH   2  10
ATOM     10  O   UNL     1      29.771  59.813  -7.794  1.00  0.00    -0.507 OA
ATOM     11  H   UNL     1      29.835  60.201  -8.729  1.00  0.00     0.293 HD
ENDBRANCH   2  10
TORSDOF 2
ENDMDL
MODEL 6
REMARK VINA RESULT:    -5.199      1.237      2.608
REMARK INTER + INTRA:          -5.905
REMARK INTER:                  -5.700
REMARK INTRA:                  -0.205
REMARK UNBOUND:                -0.250
REMARK SMILES O=C([O-])c1ccccc1O
REMARK SMILES IDX 4 1 9 2 5 3 8 4 6 5 7 6 2 7 1 8 3 9 10 10
REMARK H PARENT 10 11
REMARK Flexibility Score: inf
ROOT
ATOM      1  C   UNL     1      29.703  57.882  -6.275  1.00  0.00     0.039 A 
ATOM      2  C   UNL     1      29.145  56.590  -6.122  1.00  0.00     0.124 A 
ATOM      3  C   UNL     1      29.479  58.580  -7.478  1.00  0.00     0.014 A 
ATOM      4  C   UNL     1      28.386  56.030  -7.161  1.00  0.00     0.047 A 
ATOM      5  C   UNL     1      28.721  58.010  -8.504  1.00  0.00     0.001 A 
ATOM      6  C   UNL     1      28.175  56.737  -8.346  1.00  0.00     0.004 A 
ENDROOT
BRANCH   1   7
ATOM      7  C   UNL     1      30.513  58.514  -5.202  1.00  0.00     0.075 C 
ATOM      8  O   UNL     1      31.315  59.447  -5.475  1.00  0.00    -0.545 OA
ATOM      9  O   UNL     1      30.407  58.096  -3.880  1.00  0.00    -0.545 OA
ENDBRANCH   1   7
BRANCH   2  10
ATOM     10  O   UNL     1      29.341  55.862  -4.949  1.00  0.00    -0.507 OA
ATOM     11  H   UNL     1      28.636  55.827  -4.220  1.00  0.00     0.293 HD
ENDBRANCH   2  10
TORSDOF 2
ENDMDL
MODEL 7
REMARK VINA RESULT:    -5.111      2.035      4.019
REMARK INTER + INTRA:          -5.809
REMARK INTER:                  -5.592
REMARK INTRA:                  -0.217
REMARK UNBOUND:                -0.250
REMARK SMILES O=C([O-])c1ccccc1O
REMARK SMILES IDX 4 1 9 2 5 3 8 4 6 5 7 6 2 7 1 8 3 9 10 10
REMARK H PARENT 10 11
REMARK Flexibility Score: inf
ROOT
ATOM      1  C   UNL     1      29.286  57.943  -7.231  1.00  0.00     0.039 A 
ATOM      2  C   UNL     1      29.185  56.853  -6.334  1.00  0.00     0.124 A 
ATOM      3  C   UNL     1      30.107  59.034  -6.884  1.00  0.00     0.014 A 
ATOM      4  C   UNL     1      29.897  56.875  -5.125  1.00  0.00     0.047 A 
ATOM      5  C   UNL     1      30.811  59.041  -5.677  1.00  0.00     0.001 A 
ATOM      6  C   UNL     1      30.706  57.964  -4.799  1.00  0.00     0.004 A 
ENDROOT
BRANCH   1   7
ATOM      7  C   UNL     1      28.550  57.963  -8.522  1.00  0.00     0.075 C 
ATOM      8  O   UNL     1      28.276  59.059  -9.082  1.00  0.00    -0.545 OA
ATOM      9  O   UNL     1      28.149  56.784  -9.139  1.00  0.00    -0.545 OA
ENDBRANCH   1   7
BRANCH   2  10
ATOM     10  O   UNL     1      28.383  55.752  -6.636  1.00  0.00    -0.507 OA
ATOM     11  H   UNL     1      28.655  55.072  -7.338  1.00  0.00     0.293 HD
ENDBRANCH   2  10
TORSDOF 2
ENDMDL
MODEL 8
REMARK VINA RESULT:    -5.092      2.635      4.149
REMARK INTER + INTRA:          -5.789
REMARK INTER:                  -5.557
REMARK INTRA:                  -0.232
REMARK UNBOUND:                -0.250
REMARK SMILES O=C([O-])c1ccccc1O
REMARK SMILES IDX 4 1 9 2 5 3 8 4 6 5 7 6 2 7 1 8 3 9 10 10
REMARK H PARENT 10 11
REMARK Flexibility Score: inf
ROOT
ATOM      1  C   UNL     1      28.706  58.281  -8.625  1.00  0.00     0.039 A 
ATOM      2  C   UNL     1      28.211  56.957  -8.687  1.00  0.00     0.124 A 
ATOM      3  C   UNL     1      29.359  58.709  -7.452  1.00  0.00     0.014 A 
ATOM      4  C   UNL     1      28.376  56.098  -7.589  1.00  0.00     0.047 A 
ATOM      5  C   UNL     1      29.516  57.842  -6.367  1.00  0.00     0.001 A 
ATOM      6  C   UNL     1      29.025  56.539  -6.435  1.00  0.00     0.004 A 
ENDROOT
BRANCH   1   7
ATOM      7  C   UNL     1      28.554  59.225  -9.763  1.00  0.00     0.075 C 
ATOM      8  O   UNL     1      28.448  60.463  -9.553  1.00  0.00    -0.545 OA
ATOM      9  O   UNL     1      28.526  58.769 -11.076  1.00  0.00    -0.545 OA
ENDBRANCH   1   7
BRANCH   2  10
ATOM     10  O   UNL     1      27.558  56.491  -9.827  1.00  0.00    -0.507 OA
ATOM     11  H   UNL     1      26.619  56.791 -10.064  1.00  0.00     0.293 HD
ENDBRANCH   2  10
TORSDOF 2
ENDMDL
MODEL 9
REMARK VINA RESULT:    -4.693     18.372     19.458
REMARK INTER + INTRA:          -5.355
REMARK INTER:                  -5.125
REMARK INTRA:                  -0.229
REMARK UNBOUND:                -0.250
REMARK SMILES O=C([O-])c1ccccc1O
REMARK SMILES IDX 4 1 9 2 5 3 8 4 6 5 7 6 2 7 1 8 3 9 10 10
REMARK H PARENT 10 11
REMARK Flexibility Score: inf
ROOT
ATOM      1  C   UNL     1      39.429  64.753   6.823  1.00  0.00     0.039 A 
ATOM      2  C   UNL     1      39.360  64.624   8.231  1.00  0.00     0.124 A 
ATOM      3  C   UNL     1      40.289  63.898   6.104  1.00  0.00     0.014 A 
ATOM      4  C   UNL     1      40.142  63.657   8.883  1.00  0.00     0.047 A 
ATOM      5  C   UNL     1      41.060  62.940   6.767  1.00  0.00     0.001 A 
ATOM      6  C   UNL     1      40.987  62.819   8.154  1.00  0.00     0.004 A 
ENDROOT
BRANCH   1   7
ATOM      7  C   UNL     1      38.621  65.762   6.091  1.00  0.00     0.075 C 
ATOM      8  O   UNL     1      39.040  66.250   5.007  1.00  0.00    -0.545 OA
ATOM      9  O   UNL     1      37.391  66.188   6.579  1.00  0.00    -0.545 OA
ENDBRANCH   1   7
BRANCH   2  10
ATOM     10  O   UNL     1      38.524  65.447   8.983  1.00  0.00    -0.507 OA
ATOM     11  H   UNL     1      37.742  65.074   9.511  1.00  0.00     0.293 HD
ENDBRANCH   2  10
TORSDOF 2
ENDMDL
