MODEL 1
REMARK VINA RESULT:    -6.249      0.000      0.000
REMARK INTER + INTRA:         -11.320
REMARK INTER:                  -8.624
REMARK INTRA:                  -2.696
REMARK UNBOUND:                -2.696
REMARK SMILES CC[C@@H](CC[C@H](C)[C@@H]1CC[C@H]2C3=CC[C@@H]4C[C@@H](O)CC[C@]4(C)[C@@H]3CC[C@@]21C)C(C)C
REMARK SMILES IDX 5 1 4 2 3 3 2 4 1 5 28 6 29 7 30 8 6 9 7 10 8 11 9 12 26 13
REMARK SMILES IDX 10 14 11 15 25 16 27 17 12 18 24 19 23 20 13 21 21 22 14 23
REMARK SMILES IDX 15 24 20 25 22 26 16 27 19 28 17 29 18 30
REMARK H PARENT 18 31
REMARK Flexibility Score: inf
ROOT
ATOM      1  C   UNL     1     147.369 140.825 141.964  1.00  0.00     0.004 C 
ENDROOT
BRANCH   1   2
ATOM      2  C   UNL     1     147.306 139.335 142.353  1.00  0.00     0.004 C 
BRANCH   2   3
ATOM      3  C   UNL     1     145.901 138.677 142.207  1.00  0.00    -0.009 C 
BRANCH   3   4
ATOM      4  C   UNL     1     144.964 139.010 143.403  1.00  0.00     0.000 C 
ATOM      5  C   UNL     1     143.515 138.551 143.217  1.00  0.00     0.004 C 
ENDBRANCH   3   4
BRANCH   3   6
ATOM      6  C   UNL     1     145.963 137.129 141.944  1.00  0.00    -0.014 C 
ATOM      7  C   UNL     1     147.409 136.594 141.938  1.00  0.00     0.007 C 
ATOM      8  C   UNL     1     145.294 136.746 140.610  1.00  0.00     0.007 C 
ENDBRANCH   3   6
ENDBRANCH   2   3
ENDBRANCH   1   2
BRANCH   1   9
ATOM      9  C   UNL     1     148.742 141.191 141.295  1.00  0.00    -0.011 C 
ATOM     10  C   UNL     1     149.116 142.628 141.729  1.00  0.00     0.008 C 
BRANCH   9  11
ATOM     11  C   UNL     1     148.692 141.029 139.729  1.00  0.00    -0.002 C 
ATOM     12  C   UNL     1     147.265 141.303 139.159  1.00  0.00     0.005 C 
ATOM     13  C   UNL     1     149.077 139.634 139.088  1.00  0.00    -0.023 C 
ATOM     14  C   UNL     1     146.870 140.122 138.286  1.00  0.00     0.009 C 
ATOM     15  C   UNL     1     147.709 138.985 138.843  1.00  0.00     0.021 C 
ATOM     16  C   UNL     1     149.877 138.634 139.952  1.00  0.00     0.008 C 
ATOM     17  C   UNL     1     149.856 139.917 137.750  1.00  0.00     0.012 C 
ATOM     18  C   UNL     1     147.800 137.702 138.031  1.00  0.00    -0.067 C 
ATOM     19  C   UNL     1     149.972 137.200 139.361  1.00  0.00     0.009 C 
ATOM     20  C   UNL     1     149.054 136.846 138.139  1.00  0.00     0.021 C 
ATOM     21  C   UNL     1     146.787 137.326 137.229  1.00  0.00    -0.027 C 
ATOM     22  C   UNL     1     148.755 135.308 137.979  1.00  0.00    -0.023 C 
ATOM     23  C   UNL     1     146.749 136.037 136.457  1.00  0.00     0.031 C 
ATOM     24  C   UNL     1     147.981 135.101 136.631  1.00  0.00     0.002 C 
ATOM     25  C   UNL     1     147.899 134.739 139.155  1.00  0.00     0.010 C 
ATOM     26  C   UNL     1     150.125 134.564 137.914  1.00  0.00     0.012 C 
ATOM     27  C   UNL     1     147.552 133.626 136.411  1.00  0.00     0.036 C 
ATOM     28  C   UNL     1     147.520 133.264 138.947  1.00  0.00     0.032 C 
ATOM     29  C   UNL     1     146.779 133.040 137.618  1.00  0.00     0.114 C 
BRANCH  29  30
ATOM     30  O   UNL     1     146.533 131.670 137.421  1.00  0.00    -0.393 OA
ATOM     31  H   UNL     1     146.916 131.415 136.540  1.00  0.00     0.210 HD
ENDBRANCH  29  30
ENDBRANCH   9  11
ENDBRANCH   1   9
TORSDOF 7
ENDMDL
MODEL 2
REMARK VINA RESULT:    -6.224      1.740      3.799
REMARK INTER + INTRA:         -11.285
REMARK INTER:                  -8.401
REMARK INTRA:                  -2.884
REMARK UNBOUND:                -2.696
REMARK SMILES CC[C@@H](CC[C@H](C)[C@@H]1CC[C@H]2C3=CC[C@@H]4C[C@@H](O)CC[C@]4(C)[C@@H]3CC[C@@]21C)C(C)C
REMARK SMILES IDX 5 1 4 2 3 3 2 4 1 5 28 6 29 7 30 8 6 9 7 10 8 11 9 12 26 13
REMARK SMILES IDX 10 14 11 15 25 16 27 17 12 18 24 19 23 20 13 21 21 22 14 23
REMARK SMILES IDX 15 24 20 25 22 26 16 27 19 28 17 29 18 30
REMARK H PARENT 18 31
REMARK Flexibility Score: inf
ROOT
ATOM      1  C   UNL     1     147.402 141.575 138.299  1.00  0.00     0.004 C 
ENDROOT
BRANCH   1   2
ATOM      2  C   UNL     1     146.075 141.003 137.763  1.00  0.00     0.004 C 
BRANCH   2   3
ATOM      3  C   UNL     1     145.935 139.455 137.873  1.00  0.00    -0.009 C 
BRANCH   3   4
ATOM      4  C   UNL     1     146.768 138.707 136.792  1.00  0.00     0.000 C 
ATOM      5  C   UNL     1     146.708 137.181 136.894  1.00  0.00     0.004 C 
ENDBRANCH   3   4
BRANCH   3   6
ATOM      6  C   UNL     1     144.442 138.965 137.884  1.00  0.00    -0.014 C 
ATOM      7  C   UNL     1     143.448 140.110 137.614  1.00  0.00     0.007 C 
ATOM      8  C   UNL     1     144.067 138.296 139.221  1.00  0.00     0.007 C 
ENDBRANCH   3   6
ENDBRANCH   2   3
ENDBRANCH   1   2
BRANCH   1   9
ATOM      9  C   UNL     1     147.517 141.405 139.856  1.00  0.00    -0.011 C 
ATOM     10  C   UNL     1     147.494 142.815 140.492  1.00  0.00     0.008 C 
BRANCH   9  11
ATOM     11  C   UNL     1     148.797 140.582 140.264  1.00  0.00    -0.002 C 
ATOM     12  C   UNL     1     149.790 140.420 139.070  1.00  0.00     0.005 C 
ATOM     13  C   UNL     1     148.622 139.103 140.795  1.00  0.00    -0.023 C 
ATOM     14  C   UNL     1     150.118 138.942 138.927  1.00  0.00     0.009 C 
ATOM     15  C   UNL     1     148.912 138.259 139.547  1.00  0.00     0.021 C 
ATOM     16  C   UNL     1     147.225 138.669 141.290  1.00  0.00     0.008 C 
ATOM     17  C   UNL     1     149.682 138.871 141.935  1.00  0.00     0.012 C 
ATOM     18  C   UNL     1     149.012 136.771 139.849  1.00  0.00    -0.067 C 
ATOM     19  C   UNL     1     147.068 137.141 141.529  1.00  0.00     0.009 C 
ATOM     20  C   UNL     1     148.202 136.194 141.003  1.00  0.00     0.021 C 
ATOM     21  C   UNL     1     149.803 135.974 139.108  1.00  0.00    -0.027 C 
ATOM     22  C   UNL     1     147.738 134.714 140.737  1.00  0.00    -0.023 C 
ATOM     23  C   UNL     1     149.902 134.484 139.275  1.00  0.00     0.031 C 
ATOM     24  C   UNL     1     149.006 133.860 140.387  1.00  0.00     0.002 C 
ATOM     25  C   UNL     1     146.710 134.610 139.565  1.00  0.00     0.010 C 
ATOM     26  C   UNL     1     147.095 134.176 142.052  1.00  0.00     0.012 C 
ATOM     27  C   UNL     1     148.654 132.396 140.015  1.00  0.00     0.036 C 
ATOM     28  C   UNL     1     146.335 133.156 139.238  1.00  0.00     0.032 C 
ATOM     29  C   UNL     1     147.571 132.300 138.914  1.00  0.00     0.114 C 
BRANCH  29  30
ATOM     30  O   UNL     1     147.197 130.959 138.713  1.00  0.00    -0.393 OA
ATOM     31  H   UNL     1     147.910 130.383 139.096  1.00  0.00     0.210 HD
ENDBRANCH  29  30
ENDBRANCH   9  11
ENDBRANCH   1   9
TORSDOF 7
ENDMDL
MODEL 3
REMARK VINA RESULT:    -6.190      2.746      6.539
REMARK INTER + INTRA:         -11.237
REMARK INTER:                  -8.252
REMARK INTRA:                  -2.985
REMARK UNBOUND:                -2.696
REMARK SMILES CC[C@@H](CC[C@H](C)[C@@H]1CC[C@H]2C3=CC[C@@H]4C[C@@H](O)CC[C@]4(C)[C@@H]3CC[C@@]21C)C(C)C
REMARK SMILES IDX 5 1 4 2 3 3 2 4 1 5 28 6 29 7 30 8 6 9 7 10 8 11 9 12 26 13
REMARK SMILES IDX 10 14 11 15 25 16 27 17 12 18 24 19 23 20 13 21 21 22 14 23
REMARK SMILES IDX 15 24 20 25 22 26 16 27 19 28 17 29 18 30
REMARK H PARENT 18 31
REMARK Flexibility Score: inf
ROOT
ATOM      1  C   UNL     1     145.417 134.137 138.066  1.00  0.00     0.004 C 
ENDROOT
BRANCH   1   2
ATOM      2  C   UNL     1     144.973 135.496 137.492  1.00  0.00     0.004 C 
BRANCH   2   3
ATOM      3  C   UNL     1     145.030 136.684 138.499  1.00  0.00    -0.009 C 
BRANCH   3   4
ATOM      4  C   UNL     1     143.902 136.608 139.568  1.00  0.00     0.000 C 
ATOM      5  C   UNL     1     144.346 136.991 140.982  1.00  0.00     0.004 C 
ENDBRANCH   3   4
BRANCH   3   6
ATOM      6  C   UNL     1     145.061 138.091 137.801  1.00  0.00    -0.014 C 
ATOM      7  C   UNL     1     143.677 138.767 137.785  1.00  0.00     0.007 C 
ATOM      8  C   UNL     1     145.579 138.002 136.353  1.00  0.00     0.007 C 
ENDBRANCH   3   6
ENDBRANCH   2   3
ENDBRANCH   1   2
BRANCH   1   9
ATOM      9  C   UNL     1     146.871 133.762 137.606  1.00  0.00    -0.011 C 
ATOM     10  C   UNL     1     146.855 132.293 137.122  1.00  0.00     0.008 C 
BRANCH   9  11
ATOM     11  C   UNL     1     147.928 134.007 138.749  1.00  0.00    -0.002 C 
ATOM     12  C   UNL     1     147.312 133.802 140.168  1.00  0.00     0.005 C 
ATOM     13  C   UNL     1     148.628 135.422 138.856  1.00  0.00    -0.023 C 
ATOM     14  C   UNL     1     147.620 135.039 140.998  1.00  0.00     0.009 C 
ATOM     15  C   UNL     1     147.811 136.121 139.951  1.00  0.00     0.021 C 
ATOM     16  C   UNL     1     148.579 136.353 137.625  1.00  0.00     0.008 C 
ATOM     17  C   UNL     1     150.125 135.188 139.282  1.00  0.00     0.012 C 
ATOM     18  C   UNL     1     148.422 137.441 140.393  1.00  0.00    -0.067 C 
ATOM     19  C   UNL     1     149.036 137.813 137.899  1.00  0.00     0.009 C 
ATOM     20  C   UNL     1     149.229 138.256 139.391  1.00  0.00     0.021 C 
ATOM     21  C   UNL     1     148.252 137.887 141.652  1.00  0.00    -0.027 C 
ATOM     22  C   UNL     1     149.101 139.807 139.627  1.00  0.00    -0.023 C 
ATOM     23  C   UNL     1     148.744 139.215 142.155  1.00  0.00     0.031 C 
ATOM     24  C   UNL     1     149.487 140.107 141.117  1.00  0.00     0.002 C 
ATOM     25  C   UNL     1     147.657 140.337 139.354  1.00  0.00     0.010 C 
ATOM     26  C   UNL     1     150.113 140.515 138.674  1.00  0.00     0.012 C 
ATOM     27  C   UNL     1     149.309 141.602 141.490  1.00  0.00     0.036 C 
ATOM     28  C   UNL     1     147.507 141.832 139.684  1.00  0.00     0.032 C 
ATOM     29  C   UNL     1     147.903 142.145 141.136  1.00  0.00     0.114 C 
BRANCH  29  30
ATOM     30  O   UNL     1     147.842 143.530 141.370  1.00  0.00    -0.393 OA
ATOM     31  H   UNL     1     148.578 143.767 141.994  1.00  0.00     0.210 HD
ENDBRANCH  29  30
ENDBRANCH   9  11
ENDBRANCH   1   9
TORSDOF 7
ENDMDL
MODEL 4
REMARK VINA RESULT:    -6.158      1.743      3.880
REMARK INTER + INTRA:         -11.194
REMARK INTER:                  -8.341
REMARK INTRA:                  -2.853
REMARK UNBOUND:                -2.696
REMARK SMILES CC[C@@H](CC[C@H](C)[C@@H]1CC[C@H]2C3=CC[C@@H]4C[C@@H](O)CC[C@]4(C)[C@@H]3CC[C@@]21C)C(C)C
REMARK SMILES IDX 5 1 4 2 3 3 2 4 1 5 28 6 29 7 30 8 6 9 7 10 8 11 9 12 26 13
REMARK SMILES IDX 10 14 11 15 25 16 27 17 12 18 24 19 23 20 13 21 21 22 14 23
REMARK SMILES IDX 15 24 20 25 22 26 16 27 19 28 17 29 18 30
REMARK H PARENT 18 31
REMARK Flexibility Score: inf
ROOT
ATOM      1  C   UNL     1     147.683 141.712 138.482  1.00  0.00     0.004 C 
ENDROOT
BRANCH   1   2
ATOM      2  C   UNL     1     146.317 141.118 138.089  1.00  0.00     0.004 C 
BRANCH   2   3
ATOM      3  C   UNL     1     146.385 139.894 137.125  1.00  0.00    -0.009 C 
BRANCH   3   4
ATOM      4  C   UNL     1     145.380 140.014 135.944  1.00  0.00     0.000 C 
ATOM      5  C   UNL     1     144.330 141.114 136.118  1.00  0.00     0.004 C 
ENDBRANCH   3   4
BRANCH   3   6
ATOM      6  C   UNL     1     146.239 138.514 137.861  1.00  0.00    -0.014 C 
ATOM      7  C   UNL     1     146.336 137.321 136.891  1.00  0.00     0.007 C 
ATOM      8  C   UNL     1     144.908 138.412 138.630  1.00  0.00     0.007 C 
ENDBRANCH   3   6
ENDBRANCH   2   3
ENDBRANCH   1   2
BRANCH   1   9
ATOM      9  C   UNL     1     147.895 141.693 140.038  1.00  0.00    -0.011 C 
ATOM     10  C   UNL     1     148.163 143.144 140.501  1.00  0.00     0.008 C 
BRANCH   9  11
ATOM     11  C   UNL     1     149.048 140.704 140.460  1.00  0.00    -0.002 C 
ATOM     12  C   UNL     1     150.006 140.385 139.270  1.00  0.00     0.005 C 
ATOM     13  C   UNL     1     148.667 139.273 141.015  1.00  0.00    -0.023 C 
ATOM     14  C   UNL     1     150.123 138.873 139.151  1.00  0.00     0.009 C 
ATOM     15  C   UNL     1     148.834 138.376 139.781  1.00  0.00     0.021 C 
ATOM     16  C   UNL     1     147.224 139.048 141.516  1.00  0.00     0.008 C 
ATOM     17  C   UNL     1     149.686 138.913 142.160  1.00  0.00     0.012 C 
ATOM     18  C   UNL     1     148.724 136.895 140.108  1.00  0.00    -0.067 C 
ATOM     19  C   UNL     1     146.854 137.562 141.780  1.00  0.00     0.009 C 
ATOM     20  C   UNL     1     147.843 136.456 141.270  1.00  0.00     0.021 C 
ATOM     21  C   UNL     1     149.394 135.982 139.380  1.00  0.00    -0.027 C 
ATOM     22  C   UNL     1     147.175 135.051 141.028  1.00  0.00    -0.023 C 
ATOM     23  C   UNL     1     149.283 134.496 139.572  1.00  0.00     0.031 C 
ATOM     24  C   UNL     1     148.310 134.023 140.692  1.00  0.00     0.002 C 
ATOM     25  C   UNL     1     146.140 135.074 139.857  1.00  0.00     0.010 C 
ATOM     26  C   UNL     1     146.464 134.631 142.351  1.00  0.00     0.012 C 
ATOM     27  C   UNL     1     147.755 132.616 140.345  1.00  0.00     0.036 C 
ATOM     28  C   UNL     1     145.564 133.682 139.553  1.00  0.00     0.032 C 
ATOM     29  C   UNL     1     146.667 132.656 139.244  1.00  0.00     0.114 C 
BRANCH  29  30
ATOM     30  O   UNL     1     146.109 131.378 139.064  1.00  0.00    -0.393 OA
ATOM     31  H   UNL     1     145.591 131.154 139.882  1.00  0.00     0.210 HD
ENDBRANCH  29  30
ENDBRANCH   9  11
ENDBRANCH   1   9
TORSDOF 7
ENDMDL
MODEL 5
REMARK VINA RESULT:    -5.994      2.884      6.341
REMARK INTER + INTRA:         -10.967
REMARK INTER:                  -7.984
REMARK INTRA:                  -2.983
REMARK UNBOUND:                -2.696
REMARK SMILES CC[C@@H](CC[C@H](C)[C@@H]1CC[C@H]2C3=CC[C@@H]4C[C@@H](O)CC[C@]4(C)[C@@H]3CC[C@@]21C)C(C)C
REMARK SMILES IDX 5 1 4 2 3 3 2 4 1 5 28 6 29 7 30 8 6 9 7 10 8 11 9 12 26 13
REMARK SMILES IDX 10 14 11 15 25 16 27 17 12 18 24 19 23 20 13 21 21 22 14 23
REMARK SMILES IDX 15 24 20 25 22 26 16 27 19 28 17 29 18 30
REMARK H PARENT 18 31
REMARK Flexibility Score: inf
ROOT
ATOM      1  C   UNL     1     143.698 134.887 141.376  1.00  0.00     0.004 C 
ENDROOT
BRANCH   1   2
ATOM      2  C   UNL     1     143.035 135.846 140.368  1.00  0.00     0.004 C 
BRANCH   2   3
ATOM      3  C   UNL     1     143.120 137.356 140.745  1.00  0.00    -0.009 C 
BRANCH   3   4
ATOM      4  C   UNL     1     144.244 138.098 139.967  1.00  0.00     0.000 C 
ATOM      5  C   UNL     1     143.829 138.594 138.579  1.00  0.00     0.004 C 
ENDBRANCH   3   4
BRANCH   3   6
ATOM      6  C   UNL     1     143.236 137.606 142.292  1.00  0.00    -0.014 C 
ATOM      7  C   UNL     1     141.977 138.278 142.873  1.00  0.00     0.007 C 
ATOM      8  C   UNL     1     144.460 138.475 142.643  1.00  0.00     0.007 C 
ENDBRANCH   3   6
ENDBRANCH   2   3
ENDBRANCH   1   2
BRANCH   1   9
ATOM      9  C   UNL     1     144.692 133.899 140.667  1.00  0.00    -0.011 C 
ATOM     10  C   UNL     1     144.189 132.457 140.916  1.00  0.00     0.008 C 
BRANCH   9  11
ATOM     11  C   UNL     1     146.175 134.112 141.152  1.00  0.00    -0.002 C 
ATOM     12  C   UNL     1     146.243 134.549 142.649  1.00  0.00     0.005 C 
ATOM     13  C   UNL     1     147.077 135.186 140.419  1.00  0.00    -0.023 C 
ATOM     14  C   UNL     1     147.098 135.804 142.736  1.00  0.00     0.009 C 
ATOM     15  C   UNL     1     146.975 136.403 141.347  1.00  0.00     0.021 C 
ATOM     16  C   UNL     1     146.634 135.674 139.022  1.00  0.00     0.008 C 
ATOM     17  C   UNL     1     148.540 134.613 140.339  1.00  0.00     0.012 C 
ATOM     18  C   UNL     1     147.933 137.520 140.964  1.00  0.00    -0.067 C 
ATOM     19  C   UNL     1     147.405 136.916 138.496  1.00  0.00     0.009 C 
ATOM     20  C   UNL     1     148.324 137.692 139.503  1.00  0.00     0.021 C 
ATOM     21  C   UNL     1     148.430 138.348 141.903  1.00  0.00    -0.027 C 
ATOM     22  C   UNL     1     148.582 139.196 139.116  1.00  0.00    -0.023 C 
ATOM     23  C   UNL     1     149.313 139.528 141.612  1.00  0.00     0.031 C 
ATOM     24  C   UNL     1     149.645 139.779 140.111  1.00  0.00     0.002 C 
ATOM     25  C   UNL     1     147.284 140.063 139.185  1.00  0.00     0.010 C 
ATOM     26  C   UNL     1     149.157 139.220 137.666  1.00  0.00     0.012 C 
ATOM     27  C   UNL     1     149.911 141.290 139.880  1.00  0.00     0.036 C 
ATOM     28  C   UNL     1     147.555 141.551 138.909  1.00  0.00     0.032 C 
ATOM     29  C   UNL     1     148.612 142.132 139.862  1.00  0.00     0.114 C 
BRANCH  29  30
ATOM     30  O   UNL     1     148.899 143.465 139.518  1.00  0.00    -0.393 OA
ATOM     31  H   UNL     1     149.305 143.465 138.611  1.00  0.00     0.210 HD
ENDBRANCH  29  30
ENDBRANCH   9  11
ENDBRANCH   1   9
TORSDOF 7
ENDMDL
MODEL 6
REMARK VINA RESULT:    -5.968      3.376      6.964
REMARK INTER + INTRA:         -10.932
REMARK INTER:                  -8.025
REMARK INTRA:                  -2.907
REMARK UNBOUND:                -2.696
REMARK SMILES CC[C@@H](CC[C@H](C)[C@@H]1CC[C@H]2C3=CC[C@@H]4C[C@@H](O)CC[C@]4(C)[C@@H]3CC[C@@]21C)C(C)C
REMARK SMILES IDX 5 1 4 2 3 3 2 4 1 5 28 6 29 7 30 8 6 9 7 10 8 11 9 12 26 13
REMARK SMILES IDX 10 14 11 15 25 16 27 17 12 18 24 19 23 20 13 21 21 22 14 23
REMARK SMILES IDX 15 24 20 25 22 26 16 27 19 28 17 29 18 30
REMARK H PARENT 18 31
REMARK Flexibility Score: inf
ROOT
ATOM      1  C   UNL     1     141.728 136.243 140.918  1.00  0.00     0.004 C 
ENDROOT
BRANCH   1   2
ATOM      2  C   UNL     1     141.645 137.425 139.934  1.00  0.00     0.004 C 
BRANCH   2   3
ATOM      3  C   UNL     1     142.780 137.473 138.867  1.00  0.00    -0.009 C 
BRANCH   3   4
ATOM      4  C   UNL     1     143.450 138.875 138.779  1.00  0.00     0.000 C 
ATOM      5  C   UNL     1     144.624 138.952 137.798  1.00  0.00     0.004 C 
ENDBRANCH   3   4
BRANCH   3   6
ATOM      6  C   UNL     1     142.325 136.968 137.451  1.00  0.00    -0.014 C 
ATOM      7  C   UNL     1     140.792 136.978 137.291  1.00  0.00     0.007 C 
ATOM      8  C   UNL     1     142.838 135.545 137.157  1.00  0.00     0.007 C 
ENDBRANCH   3   6
ENDBRANCH   2   3
ENDBRANCH   1   2
BRANCH   1   9
ATOM      9  C   UNL     1     143.117 135.514 140.830  1.00  0.00    -0.011 C 
ATOM     10  C   UNL     1     142.852 133.992 140.742  1.00  0.00     0.008 C 
BRANCH   9  11
ATOM     11  C   UNL     1     144.055 135.892 142.038  1.00  0.00    -0.002 C 
ATOM     12  C   UNL     1     143.359 136.874 143.032  1.00  0.00     0.005 C 
ATOM     13  C   UNL     1     145.441 136.596 141.742  1.00  0.00    -0.023 C 
ATOM     14  C   UNL     1     144.284 138.062 143.247  1.00  0.00     0.009 C 
ATOM     15  C   UNL     1     145.126 138.078 141.984  1.00  0.00     0.021 C 
ATOM     16  C   UNL     1     146.010 136.508 140.309  1.00  0.00     0.008 C 
ATOM     17  C   UNL     1     146.496 136.033 142.764  1.00  0.00     0.012 C 
ATOM     18  C   UNL     1     146.367 138.958 141.965  1.00  0.00    -0.067 C 
ATOM     19  C   UNL     1     147.216 137.448 140.032  1.00  0.00     0.009 C 
ATOM     20  C   UNL     1     147.550 138.550 141.097  1.00  0.00     0.021 C 
ATOM     21  C   UNL     1     146.420 140.082 142.704  1.00  0.00    -0.027 C 
ATOM     22  C   UNL     1     148.337 139.787 140.524  1.00  0.00    -0.023 C 
ATOM     23  C   UNL     1     147.565 141.055 142.685  1.00  0.00     0.031 C 
ATOM     24  C   UNL     1     148.743 140.706 141.728  1.00  0.00     0.002 C 
ATOM     25  C   UNL     1     147.489 140.618 139.508  1.00  0.00     0.010 C 
ATOM     26  C   UNL     1     149.621 139.247 139.823  1.00  0.00     0.012 C 
ATOM     27  C   UNL     1     149.450 142.009 141.271  1.00  0.00     0.036 C 
ATOM     28  C   UNL     1     148.219 141.882 139.028  1.00  0.00     0.032 C 
ATOM     29  C   UNL     1     148.645 142.783 140.199  1.00  0.00     0.114 C 
BRANCH  29  30
ATOM     30  O   UNL     1     149.389 143.879 139.726  1.00  0.00    -0.393 OA
ATOM     31  H   UNL     1     149.851 143.597 138.893  1.00  0.00     0.210 HD
ENDBRANCH  29  30
ENDBRANCH   9  11
ENDBRANCH   1   9
TORSDOF 7
ENDMDL
MODEL 7
REMARK VINA RESULT:    -5.921      3.322      7.065
REMARK INTER + INTRA:         -10.867
REMARK INTER:                  -8.083
REMARK INTRA:                  -2.784
REMARK UNBOUND:                -2.696
REMARK SMILES CC[C@@H](CC[C@H](C)[C@@H]1CC[C@H]2C3=CC[C@@H]4C[C@@H](O)CC[C@]4(C)[C@@H]3CC[C@@]21C)C(C)C
REMARK SMILES IDX 5 1 4 2 3 3 2 4 1 5 28 6 29 7 30 8 6 9 7 10 8 11 9 12 26 13
REMARK SMILES IDX 10 14 11 15 25 16 27 17 12 18 24 19 23 20 13 21 21 22 14 23
REMARK SMILES IDX 15 24 20 25 22 26 16 27 19 28 17 29 18 30
REMARK H PARENT 18 31
REMARK Flexibility Score: inf
ROOT
ATOM      1  C   UNL     1     141.548 135.190 141.886  1.00  0.00     0.004 C 
ENDROOT
BRANCH   1   2
ATOM      2  C   UNL     1     141.366 136.001 140.589  1.00  0.00     0.004 C 
BRANCH   2   3
ATOM      3  C   UNL     1     141.004 137.503 140.800  1.00  0.00    -0.009 C 
BRANCH   3   4
ATOM      4  C   UNL     1     142.222 138.443 140.566  1.00  0.00     0.000 C 
ATOM      5  C   UNL     1     143.155 137.997 139.437  1.00  0.00     0.004 C 
ENDBRANCH   3   4
BRANCH   3   6
ATOM      6  C   UNL     1     140.319 137.790 142.184  1.00  0.00    -0.014 C 
ATOM      7  C   UNL     1     138.782 137.838 142.077  1.00  0.00     0.007 C 
ATOM      8  C   UNL     1     140.808 139.114 142.803  1.00  0.00     0.007 C 
ENDBRANCH   3   6
ENDBRANCH   2   3
ENDBRANCH   1   2
BRANCH   1   9
ATOM      9  C   UNL     1     142.954 134.491 141.939  1.00  0.00    -0.011 C 
ATOM     10  C   UNL     1     142.727 132.978 142.162  1.00  0.00     0.008 C 
BRANCH   9  11
ATOM     11  C   UNL     1     143.884 135.129 143.039  1.00  0.00    -0.002 C 
ATOM     12  C   UNL     1     143.136 136.211 143.879  1.00  0.00     0.005 C 
ATOM     13  C   UNL     1     145.209 135.869 142.590  1.00  0.00    -0.023 C 
ATOM     14  C   UNL     1     143.975 137.480 143.869  1.00  0.00     0.009 C 
ATOM     15  C   UNL     1     144.790 137.345 142.595  1.00  0.00     0.021 C 
ATOM     16  C   UNL     1     145.756 135.584 141.174  1.00  0.00     0.008 C 
ATOM     17  C   UNL     1     146.321 135.557 143.659  1.00  0.00     0.012 C 
ATOM     18  C   UNL     1     145.963 138.293 142.395  1.00  0.00    -0.067 C 
ATOM     19  C   UNL     1     146.885 136.547 140.710  1.00  0.00     0.009 C 
ATOM     20  C   UNL     1     147.156 137.830 141.570  1.00  0.00     0.021 C 
ATOM     21  C   UNL     1     145.947 139.525 142.936  1.00  0.00    -0.027 C 
ATOM     22  C   UNL     1     147.840 139.007 140.778  1.00  0.00    -0.023 C 
ATOM     23  C   UNL     1     147.017 140.559 142.724  1.00  0.00     0.031 C 
ATOM     24  C   UNL     1     148.200 140.139 141.802  1.00  0.00     0.002 C 
ATOM     25  C   UNL     1     146.914 139.597 139.666  1.00  0.00     0.010 C 
ATOM     26  C   UNL     1     149.147 138.448 140.137  1.00  0.00     0.012 C 
ATOM     27  C   UNL     1     148.800 141.394 141.116  1.00  0.00     0.036 C 
ATOM     28  C   UNL     1     147.541 140.812 138.962  1.00  0.00     0.032 C 
ATOM     29  C   UNL     1     147.921 141.922 139.956  1.00  0.00     0.114 C 
BRANCH  29  30
ATOM     30  O   UNL     1     148.574 142.973 139.288  1.00  0.00    -0.393 OA
ATOM     31  H   UNL     1     149.460 142.639 138.988  1.00  0.00     0.210 HD
ENDBRANCH  29  30
ENDBRANCH   9  11
ENDBRANCH   1   9
TORSDOF 7
ENDMDL
MODEL 8
REMARK VINA RESULT:    -5.730      3.146      6.551
REMARK INTER + INTRA:         -10.603
REMARK INTER:                  -8.277
REMARK INTRA:                  -2.327
REMARK UNBOUND:                -2.696
REMARK SMILES CC[C@@H](CC[C@H](C)[C@@H]1CC[C@H]2C3=CC[C@@H]4C[C@@H](O)CC[C@]4(C)[C@@H]3CC[C@@]21C)C(C)C
REMARK SMILES IDX 5 1 4 2 3 3 2 4 1 5 28 6 29 7 30 8 6 9 7 10 8 11 9 12 26 13
REMARK SMILES IDX 10 14 11 15 25 16 27 17 12 18 24 19 23 20 13 21 21 22 14 23
REMARK SMILES IDX 15 24 20 25 22 26 16 27 19 28 17 29 18 30
REMARK H PARENT 18 31
REMARK Flexibility Score: inf
ROOT
ATOM      1  C   UNL     1     143.326 135.050 142.224  1.00  0.00     0.004 C 
ENDROOT
BRANCH   1   2
ATOM      2  C   UNL     1     142.225 135.874 142.919  1.00  0.00     0.004 C 
BRANCH   2   3
ATOM      3  C   UNL     1     142.646 137.317 143.332  1.00  0.00    -0.009 C 
BRANCH   3   4
ATOM      4  C   UNL     1     142.182 138.386 142.301  1.00  0.00     0.000 C 
ATOM      5  C   UNL     1     140.714 138.798 142.437  1.00  0.00     0.004 C 
ENDBRANCH   3   4
BRANCH   3   6
ATOM      6  C   UNL     1     144.179 137.453 143.644  1.00  0.00    -0.014 C 
ATOM      7  C   UNL     1     144.528 136.995 145.074  1.00  0.00     0.007 C 
ATOM      8  C   UNL     1     144.677 138.899 143.458  1.00  0.00     0.007 C 
ENDBRANCH   3   6
ENDBRANCH   2   3
ENDBRANCH   1   2
BRANCH   1   9
ATOM      9  C   UNL     1     143.606 135.570 140.768  1.00  0.00    -0.011 C 
ATOM     10  C   UNL     1     142.673 134.804 139.801  1.00  0.00     0.008 C 
BRANCH   9  11
ATOM     11  C   UNL     1     145.126 135.428 140.377  1.00  0.00    -0.002 C 
ATOM     12  C   UNL     1     146.008 135.025 141.601  1.00  0.00     0.005 C 
ATOM     13  C   UNL     1     145.885 136.681 139.779  1.00  0.00    -0.023 C 
ATOM     14  C   UNL     1     147.162 136.011 141.695  1.00  0.00     0.009 C 
ATOM     15  C   UNL     1     146.619 137.247 141.001  1.00  0.00     0.021 C 
ATOM     16  C   UNL     1     145.038 137.842 139.213  1.00  0.00     0.008 C 
ATOM     17  C   UNL     1     146.875 136.161 138.672  1.00  0.00     0.012 C 
ATOM     18  C   UNL     1     147.600 138.352 140.642  1.00  0.00    -0.067 C 
ATOM     19  C   UNL     1     145.839 139.137 138.905  1.00  0.00     0.009 C 
ATOM     20  C   UNL     1     147.312 139.235 139.436  1.00  0.00     0.021 C 
ATOM     21  C   UNL     1     148.708 138.550 141.380  1.00  0.00    -0.027 C 
ATOM     22  C   UNL     1     147.836 140.708 139.622  1.00  0.00    -0.023 C 
ATOM     23  C   UNL     1     149.690 139.666 141.155  1.00  0.00     0.031 C 
ATOM     24  C   UNL     1     149.360 140.640 139.986  1.00  0.00     0.002 C 
ATOM     25  C   UNL     1     147.073 141.477 140.748  1.00  0.00     0.010 C 
ATOM     26  C   UNL     1     147.657 141.449 138.262  1.00  0.00     0.012 C 
ATOM     27  C   UNL     1     149.964 142.038 140.283  1.00  0.00     0.036 C 
ATOM     28  C   UNL     1     147.653 142.878 141.001  1.00  0.00     0.032 C 
ATOM     29  C   UNL     1     149.153 142.830 141.336  1.00  0.00     0.114 C 
BRANCH  29  30
ATOM     30  O   UNL     1     149.665 144.133 141.468  1.00  0.00    -0.393 OA
ATOM     31  H   UNL     1     148.965 144.768 141.163  1.00  0.00     0.210 HD
ENDBRANCH  29  30
ENDBRANCH   9  11
ENDBRANCH   1   9
TORSDOF 7
ENDMDL
MODEL 9
REMARK VINA RESULT:    -5.682      2.899      5.467
REMARK INTER + INTRA:         -10.537
REMARK INTER:                  -8.329
REMARK INTRA:                  -2.209
REMARK UNBOUND:                -2.696
REMARK SMILES CC[C@@H](CC[C@H](C)[C@@H]1CC[C@H]2C3=CC[C@@H]4C[C@@H](O)CC[C@]4(C)[C@@H]3CC[C@@]21C)C(C)C
REMARK SMILES IDX 5 1 4 2 3 3 2 4 1 5 28 6 29 7 30 8 6 9 7 10 8 11 9 12 26 13
REMARK SMILES IDX 10 14 11 15 25 16 27 17 12 18 24 19 23 20 13 21 21 22 14 23
REMARK SMILES IDX 15 24 20 25 22 26 16 27 19 28 17 29 18 30
REMARK H PARENT 18 31
REMARK Flexibility Score: inf
ROOT
ATOM      1  C   UNL     1     147.435 141.219 138.060  1.00  0.00     0.004 C 
ENDROOT
BRANCH   1   2
ATOM      2  C   UNL     1     148.539 141.148 139.132  1.00  0.00     0.004 C 
BRANCH   2   3
ATOM      3  C   UNL     1     148.079 140.595 140.514  1.00  0.00    -0.009 C 
BRANCH   3   4
ATOM      4  C   UNL     1     147.727 141.730 141.518  1.00  0.00     0.000 C 
ATOM      5  C   UNL     1     148.420 143.064 141.229  1.00  0.00     0.004 C 
ENDBRANCH   3   4
BRANCH   3   6
ATOM      6  C   UNL     1     149.089 139.570 141.143  1.00  0.00    -0.014 C 
ATOM      7  C   UNL     1     149.994 138.914 140.081  1.00  0.00     0.007 C 
ATOM      8  C   UNL     1     148.366 138.456 141.924  1.00  0.00     0.007 C 
ENDBRANCH   3   6
ENDBRANCH   2   3
ENDBRANCH   1   2
BRANCH   1   9
ATOM      9  C   UNL     1     147.599 140.086 136.984  1.00  0.00    -0.011 C 
ATOM     10  C   UNL     1     148.203 140.723 135.710  1.00  0.00     0.008 C 
BRANCH   9  11
ATOM     11  C   UNL     1     146.237 139.346 136.699  1.00  0.00    -0.002 C 
ATOM     12  C   UNL     1     145.027 140.332 136.696  1.00  0.00     0.005 C 
ATOM     13  C   UNL     1     145.768 138.198 137.681  1.00  0.00    -0.023 C 
ATOM     14  C   UNL     1     143.969 139.783 137.641  1.00  0.00     0.009 C 
ATOM     15  C   UNL     1     144.773 138.922 138.597  1.00  0.00     0.021 C 
ATOM     16  C   UNL     1     146.823 137.561 138.612  1.00  0.00     0.008 C 
ATOM     17  C   UNL     1     145.080 137.076 136.817  1.00  0.00     0.012 C 
ATOM     18  C   UNL     1     144.014 137.973 139.513  1.00  0.00    -0.067 C 
ATOM     19  C   UNL     1     146.237 136.651 139.727  1.00  0.00     0.009 C 
ATOM     20  C   UNL     1     144.687 136.685 139.966  1.00  0.00     0.021 C 
ATOM     21  C   UNL     1     142.765 138.267 139.919  1.00  0.00    -0.027 C 
ATOM     22  C   UNL     1     144.245 136.245 141.412  1.00  0.00    -0.023 C 
ATOM     23  C   UNL     1     141.970 137.437 140.887  1.00  0.00     0.031 C 
ATOM     24  C   UNL     1     142.679 136.165 141.439  1.00  0.00     0.002 C 
ATOM     25  C   UNL     1     144.728 137.242 142.514  1.00  0.00     0.010 C 
ATOM     26  C   UNL     1     144.845 134.831 141.680  1.00  0.00     0.012 C 
ATOM     27  C   UNL     1     142.125 135.827 142.848  1.00  0.00     0.036 C 
ATOM     28  C   UNL     1     144.209 136.869 143.912  1.00  0.00     0.032 C 
ATOM     29  C   UNL     1     142.676 136.764 143.950  1.00  0.00     0.114 C 
BRANCH  29  30
ATOM     30  O   UNL     1     142.247 136.331 145.218  1.00  0.00    -0.393 OA
ATOM     31  H   UNL     1     143.047 136.269 145.805  1.00  0.00     0.210 HD
ENDBRANCH  29  30
ENDBRANCH   9  11
ENDBRANCH   1   9
TORSDOF 7
ENDMDL
