MODEL 1
REMARK VINA RESULT:    -3.561      0.000      0.000
REMARK INTER + INTRA:          -5.277
REMARK INTER:                  -4.810
REMARK INTRA:                  -0.467
REMARK UNBOUND:                -0.467
REMARK SMILES [NH3+]CCCC[C@@H]([NH3+])C(=O)[O-]
REMARK SMILES IDX 4 1 3 2 2 3 1 4 5 8 6 9 7 10 8 14 9 15 10 16
REMARK H PARENT 1 5 1 6 1 7 7 11 7 12 7 13
REMARK Flexibility Score: inf
ROOT
ATOM      1  C   UNL     1      27.244   9.924  50.238  1.00  0.00     0.012 C 
ENDROOT
BRANCH   1   2
ATOM      2  C   UNL     1      27.372  11.439  50.024  1.00  0.00     0.061 C 
BRANCH   2   3
ATOM      3  C   UNL     1      28.376  12.090  50.990  1.00  0.00     0.258 C 
BRANCH   3   4
ATOM      4  N   UNL     1      29.643  12.417  50.333  1.00  0.00    -0.358 N 
ATOM      5  H   UNL     1      29.965  13.372  50.615  1.00  0.00     0.344 HD
ATOM      6  H   UNL     1      29.539  12.367  49.294  1.00  0.00     0.344 HD
ATOM      7  H   UNL     1      30.367  11.721  50.625  1.00  0.00     0.344 HD
ENDBRANCH   3   4
ENDBRANCH   2   3
ENDBRANCH   1   2
BRANCH   1   8
ATOM      8  C   UNL     1      27.411   9.168  48.906  1.00  0.00     0.072 C 
BRANCH   8   9
ATOM      9  C   UNL     1      28.689   8.300  48.824  1.00  0.00     0.227 C 
BRANCH   9  10
ATOM     10  N   UNL     1      28.889   7.737  47.481  1.00  0.00    -0.350 N 
ATOM     11  H   UNL     1      28.630   8.445  46.756  1.00  0.00     0.345 HD
ATOM     12  H   UNL     1      28.270   6.902  47.358  1.00  0.00     0.345 HD
ATOM     13  H   UNL     1      29.881   7.441  47.334  1.00  0.00     0.345 HD
ENDBRANCH   9  10
BRANCH   9  14
ATOM     14  C   UNL     1      29.906   9.059  49.288  1.00  0.00     0.099 C 
ATOM     15  O   UNL     1      30.368   9.993  48.582  1.00  0.00    -0.544 OA
ATOM     16  O   UNL     1      30.558   8.708  50.465  1.00  0.00    -0.544 OA
ENDBRANCH   9  14
ENDBRANCH   8   9
ENDBRANCH   1   8
TORSDOF 7
ENDMDL
MODEL 2
REMARK VINA RESULT:    -3.554     16.970     18.108
REMARK INTER + INTRA:          -5.268
REMARK INTER:                  -5.019
REMARK INTRA:                  -0.249
REMARK UNBOUND:                -0.467
REMARK SMILES [NH3+]CCCC[C@@H]([NH3+])C(=O)[O-]
REMARK SMILES IDX 4 1 3 2 2 3 1 4 5 8 6 9 7 10 8 14 9 15 10 16
REMARK H PARENT 1 5 1 6 1 7 7 11 7 12 7 13
REMARK Flexibility Score: inf
ROOT
ATOM      1  C   UNL     1      44.734   0.051  50.796  1.00  0.00     0.012 C 
ENDROOT
BRANCH   1   2
ATOM      2  C   UNL     1      43.200   0.010  50.854  1.00  0.00     0.061 C 
BRANCH   2   3
ATOM      3  C   UNL     1      42.659   0.192  52.282  1.00  0.00     0.258 C 
BRANCH   3   4
ATOM      4  N   UNL     1      41.265  -0.240  52.404  1.00  0.00    -0.358 N 
ATOM      5  H   UNL     1      41.208  -1.285  52.441  1.00  0.00     0.344 HD
ATOM      6  H   UNL     1      40.700   0.121  51.603  1.00  0.00     0.344 HD
ATOM      7  H   UNL     1      40.865   0.148  53.289  1.00  0.00     0.344 HD
ENDBRANCH   3   4
ENDBRANCH   2   3
ENDBRANCH   1   2
BRANCH   1   8
ATOM      8  C   UNL     1      45.300   0.955  51.907  1.00  0.00     0.072 C 
BRANCH   8   9
ATOM      9  C   UNL     1      46.041   2.210  51.389  1.00  0.00     0.227 C 
BRANCH   9  10
ATOM     10  N   UNL     1      46.356   2.114  49.957  1.00  0.00    -0.350 N 
ATOM     11  H   UNL     1      47.223   2.660  49.745  1.00  0.00     0.345 HD
ATOM     12  H   UNL     1      45.570   2.520  49.400  1.00  0.00     0.345 HD
ATOM     13  H   UNL     1      46.495   1.120  49.661  1.00  0.00     0.345 HD
ENDBRANCH   9  10
BRANCH   9  14
ATOM     14  C   UNL     1      45.277   3.472  51.700  1.00  0.00     0.099 C 
ATOM     15  O   UNL     1      45.901   4.539  51.940  1.00  0.00    -0.544 OA
ATOM     16  O   UNL     1      43.889   3.463  51.776  1.00  0.00    -0.544 OA
ENDBRANCH   9  14
ENDBRANCH   8   9
ENDBRANCH   1   8
TORSDOF 7
ENDMDL
MODEL 3
REMARK VINA RESULT:    -3.521      1.174      3.448
REMARK INTER + INTRA:          -5.223
REMARK INTER:                  -4.746
REMARK INTRA:                  -0.477
REMARK UNBOUND:                -0.467
REMARK SMILES [NH3+]CCCC[C@@H]([NH3+])C(=O)[O-]
REMARK SMILES IDX 4 1 3 2 2 3 1 4 5 8 6 9 7 10 8 14 9 15 10 16
REMARK H PARENT 1 5 1 6 1 7 7 11 7 12 7 13
REMARK Flexibility Score: inf
ROOT
ATOM      1  C   UNL     1      27.198   9.980  49.376  1.00  0.00     0.012 C 
ENDROOT
BRANCH   1   2
ATOM      2  C   UNL     1      27.413   8.498  49.035  1.00  0.00     0.061 C 
BRANCH   2   3
ATOM      3  C   UNL     1      27.691   8.270  47.540  1.00  0.00     0.258 C 
BRANCH   3   4
ATOM      4  N   UNL     1      29.038   7.748  47.301  1.00  0.00    -0.358 N 
ATOM      5  H   UNL     1      29.386   8.049  46.361  1.00  0.00     0.344 HD
ATOM      6  H   UNL     1      29.041   6.705  47.365  1.00  0.00     0.344 HD
ATOM      7  H   UNL     1      29.683   8.124  48.033  1.00  0.00     0.344 HD
ENDBRANCH   3   4
ENDBRANCH   2   3
ENDBRANCH   1   2
BRANCH   1   8
ATOM      8  C   UNL     1      28.207  10.447  50.442  1.00  0.00     0.072 C 
BRANCH   8   9
ATOM      9  C   UNL     1      29.504  11.060  49.865  1.00  0.00     0.227 C 
BRANCH   9  10
ATOM     10  N   UNL     1      29.870  12.313  50.540  1.00  0.00    -0.350 N 
ATOM     11  H   UNL     1      29.991  13.077  49.836  1.00  0.00     0.345 HD
ATOM     12  H   UNL     1      30.780  12.185  51.042  1.00  0.00     0.345 HD
ATOM     13  H   UNL     1      29.144  12.600  51.236  1.00  0.00     0.345 HD
ENDBRANCH   9  10
BRANCH   9  14
ATOM     14  C   UNL     1      30.642  10.072  49.887  1.00  0.00     0.099 C 
ATOM     15  O   UNL     1      30.917   9.411  48.851  1.00  0.00    -0.544 OA
ATOM     16  O   UNL     1      31.363   9.842  51.053  1.00  0.00    -0.544 OA
ENDBRANCH   9  14
ENDBRANCH   8   9
ENDBRANCH   1   8
TORSDOF 7
ENDMDL
MODEL 4
REMARK VINA RESULT:    -3.477     16.231     17.720
REMARK INTER + INTRA:          -5.163
REMARK INTER:                  -4.634
REMARK INTRA:                  -0.529
REMARK UNBOUND:                -0.467
REMARK SMILES [NH3+]CCCC[C@@H]([NH3+])C(=O)[O-]
REMARK SMILES IDX 4 1 3 2 2 3 1 4 5 8 6 9 7 10 8 14 9 15 10 16
REMARK H PARENT 1 5 1 6 1 7 7 11 7 12 7 13
REMARK Flexibility Score: inf
ROOT
ATOM      1  C   UNL     1      44.691  -0.106  52.102  1.00  0.00     0.012 C 
ENDROOT
BRANCH   1   2
ATOM      2  C   UNL     1      46.000   0.668  51.889  1.00  0.00     0.061 C 
BRANCH   2   3
ATOM      3  C   UNL     1      46.066   1.349  50.512  1.00  0.00     0.258 C 
BRANCH   3   4
ATOM      4  N   UNL     1      45.967   2.807  50.610  1.00  0.00    -0.358 N 
ATOM      5  H   UNL     1      46.338   3.137  51.531  1.00  0.00     0.344 HD
ATOM      6  H   UNL     1      44.975   3.114  50.493  1.00  0.00     0.344 HD
ATOM      7  H   UNL     1      46.537   3.238  49.846  1.00  0.00     0.344 HD
ENDBRANCH   3   4
ENDBRANCH   2   3
ENDBRANCH   1   2
BRANCH   1   8
ATOM      8  C   UNL     1      43.723   0.122  50.926  1.00  0.00     0.072 C 
BRANCH   8   9
ATOM      9  C   UNL     1      42.356   0.718  51.334  1.00  0.00     0.227 C 
BRANCH   9  10
ATOM     10  N   UNL     1      41.507  -0.265  52.022  1.00  0.00    -0.350 N 
ATOM     11  H   UNL     1      41.531  -1.177  51.510  1.00  0.00     0.345 HD
ATOM     12  H   UNL     1      40.519   0.077  52.035  1.00  0.00     0.345 HD
ATOM     13  H   UNL     1      41.820  -0.417  53.009  1.00  0.00     0.345 HD
ENDBRANCH   9  10
BRANCH   9  14
ATOM     14  C   UNL     1      42.520   1.972  52.155  1.00  0.00     0.099 C 
ATOM     15  O   UNL     1      42.083   2.010  53.335  1.00  0.00    -0.544 OA
ATOM     16  O   UNL     1      43.106   3.109  51.609  1.00  0.00    -0.544 OA
ENDBRANCH   9  14
ENDBRANCH   8   9
ENDBRANCH   1   8
TORSDOF 7
ENDMDL
MODEL 5
REMARK VINA RESULT:    -3.444      1.788      3.795
REMARK INTER + INTRA:          -5.119
REMARK INTER:                  -4.957
REMARK INTRA:                  -0.162
REMARK UNBOUND:                -0.467
REMARK SMILES [NH3+]CCCC[C@@H]([NH3+])C(=O)[O-]
REMARK SMILES IDX 4 1 3 2 2 3 1 4 5 8 6 9 7 10 8 14 9 15 10 16
REMARK H PARENT 1 5 1 6 1 7 7 11 7 12 7 13
REMARK Flexibility Score: inf
ROOT
ATOM      1  C   UNL     1      26.875   9.143  48.834  1.00  0.00     0.012 C 
ENDROOT
BRANCH   1   2
ATOM      2  C   UNL     1      28.224   8.450  48.592  1.00  0.00     0.061 C 
BRANCH   2   3
ATOM      3  C   UNL     1      28.427   8.049  47.121  1.00  0.00     0.258 C 
BRANCH   3   4
ATOM      4  N   UNL     1      29.764   8.393  46.633  1.00  0.00    -0.358 N 
ATOM      5  H   UNL     1      29.994   7.839  45.776  1.00  0.00     0.344 HD
ATOM      6  H   UNL     1      30.479   8.216  47.375  1.00  0.00     0.344 HD
ATOM      7  H   UNL     1      29.786   9.410  46.391  1.00  0.00     0.344 HD
ENDBRANCH   3   4
ENDBRANCH   2   3
ENDBRANCH   1   2
BRANCH   1   8
ATOM      8  C   UNL     1      26.982  10.161  49.984  1.00  0.00     0.072 C 
BRANCH   8   9
ATOM      9  C   UNL     1      28.100  11.214  49.799  1.00  0.00     0.227 C 
BRANCH   9  10
ATOM     10  N   UNL     1      27.561  12.541  49.468  1.00  0.00    -0.350 N 
ATOM     11  H   UNL     1      28.178  13.286  49.865  1.00  0.00     0.345 HD
ATOM     12  H   UNL     1      26.610  12.645  49.892  1.00  0.00     0.345 HD
ATOM     13  H   UNL     1      27.481  12.675  48.434  1.00  0.00     0.345 HD
ENDBRANCH   9  10
BRANCH   9  14
ATOM     14  C   UNL     1      29.008  11.274  51.000  1.00  0.00     0.099 C 
ATOM     15  O   UNL     1      29.799  12.244  51.141  1.00  0.00    -0.544 OA
ATOM     16  O   UNL     1      29.022  10.244  51.935  1.00  0.00    -0.544 OA
ENDBRANCH   9  14
ENDBRANCH   8   9
ENDBRANCH   1   8
TORSDOF 7
ENDMDL
MODEL 6
REMARK VINA RESULT:    -3.422      2.004      2.236
REMARK INTER + INTRA:          -5.089
REMARK INTER:                  -4.574
REMARK INTRA:                  -0.515
REMARK UNBOUND:                -0.467
REMARK SMILES [NH3+]CCCC[C@@H]([NH3+])C(=O)[O-]
REMARK SMILES IDX 4 1 3 2 2 3 1 4 5 8 6 9 7 10 8 14 9 15 10 16
REMARK H PARENT 1 5 1 6 1 7 7 11 7 12 7 13
REMARK Flexibility Score: inf
ROOT
ATOM      1  C   UNL     1      27.073   8.510  50.518  1.00  0.00     0.012 C 
ENDROOT
BRANCH   1   2
ATOM      2  C   UNL     1      28.208   7.849  51.313  1.00  0.00     0.061 C 
BRANCH   2   3
ATOM      3  C   UNL     1      28.587   8.643  52.574  1.00  0.00     0.258 C 
BRANCH   3   4
ATOM      4  N   UNL     1      29.394   9.824  52.262  1.00  0.00    -0.358 N 
ATOM      5  H   UNL     1      30.283   9.816  52.815  1.00  0.00     0.344 HD
ATOM      6  H   UNL     1      28.856  10.697  52.463  1.00  0.00     0.344 HD
ATOM      7  H   UNL     1      29.633   9.813  51.244  1.00  0.00     0.344 HD
ENDBRANCH   3   4
ENDBRANCH   2   3
ENDBRANCH   1   2
BRANCH   1   8
ATOM      8  C   UNL     1      27.586   9.031  49.163  1.00  0.00     0.072 C 
BRANCH   8   9
ATOM      9  C   UNL     1      28.964   8.467  48.745  1.00  0.00     0.227 C 
BRANCH   9  10
ATOM     10  N   UNL     1      28.894   7.715  47.485  1.00  0.00    -0.350 N 
ATOM     11  H   UNL     1      27.896   7.522  47.239  1.00  0.00     0.345 HD
ATOM     12  H   UNL     1      29.385   6.798  47.599  1.00  0.00     0.345 HD
ATOM     13  H   UNL     1      29.347   8.239  46.701  1.00  0.00     0.345 HD
ENDBRANCH   9  10
BRANCH   9  14
ATOM     14  C   UNL     1      30.010   9.551  48.681  1.00  0.00     0.099 C 
ATOM     15  O   UNL     1      31.049   9.379  47.992  1.00  0.00    -0.544 OA
ATOM     16  O   UNL     1      29.865  10.724  49.414  1.00  0.00    -0.544 OA
ENDBRANCH   9  14
ENDBRANCH   8   9
ENDBRANCH   1   8
TORSDOF 7
ENDMDL
MODEL 7
REMARK VINA RESULT:    -3.401      2.205      3.250
REMARK INTER + INTRA:          -5.061
REMARK INTER:                  -4.612
REMARK INTRA:                  -0.449
REMARK UNBOUND:                -0.467
REMARK SMILES [NH3+]CCCC[C@@H]([NH3+])C(=O)[O-]
REMARK SMILES IDX 4 1 3 2 2 3 1 4 5 8 6 9 7 10 8 14 9 15 10 16
REMARK H PARENT 1 5 1 6 1 7 7 11 7 12 7 13
REMARK Flexibility Score: inf
ROOT
ATOM      1  C   UNL     1      27.761   9.563  49.094  1.00  0.00     0.012 C 
ENDROOT
BRANCH   1   2
ATOM      2  C   UNL     1      27.037   8.443  48.334  1.00  0.00     0.061 C 
BRANCH   2   3
ATOM      3  C   UNL     1      27.737   8.075  47.015  1.00  0.00     0.258 C 
BRANCH   3   4
ATOM      4  N   UNL     1      29.149   7.742  47.212  1.00  0.00    -0.358 N 
ATOM      5  H   UNL     1      29.376   6.828  46.756  1.00  0.00     0.344 HD
ATOM      6  H   UNL     1      29.374   7.697  48.232  1.00  0.00     0.344 HD
ATOM      7  H   UNL     1      29.738   8.488  46.778  1.00  0.00     0.344 HD
ENDBRANCH   3   4
ENDBRANCH   2   3
ENDBRANCH   1   2
BRANCH   1   8
ATOM      8  C   UNL     1      28.056   9.137  50.544  1.00  0.00     0.072 C 
BRANCH   8   9
ATOM      9  C   UNL     1      29.543   8.818  50.824  1.00  0.00     0.227 C 
BRANCH   9  10
ATOM     10  N   UNL     1      29.862   7.406  50.569  1.00  0.00    -0.350 N 
ATOM     11  H   UNL     1      30.683   7.336  49.925  1.00  0.00     0.345 HD
ATOM     12  H   UNL     1      29.045   6.943  50.109  1.00  0.00     0.345 HD
ATOM     13  H   UNL     1      30.078   6.896  51.457  1.00  0.00     0.345 HD
ENDBRANCH   9  10
BRANCH   9  14
ATOM     14  C   UNL     1      30.461   9.735  50.056  1.00  0.00     0.099 C 
ATOM     15  O   UNL     1      30.691  10.895  50.487  1.00  0.00    -0.544 OA
ATOM     16  O   UNL     1      31.019   9.335  48.847  1.00  0.00    -0.544 OA
ENDBRANCH   9  14
ENDBRANCH   8   9
ENDBRANCH   1   8
TORSDOF 7
ENDMDL
MODEL 8
REMARK VINA RESULT:    -3.315      3.540      4.567
REMARK INTER + INTRA:          -4.944
REMARK INTER:                  -4.748
REMARK INTRA:                  -0.196
REMARK UNBOUND:                -0.467
REMARK SMILES [NH3+]CCCC[C@@H]([NH3+])C(=O)[O-]
REMARK SMILES IDX 4 1 3 2 2 3 1 4 5 8 6 9 7 10 8 14 9 15 10 16
REMARK H PARENT 1 5 1 6 1 7 7 11 7 12 7 13
REMARK Flexibility Score: inf
ROOT
ATOM      1  C   UNL     1      29.849   8.018  50.946  1.00  0.00     0.012 C 
ENDROOT
BRANCH   1   2
ATOM      2  C   UNL     1      29.665   8.880  49.689  1.00  0.00     0.061 C 
BRANCH   2   3
ATOM      3  C   UNL     1      28.562   8.344  48.761  1.00  0.00     0.258 C 
BRANCH   3   4
ATOM      4  N   UNL     1      29.107   7.768  47.530  1.00  0.00    -0.358 N 
ATOM      5  H   UNL     1      29.529   8.516  46.932  1.00  0.00     0.344 HD
ATOM      6  H   UNL     1      28.359   7.266  47.000  1.00  0.00     0.344 HD
ATOM      7  H   UNL     1      29.853   7.078  47.779  1.00  0.00     0.344 HD
ENDBRANCH   3   4
ENDBRANCH   2   3
ENDBRANCH   1   2
BRANCH   1   8
ATOM      8  C   UNL     1      28.749   6.944  51.038  1.00  0.00     0.072 C 
BRANCH   8   9
ATOM      9  C   UNL     1      29.210   5.614  51.679  1.00  0.00     0.227 C 
BRANCH   9  10
ATOM     10  N   UNL     1      30.177   4.900  50.833  1.00  0.00    -0.350 N 
ATOM     11  H   UNL     1      31.152   5.128  51.134  1.00  0.00     0.345 HD
ATOM     12  H   UNL     1      30.062   5.206  49.839  1.00  0.00     0.345 HD
ATOM     13  H   UNL     1      30.036   3.864  50.881  1.00  0.00     0.345 HD
ENDBRANCH   9  10
BRANCH   9  14
ATOM     14  C   UNL     1      29.751   5.827  53.070  1.00  0.00     0.099 C 
ATOM     15  O   UNL     1      30.947   5.533  53.330  1.00  0.00    -0.544 OA
ATOM     16  O   UNL     1      28.930   6.301  54.088  1.00  0.00    -0.544 OA
ENDBRANCH   9  14
ENDBRANCH   8   9
ENDBRANCH   1   8
TORSDOF 7
ENDMDL
MODEL 9
REMARK VINA RESULT:    -3.254     16.652     17.736
REMARK INTER + INTRA:          -4.862
REMARK INTER:                  -4.371
REMARK INTRA:                  -0.491
REMARK UNBOUND:                -0.467
REMARK SMILES [NH3+]CCCC[C@@H]([NH3+])C(=O)[O-]
REMARK SMILES IDX 4 1 3 2 2 3 1 4 5 8 6 9 7 10 8 14 9 15 10 16
REMARK H PARENT 1 5 1 6 1 7 7 11 7 12 7 13
REMARK Flexibility Score: inf
ROOT
ATOM      1  C   UNL     1      43.775   2.907  52.810  1.00  0.00     0.012 C 
ENDROOT
BRANCH   1   2
ATOM      2  C   UNL     1      44.693   3.577  51.778  1.00  0.00     0.061 C 
BRANCH   2   3
ATOM      3  C   UNL     1      46.041   2.852  51.627  1.00  0.00     0.258 C 
BRANCH   3   4
ATOM      4  N   UNL     1      46.138   2.122  50.361  1.00  0.00    -0.358 N 
ATOM      5  H   UNL     1      45.252   2.222  49.813  1.00  0.00     0.344 HD
ATOM      6  H   UNL     1      46.337   1.111  50.538  1.00  0.00     0.344 HD
ATOM      7  H   UNL     1      46.926   2.519  49.800  1.00  0.00     0.344 HD
ENDBRANCH   3   4
ENDBRANCH   2   3
ENDBRANCH   1   2
BRANCH   1   8
ATOM      8  C   UNL     1      42.678   2.082  52.112  1.00  0.00     0.072 C 
BRANCH   8   9
ATOM      9  C   UNL     1      42.784   0.557  52.344  1.00  0.00     0.227 C 
BRANCH   9  10
ATOM     10  N   UNL     1      41.497  -0.124  52.140  1.00  0.00    -0.350 N 
ATOM     11  H   UNL     1      41.109  -0.436  53.060  1.00  0.00     0.345 HD
ATOM     12  H   UNL     1      41.643  -0.970  51.543  1.00  0.00     0.345 HD
ATOM     13  H   UNL     1      40.804   0.501  51.669  1.00  0.00     0.345 HD
ENDBRANCH   9  10
BRANCH   9  14
ATOM     14  C   UNL     1      43.871  -0.058  51.499  1.00  0.00     0.099 C 
ATOM     15  O   UNL     1      44.926  -0.477  52.043  1.00  0.00    -0.544 OA
ATOM     16  O   UNL     1      43.745  -0.124  50.115  1.00  0.00    -0.544 OA
ENDBRANCH   9  14
ENDBRANCH   8   9
ENDBRANCH   1   8
TORSDOF 7
ENDMDL
