MODEL 1
REMARK VINA RESULT:    -4.889      0.000      0.000
REMARK INTER + INTRA:          -7.266
REMARK INTER:                  -6.603
REMARK INTRA:                  -0.662
REMARK UNBOUND:                -0.662
REMARK SMILES CC(=O)CCC=C(C)CCC=C(C)C
REMARK SMILES IDX 7 1 6 2 8 3 9 4 10 5 11 6 13 7 12 8 14 9 5 10 4 11 2 12 3 13
REMARK SMILES IDX 1 14
REMARK H PARENT
REMARK Flexibility Score: inf
ROOT
ATOM      1  C   UNL     1      38.172 -39.914  -5.448  1.00  0.00    -0.077 C 
ATOM      2  C   UNL     1      39.525 -39.883  -5.431  1.00  0.00    -0.028 C 
ATOM      3  C   UNL     1      37.390 -41.010  -4.765  1.00  0.00     0.039 C 
ENDROOT
BRANCH   1   4
ATOM      4  C   UNL     1      37.424 -38.802  -6.152  1.00  0.00     0.034 C 
BRANCH   4   5
ATOM      5  C   UNL     1      37.918 -38.643  -7.594  1.00  0.00     0.032 C 
BRANCH   5   6
ATOM      6  C   UNL     1      37.401 -39.761  -8.464  1.00  0.00    -0.028 C 
ATOM      7  C   UNL     1      35.519 -38.387  -9.384  1.00  0.00     0.039 C 
ATOM      8  C   UNL     1      36.309 -39.669  -9.256  1.00  0.00    -0.080 C 
ATOM      9  C   UNL     1      35.887 -40.883 -10.042  1.00  0.00     0.039 C 
ENDBRANCH   5   6
ENDBRANCH   4   5
ENDBRANCH   1   4
BRANCH   2  10
ATOM     10  C   UNL     1      40.394 -40.947  -4.806  1.00  0.00     0.035 C 
BRANCH  10  11
ATOM     11  C   UNL     1      41.378 -41.513  -5.835  1.00  0.00     0.079 C 
BRANCH  11  12
ATOM     12  C   UNL     1      42.799 -41.295  -5.388  1.00  0.00     0.130 C 
ATOM     13  O   UNL     1      43.046 -40.414  -4.579  1.00  0.00    -0.300 OA
ATOM     14  C   UNL     1      43.921 -42.146  -5.905  1.00  0.00     0.087 C 
ENDBRANCH  11  12
ENDBRANCH  10  11
ENDBRANCH   2  10
TORSDOF 6
ENDMDL
MODEL 2
REMARK VINA RESULT:    -4.871      3.600      5.624
REMARK INTER + INTRA:          -7.242
REMARK INTER:                  -6.369
REMARK INTRA:                  -0.873
REMARK UNBOUND:                -0.662
REMARK SMILES CC(=O)CCC=C(C)CCC=C(C)C
REMARK SMILES IDX 7 1 6 2 8 3 9 4 10 5 11 6 13 7 12 8 14 9 5 10 4 11 2 12 3 13
REMARK SMILES IDX 1 14
REMARK H PARENT
REMARK Flexibility Score: inf
ROOT
ATOM      1  C   UNL     1      39.233 -40.581  -3.037  1.00  0.00    -0.077 C 
ATOM      2  C   UNL     1      40.260 -40.871  -2.205  1.00  0.00    -0.028 C 
ATOM      3  C   UNL     1      38.173 -39.569  -2.673  1.00  0.00     0.039 C 
ENDROOT
BRANCH   1   4
ATOM      4  C   UNL     1      39.162 -41.274  -4.380  1.00  0.00     0.034 C 
BRANCH   4   5
ATOM      5  C   UNL     1      40.080 -40.587  -5.396  1.00  0.00     0.032 C 
BRANCH   5   6
ATOM      6  C   UNL     1      41.301 -41.428  -5.669  1.00  0.00    -0.028 C 
ATOM      7  C   UNL     1      42.839 -39.875  -4.444  1.00  0.00     0.039 C 
ATOM      8  C   UNL     1      42.553 -41.109  -5.268  1.00  0.00    -0.080 C 
ATOM      9  C   UNL     1      43.684 -42.028  -5.647  1.00  0.00     0.039 C 
ENDBRANCH   5   6
ENDBRANCH   4   5
ENDBRANCH   1   4
BRANCH   2  10
ATOM     10  C   UNL     1      40.429 -40.289  -0.823  1.00  0.00     0.035 C 
BRANCH  10  11
ATOM     11  C   UNL     1      41.903 -39.976  -0.545  1.00  0.00     0.079 C 
BRANCH  11  12
ATOM     12  C   UNL     1      42.607 -41.185   0.012  1.00  0.00     0.130 C 
ATOM     13  O   UNL     1      43.792 -41.354  -0.232  1.00  0.00    -0.300 OA
ATOM     14  C   UNL     1      41.889 -42.182   0.871  1.00  0.00     0.087 C 
ENDBRANCH  11  12
ENDBRANCH  10  11
ENDBRANCH   2  10
TORSDOF 6
ENDMDL
MODEL 3
REMARK VINA RESULT:    -4.751      2.668      5.909
REMARK INTER + INTRA:          -7.080
REMARK INTER:                  -6.125
REMARK INTRA:                  -0.955
REMARK UNBOUND:                -0.662
REMARK SMILES CC(=O)CCC=C(C)CCC=C(C)C
REMARK SMILES IDX 7 1 6 2 8 3 9 4 10 5 11 6 13 7 12 8 14 9 5 10 4 11 2 12 3 13
REMARK SMILES IDX 1 14
REMARK H PARENT
REMARK Flexibility Score: inf
ROOT
ATOM      1  C   UNL     1      40.228 -40.335  -2.438  1.00  0.00    -0.077 C 
ATOM      2  C   UNL     1      39.462 -39.962  -3.490  1.00  0.00    -0.028 C 
ATOM      3  C   UNL     1      39.629 -40.939  -1.190  1.00  0.00     0.039 C 
ENDROOT
BRANCH   1   4
ATOM      4  C   UNL     1      41.728 -40.162  -2.527  1.00  0.00     0.034 C 
BRANCH   4   5
ATOM      5  C   UNL     1      42.132 -39.618  -3.902  1.00  0.00     0.032 C 
BRANCH   5   6
ATOM      6  C   UNL     1      43.135 -40.528  -4.565  1.00  0.00    -0.028 C 
ATOM      7  C   UNL     1      41.407 -41.658  -5.984  1.00  0.00     0.039 C 
ATOM      8  C   UNL     1      42.821 -41.467  -5.486  1.00  0.00    -0.080 C 
ATOM      9  C   UNL     1      43.925 -42.332  -6.035  1.00  0.00     0.039 C 
ENDBRANCH   5   6
ENDBRANCH   4   5
ENDBRANCH   1   4
BRANCH   2  10
ATOM     10  C   UNL     1      37.956 -40.036  -3.517  1.00  0.00     0.035 C 
BRANCH  10  11
ATOM     11  C   UNL     1      37.464 -40.537  -4.878  1.00  0.00     0.079 C 
BRANCH  11  12
ATOM     12  C   UNL     1      37.522 -39.436  -5.904  1.00  0.00     0.130 C 
ATOM     13  O   UNL     1      36.788 -38.467  -5.787  1.00  0.00    -0.300 OA
ATOM     14  C   UNL     1      38.472 -39.496  -7.063  1.00  0.00     0.087 C 
ENDBRANCH  11  12
ENDBRANCH  10  11
ENDBRANCH   2  10
TORSDOF 6
ENDMDL
MODEL 4
REMARK VINA RESULT:    -4.625      2.634      6.171
REMARK INTER + INTRA:          -6.909
REMARK INTER:                  -5.913
REMARK INTRA:                  -0.996
REMARK UNBOUND:                -0.662
REMARK SMILES CC(=O)CCC=C(C)CCC=C(C)C
REMARK SMILES IDX 7 1 6 2 8 3 9 4 10 5 11 6 13 7 12 8 14 9 5 10 4 11 2 12 3 13
REMARK SMILES IDX 1 14
REMARK H PARENT
REMARK Flexibility Score: inf
ROOT
ATOM      1  C   UNL     1      41.421 -38.145  -4.310  1.00  0.00    -0.077 C 
ATOM      2  C   UNL     1      40.264 -38.846  -4.331  1.00  0.00    -0.028 C 
ATOM      3  C   UNL     1      41.533 -36.771  -4.927  1.00  0.00     0.039 C 
ENDROOT
BRANCH   1   4
ATOM      4  C   UNL     1      42.629 -38.747  -3.625  1.00  0.00     0.034 C 
BRANCH   4   5
ATOM      5  C   UNL     1      42.469 -40.264  -3.475  1.00  0.00     0.032 C 
BRANCH   5   6
ATOM      6  C   UNL     1      43.391 -40.996  -4.417  1.00  0.00    -0.028 C 
ATOM      7  C   UNL     1      41.537 -41.665  -5.963  1.00  0.00     0.039 C 
ATOM      8  C   UNL     1      42.984 -41.651  -5.527  1.00  0.00    -0.080 C 
ATOM      9  C   UNL     1      44.015 -42.372  -6.355  1.00  0.00     0.039 C 
ENDBRANCH   5   6
ENDBRANCH   4   5
ENDBRANCH   1   4
BRANCH   2  10
ATOM     10  C   UNL     1      39.001 -38.386  -5.016  1.00  0.00     0.035 C 
BRANCH  10  11
ATOM     11  C   UNL     1      38.546 -39.413  -6.058  1.00  0.00     0.079 C 
BRANCH  11  12
ATOM     12  C   UNL     1      38.248 -38.742  -7.372  1.00  0.00     0.130 C 
ATOM     13  O   UNL     1      37.638 -39.355  -8.235  1.00  0.00    -0.300 OA
ATOM     14  C   UNL     1      38.672 -37.329  -7.643  1.00  0.00     0.087 C 
ENDBRANCH  11  12
ENDBRANCH  10  11
ENDBRANCH   2  10
TORSDOF 6
ENDMDL
MODEL 5
REMARK VINA RESULT:    -4.579      3.972      6.149
REMARK INTER + INTRA:          -6.848
REMARK INTER:                  -5.958
REMARK INTRA:                  -0.890
REMARK UNBOUND:                -0.662
REMARK SMILES CC(=O)CCC=C(C)CCC=C(C)C
REMARK SMILES IDX 7 1 6 2 8 3 9 4 10 5 11 6 13 7 12 8 14 9 5 10 4 11 2 12 3 13
REMARK SMILES IDX 1 14
REMARK H PARENT
REMARK Flexibility Score: inf
ROOT
ATOM      1  C   UNL     1      39.340 -40.519  -2.976  1.00  0.00    -0.077 C 
ATOM      2  C   UNL     1      40.015 -41.113  -1.965  1.00  0.00    -0.028 C 
ATOM      3  C   UNL     1      38.736 -39.142  -2.832  1.00  0.00     0.039 C 
ENDROOT
BRANCH   1   4
ATOM      4  C   UNL     1      39.210 -41.247  -4.296  1.00  0.00     0.034 C 
BRANCH   4   5
ATOM      5  C   UNL     1      40.061 -40.571  -5.377  1.00  0.00     0.032 C 
BRANCH   5   6
ATOM      6  C   UNL     1      41.306 -41.374  -5.658  1.00  0.00    -0.028 C 
ATOM      7  C   UNL     1      42.768 -39.892  -4.264  1.00  0.00     0.039 C 
ATOM      8  C   UNL     1      42.535 -41.068  -5.185  1.00  0.00    -0.080 C 
ATOM      9  C   UNL     1      43.696 -41.942  -5.581  1.00  0.00     0.039 C 
ENDBRANCH   5   6
ENDBRANCH   4   5
ENDBRANCH   1   4
BRANCH   2  10
ATOM     10  C   UNL     1      40.181 -40.520  -0.587  1.00  0.00     0.035 C 
BRANCH  10  11
ATOM     11  C   UNL     1      39.500 -41.401   0.466  1.00  0.00     0.079 C 
BRANCH  11  12
ATOM     12  C   UNL     1      40.513 -41.953   1.433  1.00  0.00     0.130 C 
ATOM     13  O   UNL     1      40.471 -41.613   2.606  1.00  0.00    -0.300 OA
ATOM     14  C   UNL     1      41.568 -42.923   0.993  1.00  0.00     0.087 C 
ENDBRANCH  11  12
ENDBRANCH  10  11
ENDBRANCH   2  10
TORSDOF 6
ENDMDL
MODEL 6
REMARK VINA RESULT:    -4.565      2.559      4.309
REMARK INTER + INTRA:          -6.829
REMARK INTER:                  -5.878
REMARK INTRA:                  -0.951
REMARK UNBOUND:                -0.662
REMARK SMILES CC(=O)CCC=C(C)CCC=C(C)C
REMARK SMILES IDX 7 1 6 2 8 3 9 4 10 5 11 6 13 7 12 8 14 9 5 10 4 11 2 12 3 13
REMARK SMILES IDX 1 14
REMARK H PARENT
REMARK Flexibility Score: inf
ROOT
ATOM      1  C   UNL     1      42.043 -40.689  -4.919  1.00  0.00    -0.077 C 
ATOM      2  C   UNL     1      41.893 -39.634  -4.085  1.00  0.00    -0.028 C 
ATOM      3  C   UNL     1      43.384 -41.348  -5.138  1.00  0.00     0.039 C 
ENDROOT
BRANCH   1   4
ATOM      4  C   UNL     1      40.826 -41.238  -5.631  1.00  0.00     0.034 C 
BRANCH   4   5
ATOM      5  C   UNL     1      39.561 -40.485  -5.205  1.00  0.00     0.032 C 
BRANCH   5   6
ATOM      6  C   UNL     1      38.883 -39.860  -6.398  1.00  0.00    -0.028 C 
ATOM      7  C   UNL     1      39.245 -37.520  -5.578  1.00  0.00     0.039 C 
ATOM      8  C   UNL     1      38.712 -38.529  -6.569  1.00  0.00    -0.080 C 
ATOM      9  C   UNL     1      37.980 -38.050  -7.795  1.00  0.00     0.039 C 
ENDBRANCH   5   6
ENDBRANCH   4   5
ENDBRANCH   1   4
BRANCH   2  10
ATOM     10  C   UNL     1      43.025 -38.961  -3.349  1.00  0.00     0.035 C 
BRANCH  10  11
ATOM     11  C   UNL     1      42.726 -38.889  -1.848  1.00  0.00     0.079 C 
BRANCH  11  12
ATOM     12  C   UNL     1      42.634 -40.271  -1.258  1.00  0.00     0.130 C 
ATOM     13  O   UNL     1      43.612 -41.002  -1.282  1.00  0.00    -0.300 OA
ATOM     14  C   UNL     1      41.367 -40.769  -0.627  1.00  0.00     0.087 C 
ENDBRANCH  11  12
ENDBRANCH  10  11
ENDBRANCH   2  10
TORSDOF 6
ENDMDL
MODEL 7
REMARK VINA RESULT:    -4.525      3.394      7.112
REMARK INTER + INTRA:          -6.774
REMARK INTER:                  -5.743
REMARK INTRA:                  -1.031
REMARK UNBOUND:                -0.662
REMARK SMILES CC(=O)CCC=C(C)CCC=C(C)C
REMARK SMILES IDX 7 1 6 2 8 3 9 4 10 5 11 6 13 7 12 8 14 9 5 10 4 11 2 12 3 13
REMARK SMILES IDX 1 14
REMARK H PARENT
REMARK Flexibility Score: inf
ROOT
ATOM      1  C   UNL     1      42.353 -40.016  -4.292  1.00  0.00    -0.077 C 
ATOM      2  C   UNL     1      41.013 -39.943  -4.466  1.00  0.00    -0.028 C 
ATOM      3  C   UNL     1      43.178 -41.122  -4.905  1.00  0.00     0.039 C 
ENDROOT
BRANCH   1   4
ATOM      4  C   UNL     1      43.045 -38.944  -3.478  1.00  0.00     0.034 C 
BRANCH   4   5
ATOM      5  C   UNL     1      42.357 -38.762  -2.121  1.00  0.00     0.032 C 
BRANCH   5   6
ATOM      6  C   UNL     1      42.800 -39.828  -1.150  1.00  0.00    -0.028 C 
ATOM      7  C   UNL     1      40.513 -40.834  -0.967  1.00  0.00     0.039 C 
ATOM      8  C   UNL     1      41.977 -40.751  -0.603  1.00  0.00    -0.080 C 
ATOM      9  C   UNL     1      42.554 -41.732   0.384  1.00  0.00     0.039 C 
ENDBRANCH   5   6
ENDBRANCH   4   5
ENDBRANCH   1   4
BRANCH   2  10
ATOM     10  C   UNL     1      40.193 -40.965  -5.213  1.00  0.00     0.035 C 
BRANCH  10  11
ATOM     11  C   UNL     1      38.932 -41.329  -4.423  1.00  0.00     0.079 C 
BRANCH  11  12
ATOM     12  C   UNL     1      37.744 -40.556  -4.932  1.00  0.00     0.130 C 
ATOM     13  O   UNL     1      36.719 -40.525  -4.268  1.00  0.00    -0.300 OA
ATOM     14  C   UNL     1      37.794 -39.813  -6.233  1.00  0.00     0.087 C 
ENDBRANCH  11  12
ENDBRANCH  10  11
ENDBRANCH   2  10
TORSDOF 6
ENDMDL
MODEL 8
REMARK VINA RESULT:    -4.489      3.565      5.616
REMARK INTER + INTRA:          -6.725
REMARK INTER:                  -5.773
REMARK INTRA:                  -0.952
REMARK UNBOUND:                -0.662
REMARK SMILES CC(=O)CCC=C(C)CCC=C(C)C
REMARK SMILES IDX 7 1 6 2 8 3 9 4 10 5 11 6 13 7 12 8 14 9 5 10 4 11 2 12 3 13
REMARK SMILES IDX 1 14
REMARK H PARENT
REMARK Flexibility Score: inf
ROOT
ATOM      1  C   UNL     1      42.775 -39.980  -3.974  1.00  0.00    -0.077 C 
ATOM      2  C   UNL     1      42.808 -40.698  -2.828  1.00  0.00    -0.028 C 
ATOM      3  C   UNL     1      42.664 -38.474  -3.969  1.00  0.00     0.039 C 
ENDROOT
BRANCH   1   4
ATOM      4  C   UNL     1      42.878 -40.708  -5.297  1.00  0.00     0.034 C 
BRANCH   4   5
ATOM      5  C   UNL     1      41.623 -41.549  -5.554  1.00  0.00     0.032 C 
BRANCH   5   6
ATOM      6  C   UNL     1      40.444 -40.667  -5.876  1.00  0.00    -0.028 C 
ATOM      7  C   UNL     1      39.239 -41.233  -3.754  1.00  0.00     0.039 C 
ATOM      8  C   UNL     1      39.353 -40.533  -5.088  1.00  0.00    -0.080 C 
ATOM      9  C   UNL     1      38.232 -39.643  -5.559  1.00  0.00     0.039 C 
ENDBRANCH   5   6
ENDBRANCH   4   5
ENDBRANCH   1   4
BRANCH   2  10
ATOM     10  C   UNL     1      42.670 -40.106  -1.447  1.00  0.00     0.035 C 
BRANCH  10  11
ATOM     11  C   UNL     1      43.376 -40.986  -0.409  1.00  0.00     0.079 C 
BRANCH  11  12
ATOM     12  C   UNL     1      42.476 -41.243   0.770  1.00  0.00     0.130 C 
ATOM     13  O   UNL     1      42.530 -40.502   1.740  1.00  0.00    -0.300 OA
ATOM     14  C   UNL     1      41.504 -42.385   0.778  1.00  0.00     0.087 C 
ENDBRANCH  11  12
ENDBRANCH  10  11
ENDBRANCH   2  10
TORSDOF 6
ENDMDL
MODEL 9
REMARK VINA RESULT:    -4.381      3.000      6.198
REMARK INTER + INTRA:          -6.579
REMARK INTER:                  -5.740
REMARK INTRA:                  -0.839
REMARK UNBOUND:                -0.662
REMARK SMILES CC(=O)CCC=C(C)CCC=C(C)C
REMARK SMILES IDX 7 1 6 2 8 3 9 4 10 5 11 6 13 7 12 8 14 9 5 10 4 11 2 12 3 13
REMARK SMILES IDX 1 14
REMARK H PARENT
REMARK Flexibility Score: inf
ROOT
ATOM      1  C   UNL     1      39.136 -38.648  -5.858  1.00  0.00    -0.077 C 
ATOM      2  C   UNL     1      38.252 -37.928  -6.587  1.00  0.00    -0.028 C 
ATOM      3  C   UNL     1      39.963 -38.021  -4.760  1.00  0.00     0.039 C 
ENDROOT
BRANCH   1   4
ATOM      4  C   UNL     1      39.279 -40.128  -6.135  1.00  0.00     0.034 C 
BRANCH   4   5
ATOM      5  C   UNL     1      40.139 -40.803  -5.061  1.00  0.00     0.032 C 
BRANCH   5   6
ATOM      6  C   UNL     1      41.376 -41.414  -5.669  1.00  0.00    -0.028 C 
ATOM      7  C   UNL     1      42.909 -40.390  -3.974  1.00  0.00     0.039 C 
ATOM      8  C   UNL     1      42.631 -41.218  -5.207  1.00  0.00    -0.080 C 
ATOM      9  C   UNL     1      43.776 -41.864  -5.942  1.00  0.00     0.039 C 
ENDBRANCH   5   6
ENDBRANCH   4   5
ENDBRANCH   1   4
BRANCH   2  10
ATOM     10  C   UNL     1      38.041 -36.441  -6.446  1.00  0.00     0.035 C 
BRANCH  10  11
ATOM     11  C   UNL     1      38.092 -35.756  -7.816  1.00  0.00     0.079 C 
BRANCH  11  12
ATOM     12  C   UNL     1      39.457 -35.901  -8.434  1.00  0.00     0.130 C 
ATOM     13  O   UNL     1      39.588 -36.563  -9.452  1.00  0.00    -0.300 OA
ATOM     14  C   UNL     1      40.662 -35.241  -7.833  1.00  0.00     0.087 C 
ENDBRANCH  11  12
ENDBRANCH  10  11
ENDBRANCH   2  10
TORSDOF 6
ENDMDL
