MODEL 1
REMARK VINA RESULT:    -3.986      0.000      0.000
REMARK INTER + INTRA:          -4.545
REMARK INTER:                  -4.452
REMARK INTRA:                  -0.093
REMARK UNBOUND:                -0.093
REMARK SMILES CCc1ccc(O)cc1O
REMARK SMILES IDX 3 1 9 2 8 3 6 4 5 5 4 6 2 7 1 8 10 9 7 11
REMARK H PARENT 10 10 7 12
REMARK Flexibility Score: inf
ROOT
ATOM      1  C   UNL     1     161.144 163.835 182.080  1.00  0.00    -0.006 A 
ATOM      2  C   UNL     1     160.437 163.116 181.082  1.00  0.00     0.122 A 
ATOM      3  C   UNL     1     160.019 161.802 181.326  1.00  0.00     0.092 A 
ATOM      4  C   UNL     1     160.291 161.183 182.549  1.00  0.00     0.119 A 
ATOM      5  C   UNL     1     160.985 161.880 183.537  1.00  0.00     0.047 A 
ATOM      6  C   UNL     1     161.409 163.191 183.310  1.00  0.00     0.011 A 
ENDROOT
BRANCH   1   7
ATOM      7  C   UNL     1     161.591 165.262 181.800  1.00  0.00     0.036 C 
ATOM      8  C   UNL     1     160.590 166.360 182.163  1.00  0.00     0.009 C 
ENDBRANCH   1   7
BRANCH   2   9
ATOM      9  O   UNL     1     160.132 163.676 179.838  1.00  0.00    -0.508 OA
ATOM     10  H   UNL     1     160.404 164.611 179.565  1.00  0.00     0.293 HD
ENDBRANCH   2   9
BRANCH   4  11
ATOM     11  O   UNL     1     159.877 159.875 182.792  1.00  0.00    -0.508 OA
ATOM     12  H   UNL     1     159.569 159.269 182.041  1.00  0.00     0.293 HD
ENDBRANCH   4  11
TORSDOF 3
ENDMDL
MODEL 2
REMARK VINA RESULT:    -3.902      2.729      3.541
REMARK INTER + INTRA:          -4.451
REMARK INTER:                  -4.382
REMARK INTRA:                  -0.069
REMARK UNBOUND:                -0.093
REMARK SMILES CCc1ccc(O)cc1O
REMARK SMILES IDX 3 1 9 2 8 3 6 4 5 5 4 6 2 7 1 8 10 9 7 11
REMARK H PARENT 10 10 7 12
REMARK Flexibility Score: inf
ROOT
ATOM      1  C   UNL     1     162.115 160.950 180.435  1.00  0.00    -0.006 A 
ATOM      2  C   UNL     1     160.703 161.052 180.524  1.00  0.00     0.122 A 
ATOM      3  C   UNL     1     160.086 161.197 181.772  1.00  0.00     0.092 A 
ATOM      4  C   UNL     1     160.848 161.242 182.943  1.00  0.00     0.119 A 
ATOM      5  C   UNL     1     162.236 161.142 182.868  1.00  0.00     0.047 A 
ATOM      6  C   UNL     1     162.867 160.998 181.631  1.00  0.00     0.011 A 
ENDROOT
BRANCH   1   7
ATOM      7  C   UNL     1     162.771 160.794 179.071  1.00  0.00     0.036 C 
ATOM      8  C   UNL     1     164.300 160.738 179.067  1.00  0.00     0.009 C 
ENDBRANCH   1   7
BRANCH   2   9
ATOM      9  O   UNL     1     159.883 161.015 179.393  1.00  0.00    -0.508 OA
ATOM     10  H   UNL     1     158.893 161.222 179.414  1.00  0.00     0.293 HD
ENDBRANCH   2   9
BRANCH   4  11
ATOM     11  O   UNL     1     160.235 161.384 184.186  1.00  0.00    -0.508 OA
ATOM     12  H   UNL     1     160.234 160.633 184.866  1.00  0.00     0.293 HD
ENDBRANCH   4  11
TORSDOF 3
ENDMDL
MODEL 3
REMARK VINA RESULT:    -3.795      2.098      4.066
REMARK INTER + INTRA:          -4.332
REMARK INTER:                  -4.263
REMARK INTRA:                  -0.069
REMARK UNBOUND:                -0.093
REMARK SMILES CCc1ccc(O)cc1O
REMARK SMILES IDX 3 1 9 2 8 3 6 4 5 5 4 6 2 7 1 8 10 9 7 11
REMARK H PARENT 10 10 7 12
REMARK Flexibility Score: inf
ROOT
ATOM      1  C   UNL     1     162.183 161.468 182.093  1.00  0.00    -0.006 A 
ATOM      2  C   UNL     1     160.931 162.066 182.391  1.00  0.00     0.122 A 
ATOM      3  C   UNL     1     160.230 162.761 181.398  1.00  0.00     0.092 A 
ATOM      4  C   UNL     1     160.751 162.875 180.105  1.00  0.00     0.119 A 
ATOM      5  C   UNL     1     161.980 162.292 179.801  1.00  0.00     0.047 A 
ATOM      6  C   UNL     1     162.692 161.595 180.781  1.00  0.00     0.011 A 
ENDROOT
BRANCH   1   7
ATOM      7  C   UNL     1     162.932 160.716 183.183  1.00  0.00     0.036 C 
ATOM      8  C   UNL     1     164.390 160.370 182.875  1.00  0.00     0.009 C 
ENDBRANCH   1   7
BRANCH   2   9
ATOM      9  O   UNL     1     160.354 161.990 183.662  1.00  0.00    -0.508 OA
ATOM     10  H   UNL     1     159.790 161.210 183.973  1.00  0.00     0.293 HD
ENDBRANCH   2   9
BRANCH   4  11
ATOM     11  O   UNL     1     160.055 163.567 179.117  1.00  0.00    -0.508 OA
ATOM     12  H   UNL     1     160.206 163.380 178.132  1.00  0.00     0.293 HD
ENDBRANCH   4  11
TORSDOF 3
ENDMDL
MODEL 4
REMARK VINA RESULT:    -3.794      2.116      3.332
REMARK INTER + INTRA:          -4.330
REMARK INTER:                  -4.238
REMARK INTRA:                  -0.092
REMARK UNBOUND:                -0.093
REMARK SMILES CCc1ccc(O)cc1O
REMARK SMILES IDX 3 1 9 2 8 3 6 4 5 5 4 6 2 7 1 8 10 9 7 11
REMARK H PARENT 10 10 7 12
REMARK Flexibility Score: inf
ROOT
ATOM      1  C   UNL     1     160.592 162.043 179.425  1.00  0.00    -0.006 A 
ATOM      2  C   UNL     1     160.481 163.255 180.154  1.00  0.00     0.122 A 
ATOM      3  C   UNL     1     160.387 163.229 181.550  1.00  0.00     0.092 A 
ATOM      4  C   UNL     1     160.400 162.014 182.243  1.00  0.00     0.119 A 
ATOM      5  C   UNL     1     160.508 160.817 181.538  1.00  0.00     0.047 A 
ATOM      6  C   UNL     1     160.603 160.826 180.144  1.00  0.00     0.011 A 
ENDROOT
BRANCH   1   7
ATOM      7  C   UNL     1     160.694 162.087 177.908  1.00  0.00     0.036 C 
ATOM      8  C   UNL     1     162.106 162.226 177.336  1.00  0.00     0.009 C 
ENDBRANCH   1   7
BRANCH   2   9
ATOM      9  O   UNL     1     160.462 164.502 179.523  1.00  0.00    -0.508 OA
ATOM     10  H   UNL     1     159.779 165.220 179.726  1.00  0.00     0.293 HD
ENDBRANCH   2   9
BRANCH   4  11
ATOM     11  O   UNL     1     160.305 161.988 183.633  1.00  0.00    -0.508 OA
ATOM     12  H   UNL     1     159.413 161.878 184.101  1.00  0.00     0.293 HD
ENDBRANCH   4  11
TORSDOF 3
ENDMDL
MODEL 5
REMARK VINA RESULT:    -3.752      4.023      4.802
REMARK INTER + INTRA:          -4.284
REMARK INTER:                  -4.215
REMARK INTRA:                  -0.069
REMARK UNBOUND:                -0.093
REMARK SMILES CCc1ccc(O)cc1O
REMARK SMILES IDX 3 1 9 2 8 3 6 4 5 5 4 6 2 7 1 8 10 9 7 11
REMARK H PARENT 10 10 7 12
REMARK Flexibility Score: inf
ROOT
ATOM      1  C   UNL     1     163.225 162.176 183.139  1.00  0.00    -0.006 A 
ATOM      2  C   UNL     1     164.419 162.939 183.222  1.00  0.00     0.122 A 
ATOM      3  C   UNL     1     165.664 162.302 183.172  1.00  0.00     0.092 A 
ATOM      4  C   UNL     1     165.750 160.913 183.040  1.00  0.00     0.119 A 
ATOM      5  C   UNL     1     164.584 160.153 182.957  1.00  0.00     0.047 A 
ATOM      6  C   UNL     1     163.333 160.773 183.006  1.00  0.00     0.011 A 
ENDROOT
BRANCH   1   7
ATOM      7  C   UNL     1     161.879 162.883 183.194  1.00  0.00     0.036 C 
ATOM      8  C   UNL     1     160.676 162.004 183.541  1.00  0.00     0.009 C 
ENDBRANCH   1   7
BRANCH   2   9
ATOM      9  O   UNL     1     164.404 164.330 183.355  1.00  0.00    -0.508 OA
ATOM     10  H   UNL     1     164.037 164.810 184.166  1.00  0.00     0.293 HD
ENDBRANCH   2   9
BRANCH   4  11
ATOM     11  O   UNL     1     166.989 160.278 182.991  1.00  0.00    -0.508 OA
ATOM     12  H   UNL     1     167.081 159.318 182.680  1.00  0.00     0.293 HD
ENDBRANCH   4  11
TORSDOF 3
ENDMDL
MODEL 6
REMARK VINA RESULT:    -3.710      2.456      3.970
REMARK INTER + INTRA:          -4.237
REMARK INTER:                  -4.173
REMARK INTRA:                  -0.064
REMARK UNBOUND:                -0.093
REMARK SMILES CCc1ccc(O)cc1O
REMARK SMILES IDX 3 1 9 2 8 3 6 4 5 5 4 6 2 7 1 8 10 9 7 11
REMARK H PARENT 10 10 7 12
REMARK Flexibility Score: inf
ROOT
ATOM      1  C   UNL     1     162.217 161.461 181.786  1.00  0.00    -0.006 A 
ATOM      2  C   UNL     1     162.381 161.173 180.406  1.00  0.00     0.122 A 
ATOM      3  C   UNL     1     161.629 161.865 179.449  1.00  0.00     0.092 A 
ATOM      4  C   UNL     1     160.710 162.844 179.837  1.00  0.00     0.119 A 
ATOM      5  C   UNL     1     160.540 163.135 181.190  1.00  0.00     0.047 A 
ATOM      6  C   UNL     1     161.283 162.454 182.156  1.00  0.00     0.011 A 
ENDROOT
BRANCH   1   7
ATOM      7  C   UNL     1     163.042 160.701 182.813  1.00  0.00     0.036 C 
ATOM      8  C   UNL     1     164.479 161.186 183.008  1.00  0.00     0.009 C 
ENDBRANCH   1   7
BRANCH   2   9
ATOM      9  O   UNL     1     163.282 160.206 179.951  1.00  0.00    -0.508 OA
ATOM     10  H   UNL     1     163.417 159.311 180.403  1.00  0.00     0.293 HD
ENDBRANCH   2   9
BRANCH   4  11
ATOM     11  O   UNL     1     159.960 163.532 178.886  1.00  0.00    -0.508 OA
ATOM     12  H   UNL     1     159.897 163.211 177.927  1.00  0.00     0.293 HD
ENDBRANCH   4  11
TORSDOF 3
ENDMDL
MODEL 7
REMARK VINA RESULT:    -3.704      3.080      3.992
REMARK INTER + INTRA:          -4.230
REMARK INTER:                  -4.147
REMARK INTRA:                  -0.083
REMARK UNBOUND:                -0.093
REMARK SMILES CCc1ccc(O)cc1O
REMARK SMILES IDX 3 1 9 2 8 3 6 4 5 5 4 6 2 7 1 8 10 9 7 11
REMARK H PARENT 10 10 7 12
REMARK Flexibility Score: inf
ROOT
ATOM      1  C   UNL     1     162.194 160.730 180.383  1.00  0.00    -0.006 A 
ATOM      2  C   UNL     1     162.895 160.926 181.601  1.00  0.00     0.122 A 
ATOM      3  C   UNL     1     162.190 161.097 182.799  1.00  0.00     0.092 A 
ATOM      4  C   UNL     1     160.792 161.078 182.811  1.00  0.00     0.119 A 
ATOM      5  C   UNL     1     160.092 160.886 181.621  1.00  0.00     0.047 A 
ATOM      6  C   UNL     1     160.781 160.713 180.418  1.00  0.00     0.011 A 
ENDROOT
BRANCH   1   7
ATOM      7  C   UNL     1     162.974 160.544 179.091  1.00  0.00     0.036 C 
ATOM      8  C   UNL     1     162.895 161.698 178.090  1.00  0.00     0.009 C 
ENDBRANCH   1   7
BRANCH   2   9
ATOM      9  O   UNL     1     164.291 160.955 181.658  1.00  0.00    -0.508 OA
ATOM     10  H   UNL     1     164.876 160.156 181.452  1.00  0.00     0.293 HD
ENDBRANCH   2   9
BRANCH   4  11
ATOM     11  O   UNL     1     160.090 161.249 184.002  1.00  0.00    -0.508 OA
ATOM     12  H   UNL     1     160.557 161.230 184.901  1.00  0.00     0.293 HD
ENDBRANCH   4  11
TORSDOF 3
ENDMDL
MODEL 8
REMARK VINA RESULT:    -3.661     20.450     21.257
REMARK INTER + INTRA:          -4.182
REMARK INTER:                  -4.092
REMARK INTRA:                  -0.090
REMARK UNBOUND:                -0.093
REMARK SMILES CCc1ccc(O)cc1O
REMARK SMILES IDX 3 1 9 2 8 3 6 4 5 5 4 6 2 7 1 8 10 9 7 11
REMARK H PARENT 10 10 7 12
REMARK Flexibility Score: inf
ROOT
ATOM      1  C   UNL     1     179.326 173.072 182.215  1.00  0.00    -0.006 A 
ATOM      2  C   UNL     1     178.949 173.054 180.848  1.00  0.00     0.122 A 
ATOM      3  C   UNL     1     178.215 174.116 180.307  1.00  0.00     0.092 A 
ATOM      4  C   UNL     1     177.844 175.204 181.102  1.00  0.00     0.119 A 
ATOM      5  C   UNL     1     178.209 175.233 182.447  1.00  0.00     0.047 A 
ATOM      6  C   UNL     1     178.942 174.182 183.002  1.00  0.00     0.011 A 
ENDROOT
BRANCH   1   7
ATOM      7  C   UNL     1     180.125 171.911 182.788  1.00  0.00     0.036 C 
ATOM      8  C   UNL     1     179.306 170.728 183.307  1.00  0.00     0.009 C 
ENDBRANCH   1   7
BRANCH   2   9
ATOM      9  O   UNL     1     179.287 171.997 179.998  1.00  0.00    -0.508 OA
ATOM     10  H   UNL     1     178.604 171.408 179.540  1.00  0.00     0.293 HD
ENDBRANCH   2   9
BRANCH   4  11
ATOM     11  O   UNL     1     177.112 176.261 180.565  1.00  0.00    -0.508 OA
ATOM     12  H   UNL     1     177.477 177.206 180.551  1.00  0.00     0.293 HD
ENDBRANCH   4  11
TORSDOF 3
ENDMDL
MODEL 9
REMARK VINA RESULT:    -1.182     10.476     11.809
REMARK INTER + INTRA:          -1.414
REMARK INTER:                  -1.345
REMARK INTRA:                  -0.069
REMARK UNBOUND:                -0.093
REMARK SMILES CCc1ccc(O)cc1O
REMARK SMILES IDX 3 1 9 2 8 3 6 4 5 5 4 6 2 7 1 8 10 9 7 11
REMARK H PARENT 10 10 7 12
REMARK Flexibility Score: inf
ROOT
ATOM      1  C   UNL     1     163.961 161.784 170.728  1.00  0.00    -0.006 A 
ATOM      2  C   UNL     1     163.122 162.766 171.316  1.00  0.00     0.122 A 
ATOM      3  C   UNL     1     163.617 163.599 172.328  1.00  0.00     0.092 A 
ATOM      4  C   UNL     1     164.937 163.475 172.771  1.00  0.00     0.119 A 
ATOM      5  C   UNL     1     165.770 162.514 172.201  1.00  0.00     0.047 A 
ATOM      6  C   UNL     1     165.293 161.676 171.191  1.00  0.00     0.011 A 
ENDROOT
BRANCH   1   7
ATOM      7  C   UNL     1     163.410 160.888 169.630  1.00  0.00     0.036 C 
ATOM      8  C   UNL     1     164.420 159.959 168.955  1.00  0.00     0.009 C 
ENDBRANCH   1   7
BRANCH   2   9
ATOM      9  O   UNL     1     161.794 162.942 170.920  1.00  0.00    -0.508 OA
ATOM     10  H   UNL     1     161.005 162.823 171.542  1.00  0.00     0.293 HD
ENDBRANCH   2   9
BRANCH   4  11
ATOM     11  O   UNL     1     165.429 164.302 173.778  1.00  0.00    -0.508 OA
ATOM     12  H   UNL     1     165.930 163.927 174.575  1.00  0.00     0.293 HD
ENDBRANCH   4  11
TORSDOF 3
ENDMDL
