MODEL 1
REMARK VINA RESULT:    -3.790      0.000      0.000
REMARK INTER + INTRA:          -7.707
REMARK INTER:                  -6.892
REMARK INTRA:                  -0.814
REMARK UNBOUND:                -0.814
REMARK SMILES CCCCCCCCCCCCCCCC(=O)[O-]
REMARK SMILES IDX 9 1 10 2 11 3 12 4 13 5 14 6 15 7 16 8 17 9 18 10 8 11 7 12
REMARK SMILES IDX 6 13 5 14 4 15 3 16 2 17 1 18
REMARK H PARENT
REMARK Flexibility Score: inf
ROOT
ATOM      1  C   UNL     1      -2.595 -50.435   1.829  1.00  0.00     0.000 C 
ENDROOT
BRANCH   1   2
ATOM      2  C   UNL     1      -3.208 -50.688   0.443  1.00  0.00     0.000 C 
BRANCH   2   3
ATOM      3  C   UNL     1      -4.090 -51.948   0.409  1.00  0.00     0.000 C 
BRANCH   3   4
ATOM      4  C   UNL     1      -5.265 -51.873   1.396  1.00  0.00     0.000 C 
BRANCH   4   5
ATOM      5  C   UNL     1      -6.600 -51.554   0.700  1.00  0.00     0.000 C 
BRANCH   5   6
ATOM      6  C   UNL     1      -7.738 -51.288   1.699  1.00  0.00     0.006 C 
BRANCH   6   7
ATOM      7  C   UNL     1      -7.352 -51.643   3.140  1.00  0.00     0.053 C 
BRANCH   7   8
ATOM      8  C   UNL     1      -8.086 -50.769   4.106  1.00  0.00     0.041 C 
ATOM      9  O   UNL     1      -8.957 -49.958   3.695  1.00  0.00    -0.550 OA
ATOM     10  O   UNL     1      -7.773 -50.814   5.460  1.00  0.00    -0.550 OA
ENDBRANCH   7   8
ENDBRANCH   6   7
ENDBRANCH   5   6
ENDBRANCH   4   5
ENDBRANCH   3   4
ENDBRANCH   2   3
ENDBRANCH   1   2
BRANCH   1  11
ATOM     11  C   UNL     1      -1.680 -51.583   2.287  1.00  0.00     0.000 C 
BRANCH  11  12
ATOM     12  C   UNL     1      -0.940 -51.266   3.596  1.00  0.00    -0.000 C 
BRANCH  12  13
ATOM     13  C   UNL     1      -1.432 -52.125   4.774  1.00  0.00    -0.000 C 
BRANCH  13  14
ATOM     14  C   UNL     1      -1.834 -51.280   5.994  1.00  0.00    -0.000 C 
BRANCH  14  15
ATOM     15  C   UNL     1      -1.617 -52.016   7.325  1.00  0.00    -0.000 C 
BRANCH  15  16
ATOM     16  C   UNL     1      -2.418 -51.354   8.456  1.00  0.00    -0.000 C 
BRANCH  16  17
ATOM     17  C   UNL     1      -3.928 -51.332   8.177  1.00  0.00    -0.003 C 
ATOM     18  C   UNL     1      -4.737 -50.759   9.341  1.00  0.00     0.004 C 
ENDBRANCH  16  17
ENDBRANCH  15  16
ENDBRANCH  14  15
ENDBRANCH  13  14
ENDBRANCH  12  13
ENDBRANCH  11  12
ENDBRANCH   1  11
TORSDOF 14
ENDMDL
MODEL 2
REMARK VINA RESULT:    -3.661      1.611      6.091
REMARK INTER + INTRA:          -7.471
REMARK INTER:                  -6.684
REMARK INTRA:                  -0.787
REMARK UNBOUND:                -0.814
REMARK SMILES CCCCCCCCCCCCCCCC(=O)[O-]
REMARK SMILES IDX 9 1 10 2 11 3 12 4 13 5 14 6 15 7 16 8 17 9 18 10 8 11 7 12
REMARK SMILES IDX 6 13 5 14 4 15 3 16 2 17 1 18
REMARK H PARENT
REMARK Flexibility Score: inf
ROOT
ATOM      1  C   UNL     1      -2.205 -51.010   2.761  1.00  0.00     0.000 C 
ENDROOT
BRANCH   1   2
ATOM      2  C   UNL     1      -1.147 -51.516   3.754  1.00  0.00     0.000 C 
BRANCH   2   3
ATOM      3  C   UNL     1      -1.766 -52.020   5.069  1.00  0.00     0.000 C 
BRANCH   3   4
ATOM      4  C   UNL     1      -1.210 -51.290   6.302  1.00  0.00     0.000 C 
BRANCH   4   5
ATOM      5  C   UNL     1      -1.902 -51.724   7.606  1.00  0.00     0.000 C 
BRANCH   5   6
ATOM      6  C   UNL     1      -3.383 -51.316   7.652  1.00  0.00     0.006 C 
BRANCH   6   7
ATOM      7  C   UNL     1      -4.079 -51.763   8.943  1.00  0.00     0.053 C 
BRANCH   7   8
ATOM      8  C   UNL     1      -5.466 -51.207   9.008  1.00  0.00     0.041 C 
ATOM      9  O   UNL     1      -5.863 -50.609  10.044  1.00  0.00    -0.550 OA
ATOM     10  O   UNL     1      -6.339 -51.391   7.943  1.00  0.00    -0.550 OA
ENDBRANCH   7   8
ENDBRANCH   6   7
ENDBRANCH   5   6
ENDBRANCH   4   5
ENDBRANCH   3   4
ENDBRANCH   2   3
ENDBRANCH   1   2
BRANCH   1  11
ATOM     11  C   UNL     1      -1.870 -51.378   1.306  1.00  0.00     0.000 C 
BRANCH  11  12
ATOM     12  C   UNL     1      -2.911 -50.848   0.306  1.00  0.00    -0.000 C 
BRANCH  12  13
ATOM     13  C   UNL     1      -4.078 -51.829   0.096  1.00  0.00    -0.000 C 
BRANCH  13  14
ATOM     14  C   UNL     1      -5.405 -51.114  -0.207  1.00  0.00    -0.000 C 
BRANCH  14  15
ATOM     15  C   UNL     1      -6.594 -51.720   0.553  1.00  0.00    -0.000 C 
BRANCH  15  16
ATOM     16  C   UNL     1      -6.195 -52.094   1.988  1.00  0.00    -0.000 C 
BRANCH  16  17
ATOM     17  C   UNL     1      -7.238 -51.654   3.026  1.00  0.00    -0.003 C 
ATOM     18  C   UNL     1      -8.545 -51.181   2.388  1.00  0.00     0.004 C 
ENDBRANCH  16  17
ENDBRANCH  15  16
ENDBRANCH  14  15
ENDBRANCH  13  14
ENDBRANCH  12  13
ENDBRANCH  11  12
ENDBRANCH   1  11
TORSDOF 14
ENDMDL
MODEL 3
REMARK VINA RESULT:    -3.401      2.121      6.089
REMARK INTER + INTRA:          -6.999
REMARK INTER:                  -6.081
REMARK INTRA:                  -0.918
REMARK UNBOUND:                -0.814
REMARK SMILES CCCCCCCCCCCCCCCC(=O)[O-]
REMARK SMILES IDX 9 1 10 2 11 3 12 4 13 5 14 6 15 7 16 8 17 9 18 10 8 11 7 12
REMARK SMILES IDX 6 13 5 14 4 15 3 16 2 17 1 18
REMARK H PARENT
REMARK Flexibility Score: inf
ROOT
ATOM      1  C   UNL     1      -2.989 -50.267   1.123  1.00  0.00     0.000 C 
ENDROOT
BRANCH   1   2
ATOM      2  C   UNL     1      -2.583 -51.494   1.954  1.00  0.00     0.000 C 
BRANCH   2   3
ATOM      3  C   UNL     1      -1.262 -51.281   2.713  1.00  0.00     0.000 C 
BRANCH   3   4
ATOM      4  C   UNL     1      -1.337 -51.755   4.173  1.00  0.00     0.000 C 
BRANCH   4   5
ATOM      5  C   UNL     1      -2.778 -52.049   4.624  1.00  0.00     0.000 C 
BRANCH   5   6
ATOM      6  C   UNL     1      -3.141 -51.340   5.939  1.00  0.00     0.006 C 
BRANCH   6   7
ATOM      7  C   UNL     1      -2.690 -52.125   7.176  1.00  0.00     0.053 C 
BRANCH   7   8
ATOM      8  C   UNL     1      -3.301 -51.546   8.412  1.00  0.00     0.041 C 
ATOM      9  O   UNL     1      -3.029 -52.031   9.543  1.00  0.00    -0.550 OA
ATOM     10  O   UNL     1      -4.214 -50.503   8.313  1.00  0.00    -0.550 OA
ENDBRANCH   7   8
ENDBRANCH   6   7
ENDBRANCH   5   6
ENDBRANCH   4   5
ENDBRANCH   3   4
ENDBRANCH   2   3
ENDBRANCH   1   2
BRANCH   1  11
ATOM     11  C   UNL     1      -4.045 -50.602   0.055  1.00  0.00     0.000 C 
BRANCH  11  12
ATOM     12  C   UNL     1      -4.870 -51.850   0.408  1.00  0.00    -0.000 C 
BRANCH  12  13
ATOM     13  C   UNL     1      -6.115 -52.003  -0.484  1.00  0.00    -0.000 C 
BRANCH  13  14
ATOM     14  C   UNL     1      -7.414 -52.122   0.330  1.00  0.00    -0.000 C 
BRANCH  14  15
ATOM     15  C   UNL     1      -7.458 -51.157   1.525  1.00  0.00    -0.000 C 
BRANCH  15  16
ATOM     16  C   UNL     1      -8.886 -51.033   2.077  1.00  0.00    -0.000 C 
BRANCH  16  17
ATOM     17  C   UNL     1      -8.958 -51.280   3.592  1.00  0.00    -0.003 C 
ATOM     18  C   UNL     1      -7.620 -51.044   4.294  1.00  0.00     0.004 C 
ENDBRANCH  16  17
ENDBRANCH  15  16
ENDBRANCH  14  15
ENDBRANCH  13  14
ENDBRANCH  12  13
ENDBRANCH  11  12
ENDBRANCH   1  11
TORSDOF 14
ENDMDL
MODEL 4
REMARK VINA RESULT:    -3.100      2.075      6.333
REMARK INTER + INTRA:          -6.452
REMARK INTER:                  -5.337
REMARK INTRA:                  -1.116
REMARK UNBOUND:                -0.814
REMARK SMILES CCCCCCCCCCCCCCCC(=O)[O-]
REMARK SMILES IDX 9 1 10 2 11 3 12 4 13 5 14 6 15 7 16 8 17 9 18 10 8 11 7 12
REMARK SMILES IDX 6 13 5 14 4 15 3 16 2 17 1 18
REMARK H PARENT
REMARK Flexibility Score: inf
ROOT
ATOM      1  C   UNL     1      -3.963 -51.681   5.254  1.00  0.00     0.000 C 
ENDROOT
BRANCH   1   2
ATOM      2  C   UNL     1      -3.126 -50.855   6.245  1.00  0.00     0.000 C 
BRANCH   2   3
ATOM      3  C   UNL     1      -2.869 -51.602   7.565  1.00  0.00     0.000 C 
BRANCH   3   4
ATOM      4  C   UNL     1      -3.662 -51.011   8.741  1.00  0.00     0.000 C 
BRANCH   4   5
ATOM      5  C   UNL     1      -4.065 -52.078   9.775  1.00  0.00     0.000 C 
BRANCH   5   6
ATOM      6  C   UNL     1      -5.561 -52.025  10.125  1.00  0.00     0.006 C 
BRANCH   6   7
ATOM      7  C   UNL     1      -6.453 -51.914   8.883  1.00  0.00     0.053 C 
BRANCH   7   8
ATOM      8  C   UNL     1      -7.562 -50.939   9.123  1.00  0.00     0.041 C 
ATOM      9  O   UNL     1      -7.453 -49.746   8.735  1.00  0.00    -0.550 OA
ATOM     10  O   UNL     1      -8.696 -51.335   9.821  1.00  0.00    -0.550 OA
ENDBRANCH   7   8
ENDBRANCH   6   7
ENDBRANCH   5   6
ENDBRANCH   4   5
ENDBRANCH   3   4
ENDBRANCH   2   3
ENDBRANCH   1   2
BRANCH   1  11
ATOM     11  C   UNL     1      -3.152 -52.125   4.025  1.00  0.00     0.000 C 
BRANCH  11  12
ATOM     12  C   UNL     1      -1.714 -51.582   4.035  1.00  0.00    -0.000 C 
BRANCH  12  13
ATOM     13  C   UNL     1      -1.313 -50.953   2.689  1.00  0.00    -0.000 C 
BRANCH  13  14
ATOM     14  C   UNL     1      -2.527 -50.501   1.862  1.00  0.00    -0.000 C 
BRANCH  14  15
ATOM     15  C   UNL     1      -2.475 -50.996   0.409  1.00  0.00    -0.000 C 
BRANCH  15  16
ATOM     16  C   UNL     1      -3.891 -51.185  -0.158  1.00  0.00    -0.000 C 
BRANCH  16  17
ATOM     17  C   UNL     1      -4.823 -51.923   0.815  1.00  0.00    -0.003 C 
ATOM     18  C   UNL     1      -6.291 -51.534   0.637  1.00  0.00     0.004 C 
ENDBRANCH  16  17
ENDBRANCH  15  16
ENDBRANCH  14  15
ENDBRANCH  13  14
ENDBRANCH  12  13
ENDBRANCH  11  12
ENDBRANCH   1  11
TORSDOF 14
ENDMDL
MODEL 5
REMARK VINA RESULT:    -3.027      4.359      6.130
REMARK INTER + INTRA:          -6.318
REMARK INTER:                  -5.729
REMARK INTRA:                  -0.589
REMARK UNBOUND:                -0.814
REMARK SMILES CCCCCCCCCCCCCCCC(=O)[O-]
REMARK SMILES IDX 9 1 10 2 11 3 12 4 13 5 14 6 15 7 16 8 17 9 18 10 8 11 7 12
REMARK SMILES IDX 6 13 5 14 4 15 3 16 2 17 1 18
REMARK H PARENT
REMARK Flexibility Score: inf
ROOT
ATOM      1  C   UNL     1      -4.001 -52.034   5.591  1.00  0.00     0.000 C 
ENDROOT
BRANCH   1   2
ATOM      2  C   UNL     1      -3.551 -51.181   4.395  1.00  0.00     0.000 C 
BRANCH   2   3
ATOM      3  C   UNL     1      -3.265 -52.027   3.142  1.00  0.00     0.000 C 
BRANCH   3   4
ATOM      4  C   UNL     1      -2.429 -51.271   2.097  1.00  0.00     0.000 C 
BRANCH   4   5
ATOM      5  C   UNL     1      -3.054 -51.324   0.692  1.00  0.00     0.000 C 
BRANCH   5   6
ATOM      6  C   UNL     1      -2.007 -51.189  -0.425  1.00  0.00     0.006 C 
BRANCH   6   7
ATOM      7  C   UNL     1      -0.809 -52.125  -0.226  1.00  0.00     0.053 C 
BRANCH   7   8
ATOM      8  C   UNL     1       0.186 -51.940  -1.328  1.00  0.00     0.041 C 
ATOM      9  O   UNL     1       1.411 -51.818  -1.064  1.00  0.00    -0.550 OA
ATOM     10  O   UNL     1      -0.246 -51.852  -2.646  1.00  0.00    -0.550 OA
ENDBRANCH   7   8
ENDBRANCH   6   7
ENDBRANCH   5   6
ENDBRANCH   4   5
ENDBRANCH   3   4
ENDBRANCH   2   3
ENDBRANCH   1   2
BRANCH   1  11
ATOM     11  C   UNL     1      -2.949 -52.080   6.712  1.00  0.00     0.000 C 
BRANCH  11  12
ATOM     12  C   UNL     1      -3.114 -50.938   7.727  1.00  0.00    -0.000 C 
BRANCH  12  13
ATOM     13  C   UNL     1      -3.100 -51.438   9.182  1.00  0.00    -0.000 C 
BRANCH  13  14
ATOM     14  C   UNL     1      -4.424 -52.103   9.593  1.00  0.00    -0.000 C 
BRANCH  14  15
ATOM     15  C   UNL     1      -5.469 -51.092  10.088  1.00  0.00    -0.000 C 
BRANCH  15  16
ATOM     16  C   UNL     1      -6.872 -51.460   9.582  1.00  0.00    -0.000 C 
BRANCH  16  17
ATOM     17  C   UNL     1      -7.652 -50.242   9.065  1.00  0.00    -0.003 C 
ATOM     18  C   UNL     1      -8.692 -49.737  10.066  1.00  0.00     0.004 C 
ENDBRANCH  16  17
ENDBRANCH  15  16
ENDBRANCH  14  15
ENDBRANCH  13  14
ENDBRANCH  12  13
ENDBRANCH  11  12
ENDBRANCH   1  11
TORSDOF 14
ENDMDL
MODEL 6
REMARK VINA RESULT:    -2.909      3.080      4.689
REMARK INTER + INTRA:          -6.103
REMARK INTER:                  -4.665
REMARK INTRA:                  -1.439
REMARK UNBOUND:                -0.814
REMARK SMILES CCCCCCCCCCCCCCCC(=O)[O-]
REMARK SMILES IDX 9 1 10 2 11 3 12 4 13 5 14 6 15 7 16 8 17 9 18 10 8 11 7 12
REMARK SMILES IDX 6 13 5 14 4 15 3 16 2 17 1 18
REMARK H PARENT
REMARK Flexibility Score: inf
ROOT
ATOM      1  C   UNL     1      -4.378 -50.775   5.093  1.00  0.00     0.000 C 
ENDROOT
BRANCH   1   2
ATOM      2  C   UNL     1      -5.364 -51.931   4.868  1.00  0.00     0.000 C 
BRANCH   2   3
ATOM      3  C   UNL     1      -5.864 -52.005   3.415  1.00  0.00     0.000 C 
BRANCH   3   4
ATOM      4  C   UNL     1      -4.716 -52.125   2.401  1.00  0.00     0.000 C 
BRANCH   4   5
ATOM      5  C   UNL     1      -4.920 -51.226   1.169  1.00  0.00     0.000 C 
BRANCH   5   6
ATOM      6  C   UNL     1      -3.593 -50.806   0.517  1.00  0.00     0.006 C 
BRANCH   6   7
ATOM      7  C   UNL     1      -2.596 -50.229   1.529  1.00  0.00     0.053 C 
BRANCH   7   8
ATOM      8  C   UNL     1      -1.396 -51.115   1.642  1.00  0.00     0.041 C 
ATOM      9  O   UNL     1      -0.815 -51.533   0.606  1.00  0.00    -0.550 OA
ATOM     10  O   UNL     1      -0.948 -51.521   2.894  1.00  0.00    -0.550 OA
ENDBRANCH   7   8
ENDBRANCH   6   7
ENDBRANCH   5   6
ENDBRANCH   4   5
ENDBRANCH   3   4
ENDBRANCH   2   3
ENDBRANCH   1   2
BRANCH   1  11
ATOM     11  C   UNL     1      -3.028 -51.253   5.654  1.00  0.00     0.000 C 
BRANCH  11  12
ATOM     12  C   UNL     1      -3.179 -52.071   6.947  1.00  0.00    -0.000 C 
BRANCH  12  13
ATOM     13  C   UNL     1      -3.142 -51.190   8.208  1.00  0.00    -0.000 C 
BRANCH  13  14
ATOM     14  C   UNL     1      -3.447 -51.980   9.491  1.00  0.00    -0.000 C 
BRANCH  14  15
ATOM     15  C   UNL     1      -4.900 -51.811   9.963  1.00  0.00    -0.000 C 
BRANCH  15  16
ATOM     16  C   UNL     1      -5.566 -50.614   9.267  1.00  0.00    -0.000 C 
BRANCH  16  17
ATOM     17  C   UNL     1      -7.050 -50.862   8.957  1.00  0.00    -0.003 C 
ATOM     18  C   UNL     1      -7.261 -51.968   7.922  1.00  0.00     0.004 C 
ENDBRANCH  16  17
ENDBRANCH  15  16
ENDBRANCH  14  15
ENDBRANCH  13  14
ENDBRANCH  12  13
ENDBRANCH  11  12
ENDBRANCH   1  11
TORSDOF 14
ENDMDL
MODEL 7
REMARK VINA RESULT:    -2.703      2.044      6.256
REMARK INTER + INTRA:          -5.729
REMARK INTER:                  -5.302
REMARK INTRA:                  -0.427
REMARK UNBOUND:                -0.814
REMARK SMILES CCCCCCCCCCCCCCCC(=O)[O-]
REMARK SMILES IDX 9 1 10 2 11 3 12 4 13 5 14 6 15 7 16 8 17 9 18 10 8 11 7 12
REMARK SMILES IDX 6 13 5 14 4 15 3 16 2 17 1 18
REMARK H PARENT
REMARK Flexibility Score: inf
ROOT
ATOM      1  C   UNL     1      -5.126 -51.614   4.793  1.00  0.00     0.000 C 
ENDROOT
BRANCH   1   2
ATOM      2  C   UNL     1      -3.590 -51.567   4.802  1.00  0.00     0.000 C 
BRANCH   2   3
ATOM      3  C   UNL     1      -3.024 -51.072   6.144  1.00  0.00     0.000 C 
BRANCH   3   4
ATOM      4  C   UNL     1      -3.136 -52.125   7.257  1.00  0.00     0.000 C 
BRANCH   4   5
ATOM      5  C   UNL     1      -4.461 -52.024   8.033  1.00  0.00     0.000 C 
BRANCH   5   6
ATOM      6  C   UNL     1      -4.290 -51.362   9.409  1.00  0.00     0.006 C 
BRANCH   6   7
ATOM      7  C   UNL     1      -5.324 -50.259   9.667  1.00  0.00     0.053 C 
BRANCH   7   8
ATOM      8  C   UNL     1      -6.704 -50.763   9.385  1.00  0.00     0.041 C 
ATOM      9  O   UNL     1      -7.038 -51.927   9.730  1.00  0.00    -0.550 OA
ATOM     10  O   UNL     1      -7.608 -49.964   8.695  1.00  0.00    -0.550 OA
ENDBRANCH   7   8
ENDBRANCH   6   7
ENDBRANCH   5   6
ENDBRANCH   4   5
ENDBRANCH   3   4
ENDBRANCH   2   3
ENDBRANCH   1   2
BRANCH   1  11
ATOM     11  C   UNL     1      -5.704 -51.695   3.370  1.00  0.00     0.000 C 
BRANCH  11  12
ATOM     12  C   UNL     1      -4.658 -52.123   2.328  1.00  0.00    -0.000 C 
BRANCH  12  13
ATOM     13  C   UNL     1      -5.083 -51.775   0.890  1.00  0.00    -0.000 C 
BRANCH  13  14
ATOM     14  C   UNL     1      -4.063 -50.876   0.173  1.00  0.00    -0.000 C 
BRANCH  14  15
ATOM     15  C   UNL     1      -2.869 -51.662  -0.390  1.00  0.00    -0.000 C 
BRANCH  15  16
ATOM     16  C   UNL     1      -1.620 -51.461   0.482  1.00  0.00    -0.000 C 
BRANCH  16  17
ATOM     17  C   UNL     1      -1.883 -50.556   1.694  1.00  0.00    -0.003 C 
ATOM     18  C   UNL     1      -0.878 -50.774   2.825  1.00  0.00     0.004 C 
ENDBRANCH  16  17
ENDBRANCH  15  16
ENDBRANCH  14  15
ENDBRANCH  13  14
ENDBRANCH  12  13
ENDBRANCH  11  12
ENDBRANCH   1  11
TORSDOF 14
ENDMDL
