MODEL 1
REMARK VINA RESULT:    14.158      0.000      0.000
REMARK INTER + INTRA:          25.763
REMARK INTER:                  26.572
REMARK INTRA:                  -0.810
REMARK UNBOUND:                -0.810
REMARK SMILES O=C([O-])CCCCCCCCCCCCCCC(=O)[O-]
REMARK SMILES IDX 10 1 9 2 8 3 7 4 6 5 5 6 4 7 2 8 1 9 3 10 11 11 12 12 13 13
REMARK SMILES IDX 14 14 15 15 16 16 17 17 18 18 19 19 20 20
REMARK H PARENT
REMARK Flexibility Score: inf
ROOT
ATOM      1  C   UNL     1      -6.498 -12.224  23.945  1.00  0.00     0.000 C 
ENDROOT
BRANCH   1   2
ATOM      2  C   UNL     1      -6.201 -12.830  25.329  1.00  0.00     0.000 C 
BRANCH   2   3
ATOM      3  C   UNL     1      -5.178 -13.984  25.332  1.00  0.00     0.000 C 
BRANCH   3   4
ATOM      4  C   UNL     1      -4.995 -14.691  26.687  1.00  0.00     0.000 C 
BRANCH   4   5
ATOM      5  C   UNL     1      -5.584 -16.108  26.704  1.00  0.00     0.000 C 
BRANCH   5   6
ATOM      6  C   UNL     1      -4.594 -17.121  26.110  1.00  0.00     0.006 C 
BRANCH   6   7
ATOM      7  C   UNL     1      -5.302 -18.353  25.530  1.00  0.00     0.053 C 
BRANCH   7   8
ATOM      8  C   UNL     1      -5.461 -18.252  24.043  1.00  0.00     0.041 C 
ATOM      9  O   UNL     1      -4.559 -17.721  23.342  1.00  0.00    -0.550 OA
ATOM     10  O   UNL     1      -6.592 -18.775  23.428  1.00  0.00    -0.550 OA
ENDBRANCH   7   8
ENDBRANCH   6   7
ENDBRANCH   5   6
ENDBRANCH   4   5
ENDBRANCH   3   4
ENDBRANCH   2   3
ENDBRANCH   1   2
BRANCH   1  11
ATOM     11  C   UNL     1      -5.929 -10.809  23.777  1.00  0.00     0.000 C 
BRANCH  11  12
ATOM     12  C   UNL     1      -6.040 -10.015  25.089  1.00  0.00     0.000 C 
BRANCH  12  13
ATOM     13  C   UNL     1      -5.001  -8.886  25.189  1.00  0.00     0.000 C 
BRANCH  13  14
ATOM     14  C   UNL     1      -3.807  -9.095  24.242  1.00  0.00     0.000 C 
BRANCH  14  15
ATOM     15  C   UNL     1      -2.877  -7.871  24.186  1.00  0.00     0.000 C 
BRANCH  15  16
ATOM     16  C   UNL     1      -1.390  -8.259  24.111  1.00  0.00     0.006 C 
BRANCH  16  17
ATOM     17  C   UNL     1      -0.956  -9.121  25.305  1.00  0.00     0.053 C 
BRANCH  17  18
ATOM     18  C   UNL     1       0.031  -8.409  26.179  1.00  0.00     0.041 C 
ATOM     19  O   UNL     1       0.595  -9.019  27.125  1.00  0.00    -0.550 OA
ATOM     20  O   UNL     1       0.351  -7.081  25.929  1.00  0.00    -0.550 OA
ENDBRANCH  17  18
ENDBRANCH  16  17
ENDBRANCH  15  16
ENDBRANCH  14  15
ENDBRANCH  13  14
ENDBRANCH  12  13
ENDBRANCH  11  12
ENDBRANCH   1  11
TORSDOF 15
ENDMDL
MODEL 2
REMARK VINA RESULT:    16.403      2.174      8.879
REMARK INTER + INTRA:          29.977
REMARK INTER:                  30.835
REMARK INTRA:                  -0.859
REMARK UNBOUND:                -0.810
REMARK SMILES O=C([O-])CCCCCCCCCCCCCCC(=O)[O-]
REMARK SMILES IDX 10 1 9 2 8 3 7 4 6 5 5 6 4 7 2 8 1 9 3 10 11 11 12 12 13 13
REMARK SMILES IDX 14 14 15 15 16 16 17 17 18 18 19 19 20 20
REMARK H PARENT
REMARK Flexibility Score: inf
ROOT
ATOM      1  C   UNL     1      -6.094 -10.715  23.810  1.00  0.00     0.000 C 
ENDROOT
BRANCH   1   2
ATOM      2  C   UNL     1      -6.208 -10.087  25.211  1.00  0.00     0.000 C 
BRANCH   2   3
ATOM      3  C   UNL     1      -5.043  -9.157  25.608  1.00  0.00     0.000 C 
BRANCH   3   4
ATOM      4  C   UNL     1      -4.318  -8.481  24.432  1.00  0.00     0.000 C 
BRANCH   4   5
ATOM      5  C   UNL     1      -2.799  -8.707  24.458  1.00  0.00     0.000 C 
BRANCH   5   6
ATOM      6  C   UNL     1      -2.083  -7.731  23.513  1.00  0.00     0.006 C 
BRANCH   6   7
ATOM      7  C   UNL     1      -3.052  -7.053  22.536  1.00  0.00     0.053 C 
BRANCH   7   8
ATOM      8  C   UNL     1      -2.672  -7.310  21.109  1.00  0.00     0.041 C 
ATOM      9  O   UNL     1      -3.446  -6.971  20.175  1.00  0.00    -0.550 OA
ATOM     10  O   UNL     1      -1.447  -7.895  20.811  1.00  0.00    -0.550 OA
ENDBRANCH   7   8
ENDBRANCH   6   7
ENDBRANCH   5   6
ENDBRANCH   4   5
ENDBRANCH   3   4
ENDBRANCH   2   3
ENDBRANCH   1   2
BRANCH   1  11
ATOM     11  C   UNL     1      -6.523 -12.188  23.779  1.00  0.00     0.000 C 
BRANCH  11  12
ATOM     12  C   UNL     1      -6.351 -12.839  25.160  1.00  0.00     0.000 C 
BRANCH  12  13
ATOM     13  C   UNL     1      -5.335 -13.993  25.151  1.00  0.00     0.000 C 
BRANCH  13  14
ATOM     14  C   UNL     1      -4.921 -14.428  26.567  1.00  0.00     0.000 C 
BRANCH  14  15
ATOM     15  C   UNL     1      -5.220 -15.912  26.840  1.00  0.00     0.000 C 
BRANCH  15  16
ATOM     16  C   UNL     1      -4.509 -16.852  25.850  1.00  0.00     0.006 C 
BRANCH  16  17
ATOM     17  C   UNL     1      -5.355 -18.090  25.520  1.00  0.00     0.053 C 
BRANCH  17  18
ATOM     18  C   UNL     1      -5.510 -18.281  24.042  1.00  0.00     0.041 C 
ATOM     19  O   UNL     1      -6.482 -18.941  23.587  1.00  0.00    -0.550 OA
ATOM     20  O   UNL     1      -4.600 -17.705  23.166  1.00  0.00    -0.550 OA
ENDBRANCH  17  18
ENDBRANCH  16  17
ENDBRANCH  15  16
ENDBRANCH  14  15
ENDBRANCH  13  14
ENDBRANCH  12  13
ENDBRANCH  11  12
ENDBRANCH   1  11
TORSDOF 15
ENDMDL
MODEL 3
REMARK VINA RESULT:    16.653      2.186      2.723
REMARK INTER + INTRA:          30.446
REMARK INTER:                  31.342
REMARK INTRA:                  -0.896
REMARK UNBOUND:                -0.810
REMARK SMILES O=C([O-])CCCCCCCCCCCCCCC(=O)[O-]
REMARK SMILES IDX 10 1 9 2 8 3 7 4 6 5 5 6 4 7 2 8 1 9 3 10 11 11 12 12 13 13
REMARK SMILES IDX 14 14 15 15 16 16 17 17 18 18 19 19 20 20
REMARK H PARENT
REMARK Flexibility Score: inf
ROOT
ATOM      1  C   UNL     1      -6.457 -12.107  23.810  1.00  0.00     0.000 C 
ENDROOT
BRANCH   1   2
ATOM      2  C   UNL     1      -6.470 -12.880  25.141  1.00  0.00     0.000 C 
BRANCH   2   3
ATOM      3  C   UNL     1      -5.416 -14.000  25.257  1.00  0.00     0.000 C 
BRANCH   3   4
ATOM      4  C   UNL     1      -5.009 -14.367  26.695  1.00  0.00     0.000 C 
BRANCH   4   5
ATOM      5  C   UNL     1      -5.077 -15.877  26.968  1.00  0.00     0.000 C 
BRANCH   5   6
ATOM      6  C   UNL     1      -4.597 -16.676  25.747  1.00  0.00     0.006 C 
BRANCH   6   7
ATOM      7  C   UNL     1      -5.407 -17.962  25.541  1.00  0.00     0.053 C 
BRANCH   7   8
ATOM      8  C   UNL     1      -5.516 -18.323  24.090  1.00  0.00     0.041 C 
ATOM      9  O   UNL     1      -4.743 -17.797  23.246  1.00  0.00    -0.550 OA
ATOM     10  O   UNL     1      -6.448 -19.266  23.676  1.00  0.00    -0.550 OA
ENDBRANCH   7   8
ENDBRANCH   6   7
ENDBRANCH   5   6
ENDBRANCH   4   5
ENDBRANCH   3   4
ENDBRANCH   2   3
ENDBRANCH   1   2
BRANCH   1  11
ATOM     11  C   UNL     1      -6.018 -10.645  23.972  1.00  0.00     0.000 C 
BRANCH  11  12
ATOM     12  C   UNL     1      -5.994 -10.241  25.455  1.00  0.00     0.000 C 
BRANCH  12  13
ATOM     13  C   UNL     1      -5.212  -8.942  25.704  1.00  0.00     0.000 C 
BRANCH  13  14
ATOM     14  C   UNL     1      -4.457  -8.457  24.455  1.00  0.00     0.000 C 
BRANCH  14  15
ATOM     15  C   UNL     1      -2.939  -8.682  24.558  1.00  0.00     0.000 C 
BRANCH  15  16
ATOM     16  C   UNL     1      -2.141  -7.811  23.571  1.00  0.00     0.006 C 
BRANCH  16  17
ATOM     17  C   UNL     1      -3.056  -7.046  22.605  1.00  0.00     0.053 C 
BRANCH  17  18
ATOM     18  C   UNL     1      -2.671  -7.274  21.174  1.00  0.00     0.041 C 
ATOM     19  O   UNL     1      -1.532  -7.729  20.889  1.00  0.00    -0.550 OA
ATOM     20  O   UNL     1      -3.582  -7.015  20.159  1.00  0.00    -0.550 OA
ENDBRANCH  17  18
ENDBRANCH  16  17
ENDBRANCH  15  16
ENDBRANCH  14  15
ENDBRANCH  13  14
ENDBRANCH  12  13
ENDBRANCH  11  12
ENDBRANCH   1  11
TORSDOF 15
ENDMDL
