MODEL 1
REMARK VINA RESULT:    -2.032      0.000      0.000
REMARK INTER + INTRA:          -2.032
REMARK INTER:                  -2.032
REMARK INTRA:                   0.000
REMARK UNBOUND:                 0.000
REMARK SMILES CC1(C)[C@@H]2CC[C@@]1(C)C(=O)C2
REMARK SMILES IDX 1 1 2 2 4 3 5 4 6 5 7 6 9 7 10 8 11 9 8 10 3 11
REMARK H PARENT
REMARK Flexibility Score: inf
ROOT
ATOM      1  C   UNL     1     126.117 110.144 136.024  1.00  0.00     0.012 C 
ATOM      2  C   UNL     1     126.377 110.291 134.493  1.00  0.00    -0.020 C 
ATOM      3  C   UNL     1     127.109 109.078 133.870  1.00  0.00     0.003 C 
ATOM      4  C   UNL     1     127.082 109.406 132.351  1.00  0.00     0.005 C 
ATOM      5  C   UNL     1     125.708 110.099 132.170  1.00  0.00     0.015 C 
ATOM      6  C   UNL     1     125.130 110.089 133.605  1.00  0.00     0.032 C 
ATOM      7  C   UNL     1     124.822 108.638 133.885  1.00  0.00     0.139 C 
ATOM      8  O   UNL     1     123.714 108.124 133.870  1.00  0.00    -0.299 OA
ATOM      9  C   UNL     1     126.113 107.904 134.082  1.00  0.00     0.080 C 
ATOM     10  C   UNL     1     123.963 111.055 133.835  1.00  0.00     0.020 C 
ATOM     11  C   UNL     1     127.125 111.645 134.300  1.00  0.00     0.012 C 
ENDROOT
TORSDOF 0
ENDMDL
MODEL 2
REMARK VINA RESULT:    -2.005      1.834      3.050
REMARK INTER + INTRA:          -2.005
REMARK INTER:                  -2.005
REMARK INTRA:                   0.000
REMARK UNBOUND:                 0.000
REMARK SMILES CC1(C)[C@@H]2CC[C@@]1(C)C(=O)C2
REMARK SMILES IDX 1 1 2 2 4 3 5 4 6 5 7 6 9 7 10 8 11 9 8 10 3 11
REMARK H PARENT
REMARK Flexibility Score: inf
ROOT
ATOM      1  C   UNL     1     124.243 111.656 133.765  1.00  0.00     0.012 C 
ATOM      2  C   UNL     1     125.053 110.323 133.725  1.00  0.00    -0.020 C 
ATOM      3  C   UNL     1     126.528 110.508 133.293  1.00  0.00     0.003 C 
ATOM      4  C   UNL     1     127.125 109.089 133.504  1.00  0.00     0.005 C 
ATOM      5  C   UNL     1     126.384 108.584 134.767  1.00  0.00     0.015 C 
ATOM      6  C   UNL     1     125.451 109.770 135.110  1.00  0.00     0.032 C 
ATOM      7  C   UNL     1     126.377 110.860 135.589  1.00  0.00     0.139 C 
ATOM      8  O   UNL     1     126.557 111.190 136.753  1.00  0.00    -0.299 OA
ATOM      9  C   UNL     1     127.125 111.405 134.412  1.00  0.00     0.080 C 
ATOM     10  C   UNL     1     124.303 109.429 136.067  1.00  0.00     0.020 C 
ATOM     11  C   UNL     1     124.248 109.344 132.818  1.00  0.00     0.012 C 
ENDROOT
TORSDOF 0
ENDMDL
MODEL 3
REMARK VINA RESULT:    -1.928      1.712      3.161
REMARK INTER + INTRA:          -1.928
REMARK INTER:                  -1.928
REMARK INTRA:                   0.000
REMARK UNBOUND:                 0.000
REMARK SMILES CC1(C)[C@@H]2CC[C@@]1(C)C(=O)C2
REMARK SMILES IDX 1 1 2 2 4 3 5 4 6 5 7 6 9 7 10 8 11 9 8 10 3 11
REMARK H PARENT
REMARK Flexibility Score: inf
ROOT
ATOM      1  C   UNL     1     124.287 109.916 132.660  1.00  0.00     0.012 C 
ATOM      2  C   UNL     1     125.070 108.656 133.146  1.00  0.00    -0.020 C 
ATOM      3  C   UNL     1     126.570 108.676 132.767  1.00  0.00     0.003 C 
ATOM      4  C   UNL     1     127.125 107.425 133.503  1.00  0.00     0.005 C 
ATOM      5  C   UNL     1     126.302 107.401 134.815  1.00  0.00     0.015 C 
ATOM      6  C   UNL     1     125.376 108.631 134.658  1.00  0.00     0.032 C 
ATOM      7  C   UNL     1     126.296 109.821 134.775  1.00  0.00     0.139 C 
ATOM      8  O   UNL     1     126.415 110.543 135.755  1.00  0.00    -0.299 OA
ATOM      9  C   UNL     1     127.121 109.913 133.529  1.00  0.00     0.080 C 
ATOM     10  C   UNL     1     124.168 108.651 135.601  1.00  0.00     0.020 C 
ATOM     11  C   UNL     1     124.298 107.418 132.597  1.00  0.00     0.012 C 
ENDROOT
TORSDOF 0
ENDMDL
MODEL 4
REMARK VINA RESULT:    -1.892      1.844      3.214
REMARK INTER + INTRA:          -1.892
REMARK INTER:                  -1.892
REMARK INTRA:                   0.000
REMARK UNBOUND:                 0.000
REMARK SMILES CC1(C)[C@@H]2CC[C@@]1(C)C(=O)C2
REMARK SMILES IDX 1 1 2 2 4 3 5 4 6 5 7 6 9 7 10 8 11 9 8 10 3 11
REMARK H PARENT
REMARK Flexibility Score: inf
ROOT
ATOM      1  C   UNL     1     127.125 109.157 133.728  1.00  0.00     0.012 C 
ATOM      2  C   UNL     1     126.236 110.026 134.672  1.00  0.00    -0.020 C 
ATOM      3  C   UNL     1     126.915 111.342 135.123  1.00  0.00     0.003 C 
ATOM      4  C   UNL     1     125.774 112.069 135.888  1.00  0.00     0.005 C 
ATOM      5  C   UNL     1     124.511 111.681 135.080  1.00  0.00     0.015 C 
ATOM      6  C   UNL     1     125.086 110.775 133.965  1.00  0.00     0.032 C 
ATOM      7  C   UNL     1     125.868 111.709 133.076  1.00  0.00     0.139 C 
ATOM      8  O   UNL     1     125.509 112.132 131.986  1.00  0.00    -0.299 OA
ATOM      9  C   UNL     1     127.116 112.121 133.793  1.00  0.00     0.080 C 
ATOM     10  C   UNL     1     124.049 109.908 133.241  1.00  0.00     0.020 C 
ATOM     11  C   UNL     1     125.809 109.100 135.851  1.00  0.00     0.012 C 
ENDROOT
TORSDOF 0
ENDMDL
MODEL 5
REMARK VINA RESULT:    -1.788      1.453      2.604
REMARK INTER + INTRA:          -1.788
REMARK INTER:                  -1.788
REMARK INTRA:                   0.000
REMARK UNBOUND:                 0.000
REMARK SMILES CC1(C)[C@@H]2CC[C@@]1(C)C(=O)C2
REMARK SMILES IDX 1 1 2 2 4 3 5 4 6 5 7 6 9 7 10 8 11 9 8 10 3 11
REMARK H PARENT
REMARK Flexibility Score: inf
ROOT
ATOM      1  C   UNL     1     126.775 110.973 134.250  1.00  0.00     0.012 C 
ATOM      2  C   UNL     1     126.229 109.512 134.301  1.00  0.00    -0.020 C 
ATOM      3  C   UNL     1     126.176 108.921 135.731  1.00  0.00     0.003 C 
ATOM      4  C   UNL     1     125.451 107.564 135.512  1.00  0.00     0.005 C 
ATOM      5  C   UNL     1     124.426 107.893 134.398  1.00  0.00     0.015 C 
ATOM      6  C   UNL     1     124.701 109.389 134.114  1.00  0.00     0.032 C 
ATOM      7  C   UNL     1     124.211 110.110 135.345  1.00  0.00     0.139 C 
ATOM      8  O   UNL     1     123.166 110.737 135.441  1.00  0.00    -0.299 OA
ATOM      9  C   UNL     1     125.165 109.843 136.468  1.00  0.00     0.080 C 
ATOM     10  C   UNL     1     124.130 109.907 132.789  1.00  0.00     0.020 C 
ATOM     11  C   UNL     1     127.096 108.682 133.307  1.00  0.00     0.012 C 
ENDROOT
TORSDOF 0
ENDMDL
