MODEL 1
REMARK VINA RESULT:    -4.719      0.000      0.000
REMARK INTER + INTRA:          -5.927
REMARK INTER:                  -5.822
REMARK INTRA:                  -0.105
REMARK UNBOUND:                -0.105
REMARK SMILES CCCCC=CC(C)=O
REMARK SMILES IDX 4 1 3 2 2 3 1 4 5 5 6 6 7 7 9 8 8 9
REMARK H PARENT
REMARK Flexibility Score: inf
ROOT
ATOM      1  C   UNL     1      12.316  30.647  30.264  1.00  0.00     0.027 C 
ENDROOT
BRANCH   1   2
ATOM      2  C   UNL     1      11.511  31.708  29.500  1.00  0.00     0.004 C 
BRANCH   2   3
ATOM      3  C   UNL     1      12.249  32.227  28.257  1.00  0.00    -0.003 C 
ATOM      4  C   UNL     1      11.530  33.397  27.587  1.00  0.00     0.004 C 
ENDBRANCH   2   3
ENDBRANCH   1   2
BRANCH   1   5
ATOM      5  C   UNL     1      13.699  31.141  30.582  1.00  0.00    -0.023 C 
ATOM      6  C   UNL     1      14.778  30.631  29.975  1.00  0.00     0.042 C 
BRANCH   6   7
ATOM      7  C   UNL     1      16.157  31.075  30.264  1.00  0.00     0.152 C 
ATOM      8  O   UNL     1      17.024  30.206  30.547  1.00  0.00    -0.295 OA
ATOM      9  C   UNL     1      16.560  32.519  30.233  1.00  0.00     0.093 C 
ENDBRANCH   6   7
ENDBRANCH   1   5
TORSDOF 4
ENDMDL
MODEL 2
REMARK VINA RESULT:    -4.266      2.628      4.766
REMARK INTER + INTRA:          -5.369
REMARK INTER:                  -5.145
REMARK INTRA:                  -0.223
REMARK UNBOUND:                -0.105
REMARK SMILES CCCCC=CC(C)=O
REMARK SMILES IDX 4 1 3 2 2 3 1 4 5 5 6 6 7 7 9 8 8 9
REMARK H PARENT
REMARK Flexibility Score: inf
ROOT
ATOM      1  C   UNL     1      14.609  30.772  29.889  1.00  0.00     0.027 C 
ENDROOT
BRANCH   1   2
ATOM      2  C   UNL     1      16.074  31.037  30.268  1.00  0.00     0.004 C 
BRANCH   2   3
ATOM      3  C   UNL     1      16.550  32.433  29.839  1.00  0.00    -0.003 C 
ATOM      4  C   UNL     1      17.083  33.262  31.008  1.00  0.00     0.004 C 
ENDBRANCH   2   3
ENDBRANCH   1   2
BRANCH   1   5
ATOM      5  C   UNL     1      14.020  31.938  29.148  1.00  0.00    -0.023 C 
ATOM      6  C   UNL     1      12.850  31.837  28.504  1.00  0.00     0.042 C 
BRANCH   6   7
ATOM      7  C   UNL     1      12.239  32.952  27.753  1.00  0.00     0.152 C 
ATOM      8  O   UNL     1      11.044  33.265  28.003  1.00  0.00    -0.295 OA
ATOM      9  C   UNL     1      12.986  33.721  26.706  1.00  0.00     0.093 C 
ENDBRANCH   6   7
ENDBRANCH   1   5
TORSDOF 4
ENDMDL
MODEL 3
REMARK VINA RESULT:    -4.166      1.309      1.792
REMARK INTER + INTRA:          -5.245
REMARK INTER:                  -5.050
REMARK INTRA:                  -0.195
REMARK UNBOUND:                -0.105
REMARK SMILES CCCCC=CC(C)=O
REMARK SMILES IDX 4 1 3 2 2 3 1 4 5 5 6 6 7 7 9 8 8 9
REMARK H PARENT
REMARK Flexibility Score: inf
ROOT
ATOM      1  C   UNL     1      12.024  32.090  28.699  1.00  0.00     0.027 C 
ENDROOT
BRANCH   1   2
ATOM      2  C   UNL     1      11.789  33.261  27.734  1.00  0.00     0.004 C 
BRANCH   2   3
ATOM      3  C   UNL     1      13.067  33.679  26.991  1.00  0.00    -0.003 C 
ATOM      4  C   UNL     1      12.790  34.624  25.822  1.00  0.00     0.004 C 
ENDBRANCH   2   3
ENDBRANCH   1   2
BRANCH   1   5
ATOM      5  C   UNL     1      13.489  31.792  28.844  1.00  0.00    -0.023 C 
ATOM      6  C   UNL     1      13.950  31.028  29.843  1.00  0.00     0.042 C 
BRANCH   6   7
ATOM      7  C   UNL     1      15.382  30.719  30.033  1.00  0.00     0.152 C 
ATOM      8  O   UNL     1      15.751  29.515  29.989  1.00  0.00    -0.295 OA
ATOM      9  C   UNL     1      16.409  31.783  30.277  1.00  0.00     0.093 C 
ENDBRANCH   6   7
ENDBRANCH   1   5
TORSDOF 4
ENDMDL
MODEL 4
REMARK VINA RESULT:    -4.091      2.706      4.706
REMARK INTER + INTRA:          -5.153
REMARK INTER:                  -4.974
REMARK INTRA:                  -0.179
REMARK UNBOUND:                -0.105
REMARK SMILES CCCCC=CC(C)=O
REMARK SMILES IDX 4 1 3 2 2 3 1 4 5 5 6 6 7 7 9 8 8 9
REMARK H PARENT
REMARK Flexibility Score: inf
ROOT
ATOM      1  C   UNL     1      12.879  30.830  30.194  1.00  0.00     0.027 C 
ENDROOT
BRANCH   1   2
ATOM      2  C   UNL     1      14.362  31.197  30.353  1.00  0.00     0.004 C 
BRANCH   2   3
ATOM      3  C   UNL     1      15.299  30.055  29.934  1.00  0.00    -0.003 C 
ATOM      4  C   UNL     1      16.763  30.333  30.278  1.00  0.00     0.004 C 
ENDBRANCH   2   3
ENDBRANCH   1   2
BRANCH   1   5
ATOM      5  C   UNL     1      12.227  31.656  29.122  1.00  0.00    -0.023 C 
ATOM      6  C   UNL     1      12.929  32.537  28.398  1.00  0.00     0.042 C 
BRANCH   6   7
ATOM      7  C   UNL     1      12.329  33.379  27.342  1.00  0.00     0.152 C 
ATOM      8  O   UNL     1      11.081  33.553  27.345  1.00  0.00    -0.295 OA
ATOM      9  C   UNL     1      13.149  34.032  26.271  1.00  0.00     0.093 C 
ENDBRANCH   6   7
ENDBRANCH   1   5
TORSDOF 4
ENDMDL
MODEL 5
REMARK VINA RESULT:    -4.010      2.268      4.746
REMARK INTER + INTRA:          -5.052
REMARK INTER:                  -4.957
REMARK INTRA:                  -0.095
REMARK UNBOUND:                -0.105
REMARK SMILES CCCCC=CC(C)=O
REMARK SMILES IDX 4 1 3 2 2 3 1 4 5 5 6 6 7 7 9 8 8 9
REMARK H PARENT
REMARK Flexibility Score: inf
ROOT
ATOM      1  C   UNL     1      16.327  30.736  30.224  1.00  0.00     0.027 C 
ENDROOT
BRANCH   1   2
ATOM      2  C   UNL     1      16.919  32.096  29.827  1.00  0.00     0.004 C 
BRANCH   2   3
ATOM      3  C   UNL     1      16.622  33.193  30.860  1.00  0.00    -0.003 C 
ATOM      4  C   UNL     1      17.890  33.841  31.417  1.00  0.00     0.004 C 
ENDBRANCH   2   3
ENDBRANCH   1   2
BRANCH   1   5
ATOM      5  C   UNL     1      14.826  30.782  30.241  1.00  0.00    -0.023 C 
ATOM      6  C   UNL     1      14.135  31.378  29.261  1.00  0.00     0.042 C 
BRANCH   6   7
ATOM      7  C   UNL     1      12.660  31.459  29.242  1.00  0.00     0.152 C 
ATOM      8  O   UNL     1      12.105  32.138  28.336  1.00  0.00    -0.295 OA
ATOM      9  C   UNL     1      11.803  30.768  30.258  1.00  0.00     0.093 C 
ENDBRANCH   6   7
ENDBRANCH   1   5
TORSDOF 4
ENDMDL
MODEL 6
REMARK VINA RESULT:    -3.635      2.819      4.844
REMARK INTER + INTRA:          -4.589
REMARK INTER:                  -4.387
REMARK INTRA:                  -0.202
REMARK UNBOUND:                -0.105
REMARK SMILES CCCCC=CC(C)=O
REMARK SMILES IDX 4 1 3 2 2 3 1 4 5 5 6 6 7 7 9 8 8 9
REMARK H PARENT
REMARK Flexibility Score: inf
ROOT
ATOM      1  C   UNL     1      11.474  32.561  28.699  1.00  0.00     0.027 C 
ENDROOT
BRANCH   1   2
ATOM      2  C   UNL     1      12.448  31.375  28.767  1.00  0.00     0.004 C 
BRANCH   2   3
ATOM      3  C   UNL     1      12.888  31.056  30.204  1.00  0.00    -0.003 C 
ATOM      4  C   UNL     1      14.383  30.758  30.312  1.00  0.00     0.004 C 
ENDBRANCH   2   3
ENDBRANCH   1   2
BRANCH   1   5
ATOM      5  C   UNL     1      11.938  33.587  27.705  1.00  0.00    -0.023 C 
ATOM      6  C   UNL     1      12.855  33.293  26.775  1.00  0.00     0.042 C 
BRANCH   6   7
ATOM      7  C   UNL     1      13.351  34.272  25.786  1.00  0.00     0.152 C 
ATOM      8  O   UNL     1      14.545  34.182  25.395  1.00  0.00    -0.295 OA
ATOM      9  C   UNL     1      12.487  35.365  25.234  1.00  0.00     0.093 C 
ENDBRANCH   6   7
ENDBRANCH   1   5
TORSDOF 4
ENDMDL
MODEL 7
REMARK VINA RESULT:    -3.248     13.501     15.029
REMARK INTER + INTRA:          -4.113
REMARK INTER:                  -3.954
REMARK INTRA:                  -0.159
REMARK UNBOUND:                -0.105
REMARK SMILES CCCCC=CC(C)=O
REMARK SMILES IDX 4 1 3 2 2 3 1 4 5 5 6 6 7 7 9 8 8 9
REMARK H PARENT
REMARK Flexibility Score: inf
ROOT
ATOM      1  C   UNL     1      28.055  31.747  24.297  1.00  0.00     0.027 C 
ENDROOT
BRANCH   1   2
ATOM      2  C   UNL     1      28.890  31.485  23.035  1.00  0.00     0.004 C 
BRANCH   2   3
ATOM      3  C   UNL     1      28.987  32.719  22.125  1.00  0.00    -0.003 C 
ATOM      4  C   UNL     1      28.350  33.963  22.745  1.00  0.00     0.004 C 
ENDBRANCH   2   3
ENDBRANCH   1   2
BRANCH   1   5
ATOM      5  C   UNL     1      27.918  30.502  25.125  1.00  0.00    -0.023 C 
ATOM      6  C   UNL     1      26.733  29.900  25.288  1.00  0.00     0.042 C 
BRANCH   6   7
ATOM      7  C   UNL     1      26.547  28.681  26.103  1.00  0.00     0.152 C 
ATOM      8  O   UNL     1      25.553  28.618  26.875  1.00  0.00    -0.295 OA
ATOM      9  C   UNL     1      27.496  27.523  26.046  1.00  0.00     0.093 C 
ENDBRANCH   6   7
ENDBRANCH   1   5
TORSDOF 4
ENDMDL
MODEL 8
REMARK VINA RESULT:    -3.229     10.709     13.201
REMARK INTER + INTRA:          -4.089
REMARK INTER:                  -3.854
REMARK INTRA:                  -0.235
REMARK UNBOUND:                -0.105
REMARK SMILES CCCCC=CC(C)=O
REMARK SMILES IDX 4 1 3 2 2 3 1 4 5 5 6 6 7 7 9 8 8 9
REMARK H PARENT
REMARK Flexibility Score: inf
ROOT
ATOM      1  C   UNL     1      27.089  28.568  25.939  1.00  0.00     0.027 C 
ENDROOT
BRANCH   1   2
ATOM      2  C   UNL     1      28.086  29.504  26.640  1.00  0.00     0.004 C 
BRANCH   2   3
ATOM      3  C   UNL     1      28.584  30.629  25.721  1.00  0.00    -0.003 C 
ATOM      4  C   UNL     1      27.614  30.936  24.580  1.00  0.00     0.004 C 
ENDBRANCH   2   3
ENDBRANCH   1   2
BRANCH   1   5
ATOM      5  C   UNL     1      26.048  28.069  26.898  1.00  0.00    -0.023 C 
ATOM      6  C   UNL     1      24.996  28.823  27.241  1.00  0.00     0.042 C 
BRANCH   6   7
ATOM      7  C   UNL     1      23.954  28.380  28.190  1.00  0.00     0.152 C 
ATOM      8  O   UNL     1      23.581  29.176  29.092  1.00  0.00    -0.295 OA
ATOM      9  C   UNL     1      23.328  27.020  28.120  1.00  0.00     0.093 C 
ENDBRANCH   6   7
ENDBRANCH   1   5
TORSDOF 4
ENDMDL
MODEL 9
REMARK VINA RESULT:    -3.159     15.873     17.301
REMARK INTER + INTRA:          -4.003
REMARK INTER:                  -3.781
REMARK INTRA:                  -0.221
REMARK UNBOUND:                -0.105
REMARK SMILES CCCCC=CC(C)=O
REMARK SMILES IDX 4 1 3 2 2 3 1 4 5 5 6 6 7 7 9 8 8 9
REMARK H PARENT
REMARK Flexibility Score: inf
ROOT
ATOM      1  C   UNL     1      28.494  33.983  20.062  1.00  0.00     0.027 C 
ENDROOT
BRANCH   1   2
ATOM      2  C   UNL     1      28.721  33.372  21.453  1.00  0.00     0.004 C 
BRANCH   2   3
ATOM      3  C   UNL     1      28.396  34.354  22.589  1.00  0.00    -0.003 C 
ATOM      4  C   UNL     1      27.999  33.649  23.886  1.00  0.00     0.004 C 
ENDBRANCH   2   3
ENDBRANCH   1   2
BRANCH   1   5
ATOM      5  C   UNL     1      27.890  35.355  20.165  1.00  0.00    -0.023 C 
ATOM      6  C   UNL     1      26.943  35.765  19.311  1.00  0.00     0.042 C 
BRANCH   6   7
ATOM      7  C   UNL     1      26.330  37.108  19.364  1.00  0.00     0.152 C 
ATOM      8  O   UNL     1      26.394  37.842  18.341  1.00  0.00    -0.295 OA
ATOM      9  C   UNL     1      25.638  37.629  20.588  1.00  0.00     0.093 C 
ENDBRANCH   6   7
ENDBRANCH   1   5
TORSDOF 4
ENDMDL
