MODEL 1
REMARK VINA RESULT:    -3.398      0.000      0.000
REMARK INTER + INTRA:          -4.114
REMARK INTER:                  -3.994
REMARK INTRA:                  -0.120
REMARK UNBOUND:                -0.120
REMARK SMILES O=C([O-])CCC(=O)[O-]
REMARK SMILES IDX 4 1 2 2 1 3 3 4 5 5 6 6 7 7 8 8
REMARK H PARENT
REMARK Flexibility Score: inf
ROOT
ATOM      1  C   UNL     1      49.355   8.530  17.719  1.00  0.00     0.059 C 
ENDROOT
BRANCH   1   2
ATOM      2  C   UNL     1      49.866   8.231  16.343  1.00  0.00     0.042 C 
ATOM      3  O   UNL     1      49.612   9.012  15.389  1.00  0.00    -0.550 OA
ATOM      4  O   UNL     1      50.591   7.070  16.109  1.00  0.00    -0.550 OA
ENDBRANCH   1   2
BRANCH   1   5
ATOM      5  C   UNL     1      50.460   9.085  18.624  1.00  0.00     0.059 C 
BRANCH   5   6
ATOM      6  C   UNL     1      51.018   8.027  19.527  1.00  0.00     0.042 C 
ATOM      7  O   UNL     1      50.514   7.837  20.666  1.00  0.00    -0.550 OA
ATOM      8  O   UNL     1      52.066   7.224  19.096  1.00  0.00    -0.550 OA
ENDBRANCH   5   6
ENDBRANCH   1   5
TORSDOF 3
ENDMDL
MODEL 2
REMARK VINA RESULT:    -3.336     11.255     12.313
REMARK INTER + INTRA:          -4.042
REMARK INTER:                  -3.918
REMARK INTRA:                  -0.124
REMARK UNBOUND:                -0.120
REMARK SMILES O=C([O-])CCC(=O)[O-]
REMARK SMILES IDX 4 1 2 2 1 3 3 4 5 5 6 6 7 7 8 8
REMARK H PARENT
REMARK Flexibility Score: inf
ROOT
ATOM      1  C   UNL     1      55.691  -1.318  18.829  1.00  0.00     0.059 C 
ENDROOT
BRANCH   1   2
ATOM      2  C   UNL     1      54.501  -2.163  19.166  1.00  0.00     0.042 C 
ATOM      3  O   UNL     1      53.779  -1.875  20.156  1.00  0.00    -0.550 OA
ATOM      4  O   UNL     1      54.212  -3.290  18.407  1.00  0.00    -0.550 OA
ENDBRANCH   1   2
BRANCH   1   5
ATOM      5  C   UNL     1      56.973  -1.872  19.462  1.00  0.00     0.059 C 
BRANCH   5   6
ATOM      6  C   UNL     1      57.728  -2.744  18.506  1.00  0.00     0.042 C 
ATOM      7  O   UNL     1      57.650  -3.998  18.597  1.00  0.00    -0.550 OA
ATOM      8  O   UNL     1      58.485  -2.174  17.491  1.00  0.00    -0.550 OA
ENDBRANCH   5   6
ENDBRANCH   1   5
TORSDOF 3
ENDMDL
MODEL 3
REMARK VINA RESULT:    -3.297      6.418      7.078
REMARK INTER + INTRA:          -3.995
REMARK INTER:                  -3.903
REMARK INTRA:                  -0.092
REMARK UNBOUND:                -0.120
REMARK SMILES O=C([O-])CCC(=O)[O-]
REMARK SMILES IDX 4 1 2 2 1 3 3 4 5 5 6 6 7 7 8 8
REMARK H PARENT
REMARK Flexibility Score: inf
ROOT
ATOM      1  C   UNL     1      49.927  14.237  18.462  1.00  0.00     0.059 C 
ENDROOT
BRANCH   1   2
ATOM      2  C   UNL     1      49.560  14.415  17.020  1.00  0.00     0.042 C 
ATOM      3  O   UNL     1      50.052  15.362  16.353  1.00  0.00    -0.550 OA
ATOM      4  O   UNL     1      48.644  13.557  16.426  1.00  0.00    -0.550 OA
ENDBRANCH   1   2
BRANCH   1   5
ATOM      5  C   UNL     1      49.536  15.461  19.299  1.00  0.00     0.059 C 
BRANCH   5   6
ATOM      6  C   UNL     1      48.334  15.187  20.149  1.00  0.00     0.042 C 
ATOM      7  O   UNL     1      47.840  16.102  20.861  1.00  0.00    -0.550 OA
ATOM      8  O   UNL     1      47.734  13.935  20.126  1.00  0.00    -0.550 OA
ENDBRANCH   5   6
ENDBRANCH   1   5
TORSDOF 3
ENDMDL
MODEL 4
REMARK VINA RESULT:    -3.281      0.372      3.770
REMARK INTER + INTRA:          -3.977
REMARK INTER:                  -3.873
REMARK INTRA:                  -0.104
REMARK UNBOUND:                -0.120
REMARK SMILES O=C([O-])CCC(=O)[O-]
REMARK SMILES IDX 4 1 2 2 1 3 3 4 5 5 6 6 7 7 8 8
REMARK H PARENT
REMARK Flexibility Score: inf
ROOT
ATOM      1  C   UNL     1      50.663   8.787  18.568  1.00  0.00     0.059 C 
ENDROOT
BRANCH   1   2
ATOM      2  C   UNL     1      51.096   7.582  19.345  1.00  0.00     0.042 C 
ATOM      3  O   UNL     1      50.460   7.225  20.370  1.00  0.00    -0.550 OA
ATOM      4  O   UNL     1      52.228   6.876  18.957  1.00  0.00    -0.550 OA
ENDBRANCH   1   2
BRANCH   1   5
ATOM      5  C   UNL     1      49.457   8.478  17.673  1.00  0.00     0.059 C 
BRANCH   5   6
ATOM      6  C   UNL     1      49.877   8.166  16.269  1.00  0.00     0.042 C 
ATOM      7  O   UNL     1      50.397   7.051  15.997  1.00  0.00    -0.550 OA
ATOM      8  O   UNL     1      49.657   9.089  15.255  1.00  0.00    -0.550 OA
ENDBRANCH   5   6
ENDBRANCH   1   5
TORSDOF 3
ENDMDL
MODEL 5
REMARK VINA RESULT:    -3.250     10.991     11.996
REMARK INTER + INTRA:          -3.940
REMARK INTER:                  -3.850
REMARK INTRA:                  -0.090
REMARK UNBOUND:                -0.120
REMARK SMILES O=C([O-])CCC(=O)[O-]
REMARK SMILES IDX 4 1 2 2 1 3 3 4 5 5 6 6 7 7 8 8
REMARK H PARENT
REMARK Flexibility Score: inf
ROOT
ATOM      1  C   UNL     1      57.002  -1.498  19.210  1.00  0.00     0.059 C 
ENDROOT
BRANCH   1   2
ATOM      2  C   UNL     1      57.910  -1.761  18.048  1.00  0.00     0.042 C 
ATOM      3  O   UNL     1      58.325  -0.807  17.339  1.00  0.00    -0.550 OA
ATOM      4  O   UNL     1      58.265  -3.064  17.724  1.00  0.00    -0.550 OA
ENDBRANCH   1   2
BRANCH   1   5
ATOM      5  C   UNL     1      55.586  -1.131  18.749  1.00  0.00     0.059 C 
BRANCH   5   6
ATOM      6  C   UNL     1      54.595  -2.196  19.108  1.00  0.00     0.042 C 
ATOM      7  O   UNL     1      54.528  -3.254  18.428  1.00  0.00    -0.550 OA
ATOM      8  O   UNL     1      53.775  -2.038  20.218  1.00  0.00    -0.550 OA
ENDBRANCH   5   6
ENDBRANCH   1   5
TORSDOF 3
ENDMDL
MODEL 6
REMARK VINA RESULT:    -3.168      5.773      6.346
REMARK INTER + INTRA:          -3.843
REMARK INTER:                  -3.744
REMARK INTRA:                  -0.099
REMARK UNBOUND:                -0.120
REMARK SMILES O=C([O-])CCC(=O)[O-]
REMARK SMILES IDX 4 1 2 2 1 3 3 4 5 5 6 6 7 7 8 8
REMARK H PARENT
REMARK Flexibility Score: inf
ROOT
ATOM      1  C   UNL     1      50.100  13.188  17.355  1.00  0.00     0.059 C 
ENDROOT
BRANCH   1   2
ATOM      2  C   UNL     1      49.657  13.402  15.940  1.00  0.00     0.042 C 
ATOM      3  O   UNL     1      48.511  13.863  15.697  1.00  0.00    -0.550 OA
ATOM      4  O   UNL     1      50.497  13.054  14.889  1.00  0.00    -0.550 OA
ENDBRANCH   1   2
BRANCH   1   5
ATOM      5  C   UNL     1      48.988  13.530  18.352  1.00  0.00     0.059 C 
BRANCH   5   6
ATOM      6  C   UNL     1      49.293  14.787  19.110  1.00  0.00     0.042 C 
ATOM      7  O   UNL     1      50.299  15.481  18.805  1.00  0.00    -0.550 OA
ATOM      8  O   UNL     1      48.445  15.212  20.124  1.00  0.00    -0.550 OA
ENDBRANCH   5   6
ENDBRANCH   1   5
TORSDOF 3
ENDMDL
MODEL 7
REMARK VINA RESULT:    -3.150      6.486      7.819
REMARK INTER + INTRA:          -3.822
REMARK INTER:                  -3.726
REMARK INTRA:                  -0.095
REMARK UNBOUND:                -0.120
REMARK SMILES O=C([O-])CCC(=O)[O-]
REMARK SMILES IDX 4 1 2 2 1 3 3 4 5 5 6 6 7 7 8 8
REMARK H PARENT
REMARK Flexibility Score: inf
ROOT
ATOM      1  C   UNL     1      49.359  15.700  19.300  1.00  0.00     0.059 C 
ENDROOT
BRANCH   1   2
ATOM      2  C   UNL     1      48.352  15.336  20.349  1.00  0.00     0.042 C 
ATOM      3  O   UNL     1      48.179  16.082  21.348  1.00  0.00    -0.550 OA
ATOM      4  O   UNL     1      47.634  14.152  20.240  1.00  0.00    -0.550 OA
ENDBRANCH   1   2
BRANCH   1   5
ATOM      5  C   UNL     1      49.966  14.455  18.644  1.00  0.00     0.059 C 
BRANCH   5   6
ATOM      6  C   UNL     1      49.589  14.355  17.197  1.00  0.00     0.042 C 
ATOM      7  O   UNL     1      48.826  13.433  16.804  1.00  0.00    -0.550 OA
ATOM      8  O   UNL     1      50.047  15.302  16.291  1.00  0.00    -0.550 OA
ENDBRANCH   5   6
ENDBRANCH   1   5
TORSDOF 3
ENDMDL
MODEL 8
REMARK VINA RESULT:    -3.139      5.623      7.112
REMARK INTER + INTRA:          -3.809
REMARK INTER:                  -3.705
REMARK INTRA:                  -0.104
REMARK UNBOUND:                -0.120
REMARK SMILES O=C([O-])CCC(=O)[O-]
REMARK SMILES IDX 4 1 2 2 1 3 3 4 5 5 6 6 7 7 8 8
REMARK H PARENT
REMARK Flexibility Score: inf
ROOT
ATOM      1  C   UNL     1      49.957  13.027  17.283  1.00  0.00     0.059 C 
ENDROOT
BRANCH   1   2
ATOM      2  C   UNL     1      49.545  13.937  18.400  1.00  0.00     0.042 C 
ATOM      3  O   UNL     1      50.197  14.987  18.636  1.00  0.00    -0.550 OA
ATOM      4  O   UNL     1      48.462  13.603  19.203  1.00  0.00    -0.550 OA
ENDBRANCH   1   2
BRANCH   1   5
ATOM      5  C   UNL     1      49.308  13.433  15.955  1.00  0.00     0.059 C 
BRANCH   5   6
ATOM      6  C   UNL     1      50.298  14.067  15.027  1.00  0.00     0.042 C 
ATOM      7  O   UNL     1      51.013  13.349  14.278  1.00  0.00    -0.550 OA
ATOM      8  O   UNL     1      50.404  15.450  14.960  1.00  0.00    -0.550 OA
ENDBRANCH   5   6
ENDBRANCH   1   5
TORSDOF 3
ENDMDL
MODEL 9
REMARK VINA RESULT:    -3.135      5.769      7.118
REMARK INTER + INTRA:          -3.805
REMARK INTER:                  -3.692
REMARK INTRA:                  -0.113
REMARK UNBOUND:                -0.120
REMARK SMILES O=C([O-])CCC(=O)[O-]
REMARK SMILES IDX 4 1 2 2 1 3 3 4 5 5 6 6 7 7 8 8
REMARK H PARENT
REMARK Flexibility Score: inf
ROOT
ATOM      1  C   UNL     1      48.929  13.707  18.670  1.00  0.00     0.059 C 
ENDROOT
BRANCH   1   2
ATOM      2  C   UNL     1      49.287  15.004  19.329  1.00  0.00     0.042 C 
ATOM      3  O   UNL     1      48.518  15.513  20.185  1.00  0.00    -0.550 OA
ATOM      4  O   UNL     1      50.452  15.668  18.968  1.00  0.00    -0.550 OA
ENDBRANCH   1   2
BRANCH   1   5
ATOM      5  C   UNL     1      50.044  13.222  17.736  1.00  0.00     0.059 C 
BRANCH   5   6
ATOM      6  C   UNL     1      49.676  13.405  16.296  1.00  0.00     0.042 C 
ATOM      7  O   UNL     1      49.386  14.550  15.857  1.00  0.00    -0.550 OA
ATOM      8  O   UNL     1      49.694  12.321  15.428  1.00  0.00    -0.550 OA
ENDBRANCH   5   6
ENDBRANCH   1   5
TORSDOF 3
ENDMDL
