MODEL 1
REMARK VINA RESULT:    -3.604      0.000      0.000
REMARK INTER + INTRA:          -6.199
REMARK INTER:                  -5.500
REMARK INTRA:                  -0.699
REMARK UNBOUND:                -0.699
REMARK SMILES CCCCCCCCCCC(=O)[O-]
REMARK SMILES IDX 7 1 8 2 9 3 10 4 11 5 12 6 13 7 6 8 5 9 4 10 3 11 2 12 1 13
REMARK H PARENT
REMARK Flexibility Score: inf
ROOT
ATOM      1  C   UNL     1     -12.901 -73.072  -9.371  1.00  0.00     0.000 C 
ENDROOT
BRANCH   1   2
ATOM      2  C   UNL     1     -11.515 -73.719  -9.237  1.00  0.00     0.000 C 
BRANCH   2   3
ATOM      3  C   UNL     1     -10.445 -73.007 -10.080  1.00  0.00     0.006 C 
BRANCH   3   4
ATOM      4  C   UNL     1      -9.061 -73.026  -9.416  1.00  0.00     0.053 C 
BRANCH   4   5
ATOM      5  C   UNL     1      -8.665 -71.645  -8.997  1.00  0.00     0.041 C 
ATOM      6  O   UNL     1      -7.580 -71.148  -9.398  1.00  0.00    -0.550 OA
ATOM      7  O   UNL     1      -9.470 -70.924  -8.125  1.00  0.00    -0.550 OA
ENDBRANCH   4   5
ENDBRANCH   3   4
ENDBRANCH   2   3
ENDBRANCH   1   2
BRANCH   1   8
ATOM      8  C   UNL     1     -13.983 -74.135  -9.593  1.00  0.00     0.000 C 
BRANCH   8   9
ATOM      9  C   UNL     1     -13.394 -75.395 -10.238  1.00  0.00    -0.000 C 
BRANCH   9  10
ATOM     10  C   UNL     1     -13.839 -76.658  -9.486  1.00  0.00    -0.000 C 
BRANCH  10  11
ATOM     11  C   UNL     1     -13.349 -76.691  -8.026  1.00  0.00    -0.000 C 
BRANCH  11  12
ATOM     12  C   UNL     1     -14.406 -77.129  -6.998  1.00  0.00    -0.003 C 
ATOM     13  C   UNL     1     -15.794 -76.557  -7.288  1.00  0.00     0.004 C 
ENDBRANCH  11  12
ENDBRANCH  10  11
ENDBRANCH   9  10
ENDBRANCH   8   9
ENDBRANCH   1   8
TORSDOF 9
ENDMDL
MODEL 2
REMARK VINA RESULT:    -3.432     10.562     11.943
REMARK INTER + INTRA:          -5.936
REMARK INTER:                  -5.216
REMARK INTRA:                  -0.720
REMARK UNBOUND:                -0.699
REMARK SMILES CCCCCCCCCCC(=O)[O-]
REMARK SMILES IDX 7 1 8 2 9 3 10 4 11 5 12 6 13 7 6 8 5 9 4 10 3 11 2 12 1 13
REMARK H PARENT
REMARK Flexibility Score: inf
ROOT
ATOM      1  C   UNL     1      -6.756 -64.996  -7.481  1.00  0.00     0.000 C 
ENDROOT
BRANCH   1   2
ATOM      2  C   UNL     1      -5.916 -65.801  -8.484  1.00  0.00     0.000 C 
BRANCH   2   3
ATOM      3  C   UNL     1      -4.569 -66.254  -7.899  1.00  0.00     0.006 C 
BRANCH   3   4
ATOM      4  C   UNL     1      -4.704 -66.837  -6.486  1.00  0.00     0.053 C 
BRANCH   4   5
ATOM      5  C   UNL     1      -3.453 -66.600  -5.701  1.00  0.00     0.041 C 
ATOM      6  O   UNL     1      -2.563 -65.829  -6.146  1.00  0.00    -0.550 OA
ATOM      7  O   UNL     1      -3.246 -67.269  -4.501  1.00  0.00    -0.550 OA
ENDBRANCH   4   5
ENDBRANCH   3   4
ENDBRANCH   2   3
ENDBRANCH   1   2
BRANCH   1   8
ATOM      8  C   UNL     1      -8.235 -64.994  -7.882  1.00  0.00     0.000 C 
BRANCH   8   9
ATOM      9  C   UNL     1      -9.090 -64.275  -6.832  1.00  0.00    -0.000 C 
BRANCH   9  10
ATOM     10  C   UNL     1      -9.117 -62.761  -7.086  1.00  0.00    -0.000 C 
BRANCH  10  11
ATOM     11  C   UNL     1      -9.373 -62.404  -8.561  1.00  0.00    -0.000 C 
BRANCH  11  12
ATOM     12  C   UNL     1      -8.301 -61.507  -9.206  1.00  0.00    -0.003 C 
ATOM     13  C   UNL     1      -7.047 -61.361  -8.343  1.00  0.00     0.004 C 
ENDBRANCH  11  12
ENDBRANCH  10  11
ENDBRANCH   9  10
ENDBRANCH   8   9
ENDBRANCH   1   8
TORSDOF 9
ENDMDL
MODEL 3
REMARK VINA RESULT:    -3.426      4.915      7.967
REMARK INTER + INTRA:          -5.927
REMARK INTER:                  -5.399
REMARK INTRA:                  -0.528
REMARK UNBOUND:                -0.699
REMARK SMILES CCCCCCCCCCC(=O)[O-]
REMARK SMILES IDX 7 1 8 2 9 3 10 4 11 5 12 6 13 7 6 8 5 9 4 10 3 11 2 12 1 13
REMARK H PARENT
REMARK Flexibility Score: inf
ROOT
ATOM      1  C   UNL     1      -4.051 -70.112 -10.793  1.00  0.00     0.000 C 
ENDROOT
BRANCH   1   2
ATOM      2  C   UNL     1      -4.215 -70.632 -12.229  1.00  0.00     0.000 C 
BRANCH   2   3
ATOM      3  C   UNL     1      -3.868 -72.123 -12.361  1.00  0.00     0.006 C 
BRANCH   3   4
ATOM      4  C   UNL     1      -5.099 -73.030 -12.230  1.00  0.00     0.053 C 
BRANCH   4   5
ATOM      5  C   UNL     1      -4.721 -74.336 -11.606  1.00  0.00     0.041 C 
ATOM      6  O   UNL     1      -5.579 -75.249 -11.478  1.00  0.00    -0.550 OA
ATOM      7  O   UNL     1      -3.435 -74.528 -11.118  1.00  0.00    -0.550 OA
ENDBRANCH   4   5
ENDBRANCH   3   4
ENDBRANCH   2   3
ENDBRANCH   1   2
BRANCH   1   8
ATOM      8  C   UNL     1      -5.210 -69.183 -10.411  1.00  0.00     0.000 C 
BRANCH   8   9
ATOM      9  C   UNL     1      -6.562 -69.882 -10.596  1.00  0.00    -0.000 C 
BRANCH   9  10
ATOM     10  C   UNL     1      -7.720 -68.955 -10.202  1.00  0.00    -0.000 C 
BRANCH  10  11
ATOM     11  C   UNL     1      -9.008 -69.720  -9.848  1.00  0.00    -0.000 C 
BRANCH  11  12
ATOM     12  C   UNL     1      -8.786 -71.073  -9.149  1.00  0.00    -0.003 C 
ATOM     13  C   UNL     1     -10.017 -71.978  -9.194  1.00  0.00     0.004 C 
ENDBRANCH  11  12
ENDBRANCH  10  11
ENDBRANCH   9  10
ENDBRANCH   8   9
ENDBRANCH   1   8
TORSDOF 9
ENDMDL
MODEL 4
REMARK VINA RESULT:    -3.393     10.344     11.713
REMARK INTER + INTRA:          -5.876
REMARK INTER:                  -4.959
REMARK INTRA:                  -0.918
REMARK UNBOUND:                -0.699
REMARK SMILES CCCCCCCCCCC(=O)[O-]
REMARK SMILES IDX 7 1 8 2 9 3 10 4 11 5 12 6 13 7 6 8 5 9 4 10 3 11 2 12 1 13
REMARK H PARENT
REMARK Flexibility Score: inf
ROOT
ATOM      1  C   UNL     1      -5.605 -63.237  -6.872  1.00  0.00     0.000 C 
ENDROOT
BRANCH   1   2
ATOM      2  C   UNL     1      -5.453 -64.570  -6.124  1.00  0.00     0.000 C 
BRANCH   2   3
ATOM      3  C   UNL     1      -5.162 -65.748  -7.068  1.00  0.00     0.006 C 
BRANCH   3   4
ATOM      4  C   UNL     1      -4.715 -67.010  -6.318  1.00  0.00     0.053 C 
BRANCH   4   5
ATOM      5  C   UNL     1      -3.492 -66.727  -5.505  1.00  0.00     0.041 C 
ATOM      6  O   UNL     1      -2.456 -66.269  -6.057  1.00  0.00    -0.550 OA
ATOM      7  O   UNL     1      -3.476 -67.016  -4.147  1.00  0.00    -0.550 OA
ENDBRANCH   4   5
ENDBRANCH   3   4
ENDBRANCH   2   3
ENDBRANCH   1   2
BRANCH   1   8
ATOM      8  C   UNL     1      -6.794 -62.436  -6.329  1.00  0.00     0.000 C 
BRANCH   8   9
ATOM      9  C   UNL     1      -7.959 -62.435  -7.327  1.00  0.00    -0.000 C 
BRANCH   9  10
ATOM     10  C   UNL     1      -9.061 -63.409  -6.887  1.00  0.00    -0.000 C 
BRANCH  10  11
ATOM     11  C   UNL     1      -8.933 -64.796  -7.543  1.00  0.00    -0.000 C 
BRANCH  11  12
ATOM     12  C   UNL     1      -8.260 -64.798  -8.927  1.00  0.00    -0.003 C 
ATOM     13  C   UNL     1      -9.261 -64.898 -10.078  1.00  0.00     0.004 C 
ENDBRANCH  11  12
ENDBRANCH  10  11
ENDBRANCH   9  10
ENDBRANCH   8   9
ENDBRANCH   1   8
TORSDOF 9
ENDMDL
MODEL 5
REMARK VINA RESULT:    -3.354     10.542     11.956
REMARK INTER + INTRA:          -5.817
REMARK INTER:                  -4.811
REMARK INTRA:                  -1.006
REMARK UNBOUND:                -0.699
REMARK SMILES CCCCCCCCCCC(=O)[O-]
REMARK SMILES IDX 7 1 8 2 9 3 10 4 11 5 12 6 13 7 6 8 5 9 4 10 3 11 2 12 1 13
REMARK H PARENT
REMARK Flexibility Score: inf
ROOT
ATOM      1  C   UNL     1      -7.018 -64.647  -8.671  1.00  0.00     0.000 C 
ENDROOT
BRANCH   1   2
ATOM      2  C   UNL     1      -6.063 -65.794  -8.306  1.00  0.00     0.000 C 
BRANCH   2   3
ATOM      3  C   UNL     1      -5.088 -65.415  -7.179  1.00  0.00     0.006 C 
BRANCH   3   4
ATOM      4  C   UNL     1      -4.811 -66.582  -6.222  1.00  0.00     0.053 C 
BRANCH   4   5
ATOM      5  C   UNL     1      -3.409 -66.511  -5.706  1.00  0.00     0.041 C 
ATOM      6  O   UNL     1      -2.591 -65.692  -6.203  1.00  0.00    -0.550 OA
ATOM      7  O   UNL     1      -2.988 -67.383  -4.710  1.00  0.00    -0.550 OA
ENDBRANCH   4   5
ENDBRANCH   3   4
ENDBRANCH   2   3
ENDBRANCH   1   2
BRANCH   1   8
ATOM      8  C   UNL     1      -8.424 -64.908  -8.119  1.00  0.00     0.000 C 
BRANCH   8   9
ATOM      9  C   UNL     1      -8.626 -64.205  -6.771  1.00  0.00    -0.000 C 
BRANCH   9  10
ATOM     10  C   UNL     1      -8.211 -62.728  -6.853  1.00  0.00    -0.000 C 
BRANCH  10  11
ATOM     11  C   UNL     1      -7.028 -62.385  -5.929  1.00  0.00    -0.000 C 
BRANCH  11  12
ATOM     12  C   UNL     1      -7.080 -63.043  -4.540  1.00  0.00    -0.003 C 
ATOM     13  C   UNL     1      -5.721 -63.573  -4.079  1.00  0.00     0.004 C 
ENDBRANCH  11  12
ENDBRANCH  10  11
ENDBRANCH   9  10
ENDBRANCH   8   9
ENDBRANCH   1   8
TORSDOF 9
ENDMDL
MODEL 6
REMARK VINA RESULT:    -3.342      1.198      2.219
REMARK INTER + INTRA:          -5.799
REMARK INTER:                  -4.956
REMARK INTRA:                  -0.842
REMARK UNBOUND:                -0.699
REMARK SMILES CCCCCCCCCCC(=O)[O-]
REMARK SMILES IDX 7 1 8 2 9 3 10 4 11 5 12 6 13 7 6 8 5 9 4 10 3 11 2 12 1 13
REMARK H PARENT
REMARK Flexibility Score: inf
ROOT
ATOM      1  C   UNL     1     -13.393 -75.196  -9.945  1.00  0.00     0.000 C 
ENDROOT
BRANCH   1   2
ATOM      2  C   UNL     1     -12.503 -74.370  -9.004  1.00  0.00     0.000 C 
BRANCH   2   3
ATOM      3  C   UNL     1     -12.251 -72.946  -9.527  1.00  0.00     0.006 C 
BRANCH   3   4
ATOM      4  C   UNL     1     -10.944 -72.833 -10.324  1.00  0.00     0.053 C 
BRANCH   4   5
ATOM      5  C   UNL     1      -9.780 -72.680  -9.398  1.00  0.00     0.041 C 
ATOM      6  O   UNL     1      -8.983 -73.638  -9.218  1.00  0.00    -0.550 OA
ATOM      7  O   UNL     1      -9.602 -71.496  -8.693  1.00  0.00    -0.550 OA
ENDBRANCH   4   5
ENDBRANCH   3   4
ENDBRANCH   2   3
ENDBRANCH   1   2
BRANCH   1   8
ATOM      8  C   UNL     1     -13.688 -76.577  -9.347  1.00  0.00     0.000 C 
BRANCH   8   9
ATOM      9  C   UNL     1     -13.333 -76.620  -7.856  1.00  0.00    -0.000 C 
BRANCH   9  10
ATOM     10  C   UNL     1     -14.454 -77.283  -7.043  1.00  0.00    -0.000 C 
BRANCH  10  11
ATOM     11  C   UNL     1     -15.857 -77.001  -7.611  1.00  0.00    -0.000 C 
BRANCH  11  12
ATOM     12  C   UNL     1     -16.547 -75.750  -7.039  1.00  0.00    -0.003 C 
ATOM     13  C   UNL     1     -16.591 -74.586  -8.029  1.00  0.00     0.004 C 
ENDBRANCH  11  12
ENDBRANCH  10  11
ENDBRANCH   9  10
ENDBRANCH   8   9
ENDBRANCH   1   8
TORSDOF 9
ENDMDL
MODEL 7
REMARK VINA RESULT:    -3.320      2.172      4.089
REMARK INTER + INTRA:          -5.766
REMARK INTER:                  -4.572
REMARK INTRA:                  -1.194
REMARK UNBOUND:                -0.699
REMARK SMILES CCCCCCCCCCC(=O)[O-]
REMARK SMILES IDX 7 1 8 2 9 3 10 4 11 5 12 6 13 7 6 8 5 9 4 10 3 11 2 12 1 13
REMARK H PARENT
REMARK Flexibility Score: inf
ROOT
ATOM      1  C   UNL     1     -13.597 -76.679  -8.172  1.00  0.00     0.000 C 
ENDROOT
BRANCH   1   2
ATOM      2  C   UNL     1     -13.670 -76.853  -9.696  1.00  0.00     0.000 C 
BRANCH   2   3
ATOM      3  C   UNL     1     -13.675 -75.511 -10.446  1.00  0.00     0.006 C 
BRANCH   3   4
ATOM      4  C   UNL     1     -13.378 -74.320  -9.525  1.00  0.00     0.053 C 
BRANCH   4   5
ATOM      5  C   UNL     1     -12.055 -73.713  -9.869  1.00  0.00     0.041 C 
ATOM      6  O   UNL     1     -11.493 -72.921  -9.066  1.00  0.00    -0.550 OA
ATOM      7  O   UNL     1     -11.463 -73.981 -11.097  1.00  0.00    -0.550 OA
ENDBRANCH   4   5
ENDBRANCH   3   4
ENDBRANCH   2   3
ENDBRANCH   1   2
BRANCH   1   8
ATOM      8  C   UNL     1     -14.501 -77.693  -7.461  1.00  0.00     0.000 C 
BRANCH   8   9
ATOM      9  C   UNL     1     -15.250 -77.040  -6.293  1.00  0.00    -0.000 C 
BRANCH   9  10
ATOM     10  C   UNL     1     -16.682 -76.664  -6.698  1.00  0.00    -0.000 C 
BRANCH  10  11
ATOM     11  C   UNL     1     -16.935 -75.146  -6.669  1.00  0.00    -0.000 C 
BRANCH  11  12
ATOM     12  C   UNL     1     -16.845 -74.448  -8.037  1.00  0.00    -0.003 C 
ATOM     13  C   UNL     1     -17.188 -75.375  -9.204  1.00  0.00     0.004 C 
ENDBRANCH  11  12
ENDBRANCH  10  11
ENDBRANCH   9  10
ENDBRANCH   8   9
ENDBRANCH   1   8
TORSDOF 9
ENDMDL
MODEL 8
REMARK VINA RESULT:    -3.314     13.685     16.591
REMARK INTER + INTRA:          -5.757
REMARK INTER:                  -5.239
REMARK INTRA:                  -0.518
REMARK UNBOUND:                -0.699
REMARK SMILES CCCCCCCCCCC(=O)[O-]
REMARK SMILES IDX 7 1 8 2 9 3 10 4 11 5 12 6 13 7 6 8 5 9 4 10 3 11 2 12 1 13
REMARK H PARENT
REMARK Flexibility Score: inf
ROOT
ATOM      1  C   UNL     1      -6.674 -65.718   3.538  1.00  0.00     0.000 C 
ENDROOT
BRANCH   1   2
ATOM      2  C   UNL     1      -7.017 -65.113   2.169  1.00  0.00     0.000 C 
BRANCH   2   3
ATOM      3  C   UNL     1      -8.480 -65.353   1.765  1.00  0.00     0.006 C 
BRANCH   3   4
ATOM      4  C   UNL     1      -8.715 -65.174   0.259  1.00  0.00     0.053 C 
BRANCH   4   5
ATOM      5  C   UNL     1      -9.134 -63.769  -0.039  1.00  0.00     0.041 C 
ATOM      6  O   UNL     1      -8.478 -63.072  -0.858  1.00  0.00    -0.550 OA
ATOM      7  O   UNL     1     -10.221 -63.211   0.623  1.00  0.00    -0.550 OA
ENDBRANCH   4   5
ENDBRANCH   3   4
ENDBRANCH   2   3
ENDBRANCH   1   2
BRANCH   1   8
ATOM      8  C   UNL     1      -5.296 -66.390   3.511  1.00  0.00     0.000 C 
BRANCH   8   9
ATOM      9  C   UNL     1      -4.565 -66.095   2.196  1.00  0.00    -0.000 C 
BRANCH   9  10
ATOM     10  C   UNL     1      -3.123 -65.635   2.458  1.00  0.00    -0.000 C 
BRANCH  10  11
ATOM     11  C   UNL     1      -2.845 -65.351   3.945  1.00  0.00    -0.000 C 
BRANCH  11  12
ATOM     12  C   UNL     1      -1.670 -66.141   4.546  1.00  0.00    -0.003 C 
ATOM     13  C   UNL     1      -0.636 -65.246   5.231  1.00  0.00     0.004 C 
ENDBRANCH  11  12
ENDBRANCH  10  11
ENDBRANCH   9  10
ENDBRANCH   8   9
ENDBRANCH   1   8
TORSDOF 9
ENDMDL
MODEL 9
REMARK VINA RESULT:    -3.210      4.951      6.022
REMARK INTER + INTRA:          -5.598
REMARK INTER:                  -4.385
REMARK INTRA:                  -1.213
REMARK UNBOUND:                -0.699
REMARK SMILES CCCCCCCCCCC(=O)[O-]
REMARK SMILES IDX 7 1 8 2 9 3 10 4 11 5 12 6 13 7 6 8 5 9 4 10 3 11 2 12 1 13
REMARK H PARENT
REMARK Flexibility Score: inf
ROOT
ATOM      1  C   UNL     1     -16.276 -75.737  -7.173  1.00  0.00     0.000 C 
ENDROOT
BRANCH   1   2
ATOM      2  C   UNL     1     -17.358 -75.600  -8.253  1.00  0.00     0.000 C 
BRANCH   2   3
ATOM      3  C   UNL     1     -17.074 -74.451  -9.234  1.00  0.00     0.006 C 
BRANCH   3   4
ATOM      4  C   UNL     1     -16.234 -73.332  -8.606  1.00  0.00     0.053 C 
BRANCH   4   5
ATOM      5  C   UNL     1     -17.121 -72.268  -8.042  1.00  0.00     0.041 C 
ATOM      6  O   UNL     1     -17.670 -71.430  -8.806  1.00  0.00    -0.550 OA
ATOM      7  O   UNL     1     -17.305 -72.169  -6.669  1.00  0.00    -0.550 OA
ENDBRANCH   4   5
ENDBRANCH   3   4
ENDBRANCH   2   3
ENDBRANCH   1   2
BRANCH   1   8
ATOM      8  C   UNL     1     -15.926 -77.210  -6.930  1.00  0.00     0.000 C 
BRANCH   8   9
ATOM      9  C   UNL     1     -14.410 -77.405  -6.816  1.00  0.00    -0.000 C 
BRANCH   9  10
ATOM     10  C   UNL     1     -13.673 -76.667  -7.944  1.00  0.00    -0.000 C 
BRANCH  10  11
ATOM     11  C   UNL     1     -13.700 -77.433  -9.280  1.00  0.00    -0.000 C 
BRANCH  11  12
ATOM     12  C   UNL     1     -14.103 -76.590 -10.502  1.00  0.00    -0.003 C 
ATOM     13  C   UNL     1     -15.329 -77.141 -11.230  1.00  0.00     0.004 C 
ENDBRANCH  11  12
ENDBRANCH  10  11
ENDBRANCH   9  10
ENDBRANCH   8   9
ENDBRANCH   1   8
TORSDOF 9
ENDMDL
