MODEL 1
REMARK VINA RESULT:    -4.243      0.000      0.000
REMARK INTER + INTRA:         -15.855
REMARK INTER:                 -10.691
REMARK INTRA:                  -5.164
REMARK UNBOUND:                -5.164
REMARK SMILES CCCCCCCCCCCCCCCCCCCCCCCCCCCC(=O)[O-]
REMARK SMILES IDX 15 1 16 2 17 3 18 4 19 5 20 6 21 7 22 8 23 9 24 10 25 11
REMARK SMILES IDX 26 12 27 13 28 14 29 15 30 16 14 17 13 18 12 19 11 20 10 21
REMARK SMILES IDX 9 22 8 23 7 24 6 25 5 26 4 27 3 28 2 29 1 30
REMARK H PARENT
REMARK Flexibility Score: inf
ROOT
ATOM      1  C   UNL     1      47.970  -6.244  74.178  1.00  0.00     0.000 C 
ENDROOT
BRANCH   1   2
ATOM      2  C   UNL     1      48.261  -5.477  72.877  1.00  0.00     0.000 C 
BRANCH   2   3
ATOM      3  C   UNL     1      48.361  -3.958  73.098  1.00  0.00     0.000 C 
BRANCH   3   4
ATOM      4  C   UNL     1      48.041  -3.543  74.543  1.00  0.00     0.000 C 
BRANCH   4   5
ATOM      5  C   UNL     1      49.028  -2.499  75.094  1.00  0.00     0.000 C 
BRANCH   5   6
ATOM      6  C   UNL     1      48.428  -1.082  75.128  1.00  0.00     0.000 C 
BRANCH   6   7
ATOM      7  C   UNL     1      49.122  -0.125  74.142  1.00  0.00     0.000 C 
BRANCH   7   8
ATOM      8  C   UNL     1      48.650  -0.328  72.694  1.00  0.00     0.000 C 
BRANCH   8   9
ATOM      9  C   UNL     1      49.760  -0.876  71.780  1.00  0.00     0.000 C 
BRANCH   9  10
ATOM     10  C   UNL     1      51.167  -0.427  72.225  1.00  0.00     0.000 C 
BRANCH  10  11
ATOM     11  C   UNL     1      52.217  -1.555  72.232  1.00  0.00     0.000 C 
BRANCH  11  12
ATOM     12  C   UNL     1      52.163  -2.455  73.483  1.00  0.00     0.006 C 
BRANCH  12  13
ATOM     13  C   UNL     1      52.354  -3.940  73.142  1.00  0.00     0.053 C 
BRANCH  13  14
ATOM     14  C   UNL     1      53.697  -4.416  73.600  1.00  0.00     0.041 C 
ATOM     15  O   UNL     1      53.886  -5.636  73.854  1.00  0.00    -0.550 OA
ATOM     16  O   UNL     1      54.750  -3.516  73.720  1.00  0.00    -0.550 OA
ENDBRANCH  13  14
ENDBRANCH  12  13
ENDBRANCH  11  12
ENDBRANCH  10  11
ENDBRANCH   9  10
ENDBRANCH   8   9
ENDBRANCH   7   8
ENDBRANCH   6   7
ENDBRANCH   5   6
ENDBRANCH   4   5
ENDBRANCH   3   4
ENDBRANCH   2   3
ENDBRANCH   1   2
BRANCH   1  17
ATOM     17  C   UNL     1      49.086  -7.239  74.541  1.00  0.00     0.000 C 
BRANCH  17  18
ATOM     18  C   UNL     1      50.408  -6.528  74.903  1.00  0.00     0.000 C 
BRANCH  18  19
ATOM     19  C   UNL     1      51.237  -7.261  75.975  1.00  0.00     0.000 C 
BRANCH  19  20
ATOM     20  C   UNL     1      52.275  -6.390  76.705  1.00  0.00     0.000 C 
BRANCH  20  21
ATOM     21  C   UNL     1      52.224  -6.463  78.242  1.00  0.00     0.000 C 
BRANCH  21  22
ATOM     22  C   UNL     1      52.031  -5.089  78.902  1.00  0.00    -0.000 C 
BRANCH  22  23
ATOM     23  C   UNL     1      51.033  -4.234  78.111  1.00  0.00    -0.000 C 
BRANCH  23  24
ATOM     24  C   UNL     1      49.827  -3.856  78.978  1.00  0.00    -0.000 C 
BRANCH  24  25
ATOM     25  C   UNL     1      48.521  -4.374  78.359  1.00  0.00    -0.000 C 
BRANCH  25  26
ATOM     26  C   UNL     1      48.040  -5.684  79.002  1.00  0.00    -0.000 C 
BRANCH  26  27
ATOM     27  C   UNL     1      48.260  -6.906  78.092  1.00  0.00    -0.000 C 
BRANCH  27  28
ATOM     28  C   UNL     1      48.811  -8.120  78.853  1.00  0.00    -0.000 C 
BRANCH  28  29
ATOM     29  C   UNL     1      49.145  -9.296  77.923  1.00  0.00    -0.003 C 
ATOM     30  C   UNL     1      50.157 -10.238  78.570  1.00  0.00     0.004 C 
ENDBRANCH  28  29
ENDBRANCH  27  28
ENDBRANCH  26  27
ENDBRANCH  25  26
ENDBRANCH  24  25
ENDBRANCH  23  24
ENDBRANCH  22  23
ENDBRANCH  21  22
ENDBRANCH  20  21
ENDBRANCH  19  20
ENDBRANCH  18  19
ENDBRANCH  17  18
ENDBRANCH   1  17
TORSDOF 26
ENDMDL
MODEL 2
REMARK VINA RESULT:    -4.171      1.426      3.248
REMARK INTER + INTRA:         -15.675
REMARK INTER:                 -11.059
REMARK INTRA:                  -4.616
REMARK UNBOUND:                -5.164
REMARK SMILES CCCCCCCCCCCCCCCCCCCCCCCCCCCC(=O)[O-]
REMARK SMILES IDX 15 1 16 2 17 3 18 4 19 5 20 6 21 7 22 8 23 9 24 10 25 11
REMARK SMILES IDX 26 12 27 13 28 14 29 15 30 16 14 17 13 18 12 19 11 20 10 21
REMARK SMILES IDX 9 22 8 23 7 24 6 25 5 26 4 27 3 28 2 29 1 30
REMARK H PARENT
REMARK Flexibility Score: inf
ROOT
ATOM      1  C   UNL     1      50.718  -7.079  74.449  1.00  0.00     0.000 C 
ENDROOT
BRANCH   1   2
ATOM      2  C   UNL     1      49.942  -8.302  74.968  1.00  0.00     0.000 C 
BRANCH   2   3
ATOM      3  C   UNL     1      48.565  -8.453  74.298  1.00  0.00     0.000 C 
BRANCH   3   4
ATOM      4  C   UNL     1      48.644  -8.452  72.763  1.00  0.00     0.000 C 
BRANCH   4   5
ATOM      5  C   UNL     1      47.733  -7.390  72.122  1.00  0.00     0.000 C 
BRANCH   5   6
ATOM      6  C   UNL     1      47.285  -6.315  73.127  1.00  0.00     0.000 C 
BRANCH   6   7
ATOM      7  C   UNL     1      47.906  -4.938  72.832  1.00  0.00     0.000 C 
BRANCH   7   8
ATOM      8  C   UNL     1      47.922  -4.024  74.067  1.00  0.00     0.000 C 
BRANCH   8   9
ATOM      9  C   UNL     1      48.691  -2.713  73.826  1.00  0.00     0.000 C 
BRANCH   9  10
ATOM     10  C   UNL     1      49.511  -2.741  72.520  1.00  0.00     0.000 C 
BRANCH  10  11
ATOM     11  C   UNL     1      49.864  -1.348  71.964  1.00  0.00     0.000 C 
BRANCH  11  12
ATOM     12  C   UNL     1      51.288  -0.873  72.318  1.00  0.00     0.006 C 
BRANCH  12  13
ATOM     13  C   UNL     1      52.175  -2.018  72.828  1.00  0.00     0.053 C 
BRANCH  13  14
ATOM     14  C   UNL     1      53.531  -1.953  72.200  1.00  0.00     0.041 C 
ATOM     15  O   UNL     1      53.966  -0.863  71.740  1.00  0.00    -0.550 OA
ATOM     16  O   UNL     1      54.328  -3.090  72.147  1.00  0.00    -0.550 OA
ENDBRANCH  13  14
ENDBRANCH  12  13
ENDBRANCH  11  12
ENDBRANCH  10  11
ENDBRANCH   9  10
ENDBRANCH   8   9
ENDBRANCH   7   8
ENDBRANCH   6   7
ENDBRANCH   5   6
ENDBRANCH   4   5
ENDBRANCH   3   4
ENDBRANCH   2   3
ENDBRANCH   1   2
BRANCH   1  17
ATOM     17  C   UNL     1      50.642  -5.878  75.409  1.00  0.00     0.000 C 
BRANCH  17  18
ATOM     18  C   UNL     1      52.012  -5.546  76.039  1.00  0.00     0.000 C 
BRANCH  18  19
ATOM     19  C   UNL     1      52.394  -6.462  77.218  1.00  0.00     0.000 C 
BRANCH  19  20
ATOM     20  C   UNL     1      51.759  -6.083  78.569  1.00  0.00     0.000 C 
BRANCH  20  21
ATOM     21  C   UNL     1      51.454  -4.584  78.749  1.00  0.00     0.000 C 
BRANCH  21  22
ATOM     22  C   UNL     1      49.966  -4.301  79.004  1.00  0.00    -0.000 C 
BRANCH  22  23
ATOM     23  C   UNL     1      49.135  -5.585  78.893  1.00  0.00    -0.000 C 
BRANCH  23  24
ATOM     24  C   UNL     1      48.125  -5.487  77.744  1.00  0.00    -0.000 C 
BRANCH  24  25
ATOM     25  C   UNL     1      47.472  -6.848  77.469  1.00  0.00    -0.000 C 
BRANCH  25  26
ATOM     26  C   UNL     1      47.569  -7.805  78.668  1.00  0.00    -0.000 C 
BRANCH  26  27
ATOM     27  C   UNL     1      47.866  -9.255  78.246  1.00  0.00    -0.000 C 
BRANCH  27  28
ATOM     28  C   UNL     1      49.068  -9.854  78.991  1.00  0.00    -0.000 C 
BRANCH  28  29
ATOM     29  C   UNL     1      50.409  -9.306  78.481  1.00  0.00    -0.003 C 
ATOM     30  C   UNL     1      51.220 -10.397  77.786  1.00  0.00     0.004 C 
ENDBRANCH  28  29
ENDBRANCH  27  28
ENDBRANCH  26  27
ENDBRANCH  25  26
ENDBRANCH  24  25
ENDBRANCH  23  24
ENDBRANCH  22  23
ENDBRANCH  21  22
ENDBRANCH  20  21
ENDBRANCH  19  20
ENDBRANCH  18  19
ENDBRANCH  17  18
ENDBRANCH   1  17
TORSDOF 26
ENDMDL
MODEL 3
REMARK VINA RESULT:    -4.156      2.771      7.287
REMARK INTER + INTRA:         -15.637
REMARK INTER:                 -10.649
REMARK INTRA:                  -4.988
REMARK UNBOUND:                -5.164
REMARK SMILES CCCCCCCCCCCCCCCCCCCCCCCCCCCC(=O)[O-]
REMARK SMILES IDX 15 1 16 2 17 3 18 4 19 5 20 6 21 7 22 8 23 9 24 10 25 11
REMARK SMILES IDX 26 12 27 13 28 14 29 15 30 16 14 17 13 18 12 19 11 20 10 21
REMARK SMILES IDX 9 22 8 23 7 24 6 25 5 26 4 27 3 28 2 29 1 30
REMARK H PARENT
REMARK Flexibility Score: inf
ROOT
ATOM      1  C   UNL     1      49.945  -5.792  78.628  1.00  0.00     0.000 C 
ENDROOT
BRANCH   1   2
ATOM      2  C   UNL     1      48.446  -5.853  78.966  1.00  0.00     0.000 C 
BRANCH   2   3
ATOM      3  C   UNL     1      47.849  -7.254  78.743  1.00  0.00     0.000 C 
BRANCH   3   4
ATOM      4  C   UNL     1      48.905  -8.297  78.343  1.00  0.00     0.000 C 
BRANCH   4   5
ATOM      5  C   UNL     1      48.533  -9.058  77.059  1.00  0.00     0.000 C 
BRANCH   5   6
ATOM      6  C   UNL     1      48.212  -8.115  75.887  1.00  0.00     0.000 C 
BRANCH   6   7
ATOM      7  C   UNL     1      49.476  -7.647  75.143  1.00  0.00     0.000 C 
BRANCH   7   8
ATOM      8  C   UNL     1      49.561  -6.117  75.032  1.00  0.00     0.000 C 
BRANCH   8   9
ATOM      9  C   UNL     1      48.196  -5.432  75.219  1.00  0.00     0.000 C 
BRANCH   9  10
ATOM     10  C   UNL     1      47.911  -4.376  74.132  1.00  0.00     0.000 C 
BRANCH  10  11
ATOM     11  C   UNL     1      47.865  -4.941  72.698  1.00  0.00     0.000 C 
BRANCH  11  12
ATOM     12  C   UNL     1      46.895  -6.127  72.523  1.00  0.00     0.006 C 
BRANCH  12  13
ATOM     13  C   UNL     1      47.588  -7.368  71.941  1.00  0.00     0.053 C 
BRANCH  13  14
ATOM     14  C   UNL     1      46.776  -8.596  72.205  1.00  0.00     0.041 C 
ATOM     15  O   UNL     1      45.852  -8.575  73.063  1.00  0.00    -0.550 OA
ATOM     16  O   UNL     1      47.020  -9.760  71.484  1.00  0.00    -0.550 OA
ENDBRANCH  13  14
ENDBRANCH  12  13
ENDBRANCH  11  12
ENDBRANCH  10  11
ENDBRANCH   9  10
ENDBRANCH   8   9
ENDBRANCH   7   8
ENDBRANCH   6   7
ENDBRANCH   5   6
ENDBRANCH   4   5
ENDBRANCH   3   4
ENDBRANCH   2   3
ENDBRANCH   1   2
BRANCH   1  17
ATOM     17  C   UNL     1      50.471  -4.349  78.527  1.00  0.00     0.000 C 
BRANCH  17  18
ATOM     18  C   UNL     1      49.364  -3.351  78.123  1.00  0.00     0.000 C 
BRANCH  18  19
ATOM     19  C   UNL     1      49.749  -2.437  76.944  1.00  0.00     0.000 C 
BRANCH  19  20
ATOM     20  C   UNL     1      51.177  -2.639  76.402  1.00  0.00     0.000 C 
BRANCH  20  21
ATOM     21  C   UNL     1      51.258  -3.126  74.943  1.00  0.00     0.000 C 
BRANCH  21  22
ATOM     22  C   UNL     1      52.399  -2.468  74.154  1.00  0.00    -0.000 C 
BRANCH  22  23
ATOM     23  C   UNL     1      52.119  -2.507  72.646  1.00  0.00    -0.000 C 
BRANCH  23  24
ATOM     24  C   UNL     1      51.345  -1.262  72.200  1.00  0.00    -0.000 C 
BRANCH  24  25
ATOM     25  C   UNL     1      49.901  -1.620  71.819  1.00  0.00    -0.000 C 
BRANCH  25  26
ATOM     26  C   UNL     1      48.877  -0.612  72.366  1.00  0.00    -0.000 C 
BRANCH  26  27
ATOM     27  C   UNL     1      48.667  -0.749  73.885  1.00  0.00    -0.000 C 
BRANCH  27  28
ATOM     28  C   UNL     1      48.764   0.597  74.620  1.00  0.00    -0.000 C 
BRANCH  28  29
ATOM     29  C   UNL     1      48.665   1.796  73.666  1.00  0.00    -0.003 C 
ATOM     30  C   UNL     1      49.653   2.892  74.057  1.00  0.00     0.004 C 
ENDBRANCH  28  29
ENDBRANCH  27  28
ENDBRANCH  26  27
ENDBRANCH  25  26
ENDBRANCH  24  25
ENDBRANCH  23  24
ENDBRANCH  22  23
ENDBRANCH  21  22
ENDBRANCH  20  21
ENDBRANCH  19  20
ENDBRANCH  18  19
ENDBRANCH  17  18
ENDBRANCH   1  17
TORSDOF 26
ENDMDL
MODEL 4
REMARK VINA RESULT:    -4.144      2.112      4.830
REMARK INTER + INTRA:         -15.607
REMARK INTER:                 -10.553
REMARK INTRA:                  -5.053
REMARK UNBOUND:                -5.164
REMARK SMILES CCCCCCCCCCCCCCCCCCCCCCCCCCCC(=O)[O-]
REMARK SMILES IDX 15 1 16 2 17 3 18 4 19 5 20 6 21 7 22 8 23 9 24 10 25 11
REMARK SMILES IDX 26 12 27 13 28 14 29 15 30 16 14 17 13 18 12 19 11 20 10 21
REMARK SMILES IDX 9 22 8 23 7 24 6 25 5 26 4 27 3 28 2 29 1 30
REMARK H PARENT
REMARK Flexibility Score: inf
ROOT
ATOM      1  C   UNL     1      51.155  -0.827  72.547  1.00  0.00     0.000 C 
ENDROOT
BRANCH   1   2
ATOM      2  C   UNL     1      49.962  -1.595  71.953  1.00  0.00     0.000 C 
BRANCH   2   3
ATOM      3  C   UNL     1      48.628  -0.855  72.150  1.00  0.00     0.000 C 
BRANCH   3   4
ATOM      4  C   UNL     1      48.784   0.461  72.929  1.00  0.00     0.000 C 
BRANCH   4   5
ATOM      5  C   UNL     1      47.715   0.636  74.021  1.00  0.00     0.000 C 
BRANCH   5   6
ATOM      6  C   UNL     1      48.298   0.520  75.440  1.00  0.00     0.000 C 
BRANCH   6   7
ATOM      7  C   UNL     1      48.320  -0.933  75.951  1.00  0.00     0.000 C 
BRANCH   7   8
ATOM      8  C   UNL     1      49.746  -1.446  76.203  1.00  0.00     0.000 C 
BRANCH   8   9
ATOM      9  C   UNL     1      49.967  -2.871  75.666  1.00  0.00     0.000 C 
BRANCH   9  10
ATOM     10  C   UNL     1      48.722  -3.432  74.950  1.00  0.00     0.000 C 
BRANCH  10  11
ATOM     11  C   UNL     1      48.879  -4.882  74.450  1.00  0.00     0.000 C 
BRANCH  11  12
ATOM     12  C   UNL     1      48.855  -5.021  72.914  1.00  0.00     0.006 C 
BRANCH  12  13
ATOM     13  C   UNL     1      47.568  -5.690  72.409  1.00  0.00     0.053 C 
BRANCH  13  14
ATOM     14  C   UNL     1      47.716  -7.180  72.406  1.00  0.00     0.041 C 
ATOM     15  O   UNL     1      46.744  -7.913  72.083  1.00  0.00    -0.550 OA
ATOM     16  O   UNL     1      48.938  -7.758  72.733  1.00  0.00    -0.550 OA
ENDBRANCH  13  14
ENDBRANCH  12  13
ENDBRANCH  11  12
ENDBRANCH  10  11
ENDBRANCH   9  10
ENDBRANCH   8   9
ENDBRANCH   7   8
ENDBRANCH   6   7
ENDBRANCH   5   6
ENDBRANCH   4   5
ENDBRANCH   3   4
ENDBRANCH   2   3
ENDBRANCH   1   2
BRANCH   1  17
ATOM     17  C   UNL     1      52.503  -1.510  72.259  1.00  0.00     0.000 C 
BRANCH  17  18
ATOM     18  C   UNL     1      52.941  -2.446  73.406  1.00  0.00     0.000 C 
BRANCH  18  19
ATOM     19  C   UNL     1      52.615  -3.931  73.157  1.00  0.00     0.000 C 
BRANCH  19  20
ATOM     20  C   UNL     1      53.294  -4.918  74.124  1.00  0.00     0.000 C 
BRANCH  20  21
ATOM     21  C   UNL     1      52.390  -5.453  75.251  1.00  0.00     0.000 C 
BRANCH  21  22
ATOM     22  C   UNL     1      52.001  -6.927  75.061  1.00  0.00    -0.000 C 
BRANCH  22  23
ATOM     23  C   UNL     1      52.258  -7.733  76.340  1.00  0.00    -0.000 C 
BRANCH  23  24
ATOM     24  C   UNL     1      51.642  -7.038  77.559  1.00  0.00    -0.000 C 
BRANCH  24  25
ATOM     25  C   UNL     1      50.263  -7.627  77.889  1.00  0.00    -0.000 C 
BRANCH  25  26
ATOM     26  C   UNL     1      49.351  -6.627  78.618  1.00  0.00    -0.000 C 
BRANCH  26  27
ATOM     27  C   UNL     1      49.956  -5.214  78.684  1.00  0.00    -0.000 C 
BRANCH  27  28
ATOM     28  C   UNL     1      48.911  -4.136  79.010  1.00  0.00    -0.000 C 
BRANCH  28  29
ATOM     29  C   UNL     1      49.532  -2.894  79.666  1.00  0.00    -0.003 C 
ATOM     30  C   UNL     1      51.053  -2.909  79.542  1.00  0.00     0.004 C 
ENDBRANCH  28  29
ENDBRANCH  27  28
ENDBRANCH  26  27
ENDBRANCH  25  26
ENDBRANCH  24  25
ENDBRANCH  23  24
ENDBRANCH  22  23
ENDBRANCH  21  22
ENDBRANCH  20  21
ENDBRANCH  19  20
ENDBRANCH  18  19
ENDBRANCH  17  18
ENDBRANCH   1  17
TORSDOF 26
ENDMDL
MODEL 5
REMARK VINA RESULT:    -4.142      1.648      4.439
REMARK INTER + INTRA:         -15.602
REMARK INTER:                 -10.204
REMARK INTRA:                  -5.398
REMARK UNBOUND:                -5.164
REMARK SMILES CCCCCCCCCCCCCCCCCCCCCCCCCCCC(=O)[O-]
REMARK SMILES IDX 15 1 16 2 17 3 18 4 19 5 20 6 21 7 22 8 23 9 24 10 25 11
REMARK SMILES IDX 26 12 27 13 28 14 29 15 30 16 14 17 13 18 12 19 11 20 10 21
REMARK SMILES IDX 9 22 8 23 7 24 6 25 5 26 4 27 3 28 2 29 1 30
REMARK H PARENT
REMARK Flexibility Score: inf
ROOT
ATOM      1  C   UNL     1      49.261  -2.982  75.831  1.00  0.00     0.000 C 
ENDROOT
BRANCH   1   2
ATOM      2  C   UNL     1      47.839  -2.500  75.496  1.00  0.00     0.000 C 
BRANCH   2   3
ATOM      3  C   UNL     1      46.757  -3.288  76.255  1.00  0.00     0.000 C 
BRANCH   3   4
ATOM      4  C   UNL     1      45.983  -4.261  75.352  1.00  0.00     0.000 C 
BRANCH   4   5
ATOM      5  C   UNL     1      46.238  -5.736  75.710  1.00  0.00     0.000 C 
BRANCH   5   6
ATOM      6  C   UNL     1      47.060  -6.469  74.635  1.00  0.00     0.000 C 
BRANCH   6   7
ATOM      7  C   UNL     1      46.447  -6.333  73.230  1.00  0.00     0.000 C 
BRANCH   7   8
ATOM      8  C   UNL     1      47.474  -5.880  72.181  1.00  0.00     0.000 C 
BRANCH   8   9
ATOM      9  C   UNL     1      48.767  -5.337  72.813  1.00  0.00     0.000 C 
BRANCH   9  10
ATOM     10  C   UNL     1      49.046  -3.872  72.422  1.00  0.00     0.000 C 
BRANCH  10  11
ATOM     11  C   UNL     1      50.519  -3.579  72.073  1.00  0.00     0.000 C 
BRANCH  11  12
ATOM     12  C   UNL     1      50.939  -2.114  72.307  1.00  0.00     0.006 C 
BRANCH  12  13
ATOM     13  C   UNL     1      52.233  -2.001  73.125  1.00  0.00     0.053 C 
BRANCH  13  14
ATOM     14  C   UNL     1      53.426  -1.978  72.221  1.00  0.00     0.041 C 
ATOM     15  O   UNL     1      53.714  -0.934  71.577  1.00  0.00    -0.550 OA
ATOM     16  O   UNL     1      54.238  -3.101  72.113  1.00  0.00    -0.550 OA
ENDBRANCH  13  14
ENDBRANCH  12  13
ENDBRANCH  11  12
ENDBRANCH  10  11
ENDBRANCH   9  10
ENDBRANCH   8   9
ENDBRANCH   7   8
ENDBRANCH   6   7
ENDBRANCH   5   6
ENDBRANCH   4   5
ENDBRANCH   3   4
ENDBRANCH   2   3
ENDBRANCH   1   2
BRANCH   1  17
ATOM     17  C   UNL     1      50.180  -1.839  76.296  1.00  0.00     0.000 C 
BRANCH  17  18
ATOM     18  C   UNL     1      51.098  -2.265  77.462  1.00  0.00     0.000 C 
BRANCH  18  19
ATOM     19  C   UNL     1      50.393  -2.298  78.831  1.00  0.00     0.000 C 
BRANCH  19  20
ATOM     20  C   UNL     1      50.099  -3.707  79.379  1.00  0.00     0.000 C 
BRANCH  20  21
ATOM     21  C   UNL     1      48.611  -4.104  79.396  1.00  0.00     0.000 C 
BRANCH  21  22
ATOM     22  C   UNL     1      48.337  -5.435  78.681  1.00  0.00    -0.000 C 
BRANCH  22  23
ATOM     23  C   UNL     1      49.647  -6.159  78.345  1.00  0.00    -0.000 C 
BRANCH  23  24
ATOM     24  C   UNL     1      49.495  -7.674  78.512  1.00  0.00    -0.000 C 
BRANCH  24  25
ATOM     25  C   UNL     1      50.829  -8.391  78.266  1.00  0.00    -0.000 C 
BRANCH  25  26
ATOM     26  C   UNL     1      51.791  -7.569  77.392  1.00  0.00    -0.000 C 
BRANCH  26  27
ATOM     27  C   UNL     1      51.776  -8.013  75.918  1.00  0.00    -0.000 C 
BRANCH  27  28
ATOM     28  C   UNL     1      51.094  -6.989  74.998  1.00  0.00    -0.000 C 
BRANCH  28  29
ATOM     29  C   UNL     1      51.642  -5.567  75.192  1.00  0.00    -0.003 C 
ATOM     30  C   UNL     1      52.983  -5.393  74.483  1.00  0.00     0.004 C 
ENDBRANCH  28  29
ENDBRANCH  27  28
ENDBRANCH  26  27
ENDBRANCH  25  26
ENDBRANCH  24  25
ENDBRANCH  23  24
ENDBRANCH  22  23
ENDBRANCH  21  22
ENDBRANCH  20  21
ENDBRANCH  19  20
ENDBRANCH  18  19
ENDBRANCH  17  18
ENDBRANCH   1  17
TORSDOF 26
ENDMDL
MODEL 6
REMARK VINA RESULT:    -4.103      1.551      3.784
REMARK INTER + INTRA:         -15.503
REMARK INTER:                 -10.826
REMARK INTRA:                  -4.677
REMARK UNBOUND:                -5.164
REMARK SMILES CCCCCCCCCCCCCCCCCCCCCCCCCCCC(=O)[O-]
REMARK SMILES IDX 15 1 16 2 17 3 18 4 19 5 20 6 21 7 22 8 23 9 24 10 25 11
REMARK SMILES IDX 26 12 27 13 28 14 29 15 30 16 14 17 13 18 12 19 11 20 10 21
REMARK SMILES IDX 9 22 8 23 7 24 6 25 5 26 4 27 3 28 2 29 1 30
REMARK H PARENT
REMARK Flexibility Score: inf
ROOT
ATOM      1  C   UNL     1      48.266  -3.827  73.096  1.00  0.00     0.000 C 
ENDROOT
BRANCH   1   2
ATOM      2  C   UNL     1      48.252  -3.540  74.607  1.00  0.00     0.000 C 
BRANCH   2   3
ATOM      3  C   UNL     1      49.378  -2.582  75.035  1.00  0.00     0.000 C 
BRANCH   3   4
ATOM      4  C   UNL     1      49.016  -1.753  76.278  1.00  0.00     0.000 C 
BRANCH   4   5
ATOM      5  C   UNL     1      48.796  -0.265  75.956  1.00  0.00     0.000 C 
BRANCH   5   6
ATOM      6  C   UNL     1      47.416   0.004  75.331  1.00  0.00     0.000 C 
BRANCH   6   7
ATOM      7  C   UNL     1      47.493   0.939  74.111  1.00  0.00     0.000 C 
BRANCH   7   8
ATOM      8  C   UNL     1      48.740   0.682  73.251  1.00  0.00     0.000 C 
BRANCH   8   9
ATOM      9  C   UNL     1      48.511  -0.400  72.182  1.00  0.00     0.000 C 
BRANCH   9  10
ATOM     10  C   UNL     1      49.830  -1.004  71.660  1.00  0.00     0.000 C 
BRANCH  10  11
ATOM     11  C   UNL     1      51.099  -0.338  72.229  1.00  0.00     0.000 C 
BRANCH  11  12
ATOM     12  C   UNL     1      52.336  -1.259  72.245  1.00  0.00     0.006 C 
BRANCH  12  13
ATOM     13  C   UNL     1      51.964  -2.734  72.453  1.00  0.00     0.053 C 
BRANCH  13  14
ATOM     14  C   UNL     1      52.993  -3.422  73.295  1.00  0.00     0.041 C 
ATOM     15  O   UNL     1      52.850  -4.635  73.607  1.00  0.00    -0.550 OA
ATOM     16  O   UNL     1      54.125  -2.731  73.712  1.00  0.00    -0.550 OA
ENDBRANCH  13  14
ENDBRANCH  12  13
ENDBRANCH  11  12
ENDBRANCH  10  11
ENDBRANCH   9  10
ENDBRANCH   8   9
ENDBRANCH   7   8
ENDBRANCH   6   7
ENDBRANCH   5   6
ENDBRANCH   4   5
ENDBRANCH   3   4
ENDBRANCH   2   3
ENDBRANCH   1   2
BRANCH   1  17
ATOM     17  C   UNL     1      49.214  -4.979  72.720  1.00  0.00     0.000 C 
BRANCH  17  18
ATOM     18  C   UNL     1      48.546  -6.362  72.881  1.00  0.00     0.000 C 
BRANCH  18  19
ATOM     19  C   UNL     1      47.208  -6.498  72.129  1.00  0.00     0.000 C 
BRANCH  19  20
ATOM     20  C   UNL     1      46.041  -7.049  72.969  1.00  0.00     0.000 C 
BRANCH  20  21
ATOM     21  C   UNL     1      45.538  -6.110  74.082  1.00  0.00     0.000 C 
BRANCH  21  22
ATOM     22  C   UNL     1      44.777  -6.849  75.192  1.00  0.00    -0.000 C 
BRANCH  22  23
ATOM     23  C   UNL     1      45.722  -7.744  76.005  1.00  0.00    -0.000 C 
BRANCH  23  24
ATOM     24  C   UNL     1      46.810  -6.912  76.691  1.00  0.00    -0.000 C 
BRANCH  24  25
ATOM     25  C   UNL     1      48.208  -7.438  76.340  1.00  0.00    -0.000 C 
BRANCH  25  26
ATOM     26  C   UNL     1      49.303  -6.371  76.507  1.00  0.00    -0.000 C 
BRANCH  26  27
ATOM     27  C   UNL     1      48.967  -5.348  77.606  1.00  0.00    -0.000 C 
BRANCH  27  28
ATOM     28  C   UNL     1      50.056  -5.259  78.686  1.00  0.00    -0.000 C 
BRANCH  28  29
ATOM     29  C   UNL     1      51.044  -6.433  78.623  1.00  0.00    -0.003 C 
ATOM     30  C   UNL     1      52.422  -5.968  78.159  1.00  0.00     0.004 C 
ENDBRANCH  28  29
ENDBRANCH  27  28
ENDBRANCH  26  27
ENDBRANCH  25  26
ENDBRANCH  24  25
ENDBRANCH  23  24
ENDBRANCH  22  23
ENDBRANCH  21  22
ENDBRANCH  20  21
ENDBRANCH  19  20
ENDBRANCH  18  19
ENDBRANCH  17  18
ENDBRANCH   1  17
TORSDOF 26
ENDMDL
MODEL 7
REMARK VINA RESULT:    -4.084      2.386      5.166
REMARK INTER + INTRA:         -15.455
REMARK INTER:                 -10.245
REMARK INTRA:                  -5.210
REMARK UNBOUND:                -5.164
REMARK SMILES CCCCCCCCCCCCCCCCCCCCCCCCCCCC(=O)[O-]
REMARK SMILES IDX 15 1 16 2 17 3 18 4 19 5 20 6 21 7 22 8 23 9 24 10 25 11
REMARK SMILES IDX 26 12 27 13 28 14 29 15 30 16 14 17 13 18 12 19 11 20 10 21
REMARK SMILES IDX 9 22 8 23 7 24 6 25 5 26 4 27 3 28 2 29 1 30
REMARK H PARENT
REMARK Flexibility Score: inf
ROOT
ATOM      1  C   UNL     1      49.174  -3.855  72.293  1.00  0.00     0.000 C 
ENDROOT
BRANCH   1   2
ATOM      2  C   UNL     1      47.876  -4.683  72.299  1.00  0.00     0.000 C 
BRANCH   2   3
ATOM      3  C   UNL     1      48.110  -6.142  72.729  1.00  0.00     0.000 C 
BRANCH   3   4
ATOM      4  C   UNL     1      46.874  -6.774  73.390  1.00  0.00     0.000 C 
BRANCH   4   5
ATOM      5  C   UNL     1      45.842  -5.728  73.844  1.00  0.00     0.000 C 
BRANCH   5   6
ATOM      6  C   UNL     1      45.695  -5.673  75.375  1.00  0.00     0.000 C 
BRANCH   6   7
ATOM      7  C   UNL     1      46.977  -5.187  76.074  1.00  0.00     0.000 C 
BRANCH   7   8
ATOM      8  C   UNL     1      47.304  -3.721  75.749  1.00  0.00     0.000 C 
BRANCH   8   9
ATOM      9  C   UNL     1      48.095  -3.027  76.872  1.00  0.00     0.000 C 
BRANCH   9  10
ATOM     10  C   UNL     1      49.423  -2.422  76.372  1.00  0.00     0.000 C 
BRANCH  10  11
ATOM     11  C   UNL     1      50.311  -1.838  77.487  1.00  0.00     0.000 C 
BRANCH  11  12
ATOM     12  C   UNL     1      49.633  -1.796  78.872  1.00  0.00     0.006 C 
BRANCH  12  13
ATOM     13  C   UNL     1      50.288  -2.761  79.872  1.00  0.00     0.053 C 
BRANCH  13  14
ATOM     14  C   UNL     1      51.730  -2.415  80.069  1.00  0.00     0.041 C 
ATOM     15  O   UNL     1      52.627  -3.266  79.821  1.00  0.00    -0.550 OA
ATOM     16  O   UNL     1      52.088  -1.143  80.501  1.00  0.00    -0.550 OA
ENDBRANCH  13  14
ENDBRANCH  12  13
ENDBRANCH  11  12
ENDBRANCH  10  11
ENDBRANCH   9  10
ENDBRANCH   8   9
ENDBRANCH   7   8
ENDBRANCH   6   7
ENDBRANCH   5   6
ENDBRANCH   4   5
ENDBRANCH   3   4
ENDBRANCH   2   3
ENDBRANCH   1   2
BRANCH   1  17
ATOM     17  C   UNL     1      48.942  -2.388  72.691  1.00  0.00     0.000 C 
BRANCH  17  18
ATOM     18  C   UNL     1      49.881  -1.422  71.937  1.00  0.00     0.000 C 
BRANCH  18  19
ATOM     19  C   UNL     1      51.112  -0.984  72.754  1.00  0.00     0.000 C 
BRANCH  19  20
ATOM     20  C   UNL     1      52.467  -1.456  72.196  1.00  0.00     0.000 C 
BRANCH  20  21
ATOM     21  C   UNL     1      53.126  -2.612  72.972  1.00  0.00     0.000 C 
BRANCH  21  22
ATOM     22  C   UNL     1      52.303  -3.064  74.187  1.00  0.00    -0.000 C 
BRANCH  22  23
ATOM     23  C   UNL     1      52.631  -4.515  74.564  1.00  0.00    -0.000 C 
BRANCH  23  24
ATOM     24  C   UNL     1      51.428  -5.431  74.317  1.00  0.00    -0.000 C 
BRANCH  24  25
ATOM     25  C   UNL     1      50.664  -5.698  75.622  1.00  0.00    -0.000 C 
BRANCH  25  26
ATOM     26  C   UNL     1      51.543  -5.523  76.870  1.00  0.00    -0.000 C 
BRANCH  26  27
ATOM     27  C   UNL     1      50.771  -5.774  78.177  1.00  0.00    -0.000 C 
BRANCH  27  28
ATOM     28  C   UNL     1      50.276  -7.223  78.304  1.00  0.00    -0.000 C 
BRANCH  28  29
ATOM     29  C   UNL     1      48.756  -7.309  78.504  1.00  0.00    -0.003 C 
ATOM     30  C   UNL     1      48.203  -6.010  79.086  1.00  0.00     0.004 C 
ENDBRANCH  28  29
ENDBRANCH  27  28
ENDBRANCH  26  27
ENDBRANCH  25  26
ENDBRANCH  24  25
ENDBRANCH  23  24
ENDBRANCH  22  23
ENDBRANCH  21  22
ENDBRANCH  20  21
ENDBRANCH  19  20
ENDBRANCH  18  19
ENDBRANCH  17  18
ENDBRANCH   1  17
TORSDOF 26
ENDMDL
MODEL 8
REMARK VINA RESULT:    -4.069      2.678      6.646
REMARK INTER + INTRA:         -15.417
REMARK INTER:                 -10.756
REMARK INTRA:                  -4.661
REMARK UNBOUND:                -5.164
REMARK SMILES CCCCCCCCCCCCCCCCCCCCCCCCCCCC(=O)[O-]
REMARK SMILES IDX 15 1 16 2 17 3 18 4 19 5 20 6 21 7 22 8 23 9 24 10 25 11
REMARK SMILES IDX 26 12 27 13 28 14 29 15 30 16 14 17 13 18 12 19 11 20 10 21
REMARK SMILES IDX 9 22 8 23 7 24 6 25 5 26 4 27 3 28 2 29 1 30
REMARK H PARENT
REMARK Flexibility Score: inf
ROOT
ATOM      1  C   UNL     1      48.266  -4.057  73.029  1.00  0.00     0.000 C 
ENDROOT
BRANCH   1   2
ATOM      2  C   UNL     1      47.504  -5.346  72.675  1.00  0.00     0.000 C 
BRANCH   2   3
ATOM      3  C   UNL     1      46.565  -5.804  73.805  1.00  0.00     0.000 C 
BRANCH   3   4
ATOM      4  C   UNL     1      47.288  -6.624  74.886  1.00  0.00     0.000 C 
BRANCH   4   5
ATOM      5  C   UNL     1      46.864  -6.231  76.312  1.00  0.00     0.000 C 
BRANCH   5   6
ATOM      6  C   UNL     1      47.475  -7.152  77.382  1.00  0.00     0.000 C 
BRANCH   6   7
ATOM      7  C   UNL     1      48.104  -6.366  78.547  1.00  0.00     0.000 C 
BRANCH   7   8
ATOM      8  C   UNL     1      49.623  -6.576  78.647  1.00  0.00     0.000 C 
BRANCH   8   9
ATOM      9  C   UNL     1      50.361  -6.196  77.352  1.00  0.00     0.000 C 
BRANCH   9  10
ATOM     10  C   UNL     1      51.727  -5.534  77.624  1.00  0.00     0.000 C 
BRANCH  10  11
ATOM     11  C   UNL     1      51.805  -4.769  78.960  1.00  0.00     0.000 C 
BRANCH  11  12
ATOM     12  C   UNL     1      51.410  -3.282  78.855  1.00  0.00     0.006 C 
BRANCH  12  13
ATOM     13  C   UNL     1      51.413  -2.579  80.220  1.00  0.00     0.053 C 
BRANCH  13  14
ATOM     14  C   UNL     1      50.160  -1.783  80.405  1.00  0.00     0.041 C 
ATOM     15  O   UNL     1      49.122  -2.331  80.867  1.00  0.00    -0.550 OA
ATOM     16  O   UNL     1      50.144  -0.428  80.094  1.00  0.00    -0.550 OA
ENDBRANCH  13  14
ENDBRANCH  12  13
ENDBRANCH  11  12
ENDBRANCH  10  11
ENDBRANCH   9  10
ENDBRANCH   8   9
ENDBRANCH   7   8
ENDBRANCH   6   7
ENDBRANCH   5   6
ENDBRANCH   4   5
ENDBRANCH   3   4
ENDBRANCH   2   3
ENDBRANCH   1   2
BRANCH   1  17
ATOM     17  C   UNL     1      49.790  -4.260  73.063  1.00  0.00     0.000 C 
BRANCH  17  18
ATOM     18  C   UNL     1      50.399  -3.891  74.433  1.00  0.00     0.000 C 
BRANCH  18  19
ATOM     19  C   UNL     1      51.927  -3.694  74.404  1.00  0.00     0.000 C 
BRANCH  19  20
ATOM     20  C   UNL     1      52.521  -3.418  73.010  1.00  0.00     0.000 C 
BRANCH  20  21
ATOM     21  C   UNL     1      53.286  -2.087  72.878  1.00  0.00     0.000 C 
BRANCH  21  22
ATOM     22  C   UNL     1      52.607  -1.098  71.919  1.00  0.00    -0.000 C 
BRANCH  22  23
ATOM     23  C   UNL     1      51.299  -0.563  72.516  1.00  0.00    -0.000 C 
BRANCH  23  24
ATOM     24  C   UNL     1      50.094  -0.997  71.673  1.00  0.00    -0.000 C 
BRANCH  24  25
ATOM     25  C   UNL     1      48.786  -0.455  72.266  1.00  0.00    -0.000 C 
BRANCH  25  26
ATOM     26  C   UNL     1      48.997   0.270  73.604  1.00  0.00    -0.000 C 
BRANCH  26  27
ATOM     27  C   UNL     1      47.964  -0.140  74.669  1.00  0.00    -0.000 C 
BRANCH  27  28
ATOM     28  C   UNL     1      48.565  -1.032  75.765  1.00  0.00    -0.000 C 
BRANCH  28  29
ATOM     29  C   UNL     1      47.547  -2.031  76.334  1.00  0.00    -0.003 C 
ATOM     30  C   UNL     1      48.194  -2.943  77.374  1.00  0.00     0.004 C 
ENDBRANCH  28  29
ENDBRANCH  27  28
ENDBRANCH  26  27
ENDBRANCH  25  26
ENDBRANCH  24  25
ENDBRANCH  23  24
ENDBRANCH  22  23
ENDBRANCH  21  22
ENDBRANCH  20  21
ENDBRANCH  19  20
ENDBRANCH  18  19
ENDBRANCH  17  18
ENDBRANCH   1  17
TORSDOF 26
ENDMDL
MODEL 9
REMARK VINA RESULT:    -4.053      2.503      5.128
REMARK INTER + INTRA:         -15.377
REMARK INTER:                  -9.669
REMARK INTRA:                  -5.709
REMARK UNBOUND:                -5.164
REMARK SMILES CCCCCCCCCCCCCCCCCCCCCCCCCCCC(=O)[O-]
REMARK SMILES IDX 15 1 16 2 17 3 18 4 19 5 20 6 21 7 22 8 23 9 24 10 25 11
REMARK SMILES IDX 26 12 27 13 28 14 29 15 30 16 14 17 13 18 12 19 11 20 10 21
REMARK SMILES IDX 9 22 8 23 7 24 6 25 5 26 4 27 3 28 2 29 1 30
REMARK H PARENT
REMARK Flexibility Score: inf
ROOT
ATOM      1  C   UNL     1      50.814  -7.178  77.248  1.00  0.00     0.000 C 
ENDROOT
BRANCH   1   2
ATOM      2  C   UNL     1      50.118  -6.614  75.997  1.00  0.00     0.000 C 
BRANCH   2   3
ATOM      3  C   UNL     1      51.115  -6.231  74.890  1.00  0.00     0.000 C 
BRANCH   3   4
ATOM      4  C   UNL     1      52.522  -5.932  75.431  1.00  0.00     0.000 C 
BRANCH   4   5
ATOM      5  C   UNL     1      53.367  -5.092  74.457  1.00  0.00     0.000 C 
BRANCH   5   6
ATOM      6  C   UNL     1      52.503  -4.253  73.501  1.00  0.00     0.000 C 
BRANCH   6   7
ATOM      7  C   UNL     1      52.745  -2.741  73.661  1.00  0.00     0.000 C 
BRANCH   7   8
ATOM      8  C   UNL     1      52.388  -1.951  72.392  1.00  0.00     0.000 C 
BRANCH   8   9
ATOM      9  C   UNL     1      51.276  -0.915  72.632  1.00  0.00     0.000 C 
BRANCH   9  10
ATOM     10  C   UNL     1      50.079  -1.101  71.678  1.00  0.00     0.000 C 
BRANCH  10  11
ATOM     11  C   UNL     1      48.745  -0.554  72.222  1.00  0.00     0.000 C 
BRANCH  11  12
ATOM     12  C   UNL     1      48.907   0.481  73.354  1.00  0.00     0.006 C 
BRANCH  12  13
ATOM     13  C   UNL     1      47.614   0.671  74.160  1.00  0.00     0.053 C 
BRANCH  13  14
ATOM     14  C   UNL     1      47.836   0.331  75.600  1.00  0.00     0.041 C 
ATOM     15  O   UNL     1      48.964   0.518  76.130  1.00  0.00    -0.550 OA
ATOM     16  O   UNL     1      46.789  -0.168  76.366  1.00  0.00    -0.550 OA
ENDBRANCH  13  14
ENDBRANCH  12  13
ENDBRANCH  11  12
ENDBRANCH  10  11
ENDBRANCH   9  10
ENDBRANCH   8   9
ENDBRANCH   7   8
ENDBRANCH   6   7
ENDBRANCH   5   6
ENDBRANCH   4   5
ENDBRANCH   3   4
ENDBRANCH   2   3
ENDBRANCH   1   2
BRANCH   1  17
ATOM     17  C   UNL     1      50.144  -6.723  78.555  1.00  0.00     0.000 C 
BRANCH  17  18
ATOM     18  C   UNL     1      49.524  -5.314  78.434  1.00  0.00     0.000 C 
BRANCH  18  19
ATOM     19  C   UNL     1      50.536  -4.169  78.628  1.00  0.00     0.000 C 
BRANCH  19  20
ATOM     20  C   UNL     1      50.487  -3.066  77.554  1.00  0.00     0.000 C 
BRANCH  20  21
ATOM     21  C   UNL     1      49.197  -3.031  76.713  1.00  0.00     0.000 C 
BRANCH  21  22
ATOM     22  C   UNL     1      49.467  -2.965  75.202  1.00  0.00    -0.000 C 
BRANCH  22  23
ATOM     23  C   UNL     1      48.278  -3.519  74.407  1.00  0.00    -0.000 C 
BRANCH  23  24
ATOM     24  C   UNL     1      48.748  -4.172  73.102  1.00  0.00    -0.000 C 
BRANCH  24  25
ATOM     25  C   UNL     1      47.666  -5.098  72.530  1.00  0.00    -0.000 C 
BRANCH  25  26
ATOM     26  C   UNL     1      47.888  -6.572  72.907  1.00  0.00    -0.000 C 
BRANCH  26  27
ATOM     27  C   UNL     1      46.698  -7.171  73.678  1.00  0.00    -0.000 C 
BRANCH  27  28
ATOM     28  C   UNL     1      47.119  -8.294  74.637  1.00  0.00    -0.000 C 
BRANCH  28  29
ATOM     29  C   UNL     1      46.777  -7.976  76.100  1.00  0.00    -0.003 C 
ATOM     30  C   UNL     1      46.428  -6.500  76.275  1.00  0.00     0.004 C 
ENDBRANCH  28  29
ENDBRANCH  27  28
ENDBRANCH  26  27
ENDBRANCH  25  26
ENDBRANCH  24  25
ENDBRANCH  23  24
ENDBRANCH  22  23
ENDBRANCH  21  22
ENDBRANCH  20  21
ENDBRANCH  19  20
ENDBRANCH  18  19
ENDBRANCH  17  18
ENDBRANCH   1  17
TORSDOF 26
ENDMDL
