MODEL 1
REMARK VINA RESULT:    -3.243      0.000      0.000
REMARK INTER + INTRA:          -4.383
REMARK INTER:                  -4.192
REMARK INTRA:                  -0.192
REMARK UNBOUND:                -0.192
REMARK SMILES CCCCCCC(=O)[O-]
REMARK SMILES IDX 5 1 6 2 7 3 8 4 9 5 4 6 3 7 2 8 1 9
REMARK H PARENT
REMARK Flexibility Score: inf
ROOT
ATOM      1  C   UNL     1      -5.356  -3.417  35.730  1.00  0.00     0.006 C 
ENDROOT
BRANCH   1   2
ATOM      2  C   UNL     1      -3.841  -3.414  35.485  1.00  0.00     0.053 C 
BRANCH   2   3
ATOM      3  C   UNL     1      -3.507  -2.994  34.086  1.00  0.00     0.041 C 
ATOM      4  O   UNL     1      -3.936  -3.658  33.105  1.00  0.00    -0.550 OA
ATOM      5  O   UNL     1      -2.748  -1.852  33.865  1.00  0.00    -0.550 OA
ENDBRANCH   2   3
ENDBRANCH   1   2
BRANCH   1   6
ATOM      6  C   UNL     1      -5.795  -2.282  36.666  1.00  0.00     0.000 C 
BRANCH   6   7
ATOM      7  C   UNL     1      -4.894  -2.212  37.905  1.00  0.00    -0.000 C 
BRANCH   7   8
ATOM      8  C   UNL     1      -5.261  -1.012  38.785  1.00  0.00    -0.003 C 
ATOM      9  C   UNL     1      -6.532  -0.331  38.286  1.00  0.00     0.004 C 
ENDBRANCH   7   8
ENDBRANCH   6   7
ENDBRANCH   1   6
TORSDOF 5
ENDMDL
MODEL 2
REMARK VINA RESULT:    -3.237      1.930      2.687
REMARK INTER + INTRA:          -4.376
REMARK INTER:                  -3.995
REMARK INTRA:                  -0.380
REMARK UNBOUND:                -0.192
REMARK SMILES CCCCCCC(=O)[O-]
REMARK SMILES IDX 5 1 6 2 7 3 8 4 9 5 4 6 3 7 2 8 1 9
REMARK H PARENT
REMARK Flexibility Score: inf
ROOT
ATOM      1  C   UNL     1      -3.564  -2.854  33.977  1.00  0.00     0.006 C 
ENDROOT
BRANCH   1   2
ATOM      2  C   UNL     1      -2.575  -1.817  34.526  1.00  0.00     0.053 C 
BRANCH   2   3
ATOM      3  C   UNL     1      -1.551  -2.447  35.421  1.00  0.00     0.041 C 
ATOM      4  O   UNL     1      -1.871  -3.400  36.178  1.00  0.00    -0.550 OA
ATOM      5  O   UNL     1      -0.236  -2.001  35.394  1.00  0.00    -0.550 OA
ENDBRANCH   2   3
ENDBRANCH   1   2
BRANCH   1   6
ATOM      6  C   UNL     1      -5.006  -2.573  34.423  1.00  0.00     0.000 C 
BRANCH   6   7
ATOM      7  C   UNL     1      -5.350  -3.357  35.696  1.00  0.00    -0.000 C 
BRANCH   7   8
ATOM      8  C   UNL     1      -5.879  -2.425  36.790  1.00  0.00    -0.003 C 
ATOM      9  C   UNL     1      -4.807  -2.139  37.837  1.00  0.00     0.004 C 
ENDBRANCH   7   8
ENDBRANCH   6   7
ENDBRANCH   1   6
TORSDOF 5
ENDMDL
MODEL 3
REMARK VINA RESULT:    -3.231      1.180      1.677
REMARK INTER + INTRA:          -4.368
REMARK INTER:                  -4.107
REMARK INTRA:                  -0.260
REMARK UNBOUND:                -0.192
REMARK SMILES CCCCCCC(=O)[O-]
REMARK SMILES IDX 5 1 6 2 7 3 8 4 9 5 4 6 3 7 2 8 1 9
REMARK H PARENT
REMARK Flexibility Score: inf
ROOT
ATOM      1  C   UNL     1      -5.462  -2.954  36.497  1.00  0.00     0.006 C 
ENDROOT
BRANCH   1   2
ATOM      2  C   UNL     1      -4.343  -3.487  35.593  1.00  0.00     0.053 C 
BRANCH   2   3
ATOM      3  C   UNL     1      -4.457  -2.955  34.197  1.00  0.00     0.041 C 
ATOM      4  O   UNL     1      -4.990  -1.833  33.987  1.00  0.00    -0.550 OA
ATOM      5  O   UNL     1      -3.945  -3.684  33.131  1.00  0.00    -0.550 OA
ENDBRANCH   2   3
ENDBRANCH   1   2
BRANCH   1   6
ATOM      6  C   UNL     1      -4.914  -2.261  37.753  1.00  0.00     0.000 C 
BRANCH   6   7
ATOM      7  C   UNL     1      -5.794  -1.070  38.152  1.00  0.00    -0.000 C 
BRANCH   7   8
ATOM      8  C   UNL     1      -6.713  -0.654  36.999  1.00  0.00    -0.003 C 
ATOM      9  C   UNL     1      -8.135  -0.402  37.491  1.00  0.00     0.004 C 
ENDBRANCH   7   8
ENDBRANCH   6   7
ENDBRANCH   1   6
TORSDOF 5
ENDMDL
MODEL 4
REMARK VINA RESULT:    -3.181      1.005      1.376
REMARK INTER + INTRA:          -4.303
REMARK INTER:                  -3.982
REMARK INTRA:                  -0.321
REMARK UNBOUND:                -0.192
REMARK SMILES CCCCCCC(=O)[O-]
REMARK SMILES IDX 5 1 6 2 7 3 8 4 9 5 4 6 3 7 2 8 1 9
REMARK H PARENT
REMARK Flexibility Score: inf
ROOT
ATOM      1  C   UNL     1      -5.415  -3.478  35.777  1.00  0.00     0.006 C 
ENDROOT
BRANCH   1   2
ATOM      2  C   UNL     1      -3.903  -3.560  35.529  1.00  0.00     0.053 C 
BRANCH   2   3
ATOM      3  C   UNL     1      -3.530  -3.008  34.187  1.00  0.00     0.041 C 
ATOM      4  O   UNL     1      -3.888  -3.602  33.135  1.00  0.00    -0.550 OA
ATOM      5  O   UNL     1      -2.814  -1.821  34.097  1.00  0.00    -0.550 OA
ENDBRANCH   2   3
ENDBRANCH   1   2
BRANCH   1   6
ATOM      6  C   UNL     1      -5.785  -2.338  36.737  1.00  0.00     0.000 C 
BRANCH   6   7
ATOM      7  C   UNL     1      -4.740  -2.195  37.849  1.00  0.00    -0.000 C 
BRANCH   7   8
ATOM      8  C   UNL     1      -4.224  -0.755  37.938  1.00  0.00    -0.003 C 
ATOM      9  C   UNL     1      -2.713  -0.697  37.731  1.00  0.00     0.004 C 
ENDBRANCH   7   8
ENDBRANCH   6   7
ENDBRANCH   1   6
TORSDOF 5
ENDMDL
MODEL 5
REMARK VINA RESULT:    -3.176      1.632      2.038
REMARK INTER + INTRA:          -4.297
REMARK INTER:                  -3.869
REMARK INTRA:                  -0.428
REMARK UNBOUND:                -0.192
REMARK SMILES CCCCCCC(=O)[O-]
REMARK SMILES IDX 5 1 6 2 7 3 8 4 9 5 4 6 3 7 2 8 1 9
REMARK H PARENT
REMARK Flexibility Score: inf
ROOT
ATOM      1  C   UNL     1      -4.971  -2.569  34.457  1.00  0.00     0.006 C 
ENDROOT
BRANCH   1   2
ATOM      2  C   UNL     1      -3.577  -2.975  33.961  1.00  0.00     0.053 C 
BRANCH   2   3
ATOM      3  C   UNL     1      -2.492  -2.309  34.751  1.00  0.00     0.041 C 
ATOM      4  O   UNL     1      -2.166  -1.118  34.504  1.00  0.00    -0.550 OA
ATOM      5  O   UNL     1      -1.862  -2.995  35.783  1.00  0.00    -0.550 OA
ENDBRANCH   2   3
ENDBRANCH   1   2
BRANCH   1   6
ATOM      6  C   UNL     1      -5.383  -3.336  35.722  1.00  0.00     0.000 C 
BRANCH   6   7
ATOM      7  C   UNL     1      -5.868  -2.373  36.814  1.00  0.00    -0.000 C 
BRANCH   7   8
ATOM      8  C   UNL     1      -4.806  -2.199  37.904  1.00  0.00    -0.003 C 
ATOM      9  C   UNL     1      -4.119  -0.841  37.793  1.00  0.00     0.004 C 
ENDBRANCH   7   8
ENDBRANCH   6   7
ENDBRANCH   1   6
TORSDOF 5
ENDMDL
MODEL 6
REMARK VINA RESULT:    -3.163      2.996      4.530
REMARK INTER + INTRA:          -4.280
REMARK INTER:                  -4.140
REMARK INTRA:                  -0.140
REMARK UNBOUND:                -0.192
REMARK SMILES CCCCCCC(=O)[O-]
REMARK SMILES IDX 5 1 6 2 7 3 8 4 9 5 4 6 3 7 2 8 1 9
REMARK H PARENT
REMARK Flexibility Score: inf
ROOT
ATOM      1  C   UNL     1      -2.911  -2.611  36.135  1.00  0.00     0.006 C 
ENDROOT
BRANCH   1   2
ATOM      2  C   UNL     1      -3.845  -3.608  35.436  1.00  0.00     0.053 C 
BRANCH   2   3
ATOM      3  C   UNL     1      -4.281  -3.109  34.091  1.00  0.00     0.041 C 
ATOM      4  O   UNL     1      -3.975  -3.747  33.049  1.00  0.00    -0.550 OA
ATOM      5  O   UNL     1      -5.051  -1.958  33.993  1.00  0.00    -0.550 OA
ENDBRANCH   2   3
ENDBRANCH   1   2
BRANCH   1   6
ATOM      6  C   UNL     1      -1.549  -2.503  35.434  1.00  0.00     0.000 C 
BRANCH   6   7
ATOM      7  C   UNL     1      -0.401  -2.722  36.428  1.00  0.00    -0.000 C 
BRANCH   7   8
ATOM      8  C   UNL     1       0.812  -1.859  36.066  1.00  0.00    -0.003 C 
ATOM      9  C   UNL     1       1.852  -2.666  35.293  1.00  0.00     0.004 C 
ENDBRANCH   7   8
ENDBRANCH   6   7
ENDBRANCH   1   6
TORSDOF 5
ENDMDL
MODEL 7
REMARK VINA RESULT:    -3.114      1.471      2.294
REMARK INTER + INTRA:          -4.216
REMARK INTER:                  -3.823
REMARK INTRA:                  -0.393
REMARK UNBOUND:                -0.192
REMARK SMILES CCCCCCC(=O)[O-]
REMARK SMILES IDX 5 1 6 2 7 3 8 4 9 5 4 6 3 7 2 8 1 9
REMARK H PARENT
REMARK Flexibility Score: inf
ROOT
ATOM      1  C   UNL     1      -5.319  -3.325  35.984  1.00  0.00     0.006 C 
ENDROOT
BRANCH   1   2
ATOM      2  C   UNL     1      -3.879  -3.670  35.579  1.00  0.00     0.053 C 
BRANCH   2   3
ATOM      3  C   UNL     1      -3.524  -3.088  34.245  1.00  0.00     0.041 C 
ATOM      4  O   UNL     1      -2.805  -2.056  34.174  1.00  0.00    -0.550 OA
ATOM      5  O   UNL     1      -3.962  -3.703  33.079  1.00  0.00    -0.550 OA
ENDBRANCH   2   3
ENDBRANCH   1   2
BRANCH   1   6
ATOM      6  C   UNL     1      -5.380  -2.142  36.961  1.00  0.00     0.000 C 
BRANCH   6   7
ATOM      7  C   UNL     1      -6.304  -1.039  36.431  1.00  0.00    -0.000 C 
BRANCH   7   8
ATOM      8  C   UNL     1      -5.590  -0.179  35.384  1.00  0.00    -0.003 C 
ATOM      9  C   UNL     1      -6.200  -0.376  33.999  1.00  0.00     0.004 C 
ENDBRANCH   7   8
ENDBRANCH   6   7
ENDBRANCH   1   6
TORSDOF 5
ENDMDL
MODEL 8
REMARK VINA RESULT:    -3.104      2.648      3.748
REMARK INTER + INTRA:          -4.203
REMARK INTER:                  -3.997
REMARK INTRA:                  -0.206
REMARK UNBOUND:                -0.192
REMARK SMILES CCCCCCC(=O)[O-]
REMARK SMILES IDX 5 1 6 2 7 3 8 4 9 5 4 6 3 7 2 8 1 9
REMARK H PARENT
REMARK Flexibility Score: inf
ROOT
ATOM      1  C   UNL     1      -2.520  -2.086  34.751  1.00  0.00     0.006 C 
ENDROOT
BRANCH   1   2
ATOM      2  C   UNL     1      -1.795  -2.885  35.842  1.00  0.00     0.053 C 
BRANCH   2   3
ATOM      3  C   UNL     1      -0.526  -2.214  36.271  1.00  0.00     0.041 C 
ATOM      4  O   UNL     1      -0.561  -1.074  36.806  1.00  0.00    -0.550 OA
ATOM      5  O   UNL     1       0.692  -2.861  36.109  1.00  0.00    -0.550 OA
ENDBRANCH   2   3
ENDBRANCH   1   2
BRANCH   1   6
ATOM      6  C   UNL     1      -3.551  -2.937  33.995  1.00  0.00     0.000 C 
BRANCH   6   7
ATOM      7  C   UNL     1      -4.979  -2.583  34.426  1.00  0.00    -0.000 C 
BRANCH   7   8
ATOM      8  C   UNL     1      -5.384  -3.364  35.681  1.00  0.00    -0.003 C 
ATOM      9  C   UNL     1      -5.828  -2.423  36.797  1.00  0.00     0.004 C 
ENDBRANCH   7   8
ENDBRANCH   6   7
ENDBRANCH   1   6
TORSDOF 5
ENDMDL
MODEL 9
REMARK VINA RESULT:    -3.100      2.816      4.348
REMARK INTER + INTRA:          -4.198
REMARK INTER:                  -3.912
REMARK INTRA:                  -0.287
REMARK UNBOUND:                -0.192
REMARK SMILES CCCCCCC(=O)[O-]
REMARK SMILES IDX 5 1 6 2 7 3 8 4 9 5 4 6 3 7 2 8 1 9
REMARK H PARENT
REMARK Flexibility Score: inf
ROOT
ATOM      1  C   UNL     1      -3.917  -3.680  35.403  1.00  0.00     0.006 C 
ENDROOT
BRANCH   1   2
ATOM      2  C   UNL     1      -5.392  -3.347  35.665  1.00  0.00     0.053 C 
BRANCH   2   3
ATOM      3  C   UNL     1      -5.557  -2.472  36.871  1.00  0.00     0.041 C 
ATOM      4  O   UNL     1      -6.554  -1.710  36.970  1.00  0.00    -0.550 OA
ATOM      5  O   UNL     1      -4.625  -2.524  37.899  1.00  0.00    -0.550 OA
ENDBRANCH   2   3
ENDBRANCH   1   2
BRANCH   1   6
ATOM      6  C   UNL     1      -3.288  -2.747  34.358  1.00  0.00     0.000 C 
BRANCH   6   7
ATOM      7  C   UNL     1      -2.062  -2.026  34.934  1.00  0.00    -0.000 C 
BRANCH   7   8
ATOM      8  C   UNL     1      -1.438  -2.831  36.078  1.00  0.00    -0.003 C 
ATOM      9  C   UNL     1       0.072  -2.619  36.142  1.00  0.00     0.004 C 
ENDBRANCH   7   8
ENDBRANCH   6   7
ENDBRANCH   1   6
TORSDOF 5
ENDMDL
