MODEL 1
REMARK VINA RESULT:    -4.822      0.000      0.000
REMARK INTER + INTRA:          -9.776
REMARK INTER:                  -8.205
REMARK INTRA:                  -1.571
REMARK UNBOUND:                -1.571
REMARK SMILES CCCCCCCCCCCCCC(=O)[O-]
REMARK SMILES IDX 8 1 9 2 10 3 11 4 12 5 13 6 14 7 15 8 16 9 7 10 6 11 5 12
REMARK SMILES IDX 4 13 3 14 2 15 1 16
REMARK H PARENT
REMARK Flexibility Score: inf
ROOT
ATOM      1  C   UNL     1       2.883  42.912  10.374  1.00  0.00     0.000 C 
ENDROOT
BRANCH   1   2
ATOM      2  C   UNL     1       2.306  43.796  11.495  1.00  0.00     0.000 C 
BRANCH   2   3
ATOM      3  C   UNL     1       3.402  44.309  12.451  1.00  0.00     0.000 C 
BRANCH   3   4
ATOM      4  C   UNL     1       4.454  45.198  11.765  1.00  0.00     0.000 C 
BRANCH   4   5
ATOM      5  C   UNL     1       3.828  46.295  10.890  1.00  0.00     0.006 C 
BRANCH   5   6
ATOM      6  C   UNL     1       4.370  46.270   9.454  1.00  0.00     0.053 C 
BRANCH   6   7
ATOM      7  C   UNL     1       5.244  47.453   9.167  1.00  0.00     0.041 C 
ATOM      8  O   UNL     1       4.865  48.338   8.354  1.00  0.00    -0.550 OA
ATOM      9  O   UNL     1       6.464  47.593   9.817  1.00  0.00    -0.550 OA
ENDBRANCH   6   7
ENDBRANCH   5   6
ENDBRANCH   4   5
ENDBRANCH   3   4
ENDBRANCH   2   3
ENDBRANCH   1   2
BRANCH   1  10
ATOM     10  C   UNL     1       2.280  43.227   8.996  1.00  0.00     0.000 C 
BRANCH  10  11
ATOM     11  C   UNL     1       1.229  44.349   9.052  1.00  0.00    -0.000 C 
BRANCH  11  12
ATOM     12  C   UNL     1       0.425  44.470   7.747  1.00  0.00    -0.000 C 
BRANCH  12  13
ATOM     13  C   UNL     1       0.014  45.916   7.433  1.00  0.00    -0.000 C 
BRANCH  13  14
ATOM     14  C   UNL     1       0.665  46.896   8.421  1.00  0.00    -0.000 C 
BRANCH  14  15
ATOM     15  C   UNL     1       1.499  47.977   7.717  1.00  0.00    -0.003 C 
ATOM     16  C   UNL     1       1.504  49.307   8.469  1.00  0.00     0.004 C 
ENDBRANCH  14  15
ENDBRANCH  13  14
ENDBRANCH  12  13
ENDBRANCH  11  12
ENDBRANCH  10  11
ENDBRANCH   1  10
TORSDOF 12
ENDMDL
MODEL 2
REMARK VINA RESULT:    -4.748      2.182      5.491
REMARK INTER + INTRA:          -9.650
REMARK INTER:                  -8.206
REMARK INTRA:                  -1.444
REMARK UNBOUND:                -1.571
REMARK SMILES CCCCCCCCCCCCCC(=O)[O-]
REMARK SMILES IDX 8 1 9 2 10 3 11 4 12 5 13 6 14 7 15 8 16 9 7 10 6 11 5 12
REMARK SMILES IDX 4 13 3 14 2 15 1 16
REMARK H PARENT
REMARK Flexibility Score: inf
ROOT
ATOM      1  C   UNL     1       5.164  47.373   9.169  1.00  0.00     0.000 C 
ENDROOT
BRANCH   1   2
ATOM      2  C   UNL     1       4.684  48.509   8.247  1.00  0.00     0.000 C 
BRANCH   2   3
ATOM      3  C   UNL     1       3.293  48.221   7.646  1.00  0.00     0.000 C 
BRANCH   3   4
ATOM      4  C   UNL     1       2.181  49.129   8.200  1.00  0.00     0.000 C 
BRANCH   4   5
ATOM      5  C   UNL     1       0.860  48.380   8.433  1.00  0.00     0.006 C 
BRANCH   5   6
ATOM      6  C   UNL     1       0.686  47.198   7.468  1.00  0.00     0.053 C 
BRANCH   6   7
ATOM      7  C   UNL     1       0.391  45.923   8.196  1.00  0.00     0.041 C 
ATOM      8  O   UNL     1       0.439  45.886   9.454  1.00  0.00    -0.550 OA
ATOM      9  O   UNL     1       0.034  44.782   7.488  1.00  0.00    -0.550 OA
ENDBRANCH   6   7
ENDBRANCH   5   6
ENDBRANCH   4   5
ENDBRANCH   3   4
ENDBRANCH   2   3
ENDBRANCH   1   2
BRANCH   1  10
ATOM     10  C   UNL     1       4.073  46.326   9.442  1.00  0.00     0.000 C 
BRANCH  10  11
ATOM     11  C   UNL     1       3.663  46.273  10.924  1.00  0.00    -0.000 C 
BRANCH  11  12
ATOM     12  C   UNL     1       4.372  45.144  11.692  1.00  0.00    -0.000 C 
BRANCH  12  13
ATOM     13  C   UNL     1       3.393  44.240  12.457  1.00  0.00    -0.000 C 
BRANCH  13  14
ATOM     14  C   UNL     1       2.335  43.655  11.509  1.00  0.00    -0.000 C 
BRANCH  14  15
ATOM     15  C   UNL     1       2.926  42.636  10.522  1.00  0.00    -0.003 C 
ATOM     16  C   UNL     1       2.682  43.015   9.062  1.00  0.00     0.004 C 
ENDBRANCH  14  15
ENDBRANCH  13  14
ENDBRANCH  12  13
ENDBRANCH  11  12
ENDBRANCH  10  11
ENDBRANCH   1  10
TORSDOF 12
ENDMDL
MODEL 3
REMARK VINA RESULT:    -4.683      2.091      4.868
REMARK INTER + INTRA:          -9.540
REMARK INTER:                  -8.230
REMARK INTRA:                  -1.310
REMARK UNBOUND:                -1.571
REMARK SMILES CCCCCCCCCCCCCC(=O)[O-]
REMARK SMILES IDX 8 1 9 2 10 3 11 4 12 5 13 6 14 7 15 8 16 9 7 10 6 11 5 12
REMARK SMILES IDX 4 13 3 14 2 15 1 16
REMARK H PARENT
REMARK Flexibility Score: inf
ROOT
ATOM      1  C   UNL     1       0.613  47.693   7.583  1.00  0.00     0.000 C 
ENDROOT
BRANCH   1   2
ATOM      2  C   UNL     1       0.136  46.291   8.006  1.00  0.00     0.000 C 
BRANCH   2   3
ATOM      3  C   UNL     1       0.313  46.050   9.520  1.00  0.00     0.000 C 
BRANCH   3   4
ATOM      4  C   UNL     1       1.158  44.808   9.852  1.00  0.00     0.000 C 
BRANCH   4   5
ATOM      5  C   UNL     1       1.172  44.480  11.353  1.00  0.00     0.006 C 
BRANCH   5   6
ATOM      6  C   UNL     1       2.197  43.391  11.699  1.00  0.00     0.053 C 
BRANCH   6   7
ATOM      7  C   UNL     1       3.599  43.836  11.418  1.00  0.00     0.041 C 
ATOM      8  O   UNL     1       4.126  44.746  12.112  1.00  0.00    -0.550 OA
ATOM      9  O   UNL     1       4.335  43.229  10.408  1.00  0.00    -0.550 OA
ENDBRANCH   6   7
ENDBRANCH   5   6
ENDBRANCH   4   5
ENDBRANCH   3   4
ENDBRANCH   2   3
ENDBRANCH   1   2
BRANCH   1  10
ATOM     10  C   UNL     1       1.336  48.443   8.713  1.00  0.00     0.000 C 
BRANCH  10  11
ATOM     11  C   UNL     1       2.660  49.074   8.250  1.00  0.00    -0.000 C 
BRANCH  11  12
ATOM     12  C   UNL     1       3.749  48.024   7.974  1.00  0.00    -0.000 C 
BRANCH  12  13
ATOM     13  C   UNL     1       3.897  47.005   9.115  1.00  0.00    -0.000 C 
BRANCH  13  14
ATOM     14  C   UNL     1       5.279  47.122   9.776  1.00  0.00    -0.000 C 
BRANCH  14  15
ATOM     15  C   UNL     1       6.246  48.002   8.970  1.00  0.00    -0.003 C 
ATOM     16  C   UNL     1       7.625  48.115   9.619  1.00  0.00     0.004 C 
ENDBRANCH  14  15
ENDBRANCH  13  14
ENDBRANCH  12  13
ENDBRANCH  11  12
ENDBRANCH  10  11
ENDBRANCH   1  10
TORSDOF 12
ENDMDL
MODEL 4
REMARK VINA RESULT:    -4.667      1.199      4.230
REMARK INTER + INTRA:          -9.511
REMARK INTER:                  -8.132
REMARK INTRA:                  -1.380
REMARK UNBOUND:                -1.571
REMARK SMILES CCCCCCCCCCCCCC(=O)[O-]
REMARK SMILES IDX 8 1 9 2 10 3 11 4 12 5 13 6 14 7 15 8 16 9 7 10 6 11 5 12
REMARK SMILES IDX 4 13 3 14 2 15 1 16
REMARK H PARENT
REMARK Flexibility Score: inf
ROOT
ATOM      1  C   UNL     1       2.036  43.473   8.989  1.00  0.00     0.000 C 
ENDROOT
BRANCH   1   2
ATOM      2  C   UNL     1       1.126  44.695   9.207  1.00  0.00     0.000 C 
BRANCH   2   3
ATOM      3  C   UNL     1       0.435  45.145   7.903  1.00  0.00     0.000 C 
BRANCH   3   4
ATOM      4  C   UNL     1       0.517  46.661   7.653  1.00  0.00     0.000 C 
BRANCH   4   5
ATOM      5  C   UNL     1       1.583  47.351   8.518  1.00  0.00     0.006 C 
BRANCH   5   6
ATOM      6  C   UNL     1       1.563  48.877   8.353  1.00  0.00     0.053 C 
BRANCH   6   7
ATOM      7  C   UNL     1       2.734  49.367   7.557  1.00  0.00     0.041 C 
ATOM      8  O   UNL     1       3.667  48.578   7.251  1.00  0.00    -0.550 OA
ATOM      9  O   UNL     1       2.782  50.687   7.126  1.00  0.00    -0.550 OA
ENDBRANCH   6   7
ENDBRANCH   5   6
ENDBRANCH   4   5
ENDBRANCH   3   4
ENDBRANCH   2   3
ENDBRANCH   1   2
BRANCH   1  10
ATOM     10  C   UNL     1       2.651  42.946  10.294  1.00  0.00     0.000 C 
BRANCH  10  11
ATOM     11  C   UNL     1       2.087  43.650  11.540  1.00  0.00    -0.000 C 
BRANCH  11  12
ATOM     12  C   UNL     1       3.190  44.105  12.511  1.00  0.00    -0.000 C 
BRANCH  12  13
ATOM     13  C   UNL     1       4.372  44.776  11.795  1.00  0.00    -0.000 C 
BRANCH  13  14
ATOM     14  C   UNL     1       3.943  46.109  11.162  1.00  0.00    -0.000 C 
BRANCH  14  15
ATOM     15  C   UNL     1       4.594  46.348   9.791  1.00  0.00    -0.003 C 
ATOM     16  C   UNL     1       5.722  47.378   9.843  1.00  0.00     0.004 C 
ENDBRANCH  14  15
ENDBRANCH  13  14
ENDBRANCH  12  13
ENDBRANCH  11  12
ENDBRANCH  10  11
ENDBRANCH   1  10
TORSDOF 12
ENDMDL
MODEL 5
REMARK VINA RESULT:    -4.654      2.336      4.285
REMARK INTER + INTRA:          -9.489
REMARK INTER:                  -7.809
REMARK INTRA:                  -1.681
REMARK UNBOUND:                -1.571
REMARK SMILES CCCCCCCCCCCCCC(=O)[O-]
REMARK SMILES IDX 8 1 9 2 10 3 11 4 12 5 13 6 14 7 15 8 16 9 7 10 6 11 5 12
REMARK SMILES IDX 4 13 3 14 2 15 1 16
REMARK H PARENT
REMARK Flexibility Score: inf
ROOT
ATOM      1  C   UNL     1       4.016  47.566   8.382  1.00  0.00     0.000 C 
ENDROOT
BRANCH   1   2
ATOM      2  C   UNL     1       5.230  47.380   9.311  1.00  0.00     0.000 C 
BRANCH   2   3
ATOM      3  C   UNL     1       4.864  46.611  10.597  1.00  0.00     0.000 C 
BRANCH   3   4
ATOM      4  C   UNL     1       3.352  46.386  10.773  1.00  0.00     0.000 C 
BRANCH   4   5
ATOM      5  C   UNL     1       3.025  45.080  11.514  1.00  0.00     0.006 C 
BRANCH   5   6
ATOM      6  C   UNL     1       4.036  43.968  11.203  1.00  0.00     0.053 C 
BRANCH   6   7
ATOM      7  C   UNL     1       3.658  43.199   9.974  1.00  0.00     0.041 C 
ATOM      8  O   UNL     1       4.186  43.478   8.865  1.00  0.00    -0.550 OA
ATOM      9  O   UNL     1       2.745  42.155  10.058  1.00  0.00    -0.550 OA
ENDBRANCH   6   7
ENDBRANCH   5   6
ENDBRANCH   4   5
ENDBRANCH   3   4
ENDBRANCH   2   3
ENDBRANCH   1   2
BRANCH   1  10
ATOM     10  C   UNL     1       4.038  48.907   7.633  1.00  0.00     0.000 C 
BRANCH  10  11
ATOM     11  C   UNL     1       2.660  49.591   7.605  1.00  0.00    -0.000 C 
BRANCH  11  12
ATOM     12  C   UNL     1       1.663  48.950   8.585  1.00  0.00    -0.000 C 
BRANCH  12  13
ATOM     13  C   UNL     1       0.302  48.652   7.938  1.00  0.00    -0.000 C 
BRANCH  13  14
ATOM     14  C   UNL     1       0.190  47.168   7.557  1.00  0.00    -0.000 C 
BRANCH  14  15
ATOM     15  C   UNL     1       0.263  46.238   8.778  1.00  0.00    -0.003 C 
ATOM     16  C   UNL     1       0.783  44.844   8.431  1.00  0.00     0.004 C 
ENDBRANCH  14  15
ENDBRANCH  13  14
ENDBRANCH  12  13
ENDBRANCH  11  12
ENDBRANCH  10  11
ENDBRANCH   1  10
TORSDOF 12
ENDMDL
MODEL 6
REMARK VINA RESULT:    -4.645      1.669      3.657
REMARK INTER + INTRA:          -9.475
REMARK INTER:                  -8.146
REMARK INTRA:                  -1.329
REMARK UNBOUND:                -1.571
REMARK SMILES CCCCCCCCCCCCCC(=O)[O-]
REMARK SMILES IDX 8 1 9 2 10 3 11 4 12 5 13 6 14 7 15 8 16 9 7 10 6 11 5 12
REMARK SMILES IDX 4 13 3 14 2 15 1 16
REMARK H PARENT
REMARK Flexibility Score: inf
ROOT
ATOM      1  C   UNL     1       4.451  44.867  11.536  1.00  0.00     0.000 C 
ENDROOT
BRANCH   1   2
ATOM      2  C   UNL     1       4.105  46.266  10.993  1.00  0.00     0.000 C 
BRANCH   2   3
ATOM      3  C   UNL     1       4.420  46.399   9.489  1.00  0.00     0.000 C 
BRANCH   3   4
ATOM      4  C   UNL     1       5.223  47.663   9.136  1.00  0.00     0.000 C 
BRANCH   4   5
ATOM      5  C   UNL     1       4.565  48.498   8.027  1.00  0.00     0.006 C 
BRANCH   5   6
ATOM      6  C   UNL     1       3.047  48.277   7.959  1.00  0.00     0.053 C 
BRANCH   6   7
ATOM      7  C   UNL     1       2.304  49.565   7.777  1.00  0.00     0.041 C 
ATOM      8  O   UNL     1       1.045  49.568   7.731  1.00  0.00    -0.550 OA
ATOM      9  O   UNL     1       2.998  50.765   7.686  1.00  0.00    -0.550 OA
ENDBRANCH   6   7
ENDBRANCH   5   6
ENDBRANCH   4   5
ENDBRANCH   3   4
ENDBRANCH   2   3
ENDBRANCH   1   2
BRANCH   1  10
ATOM     10  C   UNL     1       3.362  44.300  12.460  1.00  0.00     0.000 C 
BRANCH  10  11
ATOM     11  C   UNL     1       2.331  43.445  11.705  1.00  0.00    -0.000 C 
BRANCH  11  12
ATOM     12  C   UNL     1       2.878  42.899  10.375  1.00  0.00    -0.000 C 
BRANCH  12  13
ATOM     13  C   UNL     1       2.136  43.459   9.152  1.00  0.00    -0.000 C 
BRANCH  13  14
ATOM     14  C   UNL     1       1.134  44.546   9.570  1.00  0.00    -0.000 C 
BRANCH  14  15
ATOM     15  C   UNL     1       0.826  45.534   8.434  1.00  0.00    -0.003 C 
ATOM     16  C   UNL     1       0.080  44.884   7.270  1.00  0.00     0.004 C 
ENDBRANCH  14  15
ENDBRANCH  13  14
ENDBRANCH  12  13
ENDBRANCH  11  12
ENDBRANCH  10  11
ENDBRANCH   1  10
TORSDOF 12
ENDMDL
MODEL 7
REMARK VINA RESULT:    -4.575      1.311      4.552
REMARK INTER + INTRA:          -9.356
REMARK INTER:                  -7.925
REMARK INTRA:                  -1.431
REMARK UNBOUND:                -1.571
REMARK SMILES CCCCCCCCCCCCCC(=O)[O-]
REMARK SMILES IDX 8 1 9 2 10 3 11 4 12 5 13 6 14 7 15 8 16 9 7 10 6 11 5 12
REMARK SMILES IDX 4 13 3 14 2 15 1 16
REMARK H PARENT
REMARK Flexibility Score: inf
ROOT
ATOM      1  C   UNL     1      -0.321  47.757   8.322  1.00  0.00     0.000 C 
ENDROOT
BRANCH   1   2
ATOM      2  C   UNL     1       0.331  49.117   8.011  1.00  0.00     0.000 C 
BRANCH   2   3
ATOM      3  C   UNL     1       1.742  49.238   8.622  1.00  0.00     0.000 C 
BRANCH   3   4
ATOM      4  C   UNL     1       2.817  49.674   7.611  1.00  0.00     0.000 C 
BRANCH   4   5
ATOM      5  C   UNL     1       4.090  48.816   7.687  1.00  0.00     0.006 C 
BRANCH   5   6
ATOM      6  C   UNL     1       3.884  47.546   8.525  1.00  0.00     0.053 C 
BRANCH   6   7
ATOM      7  C   UNL     1       5.045  47.285   9.435  1.00  0.00     0.041 C 
ATOM      8  O   UNL     1       6.206  47.641   9.100  1.00  0.00    -0.550 OA
ATOM      9  O   UNL     1       4.843  46.674  10.666  1.00  0.00    -0.550 OA
ENDBRANCH   6   7
ENDBRANCH   5   6
ENDBRANCH   4   5
ENDBRANCH   3   4
ENDBRANCH   2   3
ENDBRANCH   1   2
BRANCH   1  10
ATOM     10  C   UNL     1       0.346  46.591   7.576  1.00  0.00     0.000 C 
BRANCH  10  11
ATOM     11  C   UNL     1       0.523  45.346   8.462  1.00  0.00    -0.000 C 
BRANCH  11  12
ATOM     12  C   UNL     1       0.955  45.699   9.896  1.00  0.00    -0.000 C 
BRANCH  12  13
ATOM     13  C   UNL     1       1.516  44.491  10.662  1.00  0.00    -0.000 C 
BRANCH  13  14
ATOM     14  C   UNL     1       2.627  43.801   9.857  1.00  0.00    -0.000 C 
BRANCH  14  15
ATOM     15  C   UNL     1       3.772  43.292  10.747  1.00  0.00    -0.003 C 
ATOM     16  C   UNL     1       3.659  43.775  12.192  1.00  0.00     0.004 C 
ENDBRANCH  14  15
ENDBRANCH  13  14
ENDBRANCH  12  13
ENDBRANCH  11  12
ENDBRANCH  10  11
ENDBRANCH   1  10
TORSDOF 12
ENDMDL
MODEL 8
REMARK VINA RESULT:    -4.552      2.358      4.384
REMARK INTER + INTRA:          -9.317
REMARK INTER:                  -7.522
REMARK INTRA:                  -1.795
REMARK UNBOUND:                -1.571
REMARK SMILES CCCCCCCCCCCCCC(=O)[O-]
REMARK SMILES IDX 8 1 9 2 10 3 11 4 12 5 13 6 14 7 15 8 16 9 7 10 6 11 5 12
REMARK SMILES IDX 4 13 3 14 2 15 1 16
REMARK H PARENT
REMARK Flexibility Score: inf
ROOT
ATOM      1  C   UNL     1       0.433  46.566   7.477  1.00  0.00     0.000 C 
ENDROOT
BRANCH   1   2
ATOM      2  C   UNL     1       0.708  45.391   8.434  1.00  0.00     0.000 C 
BRANCH   2   3
ATOM      3  C   UNL     1       0.509  45.788   9.912  1.00  0.00     0.000 C 
BRANCH   3   4
ATOM      4  C   UNL     1       1.098  44.774  10.908  1.00  0.00     0.000 C 
BRANCH   4   5
ATOM      5  C   UNL     1       2.508  45.155  11.385  1.00  0.00     0.006 C 
BRANCH   5   6
ATOM      6  C   UNL     1       3.454  43.947  11.420  1.00  0.00     0.053 C 
BRANCH   6   7
ATOM      7  C   UNL     1       3.528  43.258  10.092  1.00  0.00     0.041 C 
ATOM      8  O   UNL     1       4.132  43.802   9.129  1.00  0.00    -0.550 OA
ATOM      9  O   UNL     1       2.957  42.004   9.923  1.00  0.00    -0.550 OA
ENDBRANCH   6   7
ENDBRANCH   5   6
ENDBRANCH   4   5
ENDBRANCH   3   4
ENDBRANCH   2   3
ENDBRANCH   1   2
BRANCH   1  10
ATOM     10  C   UNL     1      -0.354  47.706   8.142  1.00  0.00     0.000 C 
BRANCH  10  11
ATOM     11  C   UNL     1       0.339  49.071   7.987  1.00  0.00    -0.000 C 
BRANCH  11  12
ATOM     12  C   UNL     1       1.680  49.140   8.737  1.00  0.00    -0.000 C 
BRANCH  12  13
ATOM     13  C   UNL     1       2.846  49.569   7.833  1.00  0.00    -0.000 C 
BRANCH  13  14
ATOM     14  C   UNL     1       3.825  48.405   7.616  1.00  0.00    -0.000 C 
BRANCH  14  15
ATOM     15  C   UNL     1       3.804  47.392   8.771  1.00  0.00    -0.003 C 
ATOM     16  C   UNL     1       5.162  47.243   9.454  1.00  0.00     0.004 C 
ENDBRANCH  14  15
ENDBRANCH  13  14
ENDBRANCH  12  13
ENDBRANCH  11  12
ENDBRANCH  10  11
ENDBRANCH   1  10
TORSDOF 12
ENDMDL
MODEL 9
REMARK VINA RESULT:    -4.425      2.483      4.193
REMARK INTER + INTRA:          -9.100
REMARK INTER:                  -7.939
REMARK INTRA:                  -1.162
REMARK UNBOUND:                -1.571
REMARK SMILES CCCCCCCCCCCCCC(=O)[O-]
REMARK SMILES IDX 8 1 9 2 10 3 11 4 12 5 13 6 14 7 15 8 16 9 7 10 6 11 5 12
REMARK SMILES IDX 4 13 3 14 2 15 1 16
REMARK H PARENT
REMARK Flexibility Score: inf
ROOT
ATOM      1  C   UNL     1       3.624  44.169  12.449  1.00  0.00     0.000 C 
ENDROOT
BRANCH   1   2
ATOM      2  C   UNL     1       2.396  43.803  11.595  1.00  0.00     0.000 C 
BRANCH   2   3
ATOM      3  C   UNL     1       2.741  42.782  10.491  1.00  0.00     0.000 C 
BRANCH   3   4
ATOM      4  C   UNL     1       2.678  43.366   9.069  1.00  0.00     0.000 C 
BRANCH   4   5
ATOM      5  C   UNL     1       1.241  43.642   8.600  1.00  0.00     0.006 C 
BRANCH   5   6
ATOM      6  C   UNL     1       0.882  45.132   8.678  1.00  0.00     0.053 C 
BRANCH   6   7
ATOM      7  C   UNL     1       0.039  45.564   7.517  1.00  0.00     0.041 C 
ATOM      8  O   UNL     1      -0.174  44.773   6.560  1.00  0.00    -0.550 OA
ATOM      9  O   UNL     1      -0.535  46.829   7.503  1.00  0.00    -0.550 OA
ENDBRANCH   6   7
ENDBRANCH   5   6
ENDBRANCH   4   5
ENDBRANCH   3   4
ENDBRANCH   2   3
ENDBRANCH   1   2
BRANCH   1  10
ATOM     10  C   UNL     1       4.520  45.225  11.783  1.00  0.00     0.000 C 
BRANCH  10  11
ATOM     11  C   UNL     1       3.715  46.270  10.992  1.00  0.00    -0.000 C 
BRANCH  11  12
ATOM     12  C   UNL     1       4.301  46.532   9.595  1.00  0.00    -0.000 C 
BRANCH  12  13
ATOM     13  C   UNL     1       3.421  47.462   8.746  1.00  0.00    -0.000 C 
BRANCH  13  14
ATOM     14  C   UNL     1       4.265  48.571   8.098  1.00  0.00    -0.000 C 
BRANCH  14  15
ATOM     15  C   UNL     1       3.410  49.585   7.322  1.00  0.00    -0.003 C 
ATOM     16  C   UNL     1       1.990  49.707   7.871  1.00  0.00     0.004 C 
ENDBRANCH  14  15
ENDBRANCH  13  14
ENDBRANCH  12  13
ENDBRANCH  11  12
ENDBRANCH  10  11
ENDBRANCH   1  10
TORSDOF 12
ENDMDL
