MODEL 1
REMARK VINA RESULT:    -5.648      0.000      0.000
REMARK INTER + INTRA:          -6.076
REMARK INTER:                  -5.978
REMARK INTRA:                  -0.098
REMARK UNBOUND:                -0.098
REMARK SMILES C=C(C)[C@@H]1CC=C(C)C(=O)C1
REMARK SMILES IDX 8 1 7 2 6 3 5 4 4 5 11 6 9 7 10 8 2 9 1 10 3 11
REMARK H PARENT
REMARK Flexibility Score: inf
ROOT
ATOM      1  C   UNL     1     -11.204 -17.304  25.999  1.00  0.00     0.048 C 
ATOM      2  C   UNL     1     -11.584 -16.906  27.398  1.00  0.00    -0.012 C 
ATOM      3  C   UNL     1     -10.755 -17.167  28.424  1.00  0.00    -0.019 C 
ATOM      4  C   UNL     1     -11.055 -16.717  29.829  1.00  0.00     0.036 C 
ATOM      5  C   UNL     1     -12.573 -16.660  30.083  1.00  0.00     0.025 C 
ATOM      6  C   UNL     1     -13.260 -15.775  29.027  1.00  0.00     0.089 C 
ATOM      7  C   UNL     1     -12.868 -16.202  27.639  1.00  0.00     0.158 C 
ATOM      8  O   UNL     1     -13.622 -15.915  26.672  1.00  0.00    -0.295 OA
ENDROOT
BRANCH   5   9
ATOM      9  C   UNL     1     -12.890 -16.195  31.498  1.00  0.00    -0.077 C 
ATOM     10  C   UNL     1     -14.100 -15.707  31.819  1.00  0.00     0.008 C 
ATOM     11  C   UNL     1     -11.837 -16.275  32.574  1.00  0.00     0.039 C 
ENDBRANCH   5   9
TORSDOF 1
ENDMDL
MODEL 2
REMARK VINA RESULT:    -5.637      2.899      4.468
REMARK INTER + INTRA:          -6.065
REMARK INTER:                  -5.968
REMARK INTRA:                  -0.097
REMARK UNBOUND:                -0.098
REMARK SMILES C=C(C)[C@@H]1CC=C(C)C(=O)C1
REMARK SMILES IDX 8 1 7 2 6 3 5 4 4 5 11 6 9 7 10 8 2 9 1 10 3 11
REMARK H PARENT
REMARK Flexibility Score: inf
ROOT
ATOM      1  C   UNL     1     -12.490 -20.598  31.863  1.00  0.00     0.048 C 
ATOM      2  C   UNL     1     -12.714 -19.492  30.869  1.00  0.00    -0.012 C 
ATOM      3  C   UNL     1     -13.107 -19.779  29.616  1.00  0.00    -0.019 C 
ATOM      4  C   UNL     1     -13.422 -18.702  28.611  1.00  0.00     0.036 C 
ATOM      5  C   UNL     1     -12.578 -17.439  28.866  1.00  0.00     0.025 C 
ATOM      6  C   UNL     1     -12.762 -16.956  30.316  1.00  0.00     0.089 C 
ATOM      7  C   UNL     1     -12.523 -18.080  31.286  1.00  0.00     0.158 C 
ATOM      8  O   UNL     1     -12.201 -17.809  32.473  1.00  0.00    -0.295 OA
ENDROOT
BRANCH   5   9
ATOM      9  C   UNL     1     -12.895 -16.338  27.862  1.00  0.00    -0.077 C 
ATOM     10  C   UNL     1     -13.271 -15.113  28.264  1.00  0.00     0.008 C 
ATOM     11  C   UNL     1     -12.791 -16.611  26.383  1.00  0.00     0.039 C 
ENDBRANCH   5   9
TORSDOF 1
ENDMDL
MODEL 3
REMARK VINA RESULT:    -5.630      2.025      4.336
REMARK INTER + INTRA:          -6.057
REMARK INTER:                  -5.965
REMARK INTRA:                  -0.092
REMARK UNBOUND:                -0.098
REMARK SMILES C=C(C)[C@@H]1CC=C(C)C(=O)C1
REMARK SMILES IDX 8 1 7 2 6 3 5 4 4 5 11 6 9 7 10 8 2 9 1 10 3 11
REMARK H PARENT
REMARK Flexibility Score: inf
ROOT
ATOM      1  C   UNL     1     -11.139 -16.249  32.842  1.00  0.00     0.048 C 
ATOM      2  C   UNL     1     -11.423 -16.444  31.379  1.00  0.00    -0.012 C 
ATOM      3  C   UNL     1     -10.632 -15.871  30.455  1.00  0.00    -0.019 C 
ATOM      4  C   UNL     1     -10.829 -16.103  28.980  1.00  0.00     0.036 C 
ATOM      5  C   UNL     1     -12.312 -16.358  28.649  1.00  0.00     0.025 C 
ATOM      6  C   UNL     1     -12.857 -17.520  29.501  1.00  0.00     0.089 C 
ATOM      7  C   UNL     1     -12.566 -17.292  30.959  1.00  0.00     0.158 C 
ATOM      8  O   UNL     1     -13.278 -17.868  31.825  1.00  0.00    -0.295 OA
ENDROOT
BRANCH   5   9
ATOM      9  C   UNL     1     -12.522 -16.606  27.161  1.00  0.00    -0.077 C 
ATOM     10  C   UNL     1     -13.676 -16.280  26.555  1.00  0.00     0.008 C 
ATOM     11  C   UNL     1     -11.426 -17.231  26.336  1.00  0.00     0.039 C 
ENDBRANCH   5   9
TORSDOF 1
ENDMDL
MODEL 4
REMARK VINA RESULT:    -5.507      2.227      2.983
REMARK INTER + INTRA:          -5.927
REMARK INTER:                  -5.834
REMARK INTRA:                  -0.093
REMARK UNBOUND:                -0.098
REMARK SMILES C=C(C)[C@@H]1CC=C(C)C(=O)C1
REMARK SMILES IDX 8 1 7 2 6 3 5 4 4 5 11 6 9 7 10 8 2 9 1 10 3 11
REMARK H PARENT
REMARK Flexibility Score: inf
ROOT
ATOM      1  C   UNL     1     -13.622 -20.496  28.649  1.00  0.00     0.048 C 
ATOM      2  C   UNL     1     -13.341 -19.387  29.624  1.00  0.00    -0.012 C 
ATOM      3  C   UNL     1     -13.272 -19.647  30.942  1.00  0.00    -0.019 C 
ATOM      4  C   UNL     1     -12.914 -18.585  31.948  1.00  0.00     0.036 C 
ATOM      5  C   UNL     1     -13.377 -17.193  31.478  1.00  0.00     0.025 C 
ATOM      6  C   UNL     1     -12.812 -16.886  30.078  1.00  0.00     0.089 C 
ATOM      7  C   UNL     1     -13.116 -18.008  29.124  1.00  0.00     0.158 C 
ATOM      8  O   UNL     1     -13.134 -17.774  27.886  1.00  0.00    -0.295 OA
ENDROOT
BRANCH   5   9
ATOM      9  C   UNL     1     -13.011 -16.108  32.482  1.00  0.00    -0.077 C 
ATOM     10  C   UNL     1     -11.765 -16.002  32.973  1.00  0.00     0.008 C 
ATOM     11  C   UNL     1     -14.055 -15.126  32.947  1.00  0.00     0.039 C 
ENDBRANCH   5   9
TORSDOF 1
ENDMDL
MODEL 5
REMARK VINA RESULT:    -5.313      2.350      4.433
REMARK INTER + INTRA:          -5.722
REMARK INTER:                  -5.634
REMARK INTRA:                  -0.088
REMARK UNBOUND:                -0.098
REMARK SMILES C=C(C)[C@@H]1CC=C(C)C(=O)C1
REMARK SMILES IDX 8 1 7 2 6 3 5 4 4 5 11 6 9 7 10 8 2 9 1 10 3 11
REMARK H PARENT
REMARK Flexibility Score: inf
ROOT
ATOM      1  C   UNL     1     -11.054 -17.517  32.548  1.00  0.00     0.048 C 
ATOM      2  C   UNL     1     -11.328 -17.350  31.080  1.00  0.00    -0.012 C 
ATOM      3  C   UNL     1     -11.109 -16.166  30.482  1.00  0.00    -0.019 C 
ATOM      4  C   UNL     1     -11.292 -15.973  29.000  1.00  0.00     0.036 C 
ATOM      5  C   UNL     1     -12.389 -16.903  28.448  1.00  0.00     0.025 C 
ATOM      6  C   UNL     1     -12.081 -18.368  28.812  1.00  0.00     0.089 C 
ATOM      7  C   UNL     1     -11.820 -18.505  30.287  1.00  0.00     0.158 C 
ATOM      8  O   UNL     1     -11.980 -19.627  30.838  1.00  0.00    -0.295 OA
ENDROOT
BRANCH   5   9
ATOM      9  C   UNL     1     -12.576 -16.725  26.947  1.00  0.00    -0.077 C 
ATOM     10  C   UNL     1     -13.733 -16.276  26.435  1.00  0.00     0.008 C 
ATOM     11  C   UNL     1     -11.450 -17.057  26.001  1.00  0.00     0.039 C 
ENDBRANCH   5   9
TORSDOF 1
ENDMDL
MODEL 6
REMARK VINA RESULT:    -5.239      2.836      4.102
REMARK INTER + INTRA:          -5.643
REMARK INTER:                  -5.548
REMARK INTRA:                  -0.095
REMARK UNBOUND:                -0.098
REMARK SMILES C=C(C)[C@@H]1CC=C(C)C(=O)C1
REMARK SMILES IDX 8 1 7 2 6 3 5 4 4 5 11 6 9 7 10 8 2 9 1 10 3 11
REMARK H PARENT
REMARK Flexibility Score: inf
ROOT
ATOM      1  C   UNL     1     -12.481 -21.041  31.794  1.00  0.00     0.048 C 
ATOM      2  C   UNL     1     -12.252 -19.762  31.038  1.00  0.00    -0.012 C 
ATOM      3  C   UNL     1     -11.609 -18.736  31.625  1.00  0.00    -0.019 C 
ATOM      4  C   UNL     1     -11.287 -17.467  30.882  1.00  0.00     0.036 C 
ATOM      5  C   UNL     1     -12.338 -17.173  29.796  1.00  0.00     0.025 C 
ATOM      6  C   UNL     1     -12.482 -18.381  28.851  1.00  0.00     0.089 C 
ATOM      7  C   UNL     1     -12.718 -19.643  29.634  1.00  0.00     0.158 C 
ATOM      8  O   UNL     1     -13.278 -20.621  29.070  1.00  0.00    -0.295 OA
ENDROOT
BRANCH   5   9
ATOM      9  C   UNL     1     -12.017 -15.896  29.030  1.00  0.00    -0.077 C 
ATOM     10  C   UNL     1     -10.758 -15.437  28.935  1.00  0.00     0.008 C 
ATOM     11  C   UNL     1     -13.121 -15.118  28.362  1.00  0.00     0.039 C 
ENDBRANCH   5   9
TORSDOF 1
ENDMDL
MODEL 7
REMARK VINA RESULT:    -4.991      2.411      3.263
REMARK INTER + INTRA:          -5.381
REMARK INTER:                  -5.288
REMARK INTRA:                  -0.093
REMARK UNBOUND:                -0.098
REMARK SMILES C=C(C)[C@@H]1CC=C(C)C(=O)C1
REMARK SMILES IDX 8 1 7 2 6 3 5 4 4 5 11 6 9 7 10 8 2 9 1 10 3 11
REMARK H PARENT
REMARK Flexibility Score: inf
ROOT
ATOM      1  C   UNL     1     -13.613 -14.737  28.247  1.00  0.00     0.048 C 
ATOM      2  C   UNL     1     -13.059 -15.790  29.167  1.00  0.00    -0.012 C 
ATOM      3  C   UNL     1     -12.156 -16.677  28.712  1.00  0.00    -0.019 C 
ATOM      4  C   UNL     1     -11.514 -17.697  29.614  1.00  0.00     0.036 C 
ATOM      5  C   UNL     1     -12.463 -18.106  30.756  1.00  0.00     0.025 C 
ATOM      6  C   UNL     1     -12.939 -16.862  31.528  1.00  0.00     0.089 C 
ATOM      7  C   UNL     1     -13.495 -15.831  30.585  1.00  0.00     0.158 C 
ATOM      8  O   UNL     1     -14.305 -14.971  31.022  1.00  0.00    -0.295 OA
ENDROOT
BRANCH   5   9
ATOM      9  C   UNL     1     -11.820 -19.130  31.683  1.00  0.00    -0.077 C 
ATOM     10  C   UNL     1     -10.768 -18.811  32.455  1.00  0.00     0.008 C 
ATOM     11  C   UNL     1     -12.361 -20.536  31.747  1.00  0.00     0.039 C 
ENDBRANCH   5   9
TORSDOF 1
ENDMDL
MODEL 8
REMARK VINA RESULT:    -4.977      1.635      1.953
REMARK INTER + INTRA:          -5.366
REMARK INTER:                  -5.273
REMARK INTRA:                  -0.093
REMARK UNBOUND:                -0.098
REMARK SMILES C=C(C)[C@@H]1CC=C(C)C(=O)C1
REMARK SMILES IDX 8 1 7 2 6 3 5 4 4 5 11 6 9 7 10 8 2 9 1 10 3 11
REMARK H PARENT
REMARK Flexibility Score: inf
ROOT
ATOM      1  C   UNL     1     -12.047 -16.998  26.426  1.00  0.00     0.048 C 
ATOM      2  C   UNL     1     -11.881 -16.930  27.919  1.00  0.00    -0.012 C 
ATOM      3  C   UNL     1     -10.974 -16.098  28.461  1.00  0.00    -0.019 C 
ATOM      4  C   UNL     1     -10.828 -15.936  29.950  1.00  0.00     0.036 C 
ATOM      5  C   UNL     1     -11.195 -17.236  30.691  1.00  0.00     0.025 C 
ATOM      6  C   UNL     1     -12.608 -17.700  30.290  1.00  0.00     0.089 C 
ATOM      7  C   UNL     1     -12.740 -17.767  28.793  1.00  0.00     0.158 C 
ATOM      8  O   UNL     1     -13.623 -18.510  28.287  1.00  0.00    -0.295 OA
ENDROOT
BRANCH   5   9
ATOM      9  C   UNL     1     -11.061 -17.082  32.200  1.00  0.00    -0.077 C 
ATOM     10  C   UNL     1     -11.797 -16.186  32.879  1.00  0.00     0.008 C 
ATOM     11  C   UNL     1     -10.088 -17.942  32.965  1.00  0.00     0.039 C 
ENDBRANCH   5   9
TORSDOF 1
ENDMDL
MODEL 9
REMARK VINA RESULT:    -4.917      2.931      3.738
REMARK INTER + INTRA:          -5.303
REMARK INTER:                  -5.210
REMARK INTRA:                  -0.093
REMARK UNBOUND:                -0.098
REMARK SMILES C=C(C)[C@@H]1CC=C(C)C(=O)C1
REMARK SMILES IDX 8 1 7 2 6 3 5 4 4 5 11 6 9 7 10 8 2 9 1 10 3 11
REMARK H PARENT
REMARK Flexibility Score: inf
ROOT
ATOM      1  C   UNL     1     -14.039 -20.445  28.686  1.00  0.00     0.048 C 
ATOM      2  C   UNL     1     -13.230 -19.301  29.230  1.00  0.00    -0.012 C 
ATOM      3  C   UNL     1     -13.118 -18.159  28.529  1.00  0.00    -0.019 C 
ATOM      4  C   UNL     1     -12.387 -16.958  29.069  1.00  0.00     0.036 C 
ATOM      5  C   UNL     1     -11.243 -17.380  30.010  1.00  0.00     0.025 C 
ATOM      6  C   UNL     1     -11.780 -18.289  31.131  1.00  0.00     0.089 C 
ATOM      7  C   UNL     1     -12.576 -19.428  30.556  1.00  0.00     0.158 C 
ATOM      8  O   UNL     1     -12.721 -20.480  31.234  1.00  0.00    -0.295 OA
ENDROOT
BRANCH   5   9
ATOM      9  C   UNL     1     -10.502 -16.173  30.572  1.00  0.00    -0.077 C 
ATOM     10  C   UNL     1      -9.876 -15.300  29.765  1.00  0.00     0.008 C 
ATOM     11  C   UNL     1     -10.459 -15.939  32.060  1.00  0.00     0.039 C 
ENDBRANCH   5   9
TORSDOF 1
ENDMDL
