MODEL 1
REMARK VINA RESULT:    -5.926      0.000      0.000
REMARK INTER + INTRA:         -12.521
REMARK INTER:                 -11.122
REMARK INTRA:                  -1.399
REMARK UNBOUND:                -1.399
REMARK SMILES O=C([O-])CCCCCCCCCCCCCCC(=O)[O-]
REMARK SMILES IDX 10 1 9 2 8 3 7 4 6 5 5 6 4 7 2 8 1 9 3 10 11 11 12 12 13 13
REMARK SMILES IDX 14 14 15 15 16 16 17 17 18 18 19 19 20 20
REMARK H PARENT
REMARK Flexibility Score: inf
ROOT
ATOM      1  C   UNL     1      60.710 152.024   2.562  1.00  0.00     0.000 C 
ENDROOT
BRANCH   1   2
ATOM      2  C   UNL     1      61.245 152.994   1.494  1.00  0.00     0.000 C 
BRANCH   2   3
ATOM      3  C   UNL     1      60.125 153.774   0.789  1.00  0.00     0.000 C 
BRANCH   3   4
ATOM      4  C   UNL     1      58.793 153.713   1.552  1.00  0.00     0.000 C 
BRANCH   4   5
ATOM      5  C   UNL     1      58.097 155.082   1.553  1.00  0.00     0.000 C 
BRANCH   5   6
ATOM      6  C   UNL     1      57.911 155.657   2.970  1.00  0.00     0.006 C 
BRANCH   6   7
ATOM      7  C   UNL     1      58.600 154.845   4.079  1.00  0.00     0.053 C 
BRANCH   7   8
ATOM      8  C   UNL     1      58.625 155.581   5.382  1.00  0.00     0.041 C 
ATOM      9  O   UNL     1      59.181 156.708   5.463  1.00  0.00    -0.550 OA
ATOM     10  O   UNL     1      58.064 155.007   6.517  1.00  0.00    -0.550 OA
ENDBRANCH   7   8
ENDBRANCH   6   7
ENDBRANCH   5   6
ENDBRANCH   4   5
ENDBRANCH   3   4
ENDBRANCH   2   3
ENDBRANCH   1   2
BRANCH   1  11
ATOM     11  C   UNL     1      61.714 151.790   3.702  1.00  0.00     0.000 C 
BRANCH  11  12
ATOM     12  C   UNL     1      63.136 151.509   3.187  1.00  0.00     0.000 C 
BRANCH  12  13
ATOM     13  C   UNL     1      64.206 152.305   3.950  1.00  0.00     0.000 C 
BRANCH  13  14
ATOM     14  C   UNL     1      64.999 151.431   4.936  1.00  0.00     0.000 C 
BRANCH  14  15
ATOM     15  C   UNL     1      64.982 149.939   4.558  1.00  0.00     0.000 C 
BRANCH  15  16
ATOM     16  C   UNL     1      64.631 148.979   5.713  1.00  0.00     0.006 C 
BRANCH  16  17
ATOM     17  C   UNL     1      63.269 149.244   6.371  1.00  0.00     0.053 C 
BRANCH  17  18
ATOM     18  C   UNL     1      62.180 148.414   5.763  1.00  0.00     0.041 C 
ATOM     19  O   UNL     1      60.983 148.800   5.816  1.00  0.00    -0.550 OA
ATOM     20  O   UNL     1      62.485 147.197   5.168  1.00  0.00    -0.550 OA
ENDBRANCH  17  18
ENDBRANCH  16  17
ENDBRANCH  15  16
ENDBRANCH  14  15
ENDBRANCH  13  14
ENDBRANCH  12  13
ENDBRANCH  11  12
ENDBRANCH   1  11
TORSDOF 15
ENDMDL
MODEL 2
REMARK VINA RESULT:    -5.719      1.306      1.925
REMARK INTER + INTRA:         -12.132
REMARK INTER:                 -10.413
REMARK INTRA:                  -1.719
REMARK UNBOUND:                -1.399
REMARK SMILES O=C([O-])CCCCCCCCCCCCCCC(=O)[O-]
REMARK SMILES IDX 10 1 9 2 8 3 7 4 6 5 5 6 4 7 2 8 1 9 3 10 11 11 12 12 13 13
REMARK SMILES IDX 14 14 15 15 16 16 17 17 18 18 19 19 20 20
REMARK H PARENT
REMARK Flexibility Score: inf
ROOT
ATOM      1  C   UNL     1      61.980 151.890   3.337  1.00  0.00     0.000 C 
ENDROOT
BRANCH   1   2
ATOM      2  C   UNL     1      61.199 151.880   2.012  1.00  0.00     0.000 C 
BRANCH   2   3
ATOM      3  C   UNL     1      61.250 153.234   1.286  1.00  0.00     0.000 C 
BRANCH   3   4
ATOM      4  C   UNL     1      59.856 153.746   0.893  1.00  0.00     0.000 C 
BRANCH   4   5
ATOM      5  C   UNL     1      58.811 153.363   1.951  1.00  0.00     0.000 C 
BRANCH   5   6
ATOM      6  C   UNL     1      58.686 154.408   3.075  1.00  0.00     0.006 C 
BRANCH   6   7
ATOM      7  C   UNL     1      58.969 153.861   4.483  1.00  0.00     0.053 C 
BRANCH   7   8
ATOM      8  C   UNL     1      59.400 154.938   5.429  1.00  0.00     0.041 C 
ATOM      9  O   UNL     1      60.240 154.689   6.333  1.00  0.00    -0.550 OA
ATOM     10  O   UNL     1      58.846 156.210   5.335  1.00  0.00    -0.550 OA
ENDBRANCH   7   8
ENDBRANCH   6   7
ENDBRANCH   5   6
ENDBRANCH   4   5
ENDBRANCH   3   4
ENDBRANCH   2   3
ENDBRANCH   1   2
BRANCH   1  11
ATOM     11  C   UNL     1      63.451 151.484   3.157  1.00  0.00     0.000 C 
BRANCH  11  12
ATOM     12  C   UNL     1      64.392 152.238   4.112  1.00  0.00     0.000 C 
BRANCH  12  13
ATOM     13  C   UNL     1      65.042 151.310   5.151  1.00  0.00     0.000 C 
BRANCH  13  14
ATOM     14  C   UNL     1      64.971 149.829   4.744  1.00  0.00     0.000 C 
BRANCH  14  15
ATOM     15  C   UNL     1      64.337 148.941   5.831  1.00  0.00     0.000 C 
BRANCH  15  16
ATOM     16  C   UNL     1      63.044 148.216   5.405  1.00  0.00     0.006 C 
BRANCH  16  17
ATOM     17  C   UNL     1      61.753 149.001   5.680  1.00  0.00     0.053 C 
BRANCH  17  18
ATOM     18  C   UNL     1      61.853 149.829   6.925  1.00  0.00     0.041 C 
ATOM     19  O   UNL     1      61.755 149.287   8.057  1.00  0.00    -0.550 OA
ATOM     20  O   UNL     1      62.020 151.204   6.832  1.00  0.00    -0.550 OA
ENDBRANCH  17  18
ENDBRANCH  16  17
ENDBRANCH  15  16
ENDBRANCH  14  15
ENDBRANCH  13  14
ENDBRANCH  12  13
ENDBRANCH  11  12
ENDBRANCH   1  11
TORSDOF 15
ENDMDL
MODEL 3
REMARK VINA RESULT:    -5.676      1.545      6.623
REMARK INTER + INTRA:         -12.052
REMARK INTER:                 -10.416
REMARK INTRA:                  -1.636
REMARK UNBOUND:                -1.399
REMARK SMILES O=C([O-])CCCCCCCCCCCCCCC(=O)[O-]
REMARK SMILES IDX 10 1 9 2 8 3 7 4 6 5 5 6 4 7 2 8 1 9 3 10 11 11 12 12 13 13
REMARK SMILES IDX 14 14 15 15 16 16 17 17 18 18 19 19 20 20
REMARK H PARENT
REMARK Flexibility Score: inf
ROOT
ATOM      1  C   UNL     1      60.871 151.858   2.445  1.00  0.00     0.000 C 
ENDROOT
BRANCH   1   2
ATOM      2  C   UNL     1      61.886 151.702   3.591  1.00  0.00     0.000 C 
BRANCH   2   3
ATOM      3  C   UNL     1      63.342 151.790   3.107  1.00  0.00     0.000 C 
BRANCH   3   4
ATOM      4  C   UNL     1      64.355 151.531   4.231  1.00  0.00     0.000 C 
BRANCH   4   5
ATOM      5  C   UNL     1      64.962 150.126   4.112  1.00  0.00     0.000 C 
BRANCH   5   6
ATOM      6  C   UNL     1      64.831 149.306   5.409  1.00  0.00     0.006 C 
BRANCH   6   7
ATOM      7  C   UNL     1      63.596 148.391   5.458  1.00  0.00     0.053 C 
BRANCH   7   8
ATOM      8  C   UNL     1      62.415 149.072   6.076  1.00  0.00     0.041 C 
ATOM      9  O   UNL     1      61.257 148.863   5.627  1.00  0.00    -0.550 OA
ATOM     10  O   UNL     1      62.596 149.966   7.125  1.00  0.00    -0.550 OA
ENDBRANCH   7   8
ENDBRANCH   6   7
ENDBRANCH   5   6
ENDBRANCH   4   5
ENDBRANCH   3   4
ENDBRANCH   2   3
ENDBRANCH   1   2
BRANCH   1  11
ATOM     11  C   UNL     1      61.221 153.019   1.502  1.00  0.00     0.000 C 
BRANCH  11  12
ATOM     12  C   UNL     1      59.972 153.699   0.915  1.00  0.00     0.000 C 
BRANCH  12  13
ATOM     13  C   UNL     1      58.761 153.619   1.857  1.00  0.00     0.000 C 
BRANCH  13  14
ATOM     14  C   UNL     1      58.207 155.006   2.224  1.00  0.00     0.000 C 
BRANCH  14  15
ATOM     15  C   UNL     1      58.259 155.288   3.736  1.00  0.00     0.000 C 
BRANCH  15  16
ATOM     16  C   UNL     1      58.876 154.159   4.588  1.00  0.00     0.006 C 
BRANCH  16  17
ATOM     17  C   UNL     1      59.609 154.639   5.849  1.00  0.00     0.053 C 
BRANCH  17  18
ATOM     18  C   UNL     1      60.512 153.583   6.409  1.00  0.00     0.041 C 
ATOM     19  O   UNL     1      61.711 153.854   6.682  1.00  0.00    -0.550 OA
ATOM     20  O   UNL     1      60.038 152.291   6.597  1.00  0.00    -0.550 OA
ENDBRANCH  17  18
ENDBRANCH  16  17
ENDBRANCH  15  16
ENDBRANCH  14  15
ENDBRANCH  13  14
ENDBRANCH  12  13
ENDBRANCH  11  12
ENDBRANCH   1  11
TORSDOF 15
ENDMDL
MODEL 4
REMARK VINA RESULT:    -5.537      2.714      5.241
REMARK INTER + INTRA:         -11.790
REMARK INTER:                  -9.619
REMARK INTRA:                  -2.171
REMARK UNBOUND:                -1.399
REMARK SMILES O=C([O-])CCCCCCCCCCCCCCC(=O)[O-]
REMARK SMILES IDX 10 1 9 2 8 3 7 4 6 5 5 6 4 7 2 8 1 9 3 10 11 11 12 12 13 13
REMARK SMILES IDX 14 14 15 15 16 16 17 17 18 18 19 19 20 20
REMARK H PARENT
REMARK Flexibility Score: inf
ROOT
ATOM      1  C   UNL     1      64.999 149.715   4.625  1.00  0.00     0.000 C 
ENDROOT
BRANCH   1   2
ATOM      2  C   UNL     1      65.175 151.215   4.920  1.00  0.00     0.000 C 
BRANCH   2   3
ATOM      3  C   UNL     1      63.890 152.020   4.671  1.00  0.00     0.000 C 
BRANCH   3   4
ATOM      4  C   UNL     1      63.254 151.712   3.308  1.00  0.00     0.000 C 
BRANCH   4   5
ATOM      5  C   UNL     1      61.741 151.486   3.445  1.00  0.00     0.000 C 
BRANCH   5   6
ATOM      6  C   UNL     1      60.941 152.059   2.261  1.00  0.00     0.006 C 
BRANCH   6   7
ATOM      7  C   UNL     1      59.735 152.921   2.668  1.00  0.00     0.053 C 
BRANCH   7   8
ATOM      8  C   UNL     1      59.277 153.810   1.554  1.00  0.00     0.041 C 
ATOM      9  O   UNL     1      58.208 154.466   1.665  1.00  0.00    -0.550 OA
ATOM     10  O   UNL     1      60.013 153.888   0.377  1.00  0.00    -0.550 OA
ENDBRANCH   7   8
ENDBRANCH   6   7
ENDBRANCH   5   6
ENDBRANCH   4   5
ENDBRANCH   3   4
ENDBRANCH   2   3
ENDBRANCH   1   2
BRANCH   1  11
ATOM     11  C   UNL     1      64.251 148.977   5.746  1.00  0.00     0.000 C 
BRANCH  11  12
ATOM     12  C   UNL     1      63.094 148.113   5.214  1.00  0.00     0.000 C 
BRANCH  12  13
ATOM     13  C   UNL     1      61.732 148.539   5.785  1.00  0.00     0.000 C 
BRANCH  13  14
ATOM     14  C   UNL     1      61.861 149.613   6.878  1.00  0.00     0.000 C 
BRANCH  14  15
ATOM     15  C   UNL     1      60.840 150.753   6.718  1.00  0.00     0.000 C 
BRANCH  15  16
ATOM     16  C   UNL     1      61.276 152.105   7.319  1.00  0.00     0.006 C 
BRANCH  16  17
ATOM     17  C   UNL     1      60.777 153.336   6.547  1.00  0.00     0.053 C 
BRANCH  17  18
ATOM     18  C   UNL     1      61.495 154.585   6.958  1.00  0.00     0.041 C 
ATOM     19  O   UNL     1      60.845 155.623   7.251  1.00  0.00    -0.550 OA
ATOM     20  O   UNL     1      62.883 154.612   6.983  1.00  0.00    -0.550 OA
ENDBRANCH  17  18
ENDBRANCH  16  17
ENDBRANCH  15  16
ENDBRANCH  14  15
ENDBRANCH  13  14
ENDBRANCH  12  13
ENDBRANCH  11  12
ENDBRANCH   1  11
TORSDOF 15
ENDMDL
MODEL 5
REMARK VINA RESULT:    -5.527      2.435      6.078
REMARK INTER + INTRA:         -11.773
REMARK INTER:                  -9.833
REMARK INTRA:                  -1.940
REMARK UNBOUND:                -1.399
REMARK SMILES O=C([O-])CCCCCCCCCCCCCCC(=O)[O-]
REMARK SMILES IDX 10 1 9 2 8 3 7 4 6 5 5 6 4 7 2 8 1 9 3 10 11 11 12 12 13 13
REMARK SMILES IDX 14 14 15 15 16 16 17 17 18 18 19 19 20 20
REMARK H PARENT
REMARK Flexibility Score: inf
ROOT
ATOM      1  C   UNL     1      64.939 149.631   4.547  1.00  0.00     0.000 C 
ENDROOT
BRANCH   1   2
ATOM      2  C   UNL     1      64.120 148.546   5.269  1.00  0.00     0.000 C 
BRANCH   2   3
ATOM      3  C   UNL     1      63.124 149.133   6.282  1.00  0.00     0.000 C 
BRANCH   3   4
ATOM      4  C   UNL     1      61.670 149.057   5.793  1.00  0.00     0.000 C 
BRANCH   4   5
ATOM      5  C   UNL     1      60.806 150.131   6.469  1.00  0.00     0.000 C 
BRANCH   5   6
ATOM      6  C   UNL     1      61.630 151.109   7.326  1.00  0.00     0.006 C 
BRANCH   6   7
ATOM      7  C   UNL     1      60.888 152.402   7.703  1.00  0.00     0.053 C 
BRANCH   7   8
ATOM      8  C   UNL     1      61.177 153.516   6.745  1.00  0.00     0.041 C 
ATOM      9  O   UNL     1      60.331 153.834   5.869  1.00  0.00    -0.550 OA
ATOM     10  O   UNL     1      62.397 154.181   6.798  1.00  0.00    -0.550 OA
ENDBRANCH   7   8
ENDBRANCH   6   7
ENDBRANCH   5   6
ENDBRANCH   4   5
ENDBRANCH   3   4
ENDBRANCH   2   3
ENDBRANCH   1   2
BRANCH   1  11
ATOM     11  C   UNL     1      64.995 150.949   5.337  1.00  0.00     0.000 C 
BRANCH  11  12
ATOM     12  C   UNL     1      64.396 152.130   4.555  1.00  0.00     0.000 C 
BRANCH  12  13
ATOM     13  C   UNL     1      63.599 151.676   3.322  1.00  0.00     0.000 C 
BRANCH  13  14
ATOM     14  C   UNL     1      62.081 151.841   3.508  1.00  0.00     0.000 C 
BRANCH  14  15
ATOM     15  C   UNL     1      61.340 152.082   2.180  1.00  0.00     0.000 C 
BRANCH  15  16
ATOM     16  C   UNL     1      59.905 152.629   2.327  1.00  0.00     0.006 C 
BRANCH  16  17
ATOM     17  C   UNL     1      59.492 153.634   1.241  1.00  0.00     0.053 C 
BRANCH  17  18
ATOM     18  C   UNL     1      58.576 154.692   1.775  1.00  0.00     0.041 C 
ATOM     19  O   UNL     1      58.069 155.543   0.999  1.00  0.00    -0.550 OA
ATOM     20  O   UNL     1      58.310 154.758   3.137  1.00  0.00    -0.550 OA
ENDBRANCH  17  18
ENDBRANCH  16  17
ENDBRANCH  15  16
ENDBRANCH  14  15
ENDBRANCH  13  14
ENDBRANCH  12  13
ENDBRANCH  11  12
ENDBRANCH   1  11
TORSDOF 15
ENDMDL
MODEL 6
REMARK VINA RESULT:    -5.466      1.486      6.823
REMARK INTER + INTRA:         -11.658
REMARK INTER:                 -10.136
REMARK INTRA:                  -1.522
REMARK UNBOUND:                -1.399
REMARK SMILES O=C([O-])CCCCCCCCCCCCCCC(=O)[O-]
REMARK SMILES IDX 10 1 9 2 8 3 7 4 6 5 5 6 4 7 2 8 1 9 3 10 11 11 12 12 13 13
REMARK SMILES IDX 14 14 15 15 16 16 17 17 18 18 19 19 20 20
REMARK H PARENT
REMARK Flexibility Score: inf
ROOT
ATOM      1  C   UNL     1      61.100 151.577   2.284  1.00  0.00     0.000 C 
ENDROOT
BRANCH   1   2
ATOM      2  C   UNL     1      61.904 151.496   3.594  1.00  0.00     0.000 C 
BRANCH   2   3
ATOM      3  C   UNL     1      63.412 151.691   3.375  1.00  0.00     0.000 C 
BRANCH   3   4
ATOM      4  C   UNL     1      64.200 151.730   4.693  1.00  0.00     0.000 C 
BRANCH   4   5
ATOM      5  C   UNL     1      65.144 150.523   4.804  1.00  0.00     0.000 C 
BRANCH   5   6
ATOM      6  C   UNL     1      64.391 149.184   4.912  1.00  0.00     0.006 C 
BRANCH   6   7
ATOM      7  C   UNL     1      63.373 149.120   6.063  1.00  0.00     0.053 C 
BRANCH   7   8
ATOM      8  C   UNL     1      62.159 148.325   5.695  1.00  0.00     0.041 C 
ATOM      9  O   UNL     1      61.010 148.811   5.861  1.00  0.00    -0.550 OA
ATOM     10  O   UNL     1      62.295 147.033   5.202  1.00  0.00    -0.550 OA
ENDBRANCH   7   8
ENDBRANCH   6   7
ENDBRANCH   5   6
ENDBRANCH   4   5
ENDBRANCH   3   4
ENDBRANCH   2   3
ENDBRANCH   1   2
BRANCH   1  11
ATOM     11  C   UNL     1      61.300 152.913   1.551  1.00  0.00     0.000 C 
BRANCH  11  12
ATOM     12  C   UNL     1      59.971 153.630   1.259  1.00  0.00     0.000 C 
BRANCH  12  13
ATOM     13  C   UNL     1      58.860 153.233   2.244  1.00  0.00     0.000 C 
BRANCH  13  14
ATOM     14  C   UNL     1      59.000 153.937   3.604  1.00  0.00     0.000 C 
BRANCH  14  15
ATOM     15  C   UNL     1      58.655 153.019   4.790  1.00  0.00     0.000 C 
BRANCH  15  16
ATOM     16  C   UNL     1      59.108 153.540   6.169  1.00  0.00     0.006 C 
BRANCH  16  17
ATOM     17  C   UNL     1      60.615 153.814   6.285  1.00  0.00     0.053 C 
BRANCH  17  18
ATOM     18  C   UNL     1      60.898 155.205   6.764  1.00  0.00     0.041 C 
ATOM     19  O   UNL     1      62.048 155.513   7.173  1.00  0.00    -0.550 OA
ATOM     20  O   UNL     1      59.881 156.150   6.791  1.00  0.00    -0.550 OA
ENDBRANCH  17  18
ENDBRANCH  16  17
ENDBRANCH  15  16
ENDBRANCH  14  15
ENDBRANCH  13  14
ENDBRANCH  12  13
ENDBRANCH  11  12
ENDBRANCH   1  11
TORSDOF 15
ENDMDL
MODEL 7
REMARK VINA RESULT:    -5.454      2.248      4.130
REMARK INTER + INTRA:         -11.635
REMARK INTER:                  -9.507
REMARK INTRA:                  -2.128
REMARK UNBOUND:                -1.399
REMARK SMILES O=C([O-])CCCCCCCCCCCCCCC(=O)[O-]
REMARK SMILES IDX 10 1 9 2 8 3 7 4 6 5 5 6 4 7 2 8 1 9 3 10 11 11 12 12 13 13
REMARK SMILES IDX 14 14 15 15 16 16 17 17 18 18 19 19 20 20
REMARK H PARENT
REMARK Flexibility Score: inf
ROOT
ATOM      1  C   UNL     1      65.042 151.367   4.812  1.00  0.00     0.000 C 
ENDROOT
BRANCH   1   2
ATOM      2  C   UNL     1      63.795 152.155   4.374  1.00  0.00     0.000 C 
BRANCH   2   3
ATOM      3  C   UNL     1      63.144 151.575   3.109  1.00  0.00     0.000 C 
BRANCH   3   4
ATOM      4  C   UNL     1      61.610 151.542   3.197  1.00  0.00     0.000 C 
BRANCH   4   5
ATOM      5  C   UNL     1      60.983 152.574   2.249  1.00  0.00     0.000 C 
BRANCH   5   6
ATOM      6  C   UNL     1      59.461 152.712   2.438  1.00  0.00     0.006 C 
BRANCH   6   7
ATOM      7  C   UNL     1      58.785 153.678   1.451  1.00  0.00     0.053 C 
BRANCH   7   8
ATOM      8  C   UNL     1      58.298 154.922   2.127  1.00  0.00     0.041 C 
ATOM      9  O   UNL     1      57.922 155.909   1.442  1.00  0.00    -0.550 OA
ATOM     10  O   UNL     1      58.294 155.005   3.515  1.00  0.00    -0.550 OA
ENDBRANCH   7   8
ENDBRANCH   6   7
ENDBRANCH   5   6
ENDBRANCH   4   5
ENDBRANCH   3   4
ENDBRANCH   2   3
ENDBRANCH   1   2
BRANCH   1  11
ATOM     11  C   UNL     1      64.973 149.885   4.410  1.00  0.00     0.000 C 
BRANCH  11  12
ATOM     12  C   UNL     1      64.604 148.970   5.591  1.00  0.00     0.000 C 
BRANCH  12  13
ATOM     13  C   UNL     1      63.319 148.167   5.335  1.00  0.00     0.000 C 
BRANCH  13  14
ATOM     14  C   UNL     1      62.054 148.930   5.761  1.00  0.00     0.000 C 
BRANCH  14  15
ATOM     15  C   UNL     1      62.261 149.764   7.037  1.00  0.00     0.000 C 
BRANCH  15  16
ATOM     16  C   UNL     1      61.564 151.140   7.035  1.00  0.00     0.006 C 
BRANCH  16  17
ATOM     17  C   UNL     1      60.041 151.083   6.842  1.00  0.00     0.053 C 
BRANCH  17  18
ATOM     18  C   UNL     1      59.516 152.307   6.156  1.00  0.00     0.041 C 
ATOM     19  O   UNL     1      58.309 152.369   5.803  1.00  0.00    -0.550 OA
ATOM     20  O   UNL     1      60.370 153.366   5.875  1.00  0.00    -0.550 OA
ENDBRANCH  17  18
ENDBRANCH  16  17
ENDBRANCH  15  16
ENDBRANCH  14  15
ENDBRANCH  13  14
ENDBRANCH  12  13
ENDBRANCH  11  12
ENDBRANCH   1  11
TORSDOF 15
ENDMDL
MODEL 8
REMARK VINA RESULT:    -5.426      1.473      6.550
REMARK INTER + INTRA:         -11.582
REMARK INTER:                  -9.926
REMARK INTRA:                  -1.657
REMARK UNBOUND:                -1.399
REMARK SMILES O=C([O-])CCCCCCCCCCCCCCC(=O)[O-]
REMARK SMILES IDX 10 1 9 2 8 3 7 4 6 5 5 6 4 7 2 8 1 9 3 10 11 11 12 12 13 13
REMARK SMILES IDX 14 14 15 15 16 16 17 17 18 18 19 19 20 20
REMARK H PARENT
REMARK Flexibility Score: inf
ROOT
ATOM      1  C   UNL     1      64.829 151.627   4.270  1.00  0.00     0.000 C 
ENDROOT
BRANCH   1   2
ATOM      2  C   UNL     1      64.952 150.110   4.044  1.00  0.00     0.000 C 
BRANCH   2   3
ATOM      3  C   UNL     1      65.101 149.327   5.358  1.00  0.00     0.000 C 
BRANCH   3   4
ATOM      4  C   UNL     1      63.764 149.141   6.090  1.00  0.00     0.000 C 
BRANCH   4   5
ATOM      5  C   UNL     1      62.954 147.993   5.472  1.00  0.00     0.000 C 
BRANCH   5   6
ATOM      6  C   UNL     1      61.439 148.269   5.460  1.00  0.00     0.006 C 
BRANCH   6   7
ATOM      7  C   UNL     1      60.788 148.299   6.852  1.00  0.00     0.053 C 
BRANCH   7   8
ATOM      8  C   UNL     1      60.007 149.555   7.082  1.00  0.00     0.041 C 
ATOM      9  O   UNL     1      60.556 150.678   6.932  1.00  0.00    -0.550 OA
ATOM     10  O   UNL     1      58.682 149.486   7.496  1.00  0.00    -0.550 OA
ENDBRANCH   7   8
ENDBRANCH   6   7
ENDBRANCH   5   6
ENDBRANCH   4   5
ENDBRANCH   3   4
ENDBRANCH   2   3
ENDBRANCH   1   2
BRANCH   1  11
ATOM     11  C   UNL     1      63.640 152.240   3.513  1.00  0.00     0.000 C 
BRANCH  11  12
ATOM     12  C   UNL     1      62.316 151.516   3.808  1.00  0.00     0.000 C 
BRANCH  12  13
ATOM     13  C   UNL     1      61.367 151.508   2.599  1.00  0.00     0.000 C 
BRANCH  13  14
ATOM     14  C   UNL     1      61.484 152.785   1.751  1.00  0.00     0.000 C 
BRANCH  14  15
ATOM     15  C   UNL     1      60.114 153.374   1.367  1.00  0.00     0.000 C 
BRANCH  15  16
ATOM     16  C   UNL     1      59.010 153.198   2.430  1.00  0.00     0.006 C 
BRANCH  16  17
ATOM     17  C   UNL     1      58.634 154.486   3.179  1.00  0.00     0.053 C 
BRANCH  17  18
ATOM     18  C   UNL     1      58.816 154.349   4.659  1.00  0.00     0.041 C 
ATOM     19  O   UNL     1      58.141 155.058   5.449  1.00  0.00    -0.550 OA
ATOM     20  O   UNL     1      59.757 153.461   5.163  1.00  0.00    -0.550 OA
ENDBRANCH  17  18
ENDBRANCH  16  17
ENDBRANCH  15  16
ENDBRANCH  14  15
ENDBRANCH  13  14
ENDBRANCH  12  13
ENDBRANCH  11  12
ENDBRANCH   1  11
TORSDOF 15
ENDMDL
MODEL 9
REMARK VINA RESULT:    -5.389      2.601      5.326
REMARK INTER + INTRA:         -11.514
REMARK INTER:                  -9.502
REMARK INTRA:                  -2.012
REMARK UNBOUND:                -1.399
REMARK SMILES O=C([O-])CCCCCCCCCCCCCCC(=O)[O-]
REMARK SMILES IDX 10 1 9 2 8 3 7 4 6 5 5 6 4 7 2 8 1 9 3 10 11 11 12 12 13 13
REMARK SMILES IDX 14 14 15 15 16 16 17 17 18 18 19 19 20 20
REMARK H PARENT
REMARK Flexibility Score: inf
ROOT
ATOM      1  C   UNL     1      63.131 148.281   5.335  1.00  0.00     0.000 C 
ENDROOT
BRANCH   1   2
ATOM      2  C   UNL     1      61.953 148.919   6.092  1.00  0.00     0.000 C 
BRANCH   2   3
ATOM      3  C   UNL     1      62.412 149.917   7.166  1.00  0.00     0.000 C 
BRANCH   3   4
ATOM      4  C   UNL     1      61.330 150.189   8.222  1.00  0.00     0.000 C 
BRANCH   4   5
ATOM      5  C   UNL     1      60.915 151.667   8.216  1.00  0.00     0.000 C 
BRANCH   5   6
ATOM      6  C   UNL     1      61.668 152.495   7.159  1.00  0.00     0.006 C 
BRANCH   6   7
ATOM      7  C   UNL     1      60.817 153.581   6.480  1.00  0.00     0.053 C 
BRANCH   7   8
ATOM      8  C   UNL     1      61.271 154.961   6.844  1.00  0.00     0.041 C 
ATOM      9  O   UNL     1      62.451 155.157   7.236  1.00  0.00    -0.550 OA
ATOM     10  O   UNL     1      60.380 156.026   6.784  1.00  0.00    -0.550 OA
ENDBRANCH   7   8
ENDBRANCH   6   7
ENDBRANCH   5   6
ENDBRANCH   4   5
ENDBRANCH   3   4
ENDBRANCH   2   3
ENDBRANCH   1   2
BRANCH   1  11
ATOM     11  C   UNL     1      64.490 148.851   5.772  1.00  0.00     0.000 C 
BRANCH  11  12
ATOM     12  C   UNL     1      65.094 149.803   4.725  1.00  0.00     0.000 C 
BRANCH  12  13
ATOM     13  C   UNL     1      65.161 151.256   5.222  1.00  0.00     0.000 C 
BRANCH  13  14
ATOM     14  C   UNL     1      64.310 152.211   4.368  1.00  0.00     0.000 C 
BRANCH  14  15
ATOM     15  C   UNL     1      63.445 151.472   3.330  1.00  0.00     0.000 C 
BRANCH  15  16
ATOM     16  C   UNL     1      61.946 151.833   3.359  1.00  0.00     0.006 C 
BRANCH  16  17
ATOM     17  C   UNL     1      61.327 152.098   1.978  1.00  0.00     0.053 C 
BRANCH  17  18
ATOM     18  C   UNL     1      60.115 152.973   2.064  1.00  0.00     0.041 C 
ATOM     19  O   UNL     1      59.427 153.002   3.118  1.00  0.00    -0.550 OA
ATOM     20  O   UNL     1      59.726 153.731   0.967  1.00  0.00    -0.550 OA
ENDBRANCH  17  18
ENDBRANCH  16  17
ENDBRANCH  15  16
ENDBRANCH  14  15
ENDBRANCH  13  14
ENDBRANCH  12  13
ENDBRANCH  11  12
ENDBRANCH   1  11
TORSDOF 15
ENDMDL
