MODEL 1
REMARK VINA RESULT:    -3.664      0.000      0.000
REMARK INTER + INTRA:          -6.492
REMARK INTER:                  -5.592
REMARK INTRA:                  -0.900
REMARK UNBOUND:                -0.900
REMARK SMILES CCCCCCCCCCC(=O)[O-]
REMARK SMILES IDX 7 1 8 2 9 3 10 4 11 5 12 6 13 7 6 8 5 9 4 10 3 11 2 12 1 13
REMARK H PARENT
REMARK Flexibility Score: inf
ROOT
ATOM      1  C   UNL     1      26.446 -17.638  24.539  1.00  0.00     0.000 C 
ENDROOT
BRANCH   1   2
ATOM      2  C   UNL     1      26.625 -16.322  25.313  1.00  0.00     0.000 C 
BRANCH   2   3
ATOM      3  C   UNL     1      25.899 -16.330  26.666  1.00  0.00     0.006 C 
BRANCH   3   4
ATOM      4  C   UNL     1      24.381 -16.260  26.473  1.00  0.00     0.053 C 
BRANCH   4   5
ATOM      5  C   UNL     1      23.920 -14.837  26.461  1.00  0.00     0.041 C 
ATOM      6  O   UNL     1      22.766 -14.548  26.045  1.00  0.00    -0.550 OA
ATOM      7  O   UNL     1      24.744 -13.835  26.956  1.00  0.00    -0.550 OA
ENDBRANCH   4   5
ENDBRANCH   3   4
ENDBRANCH   2   3
ENDBRANCH   1   2
BRANCH   1   8
ATOM      8  C   UNL     1      27.773 -18.392  24.341  1.00  0.00     0.000 C 
BRANCH   8   9
ATOM      9  C   UNL     1      27.730 -19.825  24.898  1.00  0.00    -0.000 C 
BRANCH   9  10
ATOM     10  C   UNL     1      28.845 -20.091  25.925  1.00  0.00    -0.000 C 
BRANCH  10  11
ATOM     11  C   UNL     1      29.689 -18.839  26.216  1.00  0.00    -0.000 C 
BRANCH  11  12
ATOM     12  C   UNL     1      29.848 -18.568  27.719  1.00  0.00    -0.003 C 
ATOM     13  C   UNL     1      28.501 -18.269  28.368  1.00  0.00     0.004 C 
ENDBRANCH  11  12
ENDBRANCH  10  11
ENDBRANCH   9  10
ENDBRANCH   8   9
ENDBRANCH   1   8
TORSDOF 9
ENDMDL
MODEL 2
REMARK VINA RESULT:    -3.651      1.170      1.546
REMARK INTER + INTRA:          -6.472
REMARK INTER:                  -5.855
REMARK INTRA:                  -0.617
REMARK UNBOUND:                -0.900
REMARK SMILES CCCCCCCCCCC(=O)[O-]
REMARK SMILES IDX 7 1 8 2 9 3 10 4 11 5 12 6 13 7 6 8 5 9 4 10 3 11 2 12 1 13
REMARK H PARENT
REMARK Flexibility Score: inf
ROOT
ATOM      1  C   UNL     1      26.690 -16.387  25.287  1.00  0.00     0.000 C 
ENDROOT
BRANCH   1   2
ATOM      2  C   UNL     1      25.502 -15.754  26.030  1.00  0.00     0.000 C 
BRANCH   2   3
ATOM      3  C   UNL     1      24.543 -16.802  26.613  1.00  0.00     0.006 C 
BRANCH   3   4
ATOM      4  C   UNL     1      23.130 -16.625  26.048  1.00  0.00     0.053 C 
BRANCH   4   5
ATOM      5  C   UNL     1      22.578 -15.288  26.428  1.00  0.00     0.041 C 
ATOM      6  O   UNL     1      22.196 -14.483  25.538  1.00  0.00    -0.550 OA
ATOM      7  O   UNL     1      22.439 -14.948  27.768  1.00  0.00    -0.550 OA
ENDBRANCH   4   5
ENDBRANCH   3   4
ENDBRANCH   2   3
ENDBRANCH   1   2
BRANCH   1   8
ATOM      8  C   UNL     1      26.477 -17.884  25.000  1.00  0.00     0.000 C 
BRANCH   8   9
ATOM      9  C   UNL     1      27.633 -18.505  24.199  1.00  0.00    -0.000 C 
BRANCH   9  10
ATOM     10  C   UNL     1      28.631 -19.259  25.095  1.00  0.00    -0.000 C 
BRANCH  10  11
ATOM     11  C   UNL     1      30.067 -18.726  24.954  1.00  0.00    -0.000 C 
BRANCH  11  12
ATOM     12  C   UNL     1      30.704 -18.375  26.306  1.00  0.00    -0.003 C 
ATOM     13  C   UNL     1      29.732 -18.630  27.454  1.00  0.00     0.004 C 
ENDBRANCH  11  12
ENDBRANCH  10  11
ENDBRANCH   9  10
ENDBRANCH   8   9
ENDBRANCH   1   8
TORSDOF 9
ENDMDL
MODEL 3
REMARK VINA RESULT:    -3.642      2.671      4.186
REMARK INTER + INTRA:          -6.459
REMARK INTER:                  -5.816
REMARK INTRA:                  -0.643
REMARK UNBOUND:                -0.900
REMARK SMILES CCCCCCCCCCC(=O)[O-]
REMARK SMILES IDX 7 1 8 2 9 3 10 4 11 5 12 6 13 7 6 8 5 9 4 10 3 11 2 12 1 13
REMARK H PARENT
REMARK Flexibility Score: inf
ROOT
ATOM      1  C   UNL     1      22.904 -16.675  25.996  1.00  0.00     0.000 C 
ENDROOT
BRANCH   1   2
ATOM      2  C   UNL     1      22.949 -15.213  26.471  1.00  0.00     0.000 C 
BRANCH   2   3
ATOM      3  C   UNL     1      22.120 -14.980  27.743  1.00  0.00     0.006 C 
BRANCH   3   4
ATOM      4  C   UNL     1      21.757 -16.310  28.411  1.00  0.00     0.053 C 
BRANCH   4   5
ATOM      5  C   UNL     1      20.622 -16.122  29.367  1.00  0.00     0.041 C 
ATOM      6  O   UNL     1      19.958 -17.116  29.765  1.00  0.00    -0.550 OA
ATOM      7  O   UNL     1      20.328 -14.857  29.858  1.00  0.00    -0.550 OA
ENDBRANCH   4   5
ENDBRANCH   3   4
ENDBRANCH   2   3
ENDBRANCH   1   2
BRANCH   1   8
ATOM      8  C   UNL     1      24.300 -17.319  25.935  1.00  0.00     0.000 C 
BRANCH   8   9
ATOM      9  C   UNL     1      25.418 -16.357  26.367  1.00  0.00    -0.000 C 
BRANCH   9  10
ATOM     10  C   UNL     1      26.624 -16.388  25.412  1.00  0.00    -0.000 C 
BRANCH  10  11
ATOM     11  C   UNL     1      26.558 -17.558  24.417  1.00  0.00    -0.000 C 
BRANCH  11  12
ATOM     12  C   UNL     1      27.759 -18.507  24.536  1.00  0.00    -0.003 C 
ATOM     13  C   UNL     1      28.561 -18.220  25.802  1.00  0.00     0.004 C 
ENDBRANCH  11  12
ENDBRANCH  10  11
ENDBRANCH   9  10
ENDBRANCH   8   9
ENDBRANCH   1   8
TORSDOF 9
ENDMDL
MODEL 4
REMARK VINA RESULT:    -3.631      3.136      5.891
REMARK INTER + INTRA:          -6.442
REMARK INTER:                  -5.616
REMARK INTRA:                  -0.826
REMARK UNBOUND:                -0.900
REMARK SMILES CCCCCCCCCCC(=O)[O-]
REMARK SMILES IDX 7 1 8 2 9 3 10 4 11 5 12 6 13 7 6 8 5 9 4 10 3 11 2 12 1 13
REMARK H PARENT
REMARK Flexibility Score: inf
ROOT
ATOM      1  C   UNL     1      26.485 -16.511  25.456  1.00  0.00     0.000 C 
ENDROOT
BRANCH   1   2
ATOM      2  C   UNL     1      26.940 -17.520  24.390  1.00  0.00     0.000 C 
BRANCH   2   3
ATOM      3  C   UNL     1      27.549 -18.791  25.002  1.00  0.00     0.006 C 
BRANCH   3   4
ATOM      4  C   UNL     1      29.018 -18.944  24.594  1.00  0.00     0.053 C 
BRANCH   4   5
ATOM      5  C   UNL     1      29.916 -18.402  25.660  1.00  0.00     0.041 C 
ATOM      6  O   UNL     1      30.996 -17.832  25.350  1.00  0.00    -0.550 OA
ATOM      7  O   UNL     1      29.539 -18.483  26.995  1.00  0.00    -0.550 OA
ENDBRANCH   4   5
ENDBRANCH   3   4
ENDBRANCH   2   3
ENDBRANCH   1   2
BRANCH   1   8
ATOM      8  C   UNL     1      26.315 -17.153  26.844  1.00  0.00     0.000 C 
BRANCH   8   9
ATOM      9  C   UNL     1      24.850 -17.489  27.169  1.00  0.00    -0.000 C 
BRANCH   9  10
ATOM     10  C   UNL     1      23.872 -16.926  26.123  1.00  0.00    -0.000 C 
BRANCH  10  11
ATOM     11  C   UNL     1      22.747 -16.092  26.757  1.00  0.00    -0.000 C 
BRANCH  11  12
ATOM     12  C   UNL     1      22.729 -14.641  26.254  1.00  0.00    -0.003 C 
ATOM     13  C   UNL     1      24.030 -13.924  26.599  1.00  0.00     0.004 C 
ENDBRANCH  11  12
ENDBRANCH  10  11
ENDBRANCH   9  10
ENDBRANCH   8   9
ENDBRANCH   1   8
TORSDOF 9
ENDMDL
MODEL 5
REMARK VINA RESULT:    -3.552      3.987      5.981
REMARK INTER + INTRA:          -6.320
REMARK INTER:                  -5.743
REMARK INTRA:                  -0.578
REMARK UNBOUND:                -0.900
REMARK SMILES CCCCCCCCCCC(=O)[O-]
REMARK SMILES IDX 7 1 8 2 9 3 10 4 11 5 12 6 13 7 6 8 5 9 4 10 3 11 2 12 1 13
REMARK H PARENT
REMARK Flexibility Score: inf
ROOT
ATOM      1  C   UNL     1      22.090 -14.862  27.673  1.00  0.00     0.000 C 
ENDROOT
BRANCH   1   2
ATOM      2  C   UNL     1      21.640 -16.080  28.495  1.00  0.00     0.000 C 
BRANCH   2   3
ATOM      3  C   UNL     1      20.762 -15.691  29.694  1.00  0.00     0.006 C 
BRANCH   3   4
ATOM      4  C   UNL     1      19.637 -16.710  29.902  1.00  0.00     0.053 C 
BRANCH   4   5
ATOM      5  C   UNL     1      18.301 -16.050  29.765  1.00  0.00     0.041 C 
ATOM      6  O   UNL     1      18.225 -14.817  29.522  1.00  0.00    -0.550 OA
ATOM      7  O   UNL     1      17.140 -16.807  29.856  1.00  0.00    -0.550 OA
ENDBRANCH   4   5
ENDBRANCH   3   4
ENDBRANCH   2   3
ENDBRANCH   1   2
BRANCH   1   8
ATOM      8  C   UNL     1      22.806 -15.261  26.370  1.00  0.00     0.000 C 
BRANCH   8   9
ATOM      9  C   UNL     1      22.637 -16.752  26.033  1.00  0.00    -0.000 C 
BRANCH   9  10
ATOM     10  C   UNL     1      23.981 -17.449  25.756  1.00  0.00    -0.000 C 
BRANCH  10  11
ATOM     11  C   UNL     1      25.146 -16.813  26.533  1.00  0.00    -0.000 C 
BRANCH  11  12
ATOM     12  C   UNL     1      26.290 -16.355  25.617  1.00  0.00    -0.003 C 
ATOM     13  C   UNL     1      26.631 -17.427  24.586  1.00  0.00     0.004 C 
ENDBRANCH  11  12
ENDBRANCH  10  11
ENDBRANCH   9  10
ENDBRANCH   8   9
ENDBRANCH   1   8
TORSDOF 9
ENDMDL
MODEL 6
REMARK VINA RESULT:    -3.367      2.121      3.618
REMARK INTER + INTRA:          -6.038
REMARK INTER:                  -4.849
REMARK INTRA:                  -1.189
REMARK UNBOUND:                -0.900
REMARK SMILES CCCCCCCCCCC(=O)[O-]
REMARK SMILES IDX 7 1 8 2 9 3 10 4 11 5 12 6 13 7 6 8 5 9 4 10 3 11 2 12 1 13
REMARK H PARENT
REMARK Flexibility Score: inf
ROOT
ATOM      1  C   UNL     1      23.676 -19.391  26.579  1.00  0.00     0.000 C 
ENDROOT
BRANCH   1   2
ATOM      2  C   UNL     1      22.411 -18.584  26.246  1.00  0.00     0.000 C 
BRANCH   2   3
ATOM      3  C   UNL     1      22.730 -17.190  25.685  1.00  0.00     0.006 C 
BRANCH   3   4
ATOM      4  C   UNL     1      22.729 -16.138  26.799  1.00  0.00     0.053 C 
BRANCH   4   5
ATOM      5  C   UNL     1      22.854 -14.764  26.222  1.00  0.00     0.041 C 
ATOM      6  O   UNL     1      21.985 -14.332  25.419  1.00  0.00    -0.550 OA
ATOM      7  O   UNL     1      23.903 -13.940  26.609  1.00  0.00    -0.550 OA
ENDBRANCH   4   5
ENDBRANCH   3   4
ENDBRANCH   2   3
ENDBRANCH   1   2
BRANCH   1   8
ATOM      8  C   UNL     1      24.026 -19.350  28.077  1.00  0.00     0.000 C 
BRANCH   8   9
ATOM      9  C   UNL     1      25.524 -19.114  28.330  1.00  0.00    -0.000 C 
BRANCH   9  10
ATOM     10  C   UNL     1      25.932 -17.646  28.120  1.00  0.00    -0.000 C 
BRANCH  10  11
ATOM     11  C   UNL     1      26.956 -17.475  26.985  1.00  0.00    -0.000 C 
BRANCH  11  12
ATOM     12  C   UNL     1      26.400 -16.670  25.802  1.00  0.00    -0.003 C 
ATOM     13  C   UNL     1      26.592 -17.421  24.488  1.00  0.00     0.004 C 
ENDBRANCH  11  12
ENDBRANCH  10  11
ENDBRANCH   9  10
ENDBRANCH   8   9
ENDBRANCH   1   8
TORSDOF 9
ENDMDL
MODEL 7
REMARK VINA RESULT:    -3.311      1.341      2.118
REMARK INTER + INTRA:          -5.953
REMARK INTER:                  -5.172
REMARK INTRA:                  -0.781
REMARK UNBOUND:                -0.900
REMARK SMILES CCCCCCCCCCC(=O)[O-]
REMARK SMILES IDX 7 1 8 2 9 3 10 4 11 5 12 6 13 7 6 8 5 9 4 10 3 11 2 12 1 13
REMARK H PARENT
REMARK Flexibility Score: inf
ROOT
ATOM      1  C   UNL     1      25.272 -18.761  27.411  1.00  0.00     0.000 C 
ENDROOT
BRANCH   1   2
ATOM      2  C   UNL     1      26.049 -17.519  27.877  1.00  0.00     0.000 C 
BRANCH   2   3
ATOM      3  C   UNL     1      25.876 -16.323  26.929  1.00  0.00     0.006 C 
BRANCH   3   4
ATOM      4  C   UNL     1      24.458 -16.285  26.349  1.00  0.00     0.053 C 
BRANCH   4   5
ATOM      5  C   UNL     1      23.888 -14.907  26.451  1.00  0.00     0.041 C 
ATOM      6  O   UNL     1      22.683 -14.695  26.151  1.00  0.00    -0.550 OA
ATOM      7  O   UNL     1      24.672 -13.863  26.925  1.00  0.00    -0.550 OA
ENDBRANCH   4   5
ENDBRANCH   3   4
ENDBRANCH   2   3
ENDBRANCH   1   2
BRANCH   1   8
ATOM      8  C   UNL     1      26.179 -19.809  26.743  1.00  0.00     0.000 C 
BRANCH   8   9
ATOM      9  C   UNL     1      26.279 -19.625  25.220  1.00  0.00    -0.000 C 
BRANCH   9  10
ATOM     10  C   UNL     1      27.723 -19.757  24.704  1.00  0.00    -0.000 C 
BRANCH  10  11
ATOM     11  C   UNL     1      28.628 -18.611  25.185  1.00  0.00    -0.000 C 
BRANCH  11  12
ATOM     12  C   UNL     1      29.981 -19.107  25.715  1.00  0.00    -0.003 C 
ATOM     13  C   UNL     1      31.125 -18.240  25.199  1.00  0.00     0.004 C 
ENDBRANCH  11  12
ENDBRANCH  10  11
ENDBRANCH   9  10
ENDBRANCH   8   9
ENDBRANCH   1   8
TORSDOF 9
ENDMDL
MODEL 8
REMARK VINA RESULT:    -3.303     16.975     18.133
REMARK INTER + INTRA:          -5.941
REMARK INTER:                  -5.198
REMARK INTRA:                  -0.742
REMARK UNBOUND:                -0.900
REMARK SMILES CCCCCCCCCCC(=O)[O-]
REMARK SMILES IDX 7 1 8 2 9 3 10 4 11 5 12 6 13 7 6 8 5 9 4 10 3 11 2 12 1 13
REMARK H PARENT
REMARK Flexibility Score: inf
ROOT
ATOM      1  C   UNL     1      13.498  -5.857  22.842  1.00  0.00     0.000 C 
ENDROOT
BRANCH   1   2
ATOM      2  C   UNL     1      13.518  -4.452  22.219  1.00  0.00     0.000 C 
BRANCH   2   3
ATOM      3  C   UNL     1      14.113  -4.442  20.803  1.00  0.00     0.006 C 
BRANCH   3   4
ATOM      4  C   UNL     1      15.586  -4.022  20.832  1.00  0.00     0.053 C 
BRANCH   4   5
ATOM      5  C   UNL     1      16.470  -5.194  20.546  1.00  0.00     0.041 C 
ATOM      6  O   UNL     1      17.719  -5.043  20.467  1.00  0.00    -0.550 OA
ATOM      7  O   UNL     1      15.922  -6.464  20.417  1.00  0.00    -0.550 OA
ENDBRANCH   4   5
ENDBRANCH   3   4
ENDBRANCH   2   3
ENDBRANCH   1   2
BRANCH   1   8
ATOM      8  C   UNL     1      12.758  -6.882  21.964  1.00  0.00     0.000 C 
BRANCH   8   9
ATOM      9  C   UNL     1      11.584  -7.553  22.696  1.00  0.00    -0.000 C 
BRANCH   9  10
ATOM     10  C   UNL     1      11.279  -6.890  24.051  1.00  0.00    -0.000 C 
BRANCH  10  11
ATOM     11  C   UNL     1      11.198  -7.908  25.201  1.00  0.00    -0.000 C 
BRANCH  11  12
ATOM     12  C   UNL     1      11.713  -7.341  26.531  1.00  0.00    -0.003 C 
ATOM     13  C   UNL     1      13.038  -6.609  26.340  1.00  0.00     0.004 C 
ENDBRANCH  11  12
ENDBRANCH  10  11
ENDBRANCH   9  10
ENDBRANCH   8   9
ENDBRANCH   1   8
TORSDOF 9
ENDMDL
MODEL 9
REMARK VINA RESULT:    -3.280      1.336      2.520
REMARK INTER + INTRA:          -5.905
REMARK INTER:                  -4.774
REMARK INTRA:                  -1.131
REMARK UNBOUND:                -0.900
REMARK SMILES CCCCCCCCCCC(=O)[O-]
REMARK SMILES IDX 7 1 8 2 9 3 10 4 11 5 12 6 13 7 6 8 5 9 4 10 3 11 2 12 1 13
REMARK H PARENT
REMARK Flexibility Score: inf
ROOT
ATOM      1  C   UNL     1      28.742 -19.196  24.885  1.00  0.00     0.000 C 
ENDROOT
BRANCH   1   2
ATOM      2  C   UNL     1      27.779 -18.276  24.119  1.00  0.00     0.000 C 
BRANCH   2   3
ATOM      3  C   UNL     1      26.553 -17.877  24.954  1.00  0.00     0.006 C 
BRANCH   3   4
ATOM      4  C   UNL     1      26.558 -16.374  25.251  1.00  0.00     0.053 C 
BRANCH   4   5
ATOM      5  C   UNL     1      25.478 -16.028  26.226  1.00  0.00     0.041 C 
ATOM      6  O   UNL     1      25.223 -14.823  26.489  1.00  0.00    -0.550 OA
ATOM      7  O   UNL     1      24.719 -17.036  26.809  1.00  0.00    -0.550 OA
ENDBRANCH   4   5
ENDBRANCH   3   4
ENDBRANCH   2   3
ENDBRANCH   1   2
BRANCH   1   8
ATOM      8  C   UNL     1      30.021 -18.469  25.337  1.00  0.00     0.000 C 
BRANCH   8   9
ATOM      9  C   UNL     1      30.378 -18.754  26.805  1.00  0.00    -0.000 C 
BRANCH   9  10
ATOM     10  C   UNL     1      29.624 -19.971  27.370  1.00  0.00    -0.000 C 
BRANCH  10  11
ATOM     11  C   UNL     1      28.839 -19.636  28.649  1.00  0.00    -0.000 C 
BRANCH  11  12
ATOM     12  C   UNL     1      27.515 -18.915  28.361  1.00  0.00    -0.003 C 
ATOM     13  C   UNL     1      27.517 -17.507  28.947  1.00  0.00     0.004 C 
ENDBRANCH  11  12
ENDBRANCH  10  11
ENDBRANCH   9  10
ENDBRANCH   8   9
ENDBRANCH   1   8
TORSDOF 9
ENDMDL
