MODEL 1
REMARK VINA RESULT:    -4.213      0.000      0.000
REMARK INTER + INTRA:          -4.478
REMARK INTER:                  -4.459
REMARK INTRA:                  -0.018
REMARK UNBOUND:                -0.018
REMARK SMILES O=C([O-])c1cccnc1
REMARK SMILES IDX 4 1 5 2 9 3 6 4 8 5 7 6 2 7 1 8 3 9
REMARK H PARENT
REMARK Flexibility Score: inf
ROOT
ATOM      1  C   UNL     1      37.486  37.245  41.721  1.00  0.00     0.016 A 
ATOM      2  C   UNL     1      36.515  36.967  40.743  1.00  0.00     0.013 A 
ATOM      3  C   UNL     1      38.496  36.295  41.947  1.00  0.00     0.120 A 
ATOM      4  C   UNL     1      36.567  35.773  40.023  1.00  0.00     0.021 A 
ATOM      5  N   UNL     1      38.524  35.138  41.231  1.00  0.00    -0.264 NA
ATOM      6  C   UNL     1      37.590  34.861  40.284  1.00  0.00     0.111 A 
ENDROOT
BRANCH   1   7
ATOM      7  C   UNL     1      37.449  38.505  42.495  1.00  0.00     0.073 C 
ATOM      8  O   UNL     1      38.455  39.262  42.532  1.00  0.00    -0.545 OA
ATOM      9  O   UNL     1      36.303  38.870  43.191  1.00  0.00    -0.545 OA
ENDBRANCH   1   7
TORSDOF 1
ENDMDL
MODEL 2
REMARK VINA RESULT:    -3.885      9.322     10.459
REMARK INTER + INTRA:          -4.130
REMARK INTER:                  -4.114
REMARK INTRA:                  -0.016
REMARK UNBOUND:                -0.018
REMARK SMILES O=C([O-])c1cccnc1
REMARK SMILES IDX 4 1 5 2 9 3 6 4 8 5 7 6 2 7 1 8 3 9
REMARK H PARENT
REMARK Flexibility Score: inf
ROOT
ATOM      1  C   UNL     1      45.202  43.232  45.434  1.00  0.00     0.016 A 
ATOM      2  C   UNL     1      43.884  43.578  45.091  1.00  0.00     0.013 A 
ATOM      3  C   UNL     1      45.787  42.121  44.802  1.00  0.00     0.120 A 
ATOM      4  C   UNL     1      43.186  42.827  44.143  1.00  0.00     0.021 A 
ATOM      5  N   UNL     1      45.085  41.406  43.881  1.00  0.00    -0.264 NA
ATOM      6  C   UNL     1      43.810  41.733  43.543  1.00  0.00     0.111 A 
ENDROOT
BRANCH   1   7
ATOM      7  C   UNL     1      45.959  44.014  46.435  1.00  0.00     0.073 C 
ATOM      8  O   UNL     1      46.838  44.841  46.070  1.00  0.00    -0.545 OA
ATOM      9  O   UNL     1      45.712  43.847  47.792  1.00  0.00    -0.545 OA
ENDBRANCH   1   7
TORSDOF 1
ENDMDL
MODEL 3
REMARK VINA RESULT:    -3.694      8.894      9.863
REMARK INTER + INTRA:          -3.929
REMARK INTER:                  -3.911
REMARK INTRA:                  -0.018
REMARK UNBOUND:                -0.018
REMARK SMILES O=C([O-])c1cccnc1
REMARK SMILES IDX 4 1 5 2 9 3 6 4 8 5 7 6 2 7 1 8 3 9
REMARK H PARENT
REMARK Flexibility Score: inf
ROOT
ATOM      1  C   UNL     1      45.315  41.764  41.827  1.00  0.00     0.016 A 
ATOM      2  C   UNL     1      46.683  41.812  42.147  1.00  0.00     0.013 A 
ATOM      3  C   UNL     1      44.385  41.700  42.880  1.00  0.00     0.120 A 
ATOM      4  C   UNL     1      47.092  41.796  43.481  1.00  0.00     0.021 A 
ATOM      5  N   UNL     1      44.810  41.686  44.172  1.00  0.00    -0.264 NA
ATOM      6  C   UNL     1      46.130  41.732  44.491  1.00  0.00     0.111 A 
ENDROOT
BRANCH   1   7
ATOM      7  C   UNL     1      44.861  41.780  40.420  1.00  0.00     0.073 C 
ATOM      8  O   UNL     1      45.216  40.872  39.622  1.00  0.00    -0.545 OA
ATOM      9  O   UNL     1      44.035  42.798  39.959  1.00  0.00    -0.545 OA
ENDBRANCH   1   7
TORSDOF 1
ENDMDL
MODEL 4
REMARK VINA RESULT:    -3.672      9.136      9.814
REMARK INTER + INTRA:          -3.905
REMARK INTER:                  -3.887
REMARK INTRA:                  -0.018
REMARK UNBOUND:                -0.018
REMARK SMILES O=C([O-])c1cccnc1
REMARK SMILES IDX 4 1 5 2 9 3 6 4 8 5 7 6 2 7 1 8 3 9
REMARK H PARENT
REMARK Flexibility Score: inf
ROOT
ATOM      1  C   UNL     1      45.343  41.759  41.732  1.00  0.00     0.016 A 
ATOM      2  C   UNL     1      44.458  41.780  42.824  1.00  0.00     0.013 A 
ATOM      3  C   UNL     1      46.724  41.716  41.992  1.00  0.00     0.120 A 
ATOM      4  C   UNL     1      44.953  41.757  44.128  1.00  0.00     0.021 A 
ATOM      5  N   UNL     1      47.180  41.694  43.273  1.00  0.00    -0.264 NA
ATOM      6  C   UNL     1      46.333  41.713  44.335  1.00  0.00     0.111 A 
ENDROOT
BRANCH   1   7
ATOM      7  C   UNL     1      44.839  41.783  40.342  1.00  0.00     0.073 C 
ATOM      8  O   UNL     1      45.141  40.863  39.536  1.00  0.00    -0.545 OA
ATOM      9  O   UNL     1      44.024  42.821  39.906  1.00  0.00    -0.545 OA
ENDBRANCH   1   7
TORSDOF 1
ENDMDL
MODEL 5
REMARK VINA RESULT:    -3.661      1.816      2.397
REMARK INTER + INTRA:          -3.894
REMARK INTER:                  -3.874
REMARK INTRA:                  -0.020
REMARK UNBOUND:                -0.018
REMARK SMILES O=C([O-])c1cccnc1
REMARK SMILES IDX 4 1 5 2 9 3 6 4 8 5 7 6 2 7 1 8 3 9
REMARK H PARENT
REMARK Flexibility Score: inf
ROOT
ATOM      1  C   UNL     1      36.471  37.527  41.131  1.00  0.00     0.016 A 
ATOM      2  C   UNL     1      36.593  36.329  40.407  1.00  0.00     0.013 A 
ATOM      3  C   UNL     1      37.424  37.804  42.127  1.00  0.00     0.120 A 
ATOM      4  C   UNL     1      37.639  35.447  40.679  1.00  0.00     0.021 A 
ATOM      5  N   UNL     1      38.435  36.928  42.373  1.00  0.00    -0.264 NA
ATOM      6  C   UNL     1      38.560  35.768  41.677  1.00  0.00     0.111 A 
ENDROOT
BRANCH   1   7
ATOM      7  C   UNL     1      35.369  38.475  40.858  1.00  0.00     0.073 C 
ATOM      8  O   UNL     1      34.729  39.002  41.807  1.00  0.00    -0.545 OA
ATOM      9  O   UNL     1      35.026  38.796  39.551  1.00  0.00    -0.545 OA
ENDBRANCH   1   7
TORSDOF 1
ENDMDL
MODEL 6
REMARK VINA RESULT:    -3.654      2.502      3.263
REMARK INTER + INTRA:          -3.886
REMARK INTER:                  -3.864
REMARK INTRA:                  -0.022
REMARK UNBOUND:                -0.018
REMARK SMILES O=C([O-])c1cccnc1
REMARK SMILES IDX 4 1 5 2 9 3 6 4 8 5 7 6 2 7 1 8 3 9
REMARK H PARENT
REMARK Flexibility Score: inf
ROOT
ATOM      1  C   UNL     1      37.485  36.888  41.662  1.00  0.00     0.016 A 
ATOM      2  C   UNL     1      36.605  36.659  40.591  1.00  0.00     0.013 A 
ATOM      3  C   UNL     1      37.200  37.943  42.546  1.00  0.00     0.120 A 
ATOM      4  C   UNL     1      35.480  37.467  40.421  1.00  0.00     0.021 A 
ATOM      5  N   UNL     1      36.096  38.716  42.359  1.00  0.00    -0.264 NA
ATOM      6  C   UNL     1      35.240  38.503  41.326  1.00  0.00     0.111 A 
ENDROOT
BRANCH   1   7
ATOM      7  C   UNL     1      38.682  36.042  41.859  1.00  0.00     0.073 C 
ATOM      8  O   UNL     1      38.701  34.853  41.444  1.00  0.00    -0.545 OA
ATOM      9  O   UNL     1      39.803  36.549  42.505  1.00  0.00    -0.545 OA
ENDBRANCH   1   7
TORSDOF 1
ENDMDL
MODEL 7
REMARK VINA RESULT:    -3.651      8.776      9.635
REMARK INTER + INTRA:          -3.882
REMARK INTER:                  -3.863
REMARK INTRA:                  -0.020
REMARK UNBOUND:                -0.018
REMARK SMILES O=C([O-])c1cccnc1
REMARK SMILES IDX 4 1 5 2 9 3 6 4 8 5 7 6 2 7 1 8 3 9
REMARK H PARENT
REMARK Flexibility Score: inf
ROOT
ATOM      1  C   UNL     1      44.581  42.476  43.522  1.00  0.00     0.016 A 
ATOM      2  C   UNL     1      45.690  42.110  44.303  1.00  0.00     0.013 A 
ATOM      3  C   UNL     1      44.707  42.434  42.123  1.00  0.00     0.120 A 
ATOM      4  C   UNL     1      46.881  41.716  43.690  1.00  0.00     0.021 A 
ATOM      5  N   UNL     1      45.878  42.046  41.550  1.00  0.00    -0.264 NA
ATOM      6  C   UNL     1      46.956  41.690  42.296  1.00  0.00     0.111 A 
ENDROOT
BRANCH   1   7
ATOM      7  C   UNL     1      43.311  42.896  44.152  1.00  0.00     0.073 C 
ATOM      8  O   UNL     1      42.208  42.475  43.711  1.00  0.00    -0.545 OA
ATOM      9  O   UNL     1      43.317  43.761  45.240  1.00  0.00    -0.545 OA
ENDBRANCH   1   7
TORSDOF 1
ENDMDL
MODEL 8
REMARK VINA RESULT:    -3.609      9.099     10.174
REMARK INTER + INTRA:          -3.838
REMARK INTER:                  -3.818
REMARK INTRA:                  -0.020
REMARK UNBOUND:                -0.018
REMARK SMILES O=C([O-])c1cccnc1
REMARK SMILES IDX 4 1 5 2 9 3 6 4 8 5 7 6 2 7 1 8 3 9
REMARK H PARENT
REMARK Flexibility Score: inf
ROOT
ATOM      1  C   UNL     1      44.516  43.012  44.723  1.00  0.00     0.016 A 
ATOM      2  C   UNL     1      44.090  44.075  45.536  1.00  0.00     0.013 A 
ATOM      3  C   UNL     1      43.575  42.400  43.877  1.00  0.00     0.120 A 
ATOM      4  C   UNL     1      42.763  44.503  45.494  1.00  0.00     0.021 A 
ATOM      5  N   UNL     1      42.287  42.836  43.854  1.00  0.00    -0.264 NA
ATOM      6  C   UNL     1      41.866  43.864  44.637  1.00  0.00     0.111 A 
ENDROOT
BRANCH   1   7
ATOM      7  C   UNL     1      45.918  42.543  44.753  1.00  0.00     0.073 C 
ATOM      8  O   UNL     1      46.184  41.313  44.672  1.00  0.00    -0.545 OA
ATOM      9  O   UNL     1      46.962  43.452  44.871  1.00  0.00    -0.545 OA
ENDBRANCH   1   7
TORSDOF 1
ENDMDL
MODEL 9
REMARK VINA RESULT:    -3.502      8.675      9.429
REMARK INTER + INTRA:          -3.725
REMARK INTER:                  -3.709
REMARK INTRA:                  -0.016
REMARK UNBOUND:                -0.018
REMARK SMILES O=C([O-])c1cccnc1
REMARK SMILES IDX 4 1 5 2 9 3 6 4 8 5 7 6 2 7 1 8 3 9
REMARK H PARENT
REMARK Flexibility Score: inf
ROOT
ATOM      1  C   UNL     1      43.236  43.510  44.512  1.00  0.00     0.016 A 
ATOM      2  C   UNL     1      43.231  42.386  43.669  1.00  0.00     0.013 A 
ATOM      3  C   UNL     1      44.363  43.732  45.322  1.00  0.00     0.120 A 
ATOM      4  C   UNL     1      44.325  41.520  43.648  1.00  0.00     0.021 A 
ATOM      5  N   UNL     1      45.417  42.873  45.283  1.00  0.00    -0.264 NA
ATOM      6  C   UNL     1      45.421  41.783  44.471  1.00  0.00     0.111 A 
ENDROOT
BRANCH   1   7
ATOM      7  C   UNL     1      42.087  44.440  44.549  1.00  0.00     0.073 C 
ATOM      8  O   UNL     1      41.074  44.177  45.251  1.00  0.00    -0.545 OA
ATOM      9  O   UNL     1      42.109  45.617  43.811  1.00  0.00    -0.545 OA
ENDBRANCH   1   7
TORSDOF 1
ENDMDL
