MODEL 1
REMARK VINA RESULT:    -3.253      0.000      0.000
REMARK INTER + INTRA:          -3.349
REMARK INTER:                  -3.349
REMARK INTRA:                   0.000
REMARK UNBOUND:                 0.000
REMARK SMILES CC1(C)[C@@H]2CC[C@@]1(C)[C@@H](O)C2
REMARK SMILES IDX 1 1 2 2 4 3 5 4 6 5 7 6 9 7 11 8 8 9 3 10 10 11
REMARK H PARENT 10 12
REMARK Flexibility Score: inf
ROOT
ATOM      1  C   UNL     1     137.885 143.453 143.873  1.00  0.00     0.012 C 
ATOM      2  C   UNL     1     138.791 143.824 142.658  1.00  0.00    -0.025 C 
ATOM      3  C   UNL     1     139.138 145.320 142.580  1.00  0.00    -0.002 C 
ATOM      4  C   UNL     1     140.131 145.395 141.394  1.00  0.00     0.005 C 
ATOM      5  C   UNL     1     140.918 144.076 141.522  1.00  0.00     0.010 C 
ATOM      6  C   UNL     1     140.280 143.423 142.782  1.00  0.00    -0.001 C 
ATOM      7  C   UNL     1     140.753 144.236 144.024  1.00  0.00     0.121 C 
ATOM      8  C   UNL     1     139.979 145.564 143.860  1.00  0.00     0.036 C 
ATOM      9  C   UNL     1     140.559 141.919 142.894  1.00  0.00     0.015 C 
ATOM     10  C   UNL     1     138.051 143.282 141.396  1.00  0.00     0.012 C 
ENDROOT
BRANCH   7  11
ATOM     11  O   UNL     1     142.143 144.441 144.026  1.00  0.00    -0.393 OA
ATOM     12  H   UNL     1     142.346 144.979 144.835  1.00  0.00     0.210 HD
ENDBRANCH   7  11
TORSDOF 1
ENDMDL
MODEL 2
REMARK VINA RESULT:    -3.238      3.905      5.275
REMARK INTER + INTRA:          -3.333
REMARK INTER:                  -3.333
REMARK INTRA:                   0.000
REMARK UNBOUND:                 0.000
REMARK SMILES CC1(C)[C@@H]2CC[C@@]1(C)[C@@H](O)C2
REMARK SMILES IDX 1 1 2 2 4 3 5 4 6 5 7 6 9 7 11 8 8 9 3 10 10 11
REMARK H PARENT 10 12
REMARK Flexibility Score: inf
ROOT
ATOM      1  C   UNL     1     143.378 143.784 143.806  1.00  0.00     0.012 C 
ATOM      2  C   UNL     1     143.774 142.846 142.622  1.00  0.00    -0.025 C 
ATOM      3  C   UNL     1     145.272 142.500 142.582  1.00  0.00    -0.002 C 
ATOM      4  C   UNL     1     145.370 141.476 141.426  1.00  0.00     0.005 C 
ATOM      5  C   UNL     1     144.050 140.691 141.550  1.00  0.00     0.010 C 
ATOM      6  C   UNL     1     143.372 141.361 142.779  1.00  0.00    -0.001 C 
ATOM      7  C   UNL     1     144.162 140.923 144.049  1.00  0.00     0.121 C 
ATOM      8  C   UNL     1     145.492 141.695 143.889  1.00  0.00     0.036 C 
ATOM      9  C   UNL     1     141.867 141.082 142.869  1.00  0.00     0.015 C 
ATOM     10  C   UNL     1     143.256 143.551 141.330  1.00  0.00     0.012 C 
ENDROOT
BRANCH   7  11
ATOM     11  O   UNL     1     144.369 139.534 144.092  1.00  0.00    -0.393 OA
ATOM     12  H   UNL     1     145.283 139.376 143.739  1.00  0.00     0.210 HD
ENDBRANCH   7  11
TORSDOF 1
ENDMDL
MODEL 3
REMARK VINA RESULT:    -3.232      3.983      5.360
REMARK INTER + INTRA:          -3.326
REMARK INTER:                  -3.326
REMARK INTRA:                   0.000
REMARK UNBOUND:                 0.000
REMARK SMILES CC1(C)[C@@H]2CC[C@@]1(C)[C@@H](O)C2
REMARK SMILES IDX 1 1 2 2 4 3 5 4 6 5 7 6 9 7 11 8 8 9 3 10 10 11
REMARK H PARENT 10 12
REMARK Flexibility Score: inf
ROOT
ATOM      1  C   UNL     1     138.242 137.795 143.632  1.00  0.00     0.012 C 
ATOM      2  C   UNL     1     137.776 138.760 142.497  1.00  0.00    -0.025 C 
ATOM      3  C   UNL     1     136.278 139.103 142.555  1.00  0.00    -0.002 C 
ATOM      4  C   UNL     1     136.110 140.155 141.431  1.00  0.00     0.005 C 
ATOM      5  C   UNL     1     137.434 140.940 141.495  1.00  0.00     0.010 C 
ATOM      6  C   UNL     1     138.184 140.242 142.665  1.00  0.00    -0.001 C 
ATOM      7  C   UNL     1     137.472 140.648 143.990  1.00  0.00     0.121 C 
ATOM      8  C   UNL     1     136.135 139.877 143.891  1.00  0.00     0.036 C 
ATOM      9  C   UNL     1     139.692 140.523 142.673  1.00  0.00     0.015 C 
ATOM     10  C   UNL     1     138.217 138.087 141.160  1.00  0.00     0.012 C 
ENDROOT
BRANCH   7  11
ATOM     11  O   UNL     1     137.266 142.035 144.079  1.00  0.00    -0.393 OA
ATOM     12  H   UNL     1     136.667 142.181 144.856  1.00  0.00     0.210 HD
ENDBRANCH   7  11
TORSDOF 1
ENDMDL
MODEL 4
REMARK VINA RESULT:    -3.150      5.220      7.510
REMARK INTER + INTRA:          -3.242
REMARK INTER:                  -3.242
REMARK INTRA:                   0.000
REMARK UNBOUND:                 0.000
REMARK SMILES CC1(C)[C@@H]2CC[C@@]1(C)[C@@H](O)C2
REMARK SMILES IDX 1 1 2 2 4 3 5 4 6 5 7 6 9 7 11 8 8 9 3 10 10 11
REMARK H PARENT 10 12
REMARK Flexibility Score: inf
ROOT
ATOM      1  C   UNL     1     143.689 138.351 143.689  1.00  0.00     0.012 C 
ATOM      2  C   UNL     1     142.748 137.854 142.547  1.00  0.00    -0.025 C 
ATOM      3  C   UNL     1     142.487 136.338 142.577  1.00  0.00    -0.002 C 
ATOM      4  C   UNL     1     141.443 136.134 141.452  1.00  0.00     0.005 C 
ATOM      5  C   UNL     1     140.587 137.411 141.543  1.00  0.00     0.010 C 
ATOM      6  C   UNL     1     141.246 138.177 142.726  1.00  0.00    -0.001 C 
ATOM      7  C   UNL     1     140.884 137.419 144.038  1.00  0.00     0.121 C 
ATOM      8  C   UNL     1     141.727 136.128 143.912  1.00  0.00     0.036 C 
ATOM      9  C   UNL     1     140.883 139.667 142.762  1.00  0.00     0.015 C 
ATOM     10  C   UNL     1     143.391 138.356 141.218  1.00  0.00     0.012 C 
ENDROOT
BRANCH   7  11
ATOM     11  O   UNL     1     139.510 137.136 144.125  1.00  0.00    -0.393 OA
ATOM     12  H   UNL     1     139.411 136.165 143.939  1.00  0.00     0.210 HD
ENDBRANCH   7  11
TORSDOF 1
ENDMDL
MODEL 5
REMARK VINA RESULT:    -3.146      1.636      3.036
REMARK INTER + INTRA:          -3.237
REMARK INTER:                  -3.237
REMARK INTRA:                   0.000
REMARK UNBOUND:                 0.000
REMARK SMILES CC1(C)[C@@H]2CC[C@@]1(C)[C@@H](O)C2
REMARK SMILES IDX 1 1 2 2 4 3 5 4 6 5 7 6 9 7 11 8 8 9 3 10 10 11
REMARK H PARENT 10 12
REMARK Flexibility Score: inf
ROOT
ATOM      1  C   UNL     1     142.378 144.371 143.789  1.00  0.00     0.012 C 
ATOM      2  C   UNL     1     141.176 143.546 143.230  1.00  0.00    -0.025 C 
ATOM      3  C   UNL     1     139.927 143.590 144.125  1.00  0.00    -0.002 C 
ATOM      4  C   UNL     1     138.867 142.824 143.296  1.00  0.00     0.005 C 
ATOM      5  C   UNL     1     139.212 143.222 141.848  1.00  0.00     0.010 C 
ATOM      6  C   UNL     1     140.421 144.182 142.039  1.00  0.00    -0.001 C 
ATOM      7  C   UNL     1     139.876 145.509 142.647  1.00  0.00     0.121 C 
ATOM      8  C   UNL     1     139.506 145.082 144.086  1.00  0.00     0.036 C 
ATOM      9  C   UNL     1     141.242 144.388 140.760  1.00  0.00     0.015 C 
ATOM     10  C   UNL     1     141.727 142.106 142.986  1.00  0.00     0.012 C 
ENDROOT
BRANCH   7  11
ATOM     11  O   UNL     1     138.759 145.994 141.946  1.00  0.00    -0.393 OA
ATOM     12  H   UNL     1     138.246 145.198 141.650  1.00  0.00     0.210 HD
ENDBRANCH   7  11
TORSDOF 1
ENDMDL
MODEL 6
REMARK VINA RESULT:    -3.129      1.588      2.999
REMARK INTER + INTRA:          -3.220
REMARK INTER:                  -3.220
REMARK INTRA:                   0.000
REMARK UNBOUND:                 0.000
REMARK SMILES CC1(C)[C@@H]2CC[C@@]1(C)[C@@H](O)C2
REMARK SMILES IDX 1 1 2 2 4 3 5 4 6 5 7 6 9 7 11 8 8 9 3 10 10 11
REMARK H PARENT 10 12
REMARK Flexibility Score: inf
ROOT
ATOM      1  C   UNL     1     139.899 141.829 141.548  1.00  0.00     0.012 C 
ATOM      2  C   UNL     1     140.207 142.775 142.750  1.00  0.00    -0.025 C 
ATOM      3  C   UNL     1     141.327 143.790 142.467  1.00  0.00    -0.002 C 
ATOM      4  C   UNL     1     141.339 144.672 143.740  1.00  0.00     0.005 C 
ATOM      5  C   UNL     1     139.848 144.740 144.123  1.00  0.00     0.010 C 
ATOM      6  C   UNL     1     139.172 143.896 143.005  1.00  0.00    -0.001 C 
ATOM      7  C   UNL     1     139.233 144.726 141.687  1.00  0.00     0.121 C 
ATOM      8  C   UNL     1     140.738 144.673 141.337  1.00  0.00     0.036 C 
ATOM      9  C   UNL     1     137.756 143.430 143.367  1.00  0.00     0.015 C 
ATOM     10  C   UNL     1     140.496 141.839 143.965  1.00  0.00     0.012 C 
ENDROOT
BRANCH   7  11
ATOM     11  O   UNL     1     138.788 146.046 141.871  1.00  0.00    -0.393 OA
ATOM     12  H   UNL     1     137.883 146.096 141.468  1.00  0.00     0.210 HD
ENDBRANCH   7  11
TORSDOF 1
ENDMDL
MODEL 7
REMARK VINA RESULT:    -3.127      3.630      5.392
REMARK INTER + INTRA:          -3.218
REMARK INTER:                  -3.218
REMARK INTRA:                   0.000
REMARK UNBOUND:                 0.000
REMARK SMILES CC1(C)[C@@H]2CC[C@@]1(C)[C@@H](O)C2
REMARK SMILES IDX 1 1 2 2 4 3 5 4 6 5 7 6 9 7 11 8 8 9 3 10 10 11
REMARK H PARENT 10 12
REMARK Flexibility Score: inf
ROOT
ATOM      1  C   UNL     1     141.791 141.966 141.782  1.00  0.00     0.012 C 
ATOM      2  C   UNL     1     142.808 141.510 142.875  1.00  0.00    -0.025 C 
ATOM      3  C   UNL     1     143.753 140.389 142.412  1.00  0.00    -0.002 C 
ATOM      4  C   UNL     1     144.723 140.224 143.607  1.00  0.00     0.005 C 
ATOM      5  C   UNL     1     144.879 141.667 144.125  1.00  0.00     0.010 C 
ATOM      6  C   UNL     1     143.986 142.477 143.142  1.00  0.00    -0.001 C 
ATOM      7  C   UNL     1     144.716 142.517 141.766  1.00  0.00     0.121 C 
ATOM      8  C   UNL     1     144.577 141.056 141.280  1.00  0.00     0.036 C 
ATOM      9  C   UNL     1     143.604 143.865 143.671  1.00  0.00     0.015 C 
ATOM     10  C   UNL     1     141.949 141.135 144.123  1.00  0.00     0.012 C 
ENDROOT
BRANCH   7  11
ATOM     11  O   UNL     1     146.063 142.897 141.892  1.00  0.00    -0.393 OA
ATOM     12  H   UNL     1     146.066 143.764 142.375  1.00  0.00     0.210 HD
ENDBRANCH   7  11
TORSDOF 1
ENDMDL
MODEL 8
REMARK VINA RESULT:    -3.050      4.250      5.759
REMARK INTER + INTRA:          -3.139
REMARK INTER:                  -3.139
REMARK INTRA:                   0.000
REMARK UNBOUND:                 0.000
REMARK SMILES CC1(C)[C@@H]2CC[C@@]1(C)[C@@H](O)C2
REMARK SMILES IDX 1 1 2 2 4 3 5 4 6 5 7 6 9 7 11 8 8 9 3 10 10 11
REMARK H PARENT 10 12
REMARK Flexibility Score: inf
ROOT
ATOM      1  C   UNL     1     137.982 142.206 142.553  1.00  0.00     0.012 C 
ATOM      2  C   UNL     1     138.330 140.717 142.864  1.00  0.00    -0.025 C 
ATOM      3  C   UNL     1     137.633 140.169 144.120  1.00  0.00    -0.002 C 
ATOM      4  C   UNL     1     138.032 138.673 144.125  1.00  0.00     0.005 C 
ATOM      5  C   UNL     1     138.060 138.321 142.625  1.00  0.00     0.010 C 
ATOM      6  C   UNL     1     137.655 139.665 141.955  1.00  0.00    -0.001 C 
ATOM      7  C   UNL     1     136.139 139.892 142.233  1.00  0.00     0.121 C 
ATOM      8  C   UNL     1     136.129 140.211 143.746  1.00  0.00     0.036 C 
ATOM      9  C   UNL     1     138.020 139.735 140.466  1.00  0.00     0.015 C 
ATOM     10  C   UNL     1     139.888 140.651 142.929  1.00  0.00     0.012 C 
ENDROOT
BRANCH   7  11
ATOM     11  O   UNL     1     135.369 138.754 141.937  1.00  0.00    -0.393 OA
ATOM     12  H   UNL     1     134.520 139.084 141.543  1.00  0.00     0.210 HD
ENDBRANCH   7  11
TORSDOF 1
ENDMDL
MODEL 9
REMARK VINA RESULT:    -3.042      3.991      5.316
REMARK INTER + INTRA:          -3.130
REMARK INTER:                  -3.130
REMARK INTRA:                   0.000
REMARK UNBOUND:                 0.000
REMARK SMILES CC1(C)[C@@H]2CC[C@@]1(C)[C@@H](O)C2
REMARK SMILES IDX 1 1 2 2 4 3 5 4 6 5 7 6 9 7 11 8 8 9 3 10 10 11
REMARK H PARENT 10 12
REMARK Flexibility Score: inf
ROOT
ATOM      1  C   UNL     1     143.820 139.378 142.840  1.00  0.00     0.012 C 
ATOM      2  C   UNL     1     143.369 140.870 142.918  1.00  0.00    -0.025 C 
ATOM      3  C   UNL     1     143.948 141.629 144.123  1.00  0.00    -0.002 C 
ATOM      4  C   UNL     1     143.467 143.083 143.894  1.00  0.00     0.005 C 
ATOM      5  C   UNL     1     143.521 143.224 142.361  1.00  0.00     0.010 C 
ATOM      6  C   UNL     1     144.045 141.830 141.911  1.00  0.00    -0.001 C 
ATOM      7  C   UNL     1     145.549 141.742 142.308  1.00  0.00     0.121 C 
ATOM      8  C   UNL     1     145.474 141.634 143.849  1.00  0.00     0.036 C 
ATOM      9  C   UNL     1     143.786 141.534 140.428  1.00  0.00     0.015 C 
ATOM     10  C   UNL     1     141.809 140.845 142.880  1.00  0.00     0.012 C 
ENDROOT
BRANCH   7  11
ATOM     11  O   UNL     1     146.272 142.876 141.901  1.00  0.00    -0.393 OA
ATOM     12  H   UNL     1     146.137 143.562 142.606  1.00  0.00     0.210 HD
ENDBRANCH   7  11
TORSDOF 1
ENDMDL
