MODEL 1
REMARK VINA RESULT:    -4.108      0.000      0.000
REMARK INTER + INTRA:          -4.577
REMARK INTER:                  -5.068
REMARK INTRA:                   0.491
REMARK UNBOUND:                 0.491
REMARK SMILES C=C1CC[C@@H]2[C@@H]1[C@H]1[C@H](CC[C@@H]2C)C1(C)C
REMARK SMILES IDX 6 1 5 2 4 3 3 4 2 5 1 6 11 7 12 8 10 9 7 11 8 12 13 13 14 14
REMARK SMILES IDX 15 15 9 16
REMARK H PARENT
REMARK Flexibility Score: 80.00
ROOT
ATOM      1  C   UNL     1      29.569   8.718  28.245  1.00  0.00     0.022 C 
ATOM      2  C   UNL     1      30.472   7.497  27.955  1.00  0.00    -0.000 C 
ATOM      3  C   UNL     1      30.791   6.908  29.335  1.00  0.00     0.009 C 
ATOM      4  C   UNL     1      30.875   8.118  30.267  1.00  0.00     0.031 C 
ATOM      5  C   UNL     1      30.065   9.169  29.580  1.00  0.00    -0.074 C 
ATOM      6  C   UNL     1      29.750  10.341  30.146  1.00  0.00     0.008 C 
ENDROOT
BRANCH   2   7
ATOM      7  C   UNL     1      29.955   6.485  26.885  1.00  0.00    -0.011 C 
ATOM      8  C   UNL     1      28.548   5.920  27.169  1.00  0.00     0.008 C 
BRANCH   7   9
ATOM      9  C   UNL     1      30.120   6.955  25.387  1.00  0.00     0.004 CG0
ATOM     10  G   UNL     1      29.896   8.448  24.999  1.00  0.00     0.000 G0
ENDBRANCH   7   9
ENDBRANCH   2   7
BRANCH   1  11
ATOM     11  C   UNL     1      29.799   9.732  27.123  1.00  0.00     0.006 C 
ATOM     12  C   UNL     1      28.944   9.164  25.956  1.00  0.00    -0.001 C 
ATOM     13  C   UNL     1      28.846  10.628  26.335  1.00  0.00    -0.029 C 
ATOM     14  C   UNL     1      29.480  11.625  25.359  1.00  0.00     0.012 C 
ATOM     15  C   UNL     1      27.575  11.070  27.065  1.00  0.00     0.012 C 
BRANCH  12  16
ATOM     16  C   UNL     1      29.895   8.452  24.996  1.00  0.00     0.005 CG0
ATOM     17  G   UNL     1      30.108   6.959  25.395  1.00  0.00     0.000 G0
ENDBRANCH  12  16
ENDBRANCH   1  11
TORSDOF 0
ENDMDL
MODEL 2
REMARK VINA RESULT:    -3.829      2.844      4.883
REMARK INTER + INTRA:          -4.233
REMARK INTER:                  -4.714
REMARK INTRA:                   0.481
REMARK UNBOUND:                 0.491
REMARK SMILES C=C1CC[C@@H]2[C@@H]1[C@H]1[C@H](CC[C@@H]2C)C1(C)C
REMARK SMILES IDX 6 1 5 2 4 3 3 4 2 5 1 6 11 7 12 8 10 9 7 11 8 12 13 13 14 14
REMARK SMILES IDX 15 15 9 16
REMARK H PARENT
REMARK Flexibility Score: 80.00
ROOT
ATOM      1  C   UNL     1      30.331   9.690  29.724  1.00  0.00     0.022 C 
ATOM      2  C   UNL     1      30.097  10.022  31.216  1.00  0.00    -0.000 C 
ATOM      3  C   UNL     1      30.964   9.015  31.982  1.00  0.00     0.009 C 
ATOM      4  C   UNL     1      30.920   7.740  31.139  1.00  0.00     0.031 C 
ATOM      5  C   UNL     1      30.588   8.219  29.763  1.00  0.00    -0.074 C 
ATOM      6  C   UNL     1      30.612   7.428  28.683  1.00  0.00     0.008 C 
ENDROOT
BRANCH   2   7
ATOM      7  C   UNL     1      30.261  11.518  31.632  1.00  0.00    -0.011 C 
ATOM      8  C   UNL     1      31.630  12.133  31.274  1.00  0.00     0.008 C 
BRANCH   7   9
ATOM      9  C   UNL     1      29.058  12.458  31.230  1.00  0.00     0.004 CG0
ATOM     10  G   UNL     1      28.324  12.261  29.869  1.00  0.00     0.000 G0
ENDBRANCH   7   9
ENDBRANCH   2   7
BRANCH   1  11
ATOM     11  C   UNL     1      29.059  10.077  28.967  1.00  0.00     0.006 C 
ATOM     12  C   UNL     1      29.195  11.617  28.815  1.00  0.00    -0.001 C 
ATOM     13  C   UNL     1      28.830  10.759  27.620  1.00  0.00    -0.029 C 
ATOM     14  C   UNL     1      27.382  10.860  27.130  1.00  0.00     0.012 C 
ATOM     15  C   UNL     1      29.917  10.548  26.563  1.00  0.00     0.012 C 
BRANCH  12  16
ATOM     16  C   UNL     1      28.308  12.263  29.878  1.00  0.00     0.005 CG0
ATOM     17  G   UNL     1      29.069  12.459  31.225  1.00  0.00     0.000 G0
ENDBRANCH  12  16
ENDBRANCH   1  11
TORSDOF 0
ENDMDL
MODEL 3
REMARK VINA RESULT:    -3.774      1.841      4.839
REMARK INTER + INTRA:          -4.166
REMARK INTER:                  -4.653
REMARK INTRA:                   0.487
REMARK UNBOUND:                 0.491
REMARK SMILES C=C1CC[C@@H]2[C@@H]1[C@H]1[C@H](CC[C@@H]2C)C1(C)C
REMARK SMILES IDX 6 1 5 2 4 3 3 4 2 5 1 6 11 7 12 8 10 9 7 11 8 12 13 13 14 14
REMARK SMILES IDX 15 15 9 16
REMARK H PARENT
REMARK Flexibility Score: 80.00
ROOT
ATOM      1  C   UNL     1      29.889   9.449  25.684  1.00  0.00     0.022 C 
ATOM      2  C   UNL     1      30.003  10.772  26.477  1.00  0.00    -0.000 C 
ATOM      3  C   UNL     1      29.996  11.871  25.407  1.00  0.00     0.009 C 
ATOM      4  C   UNL     1      30.733  11.259  24.213  1.00  0.00     0.031 C 
ATOM      5  C   UNL     1      30.583   9.784  24.405  1.00  0.00    -0.074 C 
ATOM      6  C   UNL     1      30.951   8.883  23.486  1.00  0.00     0.008 C 
ENDROOT
BRANCH   2   7
ATOM      7  C   UNL     1      29.001  10.966  27.658  1.00  0.00    -0.011 C 
ATOM      8  C   UNL     1      27.515  10.833  27.263  1.00  0.00     0.008 C 
BRANCH   7   9
ATOM      9  C   UNL     1      29.347  10.155  28.967  1.00  0.00     0.004 CG0
ATOM     10  G   UNL     1      29.930   8.712  28.870  1.00  0.00     0.000 G0
ENDBRANCH   7   9
ENDBRANCH   2   7
BRANCH   1  11
ATOM     11  C   UNL     1      30.591   8.365  26.505  1.00  0.00     0.006 C 
ATOM     12  C   UNL     1      29.537   8.005  27.588  1.00  0.00    -0.001 C 
ATOM     13  C   UNL     1      30.237   6.911  26.808  1.00  0.00    -0.029 C 
ATOM     14  C   UNL     1      31.277   6.089  27.576  1.00  0.00     0.012 C 
ATOM     15  C   UNL     1      29.410   6.182  25.745  1.00  0.00     0.012 C 
BRANCH  12  16
ATOM     16  C   UNL     1      29.943   8.716  28.877  1.00  0.00     0.005 CG0
ATOM     17  G   UNL     1      29.336  10.150  28.964  1.00  0.00     0.000 G0
ENDBRANCH  12  16
ENDBRANCH   1  11
TORSDOF 0
ENDMDL
MODEL 4
REMARK VINA RESULT:    -3.688      1.426      2.278
REMARK INTER + INTRA:          -4.059
REMARK INTER:                  -4.542
REMARK INTRA:                   0.483
REMARK UNBOUND:                 0.491
REMARK SMILES C=C1CC[C@@H]2[C@@H]1[C@H]1[C@H](CC[C@@H]2C)C1(C)C
REMARK SMILES IDX 6 1 5 2 4 3 3 4 2 5 1 6 11 7 12 8 10 9 7 11 8 12 13 13 14 14
REMARK SMILES IDX 15 15 9 16
REMARK H PARENT
REMARK Flexibility Score: 80.00
ROOT
ATOM      1  C   UNL     1      29.754   9.089  29.293  1.00  0.00     0.022 C 
ATOM      2  C   UNL     1      30.840   8.215  29.963  1.00  0.00    -0.000 C 
ATOM      3  C   UNL     1      30.840   8.650  31.434  1.00  0.00     0.009 C 
ATOM      4  C   UNL     1      30.526  10.147  31.400  1.00  0.00     0.031 C 
ATOM      5  C   UNL     1      29.814  10.344  30.101  1.00  0.00    -0.074 C 
ATOM      6  C   UNL     1      29.223  11.494  29.755  1.00  0.00     0.008 C 
ENDROOT
BRANCH   2   7
ATOM      7  C   UNL     1      30.754   6.678  29.706  1.00  0.00    -0.011 C 
ATOM      8  C   UNL     1      29.402   6.042  30.089  1.00  0.00     0.008 C 
BRANCH   7   9
ATOM      9  C   UNL     1      31.256   6.210  28.284  1.00  0.00     0.004 CG0
ATOM     10  G   UNL     1      30.965   7.075  27.021  1.00  0.00     0.000 G0
ENDBRANCH   7   9
ENDBRANCH   2   7
BRANCH   1  11
ATOM     11  C   UNL     1      30.159   9.275  27.829  1.00  0.00     0.006 C 
ATOM     12  C   UNL     1      29.723   7.936  27.171  1.00  0.00    -0.001 C 
ATOM     13  C   UNL     1      29.357   9.260  26.529  1.00  0.00    -0.029 C 
ATOM     14  C   UNL     1      30.110   9.622  25.245  1.00  0.00     0.012 C 
ATOM     15  C   UNL     1      27.893   9.698  26.634  1.00  0.00     0.012 C 
BRANCH  12  16
ATOM     16  C   UNL     1      30.973   7.074  27.016  1.00  0.00     0.005 CG0
ATOM     17  G   UNL     1      31.247   6.216  28.289  1.00  0.00     0.000 G0
ENDBRANCH  12  16
ENDBRANCH   1  11
TORSDOF 0
ENDMDL
MODEL 5
REMARK VINA RESULT:    -3.648      3.917      6.016
REMARK INTER + INTRA:          -4.010
REMARK INTER:                  -4.506
REMARK INTRA:                   0.496
REMARK UNBOUND:                 0.491
REMARK SMILES C=C1CC[C@@H]2[C@@H]1[C@H]1[C@H](CC[C@@H]2C)C1(C)C
REMARK SMILES IDX 6 1 5 2 4 3 3 4 2 5 1 6 11 7 12 8 10 9 7 11 8 12 13 13 14 14
REMARK SMILES IDX 15 15 9 16
REMARK H PARENT
REMARK Flexibility Score: 80.00
ROOT
ATOM      1  C   UNL     1      30.812   9.136  31.003  1.00  0.00     0.022 C 
ATOM      2  C   UNL     1      30.868   8.454  32.389  1.00  0.00    -0.000 C 
ATOM      3  C   UNL     1      31.627   7.143  32.151  1.00  0.00     0.009 C 
ATOM      4  C   UNL     1      31.214   6.702  30.745  1.00  0.00     0.031 C 
ATOM      5  C   UNL     1      30.783   7.966  30.075  1.00  0.00    -0.074 C 
ATOM      6  C   UNL     1      30.495   8.044  28.770  1.00  0.00     0.008 C 
ENDROOT
BRANCH   2   7
ATOM      7  C   UNL     1      31.376   9.329  33.577  1.00  0.00    -0.011 C 
ATOM      8  C   UNL     1      32.766   9.960  33.355  1.00  0.00     0.008 C 
BRANCH   7   9
ATOM      9  C   UNL     1      30.329  10.369  34.136  1.00  0.00     0.004 CG0
ATOM     10  G   UNL     1      29.362  11.114  33.166  1.00  0.00     0.000 G0
ENDBRANCH   7   9
ENDBRANCH   2   7
BRANCH   1  11
ATOM     11  C   UNL     1      29.542   9.988  30.965  1.00  0.00     0.006 C 
ATOM     12  C   UNL     1      29.945  11.255  31.769  1.00  0.00    -0.001 C 
ATOM     13  C   UNL     1      29.257  11.388  30.425  1.00  0.00    -0.029 C 
ATOM     14  C   UNL     1      27.799  11.859  30.453  1.00  0.00     0.012 C 
ATOM     15  C   UNL     1      30.122  11.846  29.248  1.00  0.00     0.012 C 
BRANCH  12  16
ATOM     16  C   UNL     1      29.358  11.114  33.172  1.00  0.00     0.005 CG0
ATOM     17  G   UNL     1      30.335  10.374  34.137  1.00  0.00     0.000 G0
ENDBRANCH  12  16
ENDBRANCH   1  11
TORSDOF 0
ENDMDL
MODEL 6
REMARK VINA RESULT:    -3.644      4.574      7.256
REMARK INTER + INTRA:          -4.005
REMARK INTER:                  -4.534
REMARK INTRA:                   0.529
REMARK UNBOUND:                 0.491
REMARK SMILES C=C1CC[C@@H]2[C@@H]1[C@H]1[C@H](CC[C@@H]2C)C1(C)C
REMARK SMILES IDX 6 1 5 2 4 3 3 4 2 5 1 6 11 7 12 8 10 9 7 11 8 12 13 13 14 14
REMARK SMILES IDX 15 15 9 16
REMARK H PARENT
REMARK Flexibility Score: 80.00
ROOT
ATOM      1  C   UNL     1      30.358   8.483  32.801  1.00  0.00     0.022 C 
ATOM      2  C   UNL     1      31.068   8.997  31.527  1.00  0.00    -0.000 C 
ATOM      3  C   UNL     1      30.670   8.002  30.429  1.00  0.00     0.009 C 
ATOM      4  C   UNL     1      30.572   6.652  31.142  1.00  0.00     0.031 C 
ATOM      5  C   UNL     1      30.323   7.008  32.572  1.00  0.00    -0.074 C 
ATOM      6  C   UNL     1      30.015   6.104  33.510  1.00  0.00     0.008 C 
ENDROOT
BRANCH   2   7
ATOM      7  C   UNL     1      30.873  10.507  31.181  1.00  0.00    -0.011 C 
ATOM      8  C   UNL     1      29.400  10.951  31.069  1.00  0.00     0.008 C 
BRANCH   7   9
ATOM      9  C   UNL     1      31.736  11.506  32.046  1.00  0.00     0.004 CG0
ATOM     10  G   UNL     1      32.002  11.216  33.554  1.00  0.00     0.000 G0
ENDBRANCH   7   9
ENDBRANCH   2   7
BRANCH   1  11
ATOM     11  C   UNL     1      31.212   8.904  33.999  1.00  0.00     0.006 C 
ATOM     12  C   UNL     1      30.859  10.408  34.170  1.00  0.00    -0.001 C 
ATOM     13  C   UNL     1      30.853   9.479  35.367  1.00  0.00    -0.029 C 
ATOM     14  C   UNL     1      32.000   9.654  36.369  1.00  0.00     0.012 C 
ATOM     15  C   UNL     1      29.484   9.083  35.928  1.00  0.00     0.012 C 
BRANCH  12  16
ATOM     16  C   UNL     1      31.997  11.219  33.553  1.00  0.00     0.005 CG0
ATOM     17  G   UNL     1      31.738  11.525  32.046  1.00  0.00     0.000 G0
ENDBRANCH  12  16
ENDBRANCH   1  11
TORSDOF 0
ENDMDL
MODEL 7
REMARK VINA RESULT:    -3.557      6.453      8.660
REMARK INTER + INTRA:          -3.897
REMARK INTER:                  -4.378
REMARK INTRA:                   0.481
REMARK UNBOUND:                 0.491
REMARK SMILES C=C1CC[C@@H]2[C@@H]1[C@H]1[C@H](CC[C@@H]2C)C1(C)C
REMARK SMILES IDX 6 1 5 2 4 3 3 4 2 5 1 6 11 7 12 8 10 9 7 11 8 12 13 13 14 14
REMARK SMILES IDX 15 15 9 16
REMARK H PARENT
REMARK Flexibility Score: 80.00
ROOT
ATOM      1  C   UNL     1      30.990   8.573  34.748  1.00  0.00     0.022 C 
ATOM      2  C   UNL     1      30.282   8.268  36.088  1.00  0.00    -0.000 C 
ATOM      3  C   UNL     1      30.867   6.925  36.543  1.00  0.00     0.009 C 
ATOM      4  C   UNL     1      31.113   6.147  35.249  1.00  0.00     0.031 C 
ATOM      5  C   UNL     1      31.238   7.206  34.201  1.00  0.00    -0.074 C 
ATOM      6  C   UNL     1      31.620   6.952  32.944  1.00  0.00     0.008 C 
ENDROOT
BRANCH   2   7
ATOM      7  C   UNL     1      30.284   9.409  37.154  1.00  0.00    -0.011 C 
ATOM      8  C   UNL     1      31.687   9.929  37.528  1.00  0.00     0.008 C 
BRANCH   7   9
ATOM      9  C   UNL     1      29.264  10.581  36.879  1.00  0.00     0.004 CG0
ATOM     10  G   UNL     1      29.001  11.073  35.422  1.00  0.00     0.000 G0
ENDBRANCH   7   9
ENDBRANCH   2   7
BRANCH   1  11
ATOM     11  C   UNL     1      30.028   9.412  33.905  1.00  0.00     0.006 C 
ATOM     12  C   UNL     1      30.184  10.837  34.505  1.00  0.00    -0.001 C 
ATOM     13  C   UNL     1      30.238  10.627  33.005  1.00  0.00    -0.029 C 
ATOM     14  C   UNL     1      29.026  11.119  32.207  1.00  0.00     0.012 C 
ATOM     15  C   UNL     1      31.612  10.745  32.339  1.00  0.00     0.012 C 
BRANCH  12  16
ATOM     16  C   UNL     1      28.991  11.079  35.428  1.00  0.00     0.005 CG0
ATOM     17  G   UNL     1      29.276  10.590  36.881  1.00  0.00     0.000 G0
ENDBRANCH  12  16
ENDBRANCH   1  11
TORSDOF 0
ENDMDL
MODEL 8
REMARK VINA RESULT:    -3.490      2.693      5.387
REMARK INTER + INTRA:          -3.814
REMARK INTER:                  -4.290
REMARK INTRA:                   0.475
REMARK UNBOUND:                 0.491
REMARK SMILES C=C1CC[C@@H]2[C@@H]1[C@H]1[C@H](CC[C@@H]2C)C1(C)C
REMARK SMILES IDX 6 1 5 2 4 3 3 4 2 5 1 6 11 7 12 8 10 9 7 11 8 12 13 13 14 14
REMARK SMILES IDX 15 15 9 16
REMARK H PARENT
REMARK Flexibility Score: 80.00
ROOT
ATOM      1  C   UNL     1      30.675   9.840  23.118  1.00  0.00     0.022 C 
ATOM      2  C   UNL     1      30.950   9.975  24.633  1.00  0.00    -0.000 C 
ATOM      3  C   UNL     1      31.328  11.448  24.833  1.00  0.00     0.009 C 
ATOM      4  C   UNL     1      32.083  11.834  23.559  1.00  0.00     0.031 C 
ATOM      5  C   UNL     1      31.600  10.858  22.535  1.00  0.00    -0.074 C 
ATOM      6  C   UNL     1      31.898  10.951  21.234  1.00  0.00     0.008 C 
ENDROOT
BRANCH   2   7
ATOM      7  C   UNL     1      29.853   9.418  25.594  1.00  0.00    -0.011 C 
ATOM      8  C   UNL     1      28.448  10.013  25.371  1.00  0.00     0.008 C 
BRANCH   7   9
ATOM      9  C   UNL     1      29.822   7.846  25.731  1.00  0.00     0.004 CG0
ATOM     10  G   UNL     1      30.099   6.940  24.492  1.00  0.00     0.000 G0
ENDBRANCH   7   9
ENDBRANCH   2   7
BRANCH   1  11
ATOM     11  C   UNL     1      31.010   8.401  22.721  1.00  0.00     0.006 C 
ATOM     12  C   UNL     1      29.755   7.608  23.183  1.00  0.00    -0.001 C 
ATOM     13  C   UNL     1      30.322   7.402  21.793  1.00  0.00    -0.029 C 
ATOM     14  C   UNL     1      31.044   6.073  21.545  1.00  0.00     0.012 C 
ATOM     15  C   UNL     1      29.529   8.000  20.627  1.00  0.00     0.012 C 
BRANCH  12  16
ATOM     16  C   UNL     1      30.103   6.927  24.505  1.00  0.00     0.005 CG0
ATOM     17  G   UNL     1      29.807   7.850  25.727  1.00  0.00     0.000 G0
ENDBRANCH  12  16
ENDBRANCH   1  11
TORSDOF 0
ENDMDL
MODEL 9
REMARK VINA RESULT:    -3.468      2.313      3.944
REMARK INTER + INTRA:          -3.788
REMARK INTER:                  -4.289
REMARK INTRA:                   0.501
REMARK UNBOUND:                 0.491
REMARK SMILES C=C1CC[C@@H]2[C@@H]1[C@H]1[C@H](CC[C@@H]2C)C1(C)C
REMARK SMILES IDX 6 1 5 2 4 3 3 4 2 5 1 6 11 7 12 8 10 9 7 11 8 12 13 13 14 14
REMARK SMILES IDX 15 15 9 16
REMARK H PARENT
REMARK Flexibility Score: 80.00
ROOT
ATOM      1  C   UNL     1      29.381   8.546  25.169  1.00  0.00     0.022 C 
ATOM      2  C   UNL     1      30.463   8.369  24.078  1.00  0.00    -0.000 C 
ATOM      3  C   UNL     1      30.400   6.884  23.701  1.00  0.00     0.009 C 
ATOM      4  C   UNL     1      30.052   6.164  25.005  1.00  0.00     0.031 C 
ATOM      5  C   UNL     1      29.382   7.210  25.836  1.00  0.00    -0.074 C 
ATOM      6  C   UNL     1      28.776   6.946  27.000  1.00  0.00     0.008 C 
ENDROOT
BRANCH   2   7
ATOM      7  C   UNL     1      30.423   9.377  22.886  1.00  0.00    -0.011 C 
ATOM      8  C   UNL     1      29.072   9.435  22.144  1.00  0.00     0.008 C 
BRANCH   7   9
ATOM      9  C   UNL     1      30.991  10.814  23.209  1.00  0.00     0.004 CG0
ATOM     10  G   UNL     1      30.765  11.455  24.612  1.00  0.00     0.000 G0
ENDBRANCH   7   9
ENDBRANCH   2   7
BRANCH   1  11
ATOM     11  C   UNL     1      29.833   9.692  26.076  1.00  0.00     0.006 C 
ATOM     12  C   UNL     1      29.469  10.958  25.252  1.00  0.00    -0.001 C 
ATOM     13  C   UNL     1      29.081  10.858  26.714  1.00  0.00    -0.029 C 
ATOM     14  C   UNL     1      29.869  11.743  27.687  1.00  0.00     0.012 C 
ATOM     15  C   UNL     1      27.601  10.619  27.022  1.00  0.00     0.012 C 
BRANCH  12  16
ATOM     16  C   UNL     1      30.754  11.467  24.602  1.00  0.00     0.005 CG0
ATOM     17  G   UNL     1      30.996  10.811  23.208  1.00  0.00     0.000 G0
ENDBRANCH  12  16
ENDBRANCH   1  11
TORSDOF 0
ENDMDL
