MODEL 1
REMARK VINA RESULT:    -3.129      0.000      0.000
REMARK INTER + INTRA:          -3.804
REMARK INTER:                  -4.410
REMARK INTRA:                   0.606
REMARK UNBOUND:                 0.606
REMARK SMILES CC1=CCCC(C)=CCC(C)(C)C=CC1
REMARK SMILES IDX 2 1 3 2 1 3 4 4 5 5 6 6 7 7 8 8 15 10 14 11 13 12 10 13
REMARK SMILES IDX 11 14 12 15 9 16
REMARK H PARENT
REMARK Flexibility Score: 60.00
ROOT
ATOM      1  C   UNL     1     132.343 137.140 134.552  1.00  0.00    -0.074 C 
ATOM      2  C   UNL     1     132.788 138.336 135.019  1.00  0.00    -0.027 C 
ATOM      3  C   UNL     1     131.834 137.056 133.134  1.00  0.00     0.039 C 
ENDROOT
BRANCH   2   4
ATOM      4  C   UNL     1     133.405 138.573 136.379  1.00  0.00     0.032 C 
BRANCH   4   5
ATOM      5  C   UNL     1     134.932 138.384 136.399  1.00  0.00     0.034 C 
BRANCH   5   6
ATOM      6  C   UNL     1     135.326 137.348 137.438  1.00  0.00    -0.077 C 
ATOM      7  C   UNL     1     135.504 137.815 138.861  1.00  0.00     0.039 C 
ATOM      8  C   UNL     1     135.597 136.048 137.163  1.00  0.00    -0.027 CG0
ATOM      9  G   UNL     1     135.463 135.354 135.821  1.00  0.00     0.000 G0
ENDBRANCH   5   6
ENDBRANCH   4   5
ENDBRANCH   2   4
BRANCH   1  10
ATOM     10  C   UNL     1     132.203 135.898 135.414  1.00  0.00     0.057 C 
BRANCH  10  11
ATOM     11  C   UNL     1     132.524 134.640 134.652  1.00  0.00    -0.026 C 
ATOM     12  C   UNL     1     133.608 133.850 134.813  1.00  0.00    -0.024 C 
BRANCH  12  13
ATOM     13  C   UNL     1     134.735 133.965 135.850  1.00  0.00    -0.014 C 
ATOM     14  C   UNL     1     135.762 132.844 135.549  1.00  0.00     0.016 C 
ATOM     15  C   UNL     1     134.188 133.700 137.271  1.00  0.00     0.016 C 
BRANCH  13  16
ATOM     16  C   UNL     1     135.473 135.339 135.815  1.00  0.00     0.038 CG0
ATOM     17  G   UNL     1     135.582 136.019 137.166  1.00  0.00     0.000 G0
ENDBRANCH  13  16
ENDBRANCH  12  13
ENDBRANCH  10  11
ENDBRANCH   1  10
TORSDOF 0
ENDMDL
MODEL 2
REMARK VINA RESULT:    -3.129      3.247      4.483
REMARK INTER + INTRA:          -3.803
REMARK INTER:                  -4.456
REMARK INTRA:                   0.653
REMARK UNBOUND:                 0.606
REMARK SMILES CC1=CCCC(C)=CCC(C)(C)C=CC1
REMARK SMILES IDX 2 1 3 2 1 3 4 4 5 5 6 6 7 7 8 8 15 10 14 11 13 12 10 13
REMARK SMILES IDX 11 14 12 15 9 16
REMARK H PARENT
REMARK Flexibility Score: 60.00
ROOT
ATOM      1  C   UNL     1     135.684 140.121 134.215  1.00  0.00    -0.074 C 
ATOM      2  C   UNL     1     136.974 139.831 133.904  1.00  0.00    -0.027 C 
ATOM      3  C   UNL     1     134.668 140.207 133.103  1.00  0.00     0.039 C 
ENDROOT
BRANCH   2   4
ATOM      4  C   UNL     1     138.094 139.627 134.899  1.00  0.00     0.032 C 
BRANCH   4   5
ATOM      5  C   UNL     1     138.138 138.205 135.486  1.00  0.00     0.034 C 
BRANCH   5   6
ATOM      6  C   UNL     1     138.178 138.257 137.004  1.00  0.00    -0.077 C 
ATOM      7  C   UNL     1     139.486 138.628 137.657  1.00  0.00     0.039 C 
ATOM      8  C   UNL     1     137.142 137.924 137.812  1.00  0.00    -0.027 CG0
ATOM      9  G   UNL     1     135.737 137.547 137.382  1.00  0.00     0.000 G0
ENDBRANCH   5   6
ENDBRANCH   4   5
ENDBRANCH   2   4
BRANCH   1  10
ATOM     10  C   UNL     1     135.218 140.495 135.612  1.00  0.00     0.057 C 
BRANCH  10  11
ATOM     11  C   UNL     1     133.884 139.883 135.947  1.00  0.00    -0.026 C 
ATOM     12  C   UNL     1     133.629 138.979 136.918  1.00  0.00    -0.024 C 
BRANCH  12  13
ATOM     13  C   UNL     1     134.586 138.411 137.977  1.00  0.00    -0.014 C 
ATOM     14  C   UNL     1     133.746 137.539 138.945  1.00  0.00     0.016 C 
ATOM     15  C   UNL     1     135.197 139.554 138.819  1.00  0.00     0.016 C 
BRANCH  13  16
ATOM     16  C   UNL     1     135.725 137.530 137.375  1.00  0.00     0.038 CG0
ATOM     17  G   UNL     1     137.118 137.923 137.828  1.00  0.00     0.000 G0
ENDBRANCH  13  16
ENDBRANCH  12  13
ENDBRANCH  10  11
ENDBRANCH   1  10
TORSDOF 0
ENDMDL
MODEL 3
REMARK VINA RESULT:    -3.057      4.691      6.508
REMARK INTER + INTRA:          -3.703
REMARK INTER:                  -4.617
REMARK INTRA:                   0.914
REMARK UNBOUND:                 0.606
REMARK SMILES CC1=CCCC(C)=CCC(C)(C)C=CC1
REMARK SMILES IDX 2 1 3 2 1 3 4 4 5 5 6 6 7 7 8 8 15 10 14 11 13 12 10 13
REMARK SMILES IDX 11 14 12 15 9 16
REMARK H PARENT
REMARK Flexibility Score: 60.00
ROOT
ATOM      1  C   UNL     1     139.887 136.730 135.945  1.00  0.00    -0.074 C 
ATOM      2  C   UNL     1     140.101 135.739 135.041  1.00  0.00    -0.027 C 
ATOM      3  C   UNL     1     140.873 137.869 136.026  1.00  0.00     0.039 C 
ENDROOT
BRANCH   2   4
ATOM      4  C   UNL     1     139.173 134.577 134.774  1.00  0.00     0.032 C 
BRANCH   4   5
ATOM      5  C   UNL     1     139.467 133.345 135.647  1.00  0.00     0.034 C 
BRANCH   5   6
ATOM      6  C   UNL     1     138.273 133.018 136.527  1.00  0.00    -0.077 C 
ATOM      7  C   UNL     1     137.091 132.341 135.879  1.00  0.00     0.039 C 
ATOM      8  C   UNL     1     138.166 133.356 137.836  1.00  0.00    -0.027 CG0
ATOM      9  G   UNL     1     139.228 134.014 138.695  1.00  0.00     0.000 G0
ENDBRANCH   5   6
ENDBRANCH   4   5
ENDBRANCH   2   4
BRANCH   1  10
ATOM     10  C   UNL     1     138.775 136.699 136.980  1.00  0.00     0.057 C 
BRANCH  10  11
ATOM     11  C   UNL     1     139.248 137.157 138.334  1.00  0.00    -0.026 C 
ATOM     12  C   UNL     1     139.165 136.472 139.495  1.00  0.00    -0.024 C 
BRANCH  12  13
ATOM     13  C   UNL     1     138.663 135.040 139.732  1.00  0.00    -0.014 C 
ATOM     14  C   UNL     1     137.117 135.064 139.624  1.00  0.00     0.016 C 
ATOM     15  C   UNL     1     139.004 134.580 141.167  1.00  0.00     0.016 C 
BRANCH  13  16
ATOM     16  C   UNL     1     139.218 134.009 138.700  1.00  0.00     0.038 CG0
ATOM     17  G   UNL     1     138.151 133.349 137.848  1.00  0.00     0.000 G0
ENDBRANCH  13  16
ENDBRANCH  12  13
ENDBRANCH  10  11
ENDBRANCH   1  10
TORSDOF 0
ENDMDL
MODEL 4
REMARK VINA RESULT:    -3.040      2.956      4.229
REMARK INTER + INTRA:          -3.679
REMARK INTER:                  -4.450
REMARK INTRA:                   0.771
REMARK UNBOUND:                 0.606
REMARK SMILES CC1=CCCC(C)=CCC(C)(C)C=CC1
REMARK SMILES IDX 2 1 3 2 1 3 4 4 5 5 6 6 7 7 8 8 15 10 14 11 13 12 10 13
REMARK SMILES IDX 11 14 12 15 9 16
REMARK H PARENT
REMARK Flexibility Score: 60.00
ROOT
ATOM      1  C   UNL     1     133.467 139.000 134.878  1.00  0.00    -0.074 C 
ATOM      2  C   UNL     1     133.476 139.555 136.118  1.00  0.00    -0.027 C 
ATOM      3  C   UNL     1     132.319 138.102 134.490  1.00  0.00     0.039 C 
ENDROOT
BRANCH   2   4
ATOM      4  C   UNL     1     134.502 140.539 136.634  1.00  0.00     0.032 C 
BRANCH   4   5
ATOM      5  C   UNL     1     135.211 140.068 137.916  1.00  0.00     0.034 C 
BRANCH   5   6
ATOM      6  C   UNL     1     135.858 138.710 137.698  1.00  0.00    -0.077 C 
ATOM      7  C   UNL     1     135.335 137.549 138.506  1.00  0.00     0.039 C 
ATOM      8  C   UNL     1     136.918 138.485 136.883  1.00  0.00    -0.027 CG0
ATOM      9  G   UNL     1     137.588 139.487 135.964  1.00  0.00     0.000 G0
ENDBRANCH   5   6
ENDBRANCH   4   5
ENDBRANCH   2   4
BRANCH   1  10
ATOM     10  C   UNL     1     134.616 139.125 133.891  1.00  0.00     0.057 C 
BRANCH  10  11
ATOM     11  C   UNL     1     135.490 137.900 133.881  1.00  0.00    -0.026 C 
ATOM     12  C   UNL     1     136.823 137.854 134.094  1.00  0.00    -0.024 C 
BRANCH  12  13
ATOM     13  C   UNL     1     137.773 138.996 134.485  1.00  0.00    -0.014 C 
ATOM     14  C   UNL     1     137.494 140.182 133.528  1.00  0.00     0.016 C 
ATOM     15  C   UNL     1     139.243 138.574 134.259  1.00  0.00     0.016 C 
BRANCH  13  16
ATOM     16  C   UNL     1     137.583 139.486 135.954  1.00  0.00     0.038 CG0
ATOM     17  G   UNL     1     136.915 138.474 136.865  1.00  0.00     0.000 G0
ENDBRANCH  13  16
ENDBRANCH  12  13
ENDBRANCH  10  11
ENDBRANCH   1  10
TORSDOF 0
ENDMDL
MODEL 5
REMARK VINA RESULT:    -3.040      4.505      5.546
REMARK INTER + INTRA:          -3.678
REMARK INTER:                  -4.507
REMARK INTRA:                   0.829
REMARK UNBOUND:                 0.606
REMARK SMILES CC1=CCCC(C)=CCC(C)(C)C=CC1
REMARK SMILES IDX 2 1 3 2 1 3 4 4 5 5 6 6 7 7 8 8 15 10 14 11 13 12 10 13
REMARK SMILES IDX 11 14 12 15 9 16
REMARK H PARENT
REMARK Flexibility Score: 60.00
ROOT
ATOM      1  C   UNL     1     140.084 137.879 135.709  1.00  0.00    -0.074 C 
ATOM      2  C   UNL     1     139.706 138.275 136.952  1.00  0.00    -0.027 C 
ATOM      3  C   UNL     1     140.003 138.868 134.573  1.00  0.00     0.039 C 
ENDROOT
BRANCH   2   4
ATOM      4  C   UNL     1     139.804 137.440 138.208  1.00  0.00     0.032 C 
BRANCH   4   5
ATOM      5  C   UNL     1     138.446 136.909 138.698  1.00  0.00     0.034 C 
BRANCH   5   6
ATOM      6  C   UNL     1     138.530 135.420 138.990  1.00  0.00    -0.077 C 
ATOM      7  C   UNL     1     139.039 135.001 140.346  1.00  0.00     0.039 C 
ATOM      8  C   UNL     1     138.248 134.443 138.093  1.00  0.00    -0.027 CG0
ATOM      9  G   UNL     1     137.702 134.626 136.690  1.00  0.00     0.000 G0
ENDBRANCH   5   6
ENDBRANCH   4   5
ENDBRANCH   2   4
BRANCH   1  10
ATOM     10  C   UNL     1     140.466 136.451 135.359  1.00  0.00     0.057 C 
BRANCH  10  11
ATOM     11  C   UNL     1     139.601 135.883 134.266  1.00  0.00    -0.026 C 
ATOM     12  C   UNL     1     138.814 134.789 134.342  1.00  0.00    -0.024 C 
BRANCH  12  13
ATOM     13  C   UNL     1     138.522 133.898 135.559  1.00  0.00    -0.014 C 
ATOM     14  C   UNL     1     139.884 133.456 136.151  1.00  0.00     0.016 C 
ATOM     15  C   UNL     1     137.786 132.612 135.121  1.00  0.00     0.016 C 
BRANCH  13  16
ATOM     16  C   UNL     1     137.705 134.620 136.676  1.00  0.00     0.038 CG0
ATOM     17  G   UNL     1     138.259 134.425 138.074  1.00  0.00     0.000 G0
ENDBRANCH  13  16
ENDBRANCH  12  13
ENDBRANCH  10  11
ENDBRANCH   1  10
TORSDOF 0
ENDMDL
MODEL 6
REMARK VINA RESULT:    -3.011      4.190      5.392
REMARK INTER + INTRA:          -3.638
REMARK INTER:                  -4.538
REMARK INTRA:                   0.900
REMARK UNBOUND:                 0.606
REMARK SMILES CC1=CCCC(C)=CCC(C)(C)C=CC1
REMARK SMILES IDX 2 1 3 2 1 3 4 4 5 5 6 6 7 7 8 8 15 10 14 11 13 12 10 13
REMARK SMILES IDX 11 14 12 15 9 16
REMARK H PARENT
REMARK Flexibility Score: 60.00
ROOT
ATOM      1  C   UNL     1     135.756 139.916 135.919  1.00  0.00    -0.074 C 
ATOM      2  C   UNL     1     136.771 140.345 135.125  1.00  0.00    -0.027 C 
ATOM      3  C   UNL     1     134.510 140.760 136.029  1.00  0.00     0.039 C 
ENDROOT
BRANCH   2   4
ATOM      4  C   UNL     1     138.046 139.584 134.839  1.00  0.00     0.032 C 
BRANCH   4   5
ATOM      5  C   UNL     1     139.146 139.819 135.889  1.00  0.00     0.034 C 
BRANCH   5   6
ATOM      6  C   UNL     1     139.530 138.511 136.560  1.00  0.00    -0.077 C 
ATOM      7  C   UNL     1     140.318 137.513 135.749  1.00  0.00     0.039 C 
ATOM      8  C   UNL     1     139.152 138.148 137.810  1.00  0.00    -0.027 CG0
ATOM      9  G   UNL     1     138.384 138.992 138.809  1.00  0.00     0.000 G0
ENDBRANCH   5   6
ENDBRANCH   4   5
ENDBRANCH   2   4
BRANCH   1  10
ATOM     10  C   UNL     1     135.846 138.692 136.814  1.00  0.00     0.057 C 
BRANCH  10  11
ATOM     11  C   UNL     1     135.277 138.948 138.184  1.00  0.00    -0.026 C 
ATOM     12  C   UNL     1     135.881 138.712 139.369  1.00  0.00    -0.024 C 
BRANCH  12  13
ATOM     13  C   UNL     1     137.310 138.217 139.637  1.00  0.00    -0.014 C 
ATOM     14  C   UNL     1     137.366 136.719 139.243  1.00  0.00     0.016 C 
ATOM     15  C   UNL     1     137.632 138.295 141.147  1.00  0.00     0.016 C 
BRANCH  13  16
ATOM     16  C   UNL     1     138.397 138.986 138.823  1.00  0.00     0.038 CG0
ATOM     17  G   UNL     1     139.135 138.131 137.812  1.00  0.00     0.000 G0
ENDBRANCH  13  16
ENDBRANCH  12  13
ENDBRANCH  10  11
ENDBRANCH   1  10
TORSDOF 0
ENDMDL
MODEL 7
REMARK VINA RESULT:    -3.003      3.168      5.389
REMARK INTER + INTRA:          -3.626
REMARK INTER:                  -4.312
REMARK INTRA:                   0.686
REMARK UNBOUND:                 0.606
REMARK SMILES CC1=CCCC(C)=CCC(C)(C)C=CC1
REMARK SMILES IDX 2 1 3 2 1 3 4 4 5 5 6 6 7 7 8 8 15 10 14 11 13 12 10 13
REMARK SMILES IDX 11 14 12 15 9 16
REMARK H PARENT
REMARK Flexibility Score: 60.00
ROOT
ATOM      1  C   UNL     1     139.094 138.842 134.893  1.00  0.00    -0.074 C 
ATOM      2  C   UNL     1     139.809 138.601 136.022  1.00  0.00    -0.027 C 
ATOM      3  C   UNL     1     139.515 138.174 133.607  1.00  0.00     0.039 C 
ENDROOT
BRANCH   2   4
ATOM      4  C   UNL     1     139.474 139.121 137.402  1.00  0.00     0.032 C 
BRANCH   4   5
ATOM      5  C   UNL     1     138.822 138.065 138.312  1.00  0.00     0.034 C 
BRANCH   5   6
ATOM      6  C   UNL     1     137.548 138.611 138.934  1.00  0.00    -0.077 C 
ATOM      7  C   UNL     1     137.650 139.237 140.302  1.00  0.00     0.039 C 
ATOM      8  C   UNL     1     136.316 138.511 138.376  1.00  0.00    -0.027 CG0
ATOM      9  G   UNL     1     135.979 137.947 137.010  1.00  0.00     0.000 G0
ENDBRANCH   5   6
ENDBRANCH   4   5
ENDBRANCH   2   4
BRANCH   1  10
ATOM     10  C   UNL     1     137.962 139.853 134.811  1.00  0.00     0.057 C 
BRANCH  10  11
ATOM     11  C   UNL     1     136.766 139.306 134.079  1.00  0.00    -0.026 C 
ATOM     12  C   UNL     1     135.605 138.883 134.625  1.00  0.00    -0.024 C 
BRANCH  12  13
ATOM     13  C   UNL     1     135.164 138.925 136.096  1.00  0.00    -0.014 C 
ATOM     14  C   UNL     1     133.665 138.537 136.145  1.00  0.00     0.016 C 
ATOM     15  C   UNL     1     135.272 140.365 136.648  1.00  0.00     0.016 C 
BRANCH  13  16
ATOM     16  C   UNL     1     135.962 137.946 137.012  1.00  0.00     0.038 CG0
ATOM     17  G   UNL     1     136.323 138.520 138.368  1.00  0.00     0.000 G0
ENDBRANCH  13  16
ENDBRANCH  12  13
ENDBRANCH  10  11
ENDBRANCH   1  10
TORSDOF 0
ENDMDL
MODEL 8
REMARK VINA RESULT:    -2.920      4.162      6.576
REMARK INTER + INTRA:          -3.509
REMARK INTER:                  -4.188
REMARK INTRA:                   0.679
REMARK UNBOUND:                 0.606
REMARK SMILES CC1=CCCC(C)=CCC(C)(C)C=CC1
REMARK SMILES IDX 2 1 3 2 1 3 4 4 5 5 6 6 7 7 8 8 15 10 14 11 13 12 10 13
REMARK SMILES IDX 11 14 12 15 9 16
REMARK H PARENT
REMARK Flexibility Score: 60.00
ROOT
ATOM      1  C   UNL     1     138.520 134.636 138.978  1.00  0.00    -0.074 C 
ATOM      2  C   UNL     1     138.134 133.335 138.927  1.00  0.00    -0.027 C 
ATOM      3  C   UNL     1     139.387 135.094 140.125  1.00  0.00     0.039 C 
ENDROOT
BRANCH   2   4
ATOM      4  C   UNL     1     137.340 132.697 137.810  1.00  0.00     0.032 C 
BRANCH   4   5
ATOM      5  C   UNL     1     138.199 132.304 136.595  1.00  0.00     0.034 C 
BRANCH   5   6
ATOM      6  C   UNL     1     137.694 132.996 135.340  1.00  0.00    -0.077 C 
ATOM      7  C   UNL     1     136.454 132.442 134.686  1.00  0.00     0.039 C 
ATOM      8  C   UNL     1     138.321 134.031 134.728  1.00  0.00    -0.027 CG0
ATOM      9  G   UNL     1     139.558 134.762 135.213  1.00  0.00     0.000 G0
ENDBRANCH   5   6
ENDBRANCH   4   5
ENDBRANCH   2   4
BRANCH   1  10
ATOM     10  C   UNL     1     138.024 135.700 138.015  1.00  0.00     0.057 C 
BRANCH  10  11
ATOM     11  C   UNL     1     139.071 136.746 137.738  1.00  0.00    -0.026 C 
ATOM     12  C   UNL     1     139.688 136.982 136.560  1.00  0.00    -0.024 C 
BRANCH  12  13
ATOM     13  C   UNL     1     139.434 136.327 135.194  1.00  0.00    -0.014 C 
ATOM     14  C   UNL     1     140.481 136.894 134.202  1.00  0.00     0.016 C 
ATOM     15  C   UNL     1     138.042 136.730 134.655  1.00  0.00     0.016 C 
BRANCH  13  16
ATOM     16  C   UNL     1     139.562 134.772 135.218  1.00  0.00     0.038 CG0
ATOM     17  G   UNL     1     138.327 134.040 134.730  1.00  0.00     0.000 G0
ENDBRANCH  13  16
ENDBRANCH  12  13
ENDBRANCH  10  11
ENDBRANCH   1  10
TORSDOF 0
ENDMDL
MODEL 9
REMARK VINA RESULT:    -2.892      2.052      4.123
REMARK INTER + INTRA:          -3.469
REMARK INTER:                  -4.404
REMARK INTRA:                   0.935
REMARK UNBOUND:                 0.606
REMARK SMILES CC1=CCCC(C)=CCC(C)(C)C=CC1
REMARK SMILES IDX 2 1 3 2 1 3 4 4 5 5 6 6 7 7 8 8 15 10 14 11 13 12 10 13
REMARK SMILES IDX 11 14 12 15 9 16
REMARK H PARENT
REMARK Flexibility Score: 60.00
ROOT
ATOM      1  C   UNL     1     136.465 140.270 135.183  1.00  0.00    -0.074 C 
ATOM      2  C   UNL     1     135.149 140.519 135.406  1.00  0.00    -0.027 C 
ATOM      3  C   UNL     1     137.121 140.861 133.960  1.00  0.00     0.039 C 
ENDROOT
BRANCH   2   4
ATOM      4  C   UNL     1     134.364 140.075 136.620  1.00  0.00     0.032 C 
BRANCH   4   5
ATOM      5  C   UNL     1     133.035 139.383 136.270  1.00  0.00     0.034 C 
BRANCH   5   6
ATOM      6  C   UNL     1     133.290 138.005 135.683  1.00  0.00    -0.077 C 
ATOM      7  C   UNL     1     132.564 137.640 134.412  1.00  0.00     0.039 C 
ATOM      8  C   UNL     1     134.068 137.056 136.259  1.00  0.00    -0.027 CG0
ATOM      9  G   UNL     1     134.906 137.205 137.514  1.00  0.00     0.000 G0
ENDBRANCH   5   6
ENDBRANCH   4   5
ENDBRANCH   2   4
BRANCH   1  10
ATOM     10  C   UNL     1     137.297 139.319 136.025  1.00  0.00     0.057 C 
BRANCH  10  11
ATOM     11  C   UNL     1     137.360 137.939 135.428  1.00  0.00    -0.026 C 
ATOM     12  C   UNL     1     136.991 136.782 136.020  1.00  0.00    -0.024 C 
BRANCH  12  13
ATOM     13  C   UNL     1     136.340 136.572 137.395  1.00  0.00    -0.014 C 
ATOM     14  C   UNL     1     137.253 137.244 138.451  1.00  0.00     0.016 C 
ATOM     15  C   UNL     1     136.287 135.067 137.742  1.00  0.00     0.016 C 
BRANCH  13  16
ATOM     16  C   UNL     1     134.911 137.191 137.507  1.00  0.00     0.038 CG0
ATOM     17  G   UNL     1     134.073 137.046 136.251  1.00  0.00     0.000 G0
ENDBRANCH  13  16
ENDBRANCH  12  13
ENDBRANCH  10  11
ENDBRANCH   1  10
TORSDOF 0
ENDMDL
