MODEL 1
REMARK VINA RESULT:    -3.803      0.000      0.000
REMARK INTER + INTRA:          -5.000
REMARK INTER:                  -4.693
REMARK INTRA:                  -0.307
REMARK UNBOUND:                -0.307
REMARK SMILES C=CC[C@@H](C)C(=O)CC
REMARK SMILES IDX 4 1 5 2 6 3 7 4 8 5 9 6 3 7 2 8 1 9
REMARK H PARENT
REMARK Flexibility Score: inf
ROOT
ATOM      1  C   UNL     1      -3.409  -3.056  11.082  1.00  0.00     0.057 C 
ATOM      2  C   UNL     1      -1.982  -3.073  11.640  1.00  0.00     0.016 C 
ENDROOT
BRANCH   1   3
ATOM      3  C   UNL     1      -3.627  -1.808  10.251  1.00  0.00     0.135 C 
ATOM      4  O   UNL     1      -3.800  -0.732  10.805  1.00  0.00    -0.299 OA
BRANCH   3   5
ATOM      5  C   UNL     1      -3.621  -1.866   8.747  1.00  0.00     0.072 C 
ATOM      6  C   UNL     1      -2.226  -1.580   8.198  1.00  0.00     0.012 C 
ENDBRANCH   3   5
ENDBRANCH   1   3
BRANCH   1   7
ATOM      7  C   UNL     1      -3.683  -4.329  10.255  1.00  0.00     0.038 C 
BRANCH   7   8
ATOM      8  C   UNL     1      -4.956  -5.016  10.675  1.00  0.00    -0.034 C 
ATOM      9  C   UNL     1      -5.876  -5.399   9.785  1.00  0.00     0.004 C 
ENDBRANCH   7   8
ENDBRANCH   1   7
TORSDOF 4
ENDMDL
MODEL 2
REMARK VINA RESULT:    -3.705      1.904      3.903
REMARK INTER + INTRA:          -4.879
REMARK INTER:                  -4.410
REMARK INTRA:                  -0.470
REMARK UNBOUND:                -0.307
REMARK SMILES C=CC[C@@H](C)C(=O)CC
REMARK SMILES IDX 4 1 5 2 6 3 7 4 8 5 9 6 3 7 2 8 1 9
REMARK H PARENT
REMARK Flexibility Score: inf
ROOT
ATOM      1  C   UNL     1      -3.244  -2.426   8.353  1.00  0.00     0.057 C 
ATOM      2  C   UNL     1      -1.916  -1.703   8.104  1.00  0.00     0.016 C 
ENDROOT
BRANCH   1   3
ATOM      3  C   UNL     1      -3.033  -3.587   9.303  1.00  0.00     0.135 C 
ATOM      4  O   UNL     1      -1.897  -3.954   9.571  1.00  0.00    -0.299 OA
BRANCH   3   5
ATOM      5  C   UNL     1      -4.200  -4.295   9.937  1.00  0.00     0.072 C 
ATOM      6  C   UNL     1      -4.093  -4.261  11.458  1.00  0.00     0.012 C 
ENDBRANCH   3   5
ENDBRANCH   1   3
BRANCH   1   7
ATOM      7  C   UNL     1      -4.301  -1.445   8.901  1.00  0.00     0.038 C 
BRANCH   7   8
ATOM      8  C   UNL     1      -3.686  -0.364   9.753  1.00  0.00    -0.034 C 
ATOM      9  C   UNL     1      -3.789  -0.373  11.084  1.00  0.00     0.004 C 
ENDBRANCH   7   8
ENDBRANCH   1   7
TORSDOF 4
ENDMDL
MODEL 3
REMARK VINA RESULT:    -3.704      1.692      3.596
REMARK INTER + INTRA:          -4.877
REMARK INTER:                  -4.639
REMARK INTRA:                  -0.238
REMARK UNBOUND:                -0.307
REMARK SMILES C=CC[C@@H](C)C(=O)CC
REMARK SMILES IDX 4 1 5 2 6 3 7 4 8 5 9 6 3 7 2 8 1 9
REMARK H PARENT
REMARK Flexibility Score: inf
ROOT
ATOM      1  C   UNL     1      -2.495  -2.852  10.766  1.00  0.00     0.057 C 
ATOM      2  C   UNL     1      -1.761  -3.359  12.011  1.00  0.00     0.016 C 
ENDROOT
BRANCH   1   3
ATOM      3  C   UNL     1      -3.284  -3.979  10.132  1.00  0.00     0.135 C 
ATOM      4  O   UNL     1      -3.092  -4.270   8.959  1.00  0.00    -0.299 OA
BRANCH   3   5
ATOM      5  C   UNL     1      -4.295  -4.763  10.926  1.00  0.00     0.072 C 
ATOM      6  C   UNL     1      -5.502  -5.120  10.065  1.00  0.00     0.012 C 
ENDBRANCH   3   5
ENDBRANCH   1   3
BRANCH   1   7
ATOM      7  C   UNL     1      -3.413  -1.665  11.124  1.00  0.00     0.038 C 
BRANCH   7   8
ATOM      8  C   UNL     1      -3.494  -0.653  10.010  1.00  0.00    -0.034 C 
ATOM      9  C   UNL     1      -4.189  -0.887   8.894  1.00  0.00     0.004 C 
ENDBRANCH   7   8
ENDBRANCH   1   7
TORSDOF 4
ENDMDL
MODEL 4
REMARK VINA RESULT:    -3.685      1.847      2.402
REMARK INTER + INTRA:          -4.854
REMARK INTER:                  -4.422
REMARK INTRA:                  -0.431
REMARK UNBOUND:                -0.307
REMARK SMILES C=CC[C@@H](C)C(=O)CC
REMARK SMILES IDX 4 1 5 2 6 3 7 4 8 5 9 6 3 7 2 8 1 9
REMARK H PARENT
REMARK Flexibility Score: inf
ROOT
ATOM      1  C   UNL     1      -2.661  -3.296   9.216  1.00  0.00     0.057 C 
ATOM      2  C   UNL     1      -1.546  -4.100   8.540  1.00  0.00     0.016 C 
ENDROOT
BRANCH   1   3
ATOM      3  C   UNL     1      -2.840  -1.964   8.515  1.00  0.00     0.135 C 
ATOM      4  O   UNL     1      -1.998  -1.583   7.714  1.00  0.00    -0.299 OA
BRANCH   3   5
ATOM      5  C   UNL     1      -4.047  -1.104   8.776  1.00  0.00     0.072 C 
ATOM      6  C   UNL     1      -3.889  -0.331  10.081  1.00  0.00     0.012 C 
ENDBRANCH   3   5
ENDBRANCH   1   3
BRANCH   1   7
ATOM      7  C   UNL     1      -3.978  -4.099   9.227  1.00  0.00     0.038 C 
BRANCH   7   8
ATOM      8  C   UNL     1      -4.289  -4.662  10.589  1.00  0.00    -0.034 C 
ATOM      9  C   UNL     1      -3.929  -4.033  11.711  1.00  0.00     0.004 C 
ENDBRANCH   7   8
ENDBRANCH   1   7
TORSDOF 4
ENDMDL
MODEL 5
REMARK VINA RESULT:    -3.671      7.679      8.819
REMARK INTER + INTRA:          -4.836
REMARK INTER:                  -4.380
REMARK INTRA:                  -0.456
REMARK UNBOUND:                -0.307
REMARK SMILES C=CC[C@@H](C)C(=O)CC
REMARK SMILES IDX 4 1 5 2 6 3 7 4 8 5 9 6 3 7 2 8 1 9
REMARK H PARENT
REMARK Flexibility Score: inf
ROOT
ATOM      1  C   UNL     1      -5.261   3.477  16.065  1.00  0.00     0.057 C 
ATOM      2  C   UNL     1      -4.946   4.817  15.392  1.00  0.00     0.016 C 
ENDROOT
BRANCH   1   3
ATOM      3  C   UNL     1      -6.751   3.357  16.312  1.00  0.00     0.135 C 
ATOM      4  O   UNL     1      -7.199   2.353  16.850  1.00  0.00    -0.299 OA
BRANCH   3   5
ATOM      5  C   UNL     1      -7.695   4.461  15.917  1.00  0.00     0.072 C 
ATOM      6  C   UNL     1      -8.566   4.034  14.739  1.00  0.00     0.012 C 
ENDBRANCH   3   5
ENDBRANCH   1   3
BRANCH   1   7
ATOM      7  C   UNL     1      -4.743   2.304  15.208  1.00  0.00     0.038 C 
BRANCH   7   8
ATOM      8  C   UNL     1      -5.194   2.406  13.773  1.00  0.00    -0.034 C 
ATOM      9  C   UNL     1      -5.554   1.330  13.070  1.00  0.00     0.004 C 
ENDBRANCH   7   8
ENDBRANCH   1   7
TORSDOF 4
ENDMDL
MODEL 6
REMARK VINA RESULT:    -3.651      1.147      2.578
REMARK INTER + INTRA:          -4.812
REMARK INTER:                  -4.349
REMARK INTRA:                  -0.463
REMARK UNBOUND:                -0.307
REMARK SMILES C=CC[C@@H](C)C(=O)CC
REMARK SMILES IDX 4 1 5 2 6 3 7 4 8 5 9 6 3 7 2 8 1 9
REMARK H PARENT
REMARK Flexibility Score: inf
ROOT
ATOM      1  C   UNL     1      -3.131  -2.392   9.140  1.00  0.00     0.057 C 
ATOM      2  C   UNL     1      -4.387  -1.569   8.834  1.00  0.00     0.016 C 
ENDROOT
BRANCH   1   3
ATOM      3  C   UNL     1      -2.616  -2.058  10.526  1.00  0.00     0.135 C 
ATOM      4  O   UNL     1      -3.296  -1.373  11.278  1.00  0.00    -0.299 OA
BRANCH   3   5
ATOM      5  C   UNL     1      -1.283  -2.568  11.004  1.00  0.00     0.072 C 
ATOM      6  C   UNL     1      -1.450  -3.460  12.230  1.00  0.00     0.012 C 
ENDBRANCH   3   5
ENDBRANCH   1   3
BRANCH   1   7
ATOM      7  C   UNL     1      -3.424  -3.900   9.005  1.00  0.00     0.038 C 
BRANCH   7   8
ATOM      8  C   UNL     1      -4.678  -4.304   9.737  1.00  0.00    -0.034 C 
ATOM      9  C   UNL     1      -4.636  -5.018  10.865  1.00  0.00     0.004 C 
ENDBRANCH   7   8
ENDBRANCH   1   7
TORSDOF 4
ENDMDL
MODEL 7
REMARK VINA RESULT:    -3.649      8.458      9.925
REMARK INTER + INTRA:          -4.809
REMARK INTER:                  -4.353
REMARK INTRA:                  -0.456
REMARK UNBOUND:                -0.307
REMARK SMILES C=CC[C@@H](C)C(=O)CC
REMARK SMILES IDX 4 1 5 2 6 3 7 4 8 5 9 6 3 7 2 8 1 9
REMARK H PARENT
REMARK Flexibility Score: inf
ROOT
ATOM      1  C   UNL     1      -7.502   4.354  16.075  1.00  0.00     0.057 C 
ATOM      2  C   UNL     1      -8.446   4.071  14.901  1.00  0.00     0.016 C 
ENDROOT
BRANCH   1   3
ATOM      3  C   UNL     1      -6.677   3.121  16.386  1.00  0.00     0.135 C 
ATOM      4  O   UNL     1      -7.171   2.207  17.032  1.00  0.00    -0.299 OA
BRANCH   3   5
ATOM      5  C   UNL     1      -5.257   2.994  15.902  1.00  0.00     0.072 C 
ATOM      6  C   UNL     1      -5.201   2.226  14.585  1.00  0.00     0.012 C 
ENDBRANCH   3   5
ENDBRANCH   1   3
BRANCH   1   7
ATOM      7  C   UNL     1      -6.597   5.564  15.765  1.00  0.00     0.038 C 
BRANCH   7   8
ATOM      8  C   UNL     1      -6.553   5.878  14.292  1.00  0.00    -0.034 C 
ATOM      9  C   UNL     1      -5.399   5.956  13.623  1.00  0.00     0.004 C 
ENDBRANCH   7   8
ENDBRANCH   1   7
TORSDOF 4
ENDMDL
MODEL 8
REMARK VINA RESULT:    -3.646      9.025     10.406
REMARK INTER + INTRA:          -4.807
REMARK INTER:                  -4.488
REMARK INTRA:                  -0.318
REMARK UNBOUND:                -0.307
REMARK SMILES C=CC[C@@H](C)C(=O)CC
REMARK SMILES IDX 4 1 5 2 6 3 7 4 8 5 9 6 3 7 2 8 1 9
REMARK H PARENT
REMARK Flexibility Score: inf
ROOT
ATOM      1  C   UNL     1      -7.564   4.307  15.470  1.00  0.00     0.057 C 
ATOM      2  C   UNL     1      -6.901   5.181  14.400  1.00  0.00     0.016 C 
ENDROOT
BRANCH   1   3
ATOM      3  C   UNL     1      -6.720   3.076  15.732  1.00  0.00     0.135 C 
ATOM      4  O   UNL     1      -6.886   2.434  16.759  1.00  0.00    -0.299 OA
BRANCH   3   5
ATOM      5  C   UNL     1      -5.685   2.618  14.739  1.00  0.00     0.072 C 
ATOM      6  C   UNL     1      -4.290   2.649  15.357  1.00  0.00     0.012 C 
ENDBRANCH   3   5
ENDBRANCH   1   3
BRANCH   1   7
ATOM      7  C   UNL     1      -7.789   5.112  16.766  1.00  0.00     0.038 C 
BRANCH   7   8
ATOM      8  C   UNL     1      -6.566   5.895  17.168  1.00  0.00    -0.034 C 
ATOM      9  C   UNL     1      -6.651   7.146  17.629  1.00  0.00     0.004 C 
ENDBRANCH   7   8
ENDBRANCH   1   7
TORSDOF 4
ENDMDL
MODEL 9
REMARK VINA RESULT:    -3.584      8.705      9.801
REMARK INTER + INTRA:          -4.729
REMARK INTER:                  -4.236
REMARK INTRA:                  -0.493
REMARK UNBOUND:                -0.307
REMARK SMILES C=CC[C@@H](C)C(=O)CC
REMARK SMILES IDX 4 1 5 2 6 3 7 4 8 5 9 6 3 7 2 8 1 9
REMARK H PARENT
REMARK Flexibility Score: inf
ROOT
ATOM      1  C   UNL     1      -7.322   4.137  15.223  1.00  0.00     0.057 C 
ATOM      2  C   UNL     1      -8.816   4.031  14.902  1.00  0.00     0.016 C 
ENDROOT
BRANCH   1   3
ATOM      3  C   UNL     1      -7.025   5.468  15.884  1.00  0.00     0.135 C 
ATOM      4  O   UNL     1      -7.466   5.703  17.000  1.00  0.00    -0.299 OA
BRANCH   3   5
ATOM      5  C   UNL     1      -6.182   6.506  15.194  1.00  0.00     0.072 C 
ATOM      6  C   UNL     1      -5.739   6.020  13.818  1.00  0.00     0.012 C 
ENDBRANCH   3   5
ENDBRANCH   1   3
BRANCH   1   7
ATOM      7  C   UNL     1      -6.874   2.961  16.116  1.00  0.00     0.038 C 
BRANCH   7   8
ATOM      8  C   UNL     1      -5.483   2.490  15.781  1.00  0.00    -0.034 C 
ATOM      9  C   UNL     1      -5.077   2.334  14.518  1.00  0.00     0.004 C 
ENDBRANCH   7   8
ENDBRANCH   1   7
TORSDOF 4
ENDMDL
