MODEL 1
REMARK VINA RESULT:    -4.381      0.000      0.000
REMARK INTER + INTRA:          -5.691
REMARK INTER:                  -5.406
REMARK INTRA:                  -0.285
REMARK UNBOUND:                -0.285
REMARK SMILES C=CCc1ccc(OC)c(OC)c1
REMARK SMILES IDX 7 1 10 2 13 3 4 4 5 5 6 6 8 7 9 8 11 9 12 10 3 11 2 12 1 13
REMARK H PARENT
REMARK Flexibility Score: inf
ROOT
ATOM      1  C   UNL     1     -33.094   1.560  20.367  1.00  0.00     0.160 A 
ATOM      2  C   UNL     1     -33.055   2.614  21.294  1.00  0.00     0.160 A 
ATOM      3  C   UNL     1     -34.186   2.886  22.087  1.00  0.00     0.054 A 
ATOM      4  C   UNL     1     -35.348   2.110  21.963  1.00  0.00    -0.040 A 
ATOM      5  C   UNL     1     -35.382   1.067  21.028  1.00  0.00     0.008 A 
ATOM      6  C   UNL     1     -34.265   0.790  20.239  1.00  0.00     0.051 A 
ENDROOT
BRANCH   1   7
ATOM      7  O   UNL     1     -31.950   1.310  19.591  1.00  0.00    -0.493 OA
ATOM      8  C   UNL     1     -30.964   0.331  19.899  1.00  0.00     0.278 C 
ENDBRANCH   1   7
BRANCH   2   9
ATOM      9  O   UNL     1     -31.875   3.368  21.395  1.00  0.00    -0.493 OA
ATOM     10  C   UNL     1     -31.816   4.719  21.842  1.00  0.00     0.278 C 
ENDBRANCH   2   9
BRANCH   4  11
ATOM     11  C   UNL     1     -36.568   2.424  22.790  1.00  0.00     0.062 C 
BRANCH  11  12
ATOM     12  C   UNL     1     -36.526   1.686  24.099  1.00  0.00    -0.030 C 
ATOM     13  C   UNL     1     -37.223   0.563  24.296  1.00  0.00     0.004 C 
ENDBRANCH  11  12
ENDBRANCH   4  11
TORSDOF 4
ENDMDL
MODEL 2
REMARK VINA RESULT:    -4.361      2.134      5.127
REMARK INTER + INTRA:          -5.665
REMARK INTER:                  -5.397
REMARK INTRA:                  -0.268
REMARK UNBOUND:                -0.285
REMARK SMILES C=CCc1ccc(OC)c(OC)c1
REMARK SMILES IDX 7 1 10 2 13 3 4 4 5 5 6 6 8 7 9 8 11 9 12 10 3 11 2 12 1 13
REMARK H PARENT
REMARK Flexibility Score: inf
ROOT
ATOM      1  C   UNL     1     -35.382   2.308  22.727  1.00  0.00     0.160 A 
ATOM      2  C   UNL     1     -34.635   2.161  21.547  1.00  0.00     0.160 A 
ATOM      3  C   UNL     1     -33.508   2.976  21.330  1.00  0.00     0.054 A 
ATOM      4  C   UNL     1     -33.122   3.930  22.285  1.00  0.00    -0.040 A 
ATOM      5  C   UNL     1     -33.879   4.077  23.455  1.00  0.00     0.008 A 
ATOM      6  C   UNL     1     -34.997   3.272  23.677  1.00  0.00     0.051 A 
ENDROOT
BRANCH   1   7
ATOM      7  O   UNL     1     -36.500   1.480  22.917  1.00  0.00    -0.493 OA
ATOM      8  C   UNL     1     -36.891   0.927  24.169  1.00  0.00     0.278 C 
ENDBRANCH   1   7
BRANCH   2   9
ATOM      9  O   UNL     1     -35.047   1.196  20.614  1.00  0.00    -0.493 OA
ATOM     10  C   UNL     1     -34.345  -0.012  20.338  1.00  0.00     0.278 C 
ENDBRANCH   2   9
BRANCH   4  11
ATOM     11  C   UNL     1     -31.934   4.822  22.036  1.00  0.00     0.062 C 
BRANCH  11  12
ATOM     12  C   UNL     1     -32.106   6.142  22.734  1.00  0.00    -0.030 C 
ATOM     13  C   UNL     1     -31.116   7.037  22.798  1.00  0.00     0.004 C 
ENDBRANCH  11  12
ENDBRANCH   4  11
TORSDOF 4
ENDMDL
MODEL 3
REMARK VINA RESULT:    -4.256     10.316     12.140
REMARK INTER + INTRA:          -5.536
REMARK INTER:                  -5.243
REMARK INTRA:                  -0.293
REMARK UNBOUND:                -0.285
REMARK SMILES C=CCc1ccc(OC)c(OC)c1
REMARK SMILES IDX 7 1 10 2 13 3 4 4 5 5 6 6 8 7 9 8 11 9 12 10 3 11 2 12 1 13
REMARK H PARENT
REMARK Flexibility Score: inf
ROOT
ATOM      1  C   UNL     1     -21.696   3.273  24.818  1.00  0.00     0.160 A 
ATOM      2  C   UNL     1     -22.338   4.408  25.338  1.00  0.00     0.160 A 
ATOM      3  C   UNL     1     -23.361   5.031  24.597  1.00  0.00     0.054 A 
ATOM      4  C   UNL     1     -23.747   4.523  23.347  1.00  0.00    -0.040 A 
ATOM      5  C   UNL     1     -23.094   3.396  22.831  1.00  0.00     0.008 A 
ATOM      6  C   UNL     1     -22.080   2.773  23.560  1.00  0.00     0.051 A 
ENDROOT
BRANCH   1   7
ATOM      7  O   UNL     1     -20.681   2.673  25.580  1.00  0.00    -0.493 OA
ATOM      8  C   UNL     1     -20.791   1.402  26.213  1.00  0.00     0.278 C 
ENDBRANCH   1   7
BRANCH   2   9
ATOM      9  O   UNL     1     -21.930   4.888  26.592  1.00  0.00    -0.493 OA
ATOM     10  C   UNL     1     -22.740   4.880  27.763  1.00  0.00     0.278 C 
ENDBRANCH   2   9
BRANCH   4  11
ATOM     11  C   UNL     1     -24.820   5.209  22.542  1.00  0.00     0.062 C 
BRANCH  11  12
ATOM     12  C   UNL     1     -24.679   4.883  21.082  1.00  0.00    -0.030 C 
ATOM     13  C   UNL     1     -25.574   5.296  20.180  1.00  0.00     0.004 C 
ENDBRANCH  11  12
ENDBRANCH   4  11
TORSDOF 4
ENDMDL
MODEL 4
REMARK VINA RESULT:    -4.223     12.028     14.391
REMARK INTER + INTRA:          -5.495
REMARK INTER:                  -5.249
REMARK INTRA:                  -0.247
REMARK UNBOUND:                -0.285
REMARK SMILES C=CCc1ccc(OC)c(OC)c1
REMARK SMILES IDX 7 1 10 2 13 3 4 4 5 5 6 6 8 7 9 8 11 9 12 10 3 11 2 12 1 13
REMARK H PARENT
REMARK Flexibility Score: inf
ROOT
ATOM      1  C   UNL     1     -28.944   8.752  32.318  1.00  0.00     0.160 A 
ATOM      2  C   UNL     1     -28.750   7.582  31.566  1.00  0.00     0.160 A 
ATOM      3  C   UNL     1     -27.881   6.582  32.044  1.00  0.00     0.054 A 
ATOM      4  C   UNL     1     -27.212   6.744  33.267  1.00  0.00    -0.040 A 
ATOM      5  C   UNL     1     -27.403   7.918  34.006  1.00  0.00     0.008 A 
ATOM      6  C   UNL     1     -28.263   8.913  33.539  1.00  0.00     0.051 A 
ENDROOT
BRANCH   1   7
ATOM      7  O   UNL     1     -29.818   9.730  31.817  1.00  0.00    -0.493 OA
ATOM      8  C   UNL     1     -30.298  10.842  32.565  1.00  0.00     0.278 C 
ENDBRANCH   1   7
BRANCH   2   9
ATOM      9  O   UNL     1     -29.437   7.451  30.349  1.00  0.00    -0.493 OA
ATOM     10  C   UNL     1     -29.040   6.592  29.285  1.00  0.00     0.278 C 
ENDBRANCH   2   9
BRANCH   4  11
ATOM     11  C   UNL     1     -26.259   5.687  33.761  1.00  0.00     0.062 C 
BRANCH  11  12
ATOM     12  C   UNL     1     -24.854   5.992  33.323  1.00  0.00    -0.030 C 
ATOM     13  C   UNL     1     -24.098   5.084  32.700  1.00  0.00     0.004 C 
ENDBRANCH  11  12
ENDBRANCH   4  11
TORSDOF 4
ENDMDL
MODEL 5
REMARK VINA RESULT:    -4.211      2.629      4.311
REMARK INTER + INTRA:          -5.480
REMARK INTER:                  -5.178
REMARK INTRA:                  -0.302
REMARK UNBOUND:                -0.285
REMARK SMILES C=CCc1ccc(OC)c(OC)c1
REMARK SMILES IDX 7 1 10 2 13 3 4 4 5 5 6 6 8 7 9 8 11 9 12 10 3 11 2 12 1 13
REMARK H PARENT
REMARK Flexibility Score: inf
ROOT
ATOM      1  C   UNL     1     -32.766   5.129  22.877  1.00  0.00     0.160 A 
ATOM      2  C   UNL     1     -33.611   4.486  23.796  1.00  0.00     0.160 A 
ATOM      3  C   UNL     1     -34.370   3.373  23.385  1.00  0.00     0.054 A 
ATOM      4  C   UNL     1     -34.283   2.898  22.067  1.00  0.00    -0.040 A 
ATOM      5  C   UNL     1     -33.446   3.552  21.154  1.00  0.00     0.008 A 
ATOM      6  C   UNL     1     -32.690   4.655  21.554  1.00  0.00     0.051 A 
ENDROOT
BRANCH   1   7
ATOM      7  O   UNL     1     -32.021   6.235  23.316  1.00  0.00    -0.493 OA
ATOM      8  C   UNL     1     -30.874   6.751  22.649  1.00  0.00     0.278 C 
ENDBRANCH   1   7
BRANCH   2   9
ATOM      9  O   UNL     1     -33.671   4.985  25.107  1.00  0.00    -0.493 OA
ATOM     10  C   UNL     1     -34.817   5.602  25.684  1.00  0.00     0.278 C 
ENDBRANCH   2   9
BRANCH   4  11
ATOM     11  C   UNL     1     -35.120   1.727  21.622  1.00  0.00     0.062 C 
BRANCH  11  12
ATOM     12  C   UNL     1     -34.552   1.113  20.373  1.00  0.00    -0.030 C 
ATOM     13  C   UNL     1     -33.947  -0.079  20.388  1.00  0.00     0.004 C 
ENDBRANCH  11  12
ENDBRANCH   4  11
TORSDOF 4
ENDMDL
MODEL 6
REMARK VINA RESULT:    -4.200     10.269     12.297
REMARK INTER + INTRA:          -5.467
REMARK INTER:                  -5.205
REMARK INTRA:                  -0.262
REMARK UNBOUND:                -0.285
REMARK SMILES C=CCc1ccc(OC)c(OC)c1
REMARK SMILES IDX 7 1 10 2 13 3 4 4 5 5 6 6 8 7 9 8 11 9 12 10 3 11 2 12 1 13
REMARK H PARENT
REMARK Flexibility Score: inf
ROOT
ATOM      1  C   UNL     1     -22.636   4.819  25.629  1.00  0.00     0.160 A 
ATOM      2  C   UNL     1     -22.118   3.705  24.949  1.00  0.00     0.160 A 
ATOM      3  C   UNL     1     -22.587   3.396  23.658  1.00  0.00     0.054 A 
ATOM      4  C   UNL     1     -23.563   4.196  23.043  1.00  0.00    -0.040 A 
ATOM      5  C   UNL     1     -24.082   5.300  23.733  1.00  0.00     0.008 A 
ATOM      6  C   UNL     1     -23.622   5.612  25.013  1.00  0.00     0.051 A 
ENDROOT
BRANCH   1   7
ATOM      7  O   UNL     1     -22.148   5.102  26.915  1.00  0.00    -0.493 OA
ATOM      8  C   UNL     1     -22.800   4.732  28.125  1.00  0.00     0.278 C 
ENDBRANCH   1   7
BRANCH   2   9
ATOM      9  O   UNL     1     -21.141   2.928  25.591  1.00  0.00    -0.493 OA
ATOM     10  C   UNL     1     -20.411   1.874  24.971  1.00  0.00     0.278 C 
ENDBRANCH   2   9
BRANCH   4  11
ATOM     11  C   UNL     1     -24.087   3.846  21.675  1.00  0.00     0.062 C 
BRANCH  11  12
ATOM     12  C   UNL     1     -24.816   5.013  21.070  1.00  0.00    -0.030 C 
ATOM     13  C   UNL     1     -25.509   4.896  19.933  1.00  0.00     0.004 C 
ENDBRANCH  11  12
ENDBRANCH   4  11
TORSDOF 4
ENDMDL
MODEL 7
REMARK VINA RESULT:    -4.177      2.205      4.832
REMARK INTER + INTRA:          -5.439
REMARK INTER:                  -5.143
REMARK INTRA:                  -0.296
REMARK UNBOUND:                -0.285
REMARK SMILES C=CCc1ccc(OC)c(OC)c1
REMARK SMILES IDX 7 1 10 2 13 3 4 4 5 5 6 6 8 7 9 8 11 9 12 10 3 11 2 12 1 13
REMARK H PARENT
REMARK Flexibility Score: inf
ROOT
ATOM      1  C   UNL     1     -33.817   3.016  21.454  1.00  0.00     0.160 A 
ATOM      2  C   UNL     1     -34.284   3.067  22.777  1.00  0.00     0.160 A 
ATOM      3  C   UNL     1     -33.856   4.103  23.629  1.00  0.00     0.054 A 
ATOM      4  C   UNL     1     -32.971   5.089  23.164  1.00  0.00    -0.040 A 
ATOM      5  C   UNL     1     -32.502   5.025  21.845  1.00  0.00     0.008 A 
ATOM      6  C   UNL     1     -32.923   4.001  20.995  1.00  0.00     0.051 A 
ENDROOT
BRANCH   1   7
ATOM      7  O   UNL     1     -34.263   1.972  20.628  1.00  0.00    -0.493 OA
ATOM      8  C   UNL     1     -33.554   1.479  19.496  1.00  0.00     0.278 C 
ENDBRANCH   1   7
BRANCH   2   9
ATOM      9  O   UNL     1     -35.170   2.067  23.209  1.00  0.00    -0.493 OA
ATOM     10  C   UNL     1     -36.583   2.223  23.296  1.00  0.00     0.278 C 
ENDBRANCH   2   9
BRANCH   4  11
ATOM     11  C   UNL     1     -32.490   6.178  24.086  1.00  0.00     0.062 C 
BRANCH  11  12
ATOM     12  C   UNL     1     -31.225   6.798  23.561  1.00  0.00    -0.030 C 
ATOM     13  C   UNL     1     -30.091   6.787  24.268  1.00  0.00     0.004 C 
ENDBRANCH  11  12
ENDBRANCH   4  11
TORSDOF 4
ENDMDL
MODEL 8
REMARK VINA RESULT:    -4.102     10.014     12.850
REMARK INTER + INTRA:          -5.347
REMARK INTER:                  -5.071
REMARK INTRA:                  -0.276
REMARK UNBOUND:                -0.285
REMARK SMILES C=CCc1ccc(OC)c(OC)c1
REMARK SMILES IDX 7 1 10 2 13 3 4 4 5 5 6 6 8 7 9 8 11 9 12 10 3 11 2 12 1 13
REMARK H PARENT
REMARK Flexibility Score: inf
ROOT
ATOM      1  C   UNL     1     -23.816   5.400  26.169  1.00  0.00     0.160 A 
ATOM      2  C   UNL     1     -23.848   4.979  24.830  1.00  0.00     0.160 A 
ATOM      3  C   UNL     1     -22.751   4.279  24.293  1.00  0.00     0.054 A 
ATOM      4  C   UNL     1     -21.628   3.995  25.086  1.00  0.00    -0.040 A 
ATOM      5  C   UNL     1     -21.600   4.428  26.418  1.00  0.00     0.008 A 
ATOM      6  C   UNL     1     -22.685   5.121  26.958  1.00  0.00     0.051 A 
ENDROOT
BRANCH   1   7
ATOM      7  O   UNL     1     -24.926   6.094  26.677  1.00  0.00    -0.493 OA
ATOM      8  C   UNL     1     -25.952   5.505  27.470  1.00  0.00     0.278 C 
ENDBRANCH   1   7
BRANCH   2   9
ATOM      9  O   UNL     1     -24.987   5.277  24.065  1.00  0.00    -0.493 OA
ATOM     10  C   UNL     1     -25.019   5.309  22.642  1.00  0.00     0.278 C 
ENDBRANCH   2   9
BRANCH   4  11
ATOM     11  C   UNL     1     -20.442   3.275  24.501  1.00  0.00     0.062 C 
BRANCH  11  12
ATOM     12  C   UNL     1     -20.384   1.856  24.995  1.00  0.00    -0.030 C 
ATOM     13  C   UNL     1     -20.501   0.817  24.164  1.00  0.00     0.004 C 
ENDBRANCH  11  12
ENDBRANCH   4  11
TORSDOF 4
ENDMDL
MODEL 9
REMARK VINA RESULT:    -4.080      3.053      5.545
REMARK INTER + INTRA:          -5.319
REMARK INTER:                  -4.959
REMARK INTRA:                  -0.360
REMARK UNBOUND:                -0.285
REMARK SMILES C=CCc1ccc(OC)c(OC)c1
REMARK SMILES IDX 7 1 10 2 13 3 4 4 5 5 6 6 8 7 9 8 11 9 12 10 3 11 2 12 1 13
REMARK H PARENT
REMARK Flexibility Score: inf
ROOT
ATOM      1  C   UNL     1     -36.530   0.816  24.041  1.00  0.00     0.160 A 
ATOM      2  C   UNL     1     -35.378   0.068  23.749  1.00  0.00     0.160 A 
ATOM      3  C   UNL     1     -34.508   0.499  22.729  1.00  0.00     0.054 A 
ATOM      4  C   UNL     1     -34.779   1.672  22.008  1.00  0.00    -0.040 A 
ATOM      5  C   UNL     1     -35.935   2.407  22.299  1.00  0.00     0.008 A 
ATOM      6  C   UNL     1     -36.802   1.987  23.309  1.00  0.00     0.051 A 
ENDROOT
BRANCH   1   7
ATOM      7  O   UNL     1     -37.379   0.363  25.064  1.00  0.00    -0.493 OA
ATOM      8  C   UNL     1     -38.634  -0.274  24.849  1.00  0.00     0.278 C 
ENDBRANCH   1   7
BRANCH   2   9
ATOM      9  O   UNL     1     -35.136  -1.099  24.491  1.00  0.00    -0.493 OA
ATOM     10  C   UNL     1     -35.450  -2.416  24.051  1.00  0.00     0.278 C 
ENDBRANCH   2   9
BRANCH   4  11
ATOM     11  C   UNL     1     -33.862   2.113  20.897  1.00  0.00     0.062 C 
BRANCH  11  12
ATOM     12  C   UNL     1     -33.595   3.590  20.984  1.00  0.00    -0.030 C 
ATOM     13  C   UNL     1     -32.496   4.072  21.572  1.00  0.00     0.004 C 
ENDBRANCH  11  12
ENDBRANCH   4  11
TORSDOF 4
ENDMDL
