MODEL 1
REMARK VINA RESULT:    -3.548      0.000      0.000
REMARK INTER + INTRA:          -5.327
REMARK INTER:                  -5.000
REMARK INTRA:                  -0.327
REMARK UNBOUND:                -0.327
REMARK SMILES CCCCCCCCC(=O)[O-]
REMARK SMILES IDX 6 1 7 2 8 3 9 4 10 5 11 6 5 7 4 8 3 9 2 10 1 11
REMARK H PARENT
REMARK Flexibility Score: inf
ROOT
ATOM      1  C   UNL     1      57.900  29.304  50.168  1.00  0.00     0.000 C 
ENDROOT
BRANCH   1   2
ATOM      2  C   UNL     1      58.972  28.832  49.174  1.00  0.00     0.006 C 
BRANCH   2   3
ATOM      3  C   UNL     1      59.309  27.345  49.345  1.00  0.00     0.053 C 
BRANCH   3   4
ATOM      4  C   UNL     1      60.775  27.128  49.563  1.00  0.00     0.041 C 
ATOM      5  O   UNL     1      61.194  26.026  50.005  1.00  0.00    -0.550 OA
ATOM      6  O   UNL     1      61.681  28.132  49.246  1.00  0.00    -0.550 OA
ENDBRANCH   3   4
ENDBRANCH   2   3
ENDBRANCH   1   2
BRANCH   1   7
ATOM      7  C   UNL     1      56.746  28.294  50.252  1.00  0.00     0.000 C 
BRANCH   7   8
ATOM      8  C   UNL     1      55.372  28.973  50.361  1.00  0.00    -0.000 C 
BRANCH   8   9
ATOM      9  C   UNL     1      54.208  27.991  50.155  1.00  0.00    -0.000 C 
BRANCH   9  10
ATOM     10  C   UNL     1      54.723  26.622  49.696  1.00  0.00    -0.003 C 
ATOM     11  C   UNL     1      53.635  25.839  48.966  1.00  0.00     0.004 C 
ENDBRANCH   9  10
ENDBRANCH   8   9
ENDBRANCH   7   8
ENDBRANCH   1   7
TORSDOF 7
ENDMDL
MODEL 2
REMARK VINA RESULT:    -3.461     12.656     13.947
REMARK INTER + INTRA:          -5.204
REMARK INTER:                  -4.827
REMARK INTRA:                  -0.377
REMARK UNBOUND:                -0.327
REMARK SMILES CCCCCCCCC(=O)[O-]
REMARK SMILES IDX 6 1 7 2 8 3 9 4 10 5 11 6 5 7 4 8 3 9 2 10 1 11
REMARK H PARENT
REMARK Flexibility Score: inf
ROOT
ATOM      1  C   UNL     1      60.784  32.133  61.082  1.00  0.00     0.000 C 
ENDROOT
BRANCH   1   2
ATOM      2  C   UNL     1      61.273  30.732  61.481  1.00  0.00     0.006 C 
BRANCH   2   3
ATOM      3  C   UNL     1      62.788  30.691  61.719  1.00  0.00     0.053 C 
BRANCH   3   4
ATOM      4  C   UNL     1      63.412  29.468  61.120  1.00  0.00     0.041 C 
ATOM      5  O   UNL     1      64.660  29.309  61.160  1.00  0.00    -0.550 OA
ATOM      6  O   UNL     1      62.611  28.487  60.548  1.00  0.00    -0.550 OA
ENDBRANCH   3   4
ENDBRANCH   2   3
ENDBRANCH   1   2
BRANCH   1   7
ATOM      7  C   UNL     1      61.960  33.023  60.653  1.00  0.00     0.000 C 
BRANCH   7   8
ATOM      8  C   UNL     1      61.522  34.454  60.301  1.00  0.00    -0.000 C 
BRANCH   8   9
ATOM      9  C   UNL     1      62.416  35.523  60.948  1.00  0.00    -0.000 C 
BRANCH   9  10
ATOM     10  C   UNL     1      63.792  34.945  61.299  1.00  0.00    -0.003 C 
ATOM     11  C   UNL     1      64.665  35.984  61.996  1.00  0.00     0.004 C 
ENDBRANCH   9  10
ENDBRANCH   8   9
ENDBRANCH   7   8
ENDBRANCH   1   7
TORSDOF 7
ENDMDL
MODEL 3
REMARK VINA RESULT:    -3.457     12.603     13.910
REMARK INTER + INTRA:          -5.198
REMARK INTER:                  -4.911
REMARK INTRA:                  -0.287
REMARK UNBOUND:                -0.327
REMARK SMILES CCCCCCCCC(=O)[O-]
REMARK SMILES IDX 6 1 7 2 8 3 9 4 10 5 11 6 5 7 4 8 3 9 2 10 1 11
REMARK H PARENT
REMARK Flexibility Score: inf
ROOT
ATOM      1  C   UNL     1      60.772  32.356  60.795  1.00  0.00     0.000 C 
ENDROOT
BRANCH   1   2
ATOM      2  C   UNL     1      60.778  31.194  61.799  1.00  0.00     0.006 C 
BRANCH   2   3
ATOM      3  C   UNL     1      62.117  30.445  61.815  1.00  0.00     0.053 C 
BRANCH   3   4
ATOM      4  C   UNL     1      61.953  29.005  61.436  1.00  0.00     0.041 C 
ATOM      5  O   UNL     1      60.831  28.571  61.065  1.00  0.00    -0.550 OA
ATOM      6  O   UNL     1      63.048  28.151  61.461  1.00  0.00    -0.550 OA
ENDBRANCH   3   4
ENDBRANCH   2   3
ENDBRANCH   1   2
BRANCH   1   7
ATOM      7  C   UNL     1      62.135  33.064  60.767  1.00  0.00     0.000 C 
BRANCH   7   8
ATOM      8  C   UNL     1      62.013  34.575  60.509  1.00  0.00    -0.000 C 
BRANCH   8   9
ATOM      9  C   UNL     1      63.156  35.378  61.149  1.00  0.00    -0.000 C 
BRANCH   9  10
ATOM     10  C   UNL     1      62.703  36.805  61.478  1.00  0.00    -0.003 C 
ATOM     11  C   UNL     1      61.318  37.092  60.904  1.00  0.00     0.004 C 
ENDBRANCH   9  10
ENDBRANCH   8   9
ENDBRANCH   7   8
ENDBRANCH   1   7
TORSDOF 7
ENDMDL
MODEL 4
REMARK VINA RESULT:    -3.455      3.607      5.640
REMARK INTER + INTRA:          -5.195
REMARK INTER:                  -4.804
REMARK INTRA:                  -0.391
REMARK UNBOUND:                -0.327
REMARK SMILES CCCCCCCCC(=O)[O-]
REMARK SMILES IDX 6 1 7 2 8 3 9 4 10 5 11 6 5 7 4 8 3 9 2 10 1 11
REMARK H PARENT
REMARK Flexibility Score: inf
ROOT
ATOM      1  C   UNL     1      55.644  28.994  50.703  1.00  0.00     0.000 C 
ENDROOT
BRANCH   1   2
ATOM      2  C   UNL     1      54.523  28.157  50.068  1.00  0.00     0.006 C 
BRANCH   2   3
ATOM      3  C   UNL     1      54.943  26.700  49.840  1.00  0.00     0.053 C 
BRANCH   3   4
ATOM      4  C   UNL     1      53.762  25.811  49.597  1.00  0.00     0.041 C 
ATOM      5  O   UNL     1      53.215  25.780  48.463  1.00  0.00    -0.550 OA
ATOM      6  O   UNL     1      53.285  24.994  50.614  1.00  0.00    -0.550 OA
ENDBRANCH   3   4
ENDBRANCH   2   3
ENDBRANCH   1   2
BRANCH   1   7
ATOM      7  C   UNL     1      57.015  28.344  50.466  1.00  0.00     0.000 C 
BRANCH   7   8
ATOM      8  C   UNL     1      58.056  29.337  49.926  1.00  0.00    -0.000 C 
BRANCH   8   9
ATOM      9  C   UNL     1      59.123  28.660  49.053  1.00  0.00    -0.000 C 
BRANCH   9  10
ATOM     10  C   UNL     1      59.213  27.161  49.362  1.00  0.00    -0.003 C 
ATOM     11  C   UNL     1      60.629  26.766  49.772  1.00  0.00     0.004 C 
ENDBRANCH   9  10
ENDBRANCH   8   9
ENDBRANCH   7   8
ENDBRANCH   1   7
TORSDOF 7
ENDMDL
MODEL 5
REMARK VINA RESULT:    -3.384     12.852     13.755
REMARK INTER + INTRA:          -5.096
REMARK INTER:                  -4.738
REMARK INTRA:                  -0.358
REMARK UNBOUND:                -0.327
REMARK SMILES CCCCCCCCC(=O)[O-]
REMARK SMILES IDX 6 1 7 2 8 3 9 4 10 5 11 6 5 7 4 8 3 9 2 10 1 11
REMARK H PARENT
REMARK Flexibility Score: inf
ROOT
ATOM      1  C   UNL     1      61.441  30.929  61.721  1.00  0.00     0.000 C 
ENDROOT
BRANCH   1   2
ATOM      2  C   UNL     1      62.955  30.706  61.584  1.00  0.00     0.006 C 
BRANCH   2   3
ATOM      3  C   UNL     1      63.308  29.229  61.364  1.00  0.00     0.053 C 
BRANCH   3   4
ATOM      4  C   UNL     1      64.740  29.053  60.963  1.00  0.00     0.041 C 
ATOM      5  O   UNL     1      65.485  30.058  60.815  1.00  0.00    -0.550 OA
ATOM      6  O   UNL     1      65.262  27.778  60.786  1.00  0.00    -0.550 OA
ENDBRANCH   3   4
ENDBRANCH   2   3
ENDBRANCH   1   2
BRANCH   1   7
ATOM      7  C   UNL     1      61.014  32.234  61.033  1.00  0.00     0.000 C 
BRANCH   7   8
ATOM      8  C   UNL     1      62.208  33.133  60.674  1.00  0.00    -0.000 C 
BRANCH   8   9
ATOM      9  C   UNL     1      61.797  34.591  60.422  1.00  0.00    -0.000 C 
BRANCH   9  10
ATOM     10  C   UNL     1      62.764  35.560  61.112  1.00  0.00    -0.003 C 
ATOM     11  C   UNL     1      64.092  34.881  61.430  1.00  0.00     0.004 C 
ENDBRANCH   9  10
ENDBRANCH   8   9
ENDBRANCH   7   8
ENDBRANCH   1   7
TORSDOF 7
ENDMDL
MODEL 6
REMARK VINA RESULT:    -3.315     12.549     14.006
REMARK INTER + INTRA:          -4.999
REMARK INTER:                  -4.657
REMARK INTRA:                  -0.341
REMARK UNBOUND:                -0.327
REMARK SMILES CCCCCCCCC(=O)[O-]
REMARK SMILES IDX 6 1 7 2 8 3 9 4 10 5 11 6 5 7 4 8 3 9 2 10 1 11
REMARK H PARENT
REMARK Flexibility Score: inf
ROOT
ATOM      1  C   UNL     1      61.416  32.483  59.481  1.00  0.00     0.000 C 
ENDROOT
BRANCH   1   2
ATOM      2  C   UNL     1      60.483  31.642  60.364  1.00  0.00     0.006 C 
BRANCH   2   3
ATOM      3  C   UNL     1      61.065  31.404  61.764  1.00  0.00     0.053 C 
BRANCH   3   4
ATOM      4  C   UNL     1      62.133  30.354  61.751  1.00  0.00     0.041 C 
ATOM      5  O   UNL     1      61.824  29.137  61.665  1.00  0.00    -0.550 OA
ATOM      6  O   UNL     1      63.472  30.722  61.801  1.00  0.00    -0.550 OA
ENDBRANCH   3   4
ENDBRANCH   2   3
ENDBRANCH   1   2
BRANCH   1   7
ATOM      7  C   UNL     1      61.213  33.984  59.741  1.00  0.00     0.000 C 
BRANCH   7   8
ATOM      8  C   UNL     1      62.424  34.635  60.429  1.00  0.00    -0.000 C 
BRANCH   8   9
ATOM      9  C   UNL     1      62.109  36.034  60.981  1.00  0.00    -0.000 C 
BRANCH   9  10
ATOM     10  C   UNL     1      63.324  36.621  61.708  1.00  0.00    -0.003 C 
ATOM     11  C   UNL     1      64.462  35.607  61.788  1.00  0.00     0.004 C 
ENDBRANCH   9  10
ENDBRANCH   8   9
ENDBRANCH   7   8
ENDBRANCH   1   7
TORSDOF 7
ENDMDL
MODEL 7
REMARK VINA RESULT:    -3.228      1.409      1.760
REMARK INTER + INTRA:          -4.876
REMARK INTER:                  -4.474
REMARK INTRA:                  -0.402
REMARK UNBOUND:                -0.327
REMARK SMILES CCCCCCCCC(=O)[O-]
REMARK SMILES IDX 6 1 7 2 8 3 9 4 10 5 11 6 5 7 4 8 3 9 2 10 1 11
REMARK H PARENT
REMARK Flexibility Score: inf
ROOT
ATOM      1  C   UNL     1      58.473  28.906  49.923  1.00  0.00     0.000 C 
ENDROOT
BRANCH   1   2
ATOM      2  C   UNL     1      58.524  27.474  49.367  1.00  0.00     0.006 C 
BRANCH   2   3
ATOM      3  C   UNL     1      59.908  26.833  49.538  1.00  0.00     0.053 C 
BRANCH   3   4
ATOM      4  C   UNL     1      59.811  25.436  50.069  1.00  0.00     0.041 C 
ATOM      5  O   UNL     1      58.727  25.014  50.548  1.00  0.00    -0.550 OA
ATOM      6  O   UNL     1      60.911  24.589  50.002  1.00  0.00    -0.550 OA
ENDBRANCH   3   4
ENDBRANCH   2   3
ENDBRANCH   1   2
BRANCH   1   7
ATOM      7  C   UNL     1      57.103  29.201  50.552  1.00  0.00     0.000 C 
BRANCH   7   8
ATOM      8  C   UNL     1      56.102  28.051  50.360  1.00  0.00    -0.000 C 
BRANCH   8   9
ATOM      9  C   UNL     1      54.657  28.545  50.194  1.00  0.00    -0.000 C 
BRANCH   9  10
ATOM     10  C   UNL     1      53.736  27.402  49.751  1.00  0.00    -0.003 C 
ATOM     11  C   UNL     1      54.540  26.168  49.353  1.00  0.00     0.004 C 
ENDBRANCH   9  10
ENDBRANCH   8   9
ENDBRANCH   7   8
ENDBRANCH   1   7
TORSDOF 7
ENDMDL
MODEL 8
REMARK VINA RESULT:    -3.216     12.980     14.154
REMARK INTER + INTRA:          -4.859
REMARK INTER:                  -4.185
REMARK INTRA:                  -0.675
REMARK UNBOUND:                -0.327
REMARK SMILES CCCCCCCCC(=O)[O-]
REMARK SMILES IDX 6 1 7 2 8 3 9 4 10 5 11 6 5 7 4 8 3 9 2 10 1 11
REMARK H PARENT
REMARK Flexibility Score: inf
ROOT
ATOM      1  C   UNL     1      61.543  33.988  60.656  1.00  0.00     0.000 C 
ENDROOT
BRANCH   1   2
ATOM      2  C   UNL     1      62.967  34.307  60.177  1.00  0.00     0.006 C 
BRANCH   2   3
ATOM      3  C   UNL     1      63.967  34.386  61.337  1.00  0.00     0.053 C 
BRANCH   3   4
ATOM      4  C   UNL     1      64.646  35.720  61.397  1.00  0.00     0.041 C 
ATOM      5  O   UNL     1      64.701  36.355  62.482  1.00  0.00    -0.550 OA
ATOM      6  O   UNL     1      65.248  36.246  60.260  1.00  0.00    -0.550 OA
ENDBRANCH   3   4
ENDBRANCH   2   3
ENDBRANCH   1   2
BRANCH   1   7
ATOM      7  C   UNL     1      61.117  32.581  60.213  1.00  0.00     0.000 C 
BRANCH   7   8
ATOM      8  C   UNL     1      60.674  31.697  61.390  1.00  0.00    -0.000 C 
BRANCH   8   9
ATOM      9  C   UNL     1      61.783  30.748  61.868  1.00  0.00    -0.000 C 
BRANCH   9  10
ATOM     10  C   UNL     1      62.688  30.332  60.702  1.00  0.00    -0.003 C 
ATOM     11  C   UNL     1      64.155  30.605  61.018  1.00  0.00     0.004 C 
ENDBRANCH   9  10
ENDBRANCH   8   9
ENDBRANCH   7   8
ENDBRANCH   1   7
TORSDOF 7
ENDMDL
MODEL 9
REMARK VINA RESULT:    -3.140      1.694      2.976
REMARK INTER + INTRA:          -4.752
REMARK INTER:                  -4.155
REMARK INTRA:                  -0.597
REMARK UNBOUND:                -0.327
REMARK SMILES CCCCCCCCC(=O)[O-]
REMARK SMILES IDX 6 1 7 2 8 3 9 4 10 5 11 6 5 7 4 8 3 9 2 10 1 11
REMARK H PARENT
REMARK Flexibility Score: inf
ROOT
ATOM      1  C   UNL     1      55.695  26.312  49.739  1.00  0.00     0.000 C 
ENDROOT
BRANCH   1   2
ATOM      2  C   UNL     1      57.183  26.436  50.100  1.00  0.00     0.006 C 
BRANCH   2   3
ATOM      3  C   UNL     1      57.597  27.889  50.365  1.00  0.00     0.053 C 
BRANCH   3   4
ATOM      4  C   UNL     1      58.699  28.329  49.450  1.00  0.00     0.041 C 
ATOM      5  O   UNL     1      59.661  27.556  49.199  1.00  0.00    -0.550 OA
ATOM      6  O   UNL     1      58.646  29.580  48.849  1.00  0.00    -0.550 OA
ENDBRANCH   3   4
ENDBRANCH   2   3
ENDBRANCH   1   2
BRANCH   1   7
ATOM      7  C   UNL     1      54.838  26.121  51.000  1.00  0.00     0.000 C 
BRANCH   7   8
ATOM      8  C   UNL     1      53.558  26.972  50.981  1.00  0.00    -0.000 C 
BRANCH   8   9
ATOM      9  C   UNL     1      53.414  27.796  49.692  1.00  0.00    -0.000 C 
BRANCH   9  10
ATOM     10  C   UNL     1      53.255  29.287  50.011  1.00  0.00    -0.003 C 
ATOM     11  C   UNL     1      54.342  29.765  50.970  1.00  0.00     0.004 C 
ENDBRANCH   9  10
ENDBRANCH   8   9
ENDBRANCH   7   8
ENDBRANCH   1   7
TORSDOF 7
ENDMDL
