MODEL 1
REMARK VINA RESULT:    -8.165      0.000      0.000
REMARK INTER + INTRA:         -10.147
REMARK INTER:                  -9.836
REMARK INTRA:                  -0.311
REMARK UNBOUND:                -0.311
REMARK SMILES Oc1cc(O)c2cc(O)c(-c3ccc(O)c(O)c3)[o+]c2c1
REMARK SMILES IDX 10 1 19 2 20 3 21 4 2 5 3 6 4 7 6 8 7 9 8 10 11 11 12 12
REMARK SMILES IDX 13 13 14 14 18 15 16 16 15 17 17 19 9 21 1 23 5 25
REMARK H PARENT 15 18 17 20 9 22 1 24 5 26
REMARK Flexibility Score: inf
ROOT
ATOM      1  C   UNL     1     -32.747   7.055   2.356  1.00  0.00     0.402 A 
ATOM      2  O   UNL     1     -31.966   6.939   1.286  1.00  0.00    -0.202 OA
ATOM      3  C   UNL     1     -30.705   7.359   1.254  1.00  0.00     0.368 A 
ATOM      4  C   UNL     1     -29.962   7.190   0.083  1.00  0.00     0.162 A 
ATOM      5  C   UNL     1     -28.635   7.619   0.021  1.00  0.00     0.128 A 
ATOM      6  C   UNL     1     -28.046   8.221   1.138  1.00  0.00     0.093 A 
ATOM      7  C   UNL     1     -28.769   8.401   2.324  1.00  0.00     0.136 A 
ATOM      8  C   UNL     1     -30.119   7.970   2.389  1.00  0.00     0.125 A 
ATOM      9  C   UNL     1     -30.924   8.121   3.529  1.00  0.00     0.078 A 
ATOM     10  C   UNL     1     -32.249   7.674   3.517  1.00  0.00     0.223 A 
ENDROOT
BRANCH   1  11
ATOM     11  C   UNL     1     -34.133   6.539   2.270  1.00  0.00     0.087 A 
ATOM     12  C   UNL     1     -35.225   7.401   2.074  1.00  0.00     0.022 A 
ATOM     13  C   UNL     1     -36.525   6.892   2.020  1.00  0.00     0.051 A 
ATOM     14  C   UNL     1     -36.756   5.519   2.174  1.00  0.00     0.157 A 
ATOM     15  C   UNL     1     -34.369   5.165   2.445  1.00  0.00     0.068 A 
ATOM     16  C   UNL     1     -35.671   4.652   2.391  1.00  0.00     0.158 A 
BRANCH  14  17
ATOM     17  O   UNL     1     -38.054   5.014   2.119  1.00  0.00    -0.504 OA
ATOM     18  H   UNL     1     -38.685   5.257   1.364  1.00  0.00     0.293 HD
ENDBRANCH  14  17
BRANCH  16  19
ATOM     19  O   UNL     1     -35.866   3.281   2.555  1.00  0.00    -0.504 OA
ATOM     20  H   UNL     1     -35.475   2.772   3.339  1.00  0.00     0.293 HD
ENDBRANCH  16  19
ENDBRANCH   1  11
BRANCH  10  21
ATOM     21  O   UNL     1     -33.064   7.869   4.632  1.00  0.00    -0.500 OA
ATOM     22  H   UNL     1     -32.678   8.109   5.538  1.00  0.00     0.294 HD
ENDBRANCH  10  21
BRANCH   5  23
ATOM     23  O   UNL     1     -27.910   7.442  -1.155  1.00  0.00    -0.507 OA
ATOM     24  H   UNL     1     -28.367   7.393  -2.058  1.00  0.00     0.293 HD
ENDBRANCH   5  23
BRANCH   7  25
ATOM     25  O   UNL     1     -28.107   9.007   3.396  1.00  0.00    -0.507 OA
ATOM     26  H   UNL     1     -27.464   8.532   4.011  1.00  0.00     0.293 HD
ENDBRANCH   7  25
TORSDOF 6
ENDMDL
MODEL 2
REMARK VINA RESULT:    -7.961      1.915      6.992
REMARK INTER + INTRA:          -9.901
REMARK INTER:                  -9.627
REMARK INTRA:                  -0.274
REMARK UNBOUND:                -0.311
REMARK SMILES Oc1cc(O)c2cc(O)c(-c3ccc(O)c(O)c3)[o+]c2c1
REMARK SMILES IDX 10 1 19 2 20 3 21 4 2 5 3 6 4 7 6 8 7 9 8 10 11 11 12 12
REMARK SMILES IDX 13 13 14 14 18 15 16 16 15 17 17 19 9 21 1 23 5 25
REMARK H PARENT 15 18 17 20 9 22 1 24 5 26
REMARK Flexibility Score: inf
ROOT
ATOM      1  C   UNL     1     -30.077   7.632   2.049  1.00  0.00     0.402 A 
ATOM      2  O   UNL     1     -30.913   7.235   1.093  1.00  0.00    -0.202 OA
ATOM      3  C   UNL     1     -32.191   6.945   1.315  1.00  0.00     0.368 A 
ATOM      4  C   UNL     1     -32.991   6.540   0.243  1.00  0.00     0.162 A 
ATOM      5  C   UNL     1     -34.337   6.231   0.445  1.00  0.00     0.128 A 
ATOM      6  C   UNL     1     -34.888   6.330   1.728  1.00  0.00     0.093 A 
ATOM      7  C   UNL     1     -34.108   6.735   2.818  1.00  0.00     0.136 A 
ATOM      8  C   UNL     1     -32.738   7.046   2.616  1.00  0.00     0.125 A 
ATOM      9  C   UNL     1     -31.877   7.448   3.650  1.00  0.00     0.078 A 
ATOM     10  C   UNL     1     -30.537   7.733   3.375  1.00  0.00     0.223 A 
ENDROOT
BRANCH   1  11
ATOM     11  C   UNL     1     -28.677   7.937   1.674  1.00  0.00     0.087 A 
ATOM     12  C   UNL     1     -28.183   9.252   1.692  1.00  0.00     0.022 A 
ATOM     13  C   UNL     1     -26.865   9.517   1.312  1.00  0.00     0.051 A 
ATOM     14  C   UNL     1     -26.025   8.476   0.896  1.00  0.00     0.157 A 
ATOM     15  C   UNL     1     -27.838   6.898   1.237  1.00  0.00     0.068 A 
ATOM     16  C   UNL     1     -26.517   7.160   0.855  1.00  0.00     0.158 A 
BRANCH  14  17
ATOM     17  O   UNL     1     -24.710   8.742   0.518  1.00  0.00    -0.504 OA
ATOM     18  H   UNL     1     -23.951   8.117   0.762  1.00  0.00     0.293 HD
ENDBRANCH  14  17
BRANCH  16  19
ATOM     19  O   UNL     1     -25.710   6.102   0.439  1.00  0.00    -0.504 OA
ATOM     20  H   UNL     1     -26.070   5.162   0.328  1.00  0.00     0.293 HD
ENDBRANCH  16  19
ENDBRANCH   1  11
BRANCH  10  21
ATOM     21  O   UNL     1     -29.669   8.084   4.411  1.00  0.00    -0.500 OA
ATOM     22  H   UNL     1     -29.717   7.637   5.319  1.00  0.00     0.294 HD
ENDBRANCH  10  21
BRANCH   5  23
ATOM     23  O   UNL     1     -35.119   5.827  -0.634  1.00  0.00    -0.507 OA
ATOM     24  H   UNL     1     -35.996   5.339  -0.501  1.00  0.00     0.293 HD
ENDBRANCH   5  23
BRANCH   7  25
ATOM     25  O   UNL     1     -34.734   6.812   4.065  1.00  0.00    -0.507 OA
ATOM     26  H   UNL     1     -34.436   6.304   4.885  1.00  0.00     0.293 HD
ENDBRANCH   7  25
TORSDOF 6
ENDMDL
MODEL 3
REMARK VINA RESULT:    -7.847      1.583      2.652
REMARK INTER + INTRA:          -9.763
REMARK INTER:                  -9.692
REMARK INTRA:                  -0.071
REMARK UNBOUND:                -0.311
REMARK SMILES Oc1cc(O)c2cc(O)c(-c3ccc(O)c(O)c3)[o+]c2c1
REMARK SMILES IDX 10 1 19 2 20 3 21 4 2 5 3 6 4 7 6 8 7 9 8 10 11 11 12 12
REMARK SMILES IDX 13 13 14 14 18 15 16 16 15 17 17 19 9 21 1 23 5 25
REMARK H PARENT 15 18 17 20 9 22 1 24 5 26
REMARK Flexibility Score: inf
ROOT
ATOM      1  C   UNL     1     -32.516   5.643   1.390  1.00  0.00     0.402 A 
ATOM      2  O   UNL     1     -31.912   6.758   1.793  1.00  0.00    -0.202 OA
ATOM      3  C   UNL     1     -30.604   6.962   1.676  1.00  0.00     0.368 A 
ATOM      4  C   UNL     1     -30.062   8.169   2.126  1.00  0.00     0.162 A 
ATOM      5  C   UNL     1     -28.692   8.413   2.014  1.00  0.00     0.128 A 
ATOM      6  C   UNL     1     -27.858   7.444   1.446  1.00  0.00     0.093 A 
ATOM      7  C   UNL     1     -28.376   6.227   0.987  1.00  0.00     0.136 A 
ATOM      8  C   UNL     1     -29.768   5.974   1.103  1.00  0.00     0.125 A 
ATOM      9  C   UNL     1     -30.374   4.780   0.682  1.00  0.00     0.078 A 
ATOM     10  C   UNL     1     -31.752   4.602   0.833  1.00  0.00     0.223 A 
ENDROOT
BRANCH   1  11
ATOM     11  C   UNL     1     -33.983   5.539   1.566  1.00  0.00     0.087 A 
ATOM     12  C   UNL     1     -34.854   6.515   1.051  1.00  0.00     0.022 A 
ATOM     13  C   UNL     1     -36.232   6.406   1.250  1.00  0.00     0.051 A 
ATOM     14  C   UNL     1     -36.761   5.330   1.976  1.00  0.00     0.157 A 
ATOM     15  C   UNL     1     -34.515   4.473   2.311  1.00  0.00     0.068 A 
ATOM     16  C   UNL     1     -35.896   4.362   2.511  1.00  0.00     0.158 A 
BRANCH  14  17
ATOM     17  O   UNL     1     -38.137   5.224   2.171  1.00  0.00    -0.504 OA
ATOM     18  H   UNL     1     -38.755   6.016   2.032  1.00  0.00     0.293 HD
ENDBRANCH  14  17
BRANCH  16  19
ATOM     19  O   UNL     1     -36.389   3.282   3.244  1.00  0.00    -0.504 OA
ATOM     20  H   UNL     1     -36.061   2.336   3.094  1.00  0.00     0.293 HD
ENDBRANCH  16  19
ENDBRANCH   1  11
BRANCH  10  21
ATOM     21  O   UNL     1     -32.347   3.395   0.461  1.00  0.00    -0.500 OA
ATOM     22  H   UNL     1     -32.847   3.296  -0.414  1.00  0.00     0.294 HD
ENDBRANCH  10  21
BRANCH   5  23
ATOM     23  O   UNL     1     -28.170   9.621   2.469  1.00  0.00    -0.507 OA
ATOM     24  H   UNL     1     -28.767  10.413   2.675  1.00  0.00     0.293 HD
ENDBRANCH   5  23
BRANCH   7  25
ATOM     25  O   UNL     1     -27.477   5.313   0.429  1.00  0.00    -0.507 OA
ATOM     26  H   UNL     1     -27.596   4.311   0.451  1.00  0.00     0.293 HD
ENDBRANCH   7  25
TORSDOF 6
ENDMDL
MODEL 4
REMARK VINA RESULT:    -7.779      1.508      7.188
REMARK INTER + INTRA:          -9.682
REMARK INTER:                  -9.422
REMARK INTRA:                  -0.261
REMARK UNBOUND:                -0.311
REMARK SMILES Oc1cc(O)c2cc(O)c(-c3ccc(O)c(O)c3)[o+]c2c1
REMARK SMILES IDX 10 1 19 2 20 3 21 4 2 5 3 6 4 7 6 8 7 9 8 10 11 11 12 12
REMARK SMILES IDX 13 13 14 14 18 15 16 16 15 17 17 19 9 21 1 23 5 25
REMARK H PARENT 15 18 17 20 9 22 1 24 5 26
REMARK Flexibility Score: inf
ROOT
ATOM      1  C   UNL     1     -31.145   6.638   1.492  1.00  0.00     0.402 A 
ATOM      2  O   UNL     1     -32.287   7.291   1.686  1.00  0.00    -0.202 OA
ATOM      3  C   UNL     1     -33.453   6.682   1.875  1.00  0.00     0.368 A 
ATOM      4  C   UNL     1     -34.600   7.455   2.075  1.00  0.00     0.162 A 
ATOM      5  C   UNL     1     -35.838   6.843   2.278  1.00  0.00     0.128 A 
ATOM      6  C   UNL     1     -35.930   5.447   2.284  1.00  0.00     0.093 A 
ATOM      7  C   UNL     1     -34.797   4.649   2.087  1.00  0.00     0.136 A 
ATOM      8  C   UNL     1     -33.537   5.268   1.876  1.00  0.00     0.125 A 
ATOM      9  C   UNL     1     -32.350   4.551   1.657  1.00  0.00     0.078 A 
ATOM     10  C   UNL     1     -31.147   5.232   1.453  1.00  0.00     0.223 A 
ENDROOT
BRANCH   1  11
ATOM     11  C   UNL     1     -29.908   7.431   1.303  1.00  0.00     0.087 A 
ATOM     12  C   UNL     1     -29.281   7.523   0.049  1.00  0.00     0.022 A 
ATOM     13  C   UNL     1     -28.102   8.258  -0.099  1.00  0.00     0.051 A 
ATOM     14  C   UNL     1     -27.525   8.900   1.004  1.00  0.00     0.157 A 
ATOM     15  C   UNL     1     -29.315   8.059   2.411  1.00  0.00     0.068 A 
ATOM     16  C   UNL     1     -28.134   8.796   2.266  1.00  0.00     0.158 A 
BRANCH  14  17
ATOM     17  O   UNL     1     -26.349   9.634   0.854  1.00  0.00    -0.504 OA
ATOM     18  H   UNL     1     -26.028  10.274   1.571  1.00  0.00     0.293 HD
ENDBRANCH  14  17
BRANCH  16  19
ATOM     19  O   UNL     1     -27.581   9.417   3.386  1.00  0.00    -0.504 OA
ATOM     20  H   UNL     1     -26.582   9.447   3.546  1.00  0.00     0.293 HD
ENDBRANCH  16  19
ENDBRANCH   1  11
BRANCH  10  21
ATOM     21  O   UNL     1     -29.976   4.520   1.185  1.00  0.00    -0.500 OA
ATOM     22  H   UNL     1     -29.403   4.140   1.929  1.00  0.00     0.294 HD
ENDBRANCH  10  21
BRANCH   5  23
ATOM     23  O   UNL     1     -36.969   7.631   2.475  1.00  0.00    -0.507 OA
ATOM     24  H   UNL     1     -37.050   8.554   2.068  1.00  0.00     0.293 HD
ENDBRANCH   5  23
BRANCH   7  25
ATOM     25  O   UNL     1     -34.972   3.262   2.109  1.00  0.00    -0.507 OA
ATOM     26  H   UNL     1     -35.751   2.794   2.548  1.00  0.00     0.293 HD
ENDBRANCH   7  25
TORSDOF 6
ENDMDL
MODEL 5
REMARK VINA RESULT:    -7.653      1.965      3.050
REMARK INTER + INTRA:          -9.530
REMARK INTER:                  -9.201
REMARK INTRA:                  -0.329
REMARK UNBOUND:                -0.311
REMARK SMILES Oc1cc(O)c2cc(O)c(-c3ccc(O)c(O)c3)[o+]c2c1
REMARK SMILES IDX 10 1 19 2 20 3 21 4 2 5 3 6 4 7 6 8 7 9 8 10 11 11 12 12
REMARK SMILES IDX 13 13 14 14 18 15 16 16 15 17 17 19 9 21 1 23 5 25
REMARK H PARENT 15 18 17 20 9 22 1 24 5 26
REMARK Flexibility Score: inf
ROOT
ATOM      1  C   UNL     1     -31.087   6.259   1.101  1.00  0.00     0.402 A 
ATOM      2  O   UNL     1     -30.518   7.453   1.240  1.00  0.00    -0.202 OA
ATOM      3  C   UNL     1     -29.206   7.650   1.161  1.00  0.00     0.368 A 
ATOM      4  C   UNL     1     -28.703   8.944   1.317  1.00  0.00     0.162 A 
ATOM      5  C   UNL     1     -27.330   9.181   1.238  1.00  0.00     0.128 A 
ATOM      6  C   UNL     1     -26.453   8.117   0.998  1.00  0.00     0.093 A 
ATOM      7  C   UNL     1     -26.932   6.812   0.837  1.00  0.00     0.136 A 
ATOM      8  C   UNL     1     -28.327   6.566   0.921  1.00  0.00     0.125 A 
ATOM      9  C   UNL     1     -28.897   5.290   0.786  1.00  0.00     0.078 A 
ATOM     10  C   UNL     1     -30.281   5.126   0.885  1.00  0.00     0.223 A 
ENDROOT
BRANCH   1  11
ATOM     11  C   UNL     1     -32.562   6.170   1.199  1.00  0.00     0.087 A 
ATOM     12  C   UNL     1     -33.367   6.051   0.052  1.00  0.00     0.022 A 
ATOM     13  C   UNL     1     -34.758   5.993   0.169  1.00  0.00     0.051 A 
ATOM     14  C   UNL     1     -35.367   6.065   1.429  1.00  0.00     0.157 A 
ATOM     15  C   UNL     1     -33.178   6.263   2.458  1.00  0.00     0.068 A 
ATOM     16  C   UNL     1     -34.572   6.204   2.578  1.00  0.00     0.158 A 
BRANCH  14  17
ATOM     17  O   UNL     1     -36.755   6.005   1.542  1.00  0.00    -0.504 OA
ATOM     18  H   UNL     1     -37.225   6.214   2.415  1.00  0.00     0.293 HD
ENDBRANCH  14  17
BRANCH  16  19
ATOM     19  O   UNL     1     -35.146   6.286   3.846  1.00  0.00    -0.504 OA
ATOM     20  H   UNL     1     -35.021   7.095   4.442  1.00  0.00     0.293 HD
ENDBRANCH  16  19
ENDBRANCH   1  11
BRANCH  10  21
ATOM     21  O   UNL     1     -30.843   3.851   0.801  1.00  0.00    -0.500 OA
ATOM     22  H   UNL     1     -30.559   3.102   1.422  1.00  0.00     0.294 HD
ENDBRANCH  10  21
BRANCH   5  23
ATOM     23  O   UNL     1     -26.846  10.478   1.397  1.00  0.00    -0.507 OA
ATOM     24  H   UNL     1     -25.896  10.656   1.698  1.00  0.00     0.293 HD
ENDBRANCH   5  23
BRANCH   7  25
ATOM     25  O   UNL     1     -25.992   5.805   0.597  1.00  0.00    -0.507 OA
ATOM     26  H   UNL     1     -26.047   4.872   0.976  1.00  0.00     0.293 HD
ENDBRANCH   7  25
TORSDOF 6
ENDMDL
MODEL 6
REMARK VINA RESULT:    -7.479      1.553      7.092
REMARK INTER + INTRA:          -9.321
REMARK INTER:                  -9.359
REMARK INTRA:                   0.039
REMARK UNBOUND:                -0.311
REMARK SMILES Oc1cc(O)c2cc(O)c(-c3ccc(O)c(O)c3)[o+]c2c1
REMARK SMILES IDX 10 1 19 2 20 3 21 4 2 5 3 6 4 7 6 8 7 9 8 10 11 11 12 12
REMARK SMILES IDX 13 13 14 14 18 15 16 16 15 17 17 19 9 21 1 23 5 25
REMARK H PARENT 15 18 17 20 9 22 1 24 5 26
REMARK Flexibility Score: inf
ROOT
ATOM      1  C   UNL     1     -32.007   6.728   1.585  1.00  0.00     0.402 A 
ATOM      2  O   UNL     1     -32.473   5.530   1.926  1.00  0.00    -0.202 OA
ATOM      3  C   UNL     1     -33.769   5.253   2.028  1.00  0.00     0.368 A 
ATOM      4  C   UNL     1     -34.161   3.962   2.390  1.00  0.00     0.162 A 
ATOM      5  C   UNL     1     -35.515   3.641   2.503  1.00  0.00     0.128 A 
ATOM      6  C   UNL     1     -36.485   4.618   2.250  1.00  0.00     0.093 A 
ATOM      7  C   UNL     1     -36.118   5.919   1.885  1.00  0.00     0.136 A 
ATOM      8  C   UNL     1     -34.742   6.249   1.773  1.00  0.00     0.125 A 
ATOM      9  C   UNL     1     -34.281   7.529   1.425  1.00  0.00     0.078 A 
ATOM     10  C   UNL     1     -32.908   7.780   1.339  1.00  0.00     0.223 A 
ENDROOT
BRANCH   1  11
ATOM     11  C   UNL     1     -30.540   6.910   1.495  1.00  0.00     0.087 A 
ATOM     12  C   UNL     1     -29.726   5.979   0.826  1.00  0.00     0.022 A 
ATOM     13  C   UNL     1     -28.342   6.160   0.775  1.00  0.00     0.051 A 
ATOM     14  C   UNL     1     -27.748   7.264   1.401  1.00  0.00     0.157 A 
ATOM     15  C   UNL     1     -29.939   8.004   2.139  1.00  0.00     0.068 A 
ATOM     16  C   UNL     1     -28.551   8.188   2.089  1.00  0.00     0.158 A 
BRANCH  14  17
ATOM     17  O   UNL     1     -26.366   7.442   1.347  1.00  0.00    -0.504 OA
ATOM     18  H   UNL     1     -25.935   8.323   1.603  1.00  0.00     0.293 HD
ENDBRANCH  14  17
BRANCH  16  19
ATOM     19  O   UNL     1     -27.992   9.294   2.729  1.00  0.00    -0.504 OA
ATOM     20  H   UNL     1     -27.116   9.236   3.234  1.00  0.00     0.293 HD
ENDBRANCH  16  19
ENDBRANCH   1  11
BRANCH  10  21
ATOM     21  O   UNL     1     -32.449   9.065   1.043  1.00  0.00    -0.500 OA
ATOM     22  H   UNL     1     -33.088   9.832   0.873  1.00  0.00     0.294 HD
ENDBRANCH  10  21
BRANCH   5  23
ATOM     23  O   UNL     1     -35.887   2.349   2.866  1.00  0.00    -0.507 OA
ATOM     24  H   UNL     1     -35.319   1.790   3.491  1.00  0.00     0.293 HD
ENDBRANCH   5  23
BRANCH   7  25
ATOM     25  O   UNL     1     -37.146   6.835   1.646  1.00  0.00    -0.507 OA
ATOM     26  H   UNL     1     -37.240   7.722   2.117  1.00  0.00     0.293 HD
ENDBRANCH   7  25
TORSDOF 6
ENDMDL
MODEL 7
REMARK VINA RESULT:    -7.391      1.953      2.781
REMARK INTER + INTRA:          -9.214
REMARK INTER:                  -8.861
REMARK INTRA:                  -0.353
REMARK UNBOUND:                -0.311
REMARK SMILES Oc1cc(O)c2cc(O)c(-c3ccc(O)c(O)c3)[o+]c2c1
REMARK SMILES IDX 10 1 19 2 20 3 21 4 2 5 3 6 4 7 6 8 7 9 8 10 11 11 12 12
REMARK SMILES IDX 13 13 14 14 18 15 16 16 15 17 17 19 9 21 1 23 5 25
REMARK H PARENT 15 18 17 20 9 22 1 24 5 26
REMARK Flexibility Score: inf
ROOT
ATOM      1  C   UNL     1     -30.616   7.085   1.576  1.00  0.00     0.402 A 
ATOM      2  O   UNL     1     -29.578   6.414   1.084  1.00  0.00    -0.202 OA
ATOM      3  C   UNL     1     -28.360   6.933   0.970  1.00  0.00     0.368 A 
ATOM      4  C   UNL     1     -27.333   6.146   0.443  1.00  0.00     0.162 A 
ATOM      5  C   UNL     1     -26.043   6.664   0.314  1.00  0.00     0.128 A 
ATOM      6  C   UNL     1     -25.777   7.977   0.717  1.00  0.00     0.093 A 
ATOM      7  C   UNL     1     -26.789   8.786   1.248  1.00  0.00     0.136 A 
ATOM      8  C   UNL     1     -28.102   8.264   1.378  1.00  0.00     0.125 A 
ATOM      9  C   UNL     1     -29.181   9.004   1.887  1.00  0.00     0.078 A 
ATOM     10  C   UNL     1     -30.449   8.423   1.980  1.00  0.00     0.223 A 
ENDROOT
BRANCH   1  11
ATOM     11  C   UNL     1     -31.922   6.393   1.662  1.00  0.00     0.087 A 
ATOM     12  C   UNL     1     -32.338   5.755   2.844  1.00  0.00     0.022 A 
ATOM     13  C   UNL     1     -33.564   5.089   2.892  1.00  0.00     0.051 A 
ATOM     14  C   UNL     1     -34.388   5.036   1.760  1.00  0.00     0.157 A 
ATOM     15  C   UNL     1     -32.741   6.320   0.523  1.00  0.00     0.068 A 
ATOM     16  C   UNL     1     -33.971   5.653   0.568  1.00  0.00     0.158 A 
BRANCH  14  17
ATOM     17  O   UNL     1     -35.612   4.371   1.812  1.00  0.00    -0.504 OA
ATOM     18  H   UNL     1     -36.399   4.664   1.244  1.00  0.00     0.293 HD
ENDBRANCH  14  17
BRANCH  16  19
ATOM     19  O   UNL     1     -34.763   5.614  -0.579  1.00  0.00    -0.504 OA
ATOM     20  H   UNL     1     -35.087   6.456  -1.038  1.00  0.00     0.293 HD
ENDBRANCH  16  19
ENDBRANCH   1  11
BRANCH  10  21
ATOM     21  O   UNL     1     -31.532   9.174   2.439  1.00  0.00    -0.500 OA
ATOM     22  H   UNL     1     -32.481   8.975   2.145  1.00  0.00     0.294 HD
ENDBRANCH  10  21
BRANCH   5  23
ATOM     23  O   UNL     1     -25.032   5.865  -0.214  1.00  0.00    -0.507 OA
ATOM     24  H   UNL     1     -24.826   4.949   0.167  1.00  0.00     0.293 HD
ENDBRANCH   5  23
BRANCH   7  25
ATOM     25  O   UNL     1     -26.442  10.085   1.630  1.00  0.00    -0.507 OA
ATOM     26  H   UNL     1     -26.121  10.342   2.552  1.00  0.00     0.293 HD
ENDBRANCH   7  25
TORSDOF 6
ENDMDL
MODEL 8
REMARK VINA RESULT:    -7.339      2.123      7.658
REMARK INTER + INTRA:          -9.152
REMARK INTER:                  -9.125
REMARK INTRA:                  -0.026
REMARK UNBOUND:                -0.311
REMARK SMILES Oc1cc(O)c2cc(O)c(-c3ccc(O)c(O)c3)[o+]c2c1
REMARK SMILES IDX 10 1 19 2 20 3 21 4 2 5 3 6 4 7 6 8 7 9 8 10 11 11 12 12
REMARK SMILES IDX 13 13 14 14 18 15 16 16 15 17 17 19 9 21 1 23 5 25
REMARK H PARENT 15 18 17 20 9 22 1 24 5 26
REMARK Flexibility Score: inf
ROOT
ATOM      1  C   UNL     1     -29.343   7.104   1.316  1.00  0.00     0.402 A 
ATOM      2  O   UNL     1     -30.455   7.729   1.692  1.00  0.00    -0.202 OA
ATOM      3  C   UNL     1     -31.633   7.122   1.798  1.00  0.00     0.368 A 
ATOM      4  C   UNL     1     -32.745   7.864   2.205  1.00  0.00     0.162 A 
ATOM      5  C   UNL     1     -33.994   7.253   2.328  1.00  0.00     0.128 A 
ATOM      6  C   UNL     1     -34.133   5.889   2.044  1.00  0.00     0.093 A 
ATOM      7  C   UNL     1     -33.034   5.124   1.635  1.00  0.00     0.136 A 
ATOM      8  C   UNL     1     -31.764   5.743   1.505  1.00  0.00     0.125 A 
ATOM      9  C   UNL     1     -30.610   5.059   1.090  1.00  0.00     0.078 A 
ATOM     10  C   UNL     1     -29.393   5.738   0.982  1.00  0.00     0.223 A 
ENDROOT
BRANCH   1  11
ATOM     11  C   UNL     1     -28.089   7.888   1.245  1.00  0.00     0.087 A 
ATOM     12  C   UNL     1     -27.657   8.677   2.325  1.00  0.00     0.022 A 
ATOM     13  C   UNL     1     -26.482   9.426   2.226  1.00  0.00     0.051 A 
ATOM     14  C   UNL     1     -25.728   9.410   1.045  1.00  0.00     0.157 A 
ATOM     15  C   UNL     1     -27.341   7.890   0.056  1.00  0.00     0.068 A 
ATOM     16  C   UNL     1     -26.163   8.640  -0.046  1.00  0.00     0.158 A 
BRANCH  14  17
ATOM     17  O   UNL     1     -24.555  10.158   0.950  1.00  0.00    -0.504 OA
ATOM     18  H   UNL     1     -24.207  10.698   1.733  1.00  0.00     0.293 HD
ENDBRANCH  14  17
BRANCH  16  19
ATOM     19  O   UNL     1     -25.441   8.607  -1.238  1.00  0.00    -0.504 OA
ATOM     20  H   UNL     1     -25.896   8.584  -2.143  1.00  0.00     0.293 HD
ENDBRANCH  16  19
ENDBRANCH   1  11
BRANCH  10  21
ATOM     21  O   UNL     1     -28.257   5.070   0.521  1.00  0.00    -0.500 OA
ATOM     22  H   UNL     1     -28.316   4.156   0.087  1.00  0.00     0.294 HD
ENDBRANCH  10  21
BRANCH   5  23
ATOM     23  O   UNL     1     -35.092   8.008   2.734  1.00  0.00    -0.507 OA
ATOM     24  H   UNL     1     -35.635   8.551   2.074  1.00  0.00     0.293 HD
ENDBRANCH   5  23
BRANCH   7  25
ATOM     25  O   UNL     1     -33.254   3.769   1.373  1.00  0.00    -0.507 OA
ATOM     26  H   UNL     1     -33.619   3.110   2.046  1.00  0.00     0.293 HD
ENDBRANCH   7  25
TORSDOF 6
ENDMDL
MODEL 9
REMARK VINA RESULT:    -6.990      2.174      7.370
REMARK INTER + INTRA:          -8.732
REMARK INTER:                  -8.383
REMARK INTRA:                  -0.348
REMARK UNBOUND:                -0.311
REMARK SMILES Oc1cc(O)c2cc(O)c(-c3ccc(O)c(O)c3)[o+]c2c1
REMARK SMILES IDX 10 1 19 2 20 3 21 4 2 5 3 6 4 7 6 8 7 9 8 10 11 11 12 12
REMARK SMILES IDX 13 13 14 14 18 15 16 16 15 17 17 19 9 21 1 23 5 25
REMARK H PARENT 15 18 17 20 9 22 1 24 5 26
REMARK Flexibility Score: inf
ROOT
ATOM      1  C   UNL     1     -30.691   5.631   0.471  1.00  0.00     0.402 A 
ATOM      2  O   UNL     1     -31.505   6.578   0.929  1.00  0.00    -0.202 OA
ATOM      3  C   UNL     1     -32.728   6.331   1.385  1.00  0.00     0.368 A 
ATOM      4  C   UNL     1     -33.508   7.394   1.849  1.00  0.00     0.162 A 
ATOM      5  C   UNL     1     -34.796   7.164   2.336  1.00  0.00     0.128 A 
ATOM      6  C   UNL     1     -35.308   5.862   2.362  1.00  0.00     0.093 A 
ATOM      7  C   UNL     1     -34.546   4.780   1.903  1.00  0.00     0.136 A 
ATOM      8  C   UNL     1     -33.238   5.010   1.404  1.00  0.00     0.125 A 
ATOM      9  C   UNL     1     -32.408   3.990   0.912  1.00  0.00     0.078 A 
ATOM     10  C   UNL     1     -31.131   4.295   0.432  1.00  0.00     0.223 A 
ENDROOT
BRANCH   1  11
ATOM     11  C   UNL     1     -29.345   6.031  -0.001  1.00  0.00     0.087 A 
ATOM     12  C   UNL     1     -29.122   6.418  -1.334  1.00  0.00     0.022 A 
ATOM     13  C   UNL     1     -27.839   6.770  -1.761  1.00  0.00     0.051 A 
ATOM     14  C   UNL     1     -26.759   6.728  -0.870  1.00  0.00     0.157 A 
ATOM     15  C   UNL     1     -28.256   5.971   0.884  1.00  0.00     0.068 A 
ATOM     16  C   UNL     1     -26.969   6.322   0.458  1.00  0.00     0.158 A 
BRANCH  14  17
ATOM     17  O   UNL     1     -25.481   7.080  -1.299  1.00  0.00    -0.504 OA
ATOM     18  H   UNL     1     -24.873   7.661  -0.733  1.00  0.00     0.293 HD
ENDBRANCH  14  17
BRANCH  16  19
ATOM     19  O   UNL     1     -25.915   6.263   1.369  1.00  0.00    -0.504 OA
ATOM     20  H   UNL     1     -25.276   7.037   1.503  1.00  0.00     0.293 HD
ENDBRANCH  16  19
ENDBRANCH   1  11
BRANCH  10  21
ATOM     21  O   UNL     1     -30.326   3.289  -0.103  1.00  0.00    -0.500 OA
ATOM     22  H   UNL     1     -30.647   2.331  -0.173  1.00  0.00     0.294 HD
ENDBRANCH  10  21
BRANCH   5  23
ATOM     23  O   UNL     1     -35.558   8.236   2.794  1.00  0.00    -0.507 OA
ATOM     24  H   UNL     1     -35.953   8.916   2.156  1.00  0.00     0.293 HD
ENDBRANCH   5  23
BRANCH   7  25
ATOM     25  O   UNL     1     -35.129   3.510   1.966  1.00  0.00    -0.507 OA
ATOM     26  H   UNL     1     -35.639   3.080   1.209  1.00  0.00     0.293 HD
ENDBRANCH   7  25
TORSDOF 6
ENDMDL
