MODEL 1
REMARK VINA RESULT:    -5.288      0.000      0.000
REMARK INTER + INTRA:         -10.629
REMARK INTER:                  -9.616
REMARK INTRA:                  -1.012
REMARK UNBOUND:                -1.012
REMARK SMILES CCCCCCCCCCCCCC[C@@H](C)C(=O)[O-]
REMARK SMILES IDX 9 1 10 2 11 3 12 4 13 5 14 6 15 7 16 8 17 9 18 10 19 11 8 12
REMARK SMILES IDX 7 13 6 14 5 15 4 16 3 17 2 18 1 19
REMARK H PARENT
REMARK Flexibility Score: inf
ROOT
ATOM      1  C   UNL     1      -7.995  -5.393  -6.866  1.00  0.00     0.000 C 
ENDROOT
BRANCH   1   2
ATOM      2  C   UNL     1      -9.517  -5.590  -6.984  1.00  0.00     0.000 C 
BRANCH   2   3
ATOM      3  C   UNL     1     -10.245  -5.331  -5.652  1.00  0.00     0.000 C 
BRANCH   3   4
ATOM      4  C   UNL     1     -11.111  -4.063  -5.690  1.00  0.00     0.000 C 
BRANCH   4   5
ATOM      5  C   UNL     1     -10.876  -3.144  -4.478  1.00  0.00     0.001 C 
BRANCH   5   6
ATOM      6  C   UNL     1     -10.798  -3.936  -3.154  1.00  0.00     0.009 C 
BRANCH   6   7
ATOM      7  C   UNL     1     -10.417  -3.068  -1.934  1.00  0.00     0.032 C 
ATOM      8  C   UNL     1     -11.125  -3.516  -0.649  1.00  0.00     0.014 C 
BRANCH   7   9
ATOM      9  C   UNL     1      -8.928  -3.105  -1.729  1.00  0.00     0.044 C 
ATOM     10  O   UNL     1      -8.310  -4.201  -1.765  1.00  0.00    -0.550 OA
ATOM     11  O   UNL     1      -8.224  -1.929  -1.497  1.00  0.00    -0.550 OA
ENDBRANCH   7   9
ENDBRANCH   6   7
ENDBRANCH   5   6
ENDBRANCH   4   5
ENDBRANCH   3   4
ENDBRANCH   2   3
ENDBRANCH   1   2
BRANCH   1  12
ATOM     12  C   UNL     1      -7.470  -5.479  -5.420  1.00  0.00     0.000 C 
BRANCH  12  13
ATOM     13  C   UNL     1      -6.756  -6.813  -5.137  1.00  0.00    -0.000 C 
BRANCH  13  14
ATOM     14  C   UNL     1      -5.343  -6.869  -5.737  1.00  0.00    -0.000 C 
BRANCH  14  15
ATOM     15  C   UNL     1      -4.738  -5.475  -5.965  1.00  0.00    -0.000 C 
BRANCH  15  16
ATOM     16  C   UNL     1      -3.210  -5.505  -5.803  1.00  0.00    -0.000 C 
BRANCH  16  17
ATOM     17  C   UNL     1      -2.619  -4.101  -5.560  1.00  0.00    -0.000 C 
BRANCH  17  18
ATOM     18  C   UNL     1      -3.675  -2.983  -5.540  1.00  0.00    -0.003 C 
ATOM     19  C   UNL     1      -3.187  -1.686  -6.184  1.00  0.00     0.004 C 
ENDBRANCH  17  18
ENDBRANCH  16  17
ENDBRANCH  15  16
ENDBRANCH  14  15
ENDBRANCH  13  14
ENDBRANCH  12  13
ENDBRANCH   1  12
TORSDOF 14
ENDMDL
MODEL 2
REMARK VINA RESULT:    -5.054      2.376      6.079
REMARK INTER + INTRA:         -10.202
REMARK INTER:                  -8.858
REMARK INTRA:                  -1.344
REMARK UNBOUND:                -1.012
REMARK SMILES CCCCCCCCCCCCCC[C@@H](C)C(=O)[O-]
REMARK SMILES IDX 9 1 10 2 11 3 12 4 13 5 14 6 15 7 16 8 17 9 18 10 19 11 8 12
REMARK SMILES IDX 7 13 6 14 5 15 4 16 3 17 2 18 1 19
REMARK H PARENT
REMARK Flexibility Score: inf
ROOT
ATOM      1  C   UNL     1      -9.205  -4.272  -5.159  1.00  0.00     0.000 C 
ENDROOT
BRANCH   1   2
ATOM      2  C   UNL     1      -9.655  -5.596  -5.803  1.00  0.00     0.000 C 
BRANCH   2   3
ATOM      3  C   UNL     1      -9.162  -5.737  -7.255  1.00  0.00     0.000 C 
BRANCH   3   4
ATOM      4  C   UNL     1      -8.239  -4.583  -7.678  1.00  0.00     0.000 C 
BRANCH   4   5
ATOM      5  C   UNL     1      -6.812  -5.054  -8.012  1.00  0.00     0.001 C 
BRANCH   5   6
ATOM      6  C   UNL     1      -5.853  -4.900  -6.811  1.00  0.00     0.009 C 
BRANCH   6   7
ATOM      7  C   UNL     1      -5.035  -6.175  -6.503  1.00  0.00     0.032 C 
ATOM      8  C   UNL     1      -3.735  -5.873  -5.748  1.00  0.00     0.014 C 
BRANCH   7   9
ATOM      9  C   UNL     1      -5.873  -7.135  -5.704  1.00  0.00     0.044 C 
ATOM     10  O   UNL     1      -5.898  -8.357  -6.006  1.00  0.00    -0.550 OA
ATOM     11  O   UNL     1      -6.626  -6.680  -4.628  1.00  0.00    -0.550 OA
ENDBRANCH   7   9
ENDBRANCH   6   7
ENDBRANCH   5   6
ENDBRANCH   4   5
ENDBRANCH   3   4
ENDBRANCH   2   3
ENDBRANCH   1   2
BRANCH   1  12
ATOM     12  C   UNL     1     -10.361  -3.454  -4.553  1.00  0.00     0.000 C 
BRANCH  12  13
ATOM     13  C   UNL     1     -10.896  -4.078  -3.251  1.00  0.00    -0.000 C 
BRANCH  13  14
ATOM     14  C   UNL     1     -10.426  -3.325  -1.996  1.00  0.00    -0.000 C 
BRANCH  14  15
ATOM     15  C   UNL     1      -9.006  -3.718  -1.563  1.00  0.00    -0.000 C 
BRANCH  15  16
ATOM     16  C   UNL     1      -8.016  -2.571  -1.819  1.00  0.00    -0.000 C 
BRANCH  16  17
ATOM     17  C   UNL     1      -8.477  -1.246  -1.177  1.00  0.00    -0.000 C 
BRANCH  17  18
ATOM     18  C   UNL     1      -7.547  -0.059  -1.479  1.00  0.00    -0.003 C 
ATOM     19  C   UNL     1      -8.011   1.246  -0.833  1.00  0.00     0.004 C 
ENDBRANCH  17  18
ENDBRANCH  16  17
ENDBRANCH  15  16
ENDBRANCH  14  15
ENDBRANCH  13  14
ENDBRANCH  12  13
ENDBRANCH   1  12
TORSDOF 14
ENDMDL
MODEL 3
REMARK VINA RESULT:    -5.024      1.547      2.456
REMARK INTER + INTRA:         -10.148
REMARK INTER:                  -8.578
REMARK INTRA:                  -1.570
REMARK UNBOUND:                -1.012
REMARK SMILES CCCCCCCCCCCCCC[C@@H](C)C(=O)[O-]
REMARK SMILES IDX 9 1 10 2 11 3 12 4 13 5 14 6 15 7 16 8 17 9 18 10 19 11 8 12
REMARK SMILES IDX 7 13 6 14 5 15 4 16 3 17 2 18 1 19
REMARK H PARENT
REMARK Flexibility Score: inf
ROOT
ATOM      1  C   UNL     1      -6.768  -4.742  -8.439  1.00  0.00     0.000 C 
ENDROOT
BRANCH   1   2
ATOM      2  C   UNL     1      -7.875  -4.333  -9.429  1.00  0.00     0.000 C 
BRANCH   2   3
ATOM      3  C   UNL     1      -9.224  -5.000  -9.104  1.00  0.00     0.000 C 
BRANCH   3   4
ATOM      4  C   UNL     1     -10.266  -4.000  -8.580  1.00  0.00     0.000 C 
BRANCH   4   5
ATOM      5  C   UNL     1     -10.886  -4.433  -7.240  1.00  0.00     0.001 C 
BRANCH   5   6
ATOM      6  C   UNL     1     -10.249  -3.699  -6.040  1.00  0.00     0.009 C 
BRANCH   6   7
ATOM      7  C   UNL     1     -10.655  -4.283  -4.668  1.00  0.00     0.032 C 
ATOM      8  C   UNL     1     -10.702  -5.816  -4.671  1.00  0.00     0.014 C 
BRANCH   7   9
ATOM      9  C   UNL     1      -9.697  -3.809  -3.610  1.00  0.00     0.044 C 
ATOM     10  O   UNL     1      -9.636  -4.400  -2.499  1.00  0.00    -0.550 OA
ATOM     11  O   UNL     1      -8.874  -2.715  -3.850  1.00  0.00    -0.550 OA
ENDBRANCH   7   9
ENDBRANCH   6   7
ENDBRANCH   5   6
ENDBRANCH   4   5
ENDBRANCH   3   4
ENDBRANCH   2   3
ENDBRANCH   1   2
BRANCH   1  12
ATOM     12  C   UNL     1      -7.056  -6.061  -7.699  1.00  0.00     0.000 C 
BRANCH  12  13
ATOM     13  C   UNL     1      -7.340  -5.840  -6.202  1.00  0.00    -0.000 C 
BRANCH  13  14
ATOM     14  C   UNL     1      -6.226  -6.392  -5.299  1.00  0.00    -0.000 C 
BRANCH  14  15
ATOM     15  C   UNL     1      -5.005  -6.882  -6.093  1.00  0.00    -0.000 C 
BRANCH  15  16
ATOM     16  C   UNL     1      -3.793  -5.967  -5.859  1.00  0.00    -0.000 C 
BRANCH  16  17
ATOM     17  C   UNL     1      -4.159  -4.472  -5.964  1.00  0.00    -0.000 C 
BRANCH  17  18
ATOM     18  C   UNL     1      -3.011  -3.527  -5.571  1.00  0.00    -0.003 C 
ATOM     19  C   UNL     1      -3.296  -2.064  -5.908  1.00  0.00     0.004 C 
ENDBRANCH  17  18
ENDBRANCH  16  17
ENDBRANCH  15  16
ENDBRANCH  14  15
ENDBRANCH  13  14
ENDBRANCH  12  13
ENDBRANCH   1  12
TORSDOF 14
ENDMDL
MODEL 4
REMARK VINA RESULT:    -4.998      2.484      6.091
REMARK INTER + INTRA:         -10.101
REMARK INTER:                  -8.367
REMARK INTRA:                  -1.734
REMARK UNBOUND:                -1.012
REMARK SMILES CCCCCCCCCCCCCC[C@@H](C)C(=O)[O-]
REMARK SMILES IDX 9 1 10 2 11 3 12 4 13 5 14 6 15 7 16 8 17 9 18 10 19 11 8 12
REMARK SMILES IDX 7 13 6 14 5 15 4 16 3 17 2 18 1 19
REMARK H PARENT
REMARK Flexibility Score: inf
ROOT
ATOM      1  C   UNL     1      -9.738  -5.227  -5.306  1.00  0.00     0.000 C 
ENDROOT
BRANCH   1   2
ATOM      2  C   UNL     1      -9.710  -5.738  -6.758  1.00  0.00     0.000 C 
BRANCH   2   3
ATOM      3  C   UNL     1      -9.363  -4.623  -7.763  1.00  0.00     0.000 C 
BRANCH   3   4
ATOM      4  C   UNL     1      -8.377  -5.091  -8.845  1.00  0.00     0.000 C 
BRANCH   4   5
ATOM      5  C   UNL     1      -6.912  -4.777  -8.491  1.00  0.00     0.001 C 
BRANCH   5   6
ATOM      6  C   UNL     1      -6.232  -5.943  -7.741  1.00  0.00     0.009 C 
BRANCH   6   7
ATOM      7  C   UNL     1      -5.977  -5.653  -6.245  1.00  0.00     0.032 C 
ATOM      8  C   UNL     1      -6.363  -6.830  -5.342  1.00  0.00     0.014 C 
BRANCH   7   9
ATOM      9  C   UNL     1      -4.528  -5.308  -6.034  1.00  0.00     0.044 C 
ATOM     10  O   UNL     1      -4.164  -4.103  -5.988  1.00  0.00    -0.550 OA
ATOM     11  O   UNL     1      -3.582  -6.316  -5.891  1.00  0.00    -0.550 OA
ENDBRANCH   7   9
ENDBRANCH   6   7
ENDBRANCH   5   6
ENDBRANCH   4   5
ENDBRANCH   3   4
ENDBRANCH   2   3
ENDBRANCH   1   2
BRANCH   1  12
ATOM     12  C   UNL     1      -9.919  -3.702  -5.190  1.00  0.00     0.000 C 
BRANCH  12  13
ATOM     13  C   UNL     1     -11.125  -3.323  -4.311  1.00  0.00    -0.000 C 
BRANCH  13  14
ATOM     14  C   UNL     1     -11.114  -4.035  -2.949  1.00  0.00    -0.000 C 
BRANCH  14  15
ATOM     15  C   UNL     1     -11.097  -3.055  -1.766  1.00  0.00    -0.000 C 
BRANCH  15  16
ATOM     16  C   UNL     1      -9.958  -3.392  -0.790  1.00  0.00    -0.000 C 
BRANCH  16  17
ATOM     17  C   UNL     1      -8.629  -3.684  -1.519  1.00  0.00    -0.000 C 
BRANCH  17  18
ATOM     18  C   UNL     1      -8.060  -2.469  -2.271  1.00  0.00    -0.003 C 
ATOM     19  C   UNL     1      -7.720  -1.299  -1.350  1.00  0.00     0.004 C 
ENDBRANCH  17  18
ENDBRANCH  16  17
ENDBRANCH  15  16
ENDBRANCH  14  15
ENDBRANCH  13  14
ENDBRANCH  12  13
ENDBRANCH   1  12
TORSDOF 14
ENDMDL
MODEL 5
REMARK VINA RESULT:    -4.926      1.795      3.049
REMARK INTER + INTRA:          -9.970
REMARK INTER:                  -8.594
REMARK INTRA:                  -1.376
REMARK UNBOUND:                -1.012
REMARK SMILES CCCCCCCCCCCCCC[C@@H](C)C(=O)[O-]
REMARK SMILES IDX 9 1 10 2 11 3 12 4 13 5 14 6 15 7 16 8 17 9 18 10 19 11 8 12
REMARK SMILES IDX 7 13 6 14 5 15 4 16 3 17 2 18 1 19
REMARK H PARENT
REMARK Flexibility Score: inf
ROOT
ATOM      1  C   UNL     1      -9.577  -4.606  -7.543  1.00  0.00     0.000 C 
ENDROOT
BRANCH   1   2
ATOM      2  C   UNL     1     -10.715  -5.562  -7.142  1.00  0.00     0.000 C 
BRANCH   2   3
ATOM      3  C   UNL     1     -10.659  -5.943  -5.651  1.00  0.00     0.000 C 
BRANCH   3   4
ATOM      4  C   UNL     1      -9.828  -4.952  -4.820  1.00  0.00     0.000 C 
BRANCH   4   5
ATOM      5  C   UNL     1     -10.677  -3.812  -4.229  1.00  0.00     0.001 C 
BRANCH   5   6
ATOM      6  C   UNL     1     -11.125  -4.112  -2.782  1.00  0.00     0.009 C 
BRANCH   6   7
ATOM      7  C   UNL     1     -10.539  -3.136  -1.736  1.00  0.00     0.032 C 
ATOM      8  C   UNL     1     -11.021  -3.438  -0.312  1.00  0.00     0.014 C 
BRANCH   7   9
ATOM      9  C   UNL     1      -9.037  -3.184  -1.783  1.00  0.00     0.044 C 
ATOM     10  O   UNL     1      -8.380  -2.164  -2.122  1.00  0.00    -0.550 OA
ATOM     11  O   UNL     1      -8.363  -4.354  -1.453  1.00  0.00    -0.550 OA
ENDBRANCH   7   9
ENDBRANCH   6   7
ENDBRANCH   5   6
ENDBRANCH   4   5
ENDBRANCH   3   4
ENDBRANCH   2   3
ENDBRANCH   1   2
BRANCH   1  12
ATOM     12  C   UNL     1      -9.646  -4.143  -9.010  1.00  0.00     0.000 C 
BRANCH  12  13
ATOM     13  C   UNL     1      -8.277  -4.222  -9.712  1.00  0.00    -0.000 C 
BRANCH  13  14
ATOM     14  C   UNL     1      -7.134  -4.563  -8.745  1.00  0.00    -0.000 C 
BRANCH  14  15
ATOM     15  C   UNL     1      -6.294  -5.760  -9.215  1.00  0.00    -0.000 C 
BRANCH  15  16
ATOM     16  C   UNL     1      -6.081  -6.766  -8.072  1.00  0.00    -0.000 C 
BRANCH  16  17
ATOM     17  C   UNL     1      -6.608  -6.238  -6.722  1.00  0.00    -0.000 C 
BRANCH  17  18
ATOM     18  C   UNL     1      -5.637  -6.463  -5.551  1.00  0.00    -0.003 C 
ATOM     19  C   UNL     1      -4.171  -6.469  -5.981  1.00  0.00     0.004 C 
ENDBRANCH  17  18
ENDBRANCH  16  17
ENDBRANCH  15  16
ENDBRANCH  14  15
ENDBRANCH  13  14
ENDBRANCH  12  13
ENDBRANCH   1  12
TORSDOF 14
ENDMDL
MODEL 6
REMARK VINA RESULT:    -4.747      1.592      2.535
REMARK INTER + INTRA:          -9.644
REMARK INTER:                  -8.138
REMARK INTRA:                  -1.506
REMARK UNBOUND:                -1.012
REMARK SMILES CCCCCCCCCCCCCC[C@@H](C)C(=O)[O-]
REMARK SMILES IDX 9 1 10 2 11 3 12 4 13 5 14 6 15 7 16 8 17 9 18 10 19 11 8 12
REMARK SMILES IDX 7 13 6 14 5 15 4 16 3 17 2 18 1 19
REMARK H PARENT
REMARK Flexibility Score: inf
ROOT
ATOM      1  C   UNL     1      -7.586  -4.441  -9.107  1.00  0.00     0.000 C 
ENDROOT
BRANCH   1   2
ATOM      2  C   UNL     1      -9.099  -4.408  -8.825  1.00  0.00     0.000 C 
BRANCH   2   3
ATOM      3  C   UNL     1      -9.412  -4.113  -7.347  1.00  0.00     0.000 C 
BRANCH   3   4
ATOM      4  C   UNL     1     -10.191  -5.251  -6.670  1.00  0.00     0.000 C 
BRANCH   4   5
ATOM      5  C   UNL     1      -9.471  -5.812  -5.431  1.00  0.00     0.001 C 
BRANCH   5   6
ATOM      6  C   UNL     1      -8.697  -4.718  -4.664  1.00  0.00     0.009 C 
BRANCH   6   7
ATOM      7  C   UNL     1      -9.601  -3.810  -3.799  1.00  0.00     0.032 C 
ATOM      8  C   UNL     1     -10.887  -4.514  -3.351  1.00  0.00     0.014 C 
BRANCH   7   9
ATOM      9  C   UNL     1      -8.838  -3.335  -2.593  1.00  0.00     0.044 C 
ATOM     10  O   UNL     1      -8.562  -2.113  -2.458  1.00  0.00    -0.550 OA
ATOM     11  O   UNL     1      -8.430  -4.241  -1.621  1.00  0.00    -0.550 OA
ENDBRANCH   7   9
ENDBRANCH   6   7
ENDBRANCH   5   6
ENDBRANCH   4   5
ENDBRANCH   3   4
ENDBRANCH   2   3
ENDBRANCH   1   2
BRANCH   1  12
ATOM     12  C   UNL     1      -7.120  -5.712  -9.840  1.00  0.00     0.000 C 
BRANCH  12  13
ATOM     13  C   UNL     1      -6.865  -6.883  -8.873  1.00  0.00    -0.000 C 
BRANCH  13  14
ATOM     14  C   UNL     1      -5.530  -6.753  -8.124  1.00  0.00    -0.000 C 
BRANCH  14  15
ATOM     15  C   UNL     1      -5.684  -6.906  -6.603  1.00  0.00    -0.000 C 
BRANCH  15  16
ATOM     16  C   UNL     1      -4.605  -6.104  -5.858  1.00  0.00    -0.000 C 
BRANCH  16  17
ATOM     17  C   UNL     1      -4.648  -4.601  -6.204  1.00  0.00    -0.000 C 
BRANCH  17  18
ATOM     18  C   UNL     1      -3.422  -3.818  -5.704  1.00  0.00    -0.003 C 
ATOM     19  C   UNL     1      -2.211  -4.710  -5.436  1.00  0.00     0.004 C 
ENDBRANCH  17  18
ENDBRANCH  16  17
ENDBRANCH  15  16
ENDBRANCH  14  15
ENDBRANCH  13  14
ENDBRANCH  12  13
ENDBRANCH   1  12
TORSDOF 14
ENDMDL
MODEL 7
REMARK VINA RESULT:    -4.720      2.640      6.118
REMARK INTER + INTRA:          -9.596
REMARK INTER:                  -8.073
REMARK INTRA:                  -1.523
REMARK UNBOUND:                -1.012
REMARK SMILES CCCCCCCCCCCCCC[C@@H](C)C(=O)[O-]
REMARK SMILES IDX 9 1 10 2 11 3 12 4 13 5 14 6 15 7 16 8 17 9 18 10 19 11 8 12
REMARK SMILES IDX 7 13 6 14 5 15 4 16 3 17 2 18 1 19
REMARK H PARENT
REMARK Flexibility Score: inf
ROOT
ATOM      1  C   UNL     1      -8.972  -4.472  -7.238  1.00  0.00     0.000 C 
ENDROOT
BRANCH   1   2
ATOM      2  C   UNL     1      -8.618  -4.624  -8.729  1.00  0.00     0.000 C 
BRANCH   2   3
ATOM      3  C   UNL     1      -8.563  -6.098  -9.169  1.00  0.00     0.000 C 
BRANCH   3   4
ATOM      4  C   UNL     1      -7.217  -6.472  -9.810  1.00  0.00     0.000 C 
BRANCH   4   5
ATOM      5  C   UNL     1      -6.012  -6.071  -8.942  1.00  0.00     0.001 C 
BRANCH   5   6
ATOM      6  C   UNL     1      -5.950  -6.875  -7.625  1.00  0.00     0.009 C 
BRANCH   6   7
ATOM      7  C   UNL     1      -5.835  -5.991  -6.363  1.00  0.00     0.032 C 
ATOM      8  C   UNL     1      -6.680  -6.516  -5.196  1.00  0.00     0.014 C 
BRANCH   7   9
ATOM      9  C   UNL     1      -4.394  -5.896  -5.940  1.00  0.00     0.044 C 
ATOM     10  O   UNL     1      -3.704  -6.940  -5.803  1.00  0.00    -0.550 OA
ATOM     11  O   UNL     1      -3.816  -4.656  -5.696  1.00  0.00    -0.550 OA
ENDBRANCH   7   9
ENDBRANCH   6   7
ENDBRANCH   5   6
ENDBRANCH   4   5
ENDBRANCH   3   4
ENDBRANCH   2   3
ENDBRANCH   1   2
BRANCH   1  12
ATOM     12  C   UNL     1     -10.394  -4.948  -6.888  1.00  0.00     0.000 C 
BRANCH  12  13
ATOM     13  C   UNL     1     -10.395  -6.015  -5.777  1.00  0.00    -0.000 C 
BRANCH  13  14
ATOM     14  C   UNL     1     -10.879  -5.465  -4.427  1.00  0.00    -0.000 C 
BRANCH  14  15
ATOM     15  C   UNL     1      -9.935  -4.402  -3.845  1.00  0.00    -0.000 C 
BRANCH  15  16
ATOM     16  C   UNL     1     -10.693  -3.443  -2.914  1.00  0.00    -0.000 C 
BRANCH  16  17
ATOM     17  C   UNL     1      -9.993  -3.275  -1.549  1.00  0.00    -0.000 C 
BRANCH  17  18
ATOM     18  C   UNL     1      -8.458  -3.254  -1.643  1.00  0.00    -0.003 C 
ATOM     19  C   UNL     1      -7.881  -1.841  -1.700  1.00  0.00     0.004 C 
ENDBRANCH  17  18
ENDBRANCH  16  17
ENDBRANCH  15  16
ENDBRANCH  14  15
ENDBRANCH  13  14
ENDBRANCH  12  13
ENDBRANCH   1  12
TORSDOF 14
ENDMDL
MODEL 8
REMARK VINA RESULT:    -4.517      2.289      6.236
REMARK INTER + INTRA:          -9.226
REMARK INTER:                  -7.963
REMARK INTRA:                  -1.264
REMARK UNBOUND:                -1.012
REMARK SMILES CCCCCCCCCCCCCC[C@@H](C)C(=O)[O-]
REMARK SMILES IDX 9 1 10 2 11 3 12 4 13 5 14 6 15 7 16 8 17 9 18 10 19 11 8 12
REMARK SMILES IDX 7 13 6 14 5 15 4 16 3 17 2 18 1 19
REMARK H PARENT
REMARK Flexibility Score: inf
ROOT
ATOM      1  C   UNL     1     -10.586  -3.585  -7.842  1.00  0.00     0.000 C 
ENDROOT
BRANCH   1   2
ATOM      2  C   UNL     1     -10.144  -4.332  -9.114  1.00  0.00     0.000 C 
BRANCH   2   3
ATOM      3  C   UNL     1      -9.605  -5.741  -8.806  1.00  0.00     0.000 C 
BRANCH   3   4
ATOM      4  C   UNL     1      -8.189  -5.965  -9.359  1.00  0.00     0.000 C 
BRANCH   4   5
ATOM      5  C   UNL     1      -7.172  -4.939  -8.826  1.00  0.00     0.001 C 
BRANCH   5   6
ATOM      6  C   UNL     1      -7.027  -5.009  -7.290  1.00  0.00     0.009 C 
BRANCH   6   7
ATOM      7  C   UNL     1      -5.733  -5.712  -6.821  1.00  0.00     0.032 C 
ATOM      8  C   UNL     1      -4.761  -4.754  -6.123  1.00  0.00     0.014 C 
BRANCH   7   9
ATOM      9  C   UNL     1      -6.079  -6.845  -5.894  1.00  0.00     0.044 C 
ATOM     10  O   UNL     1      -5.616  -7.998  -6.102  1.00  0.00    -0.550 OA
ATOM     11  O   UNL     1      -6.913  -6.628  -4.803  1.00  0.00    -0.550 OA
ENDBRANCH   7   9
ENDBRANCH   6   7
ENDBRANCH   5   6
ENDBRANCH   4   5
ENDBRANCH   3   4
ENDBRANCH   2   3
ENDBRANCH   1   2
BRANCH   1  12
ATOM     12  C   UNL     1     -10.937  -4.517  -6.668  1.00  0.00     0.000 C 
BRANCH  12  13
ATOM     13  C   UNL     1     -10.988  -3.768  -5.323  1.00  0.00    -0.000 C 
BRANCH  13  14
ATOM     14  C   UNL     1     -10.174  -4.468  -4.224  1.00  0.00    -0.000 C 
BRANCH  14  15
ATOM     15  C   UNL     1      -8.775  -3.859  -4.041  1.00  0.00    -0.000 C 
BRANCH  15  16
ATOM     16  C   UNL     1      -8.707  -3.013  -2.759  1.00  0.00    -0.000 C 
BRANCH  16  17
ATOM     17  C   UNL     1      -9.265  -3.763  -1.532  1.00  0.00    -0.000 C 
BRANCH  17  18
ATOM     18  C   UNL     1     -10.606  -3.206  -1.027  1.00  0.00    -0.003 C 
ATOM     19  C   UNL     1     -10.923  -3.617   0.410  1.00  0.00     0.004 C 
ENDBRANCH  17  18
ENDBRANCH  16  17
ENDBRANCH  15  16
ENDBRANCH  14  15
ENDBRANCH  13  14
ENDBRANCH  12  13
ENDBRANCH   1  12
TORSDOF 14
ENDMDL
MODEL 9
REMARK VINA RESULT:    -4.359      3.265      6.814
REMARK INTER + INTRA:          -8.939
REMARK INTER:                  -7.034
REMARK INTRA:                  -1.905
REMARK UNBOUND:                -1.012
REMARK SMILES CCCCCCCCCCCCCC[C@@H](C)C(=O)[O-]
REMARK SMILES IDX 9 1 10 2 11 3 12 4 13 5 14 6 15 7 16 8 17 9 18 10 19 11 8 12
REMARK SMILES IDX 7 13 6 14 5 15 4 16 3 17 2 18 1 19
REMARK H PARENT
REMARK Flexibility Score: inf
ROOT
ATOM      1  C   UNL     1      -7.196  -6.316  -5.384  1.00  0.00     0.000 C 
ENDROOT
BRANCH   1   2
ATOM      2  C   UNL     1      -5.685  -6.083  -5.561  1.00  0.00     0.000 C 
BRANCH   2   3
ATOM      3  C   UNL     1      -5.146  -6.708  -6.861  1.00  0.00     0.000 C 
BRANCH   3   4
ATOM      4  C   UNL     1      -5.764  -6.078  -8.119  1.00  0.00     0.000 C 
BRANCH   4   5
ATOM      5  C   UNL     1      -6.432  -7.116  -9.038  1.00  0.00     0.001 C 
BRANCH   5   6
ATOM      6  C   UNL     1      -7.653  -6.533  -9.783  1.00  0.00     0.009 C 
BRANCH   6   7
ATOM      7  C   UNL     1      -8.635  -5.773  -8.864  1.00  0.00     0.032 C 
ATOM      8  C   UNL     1      -8.698  -4.273  -9.180  1.00  0.00     0.014 C 
BRANCH   7   9
ATOM      9  C   UNL     1     -10.009  -6.372  -8.982  1.00  0.00     0.044 C 
ATOM     10  O   UNL     1     -11.023  -5.703  -8.651  1.00  0.00    -0.550 OA
ATOM     11  O   UNL     1     -10.169  -7.669  -9.457  1.00  0.00    -0.550 OA
ENDBRANCH   7   9
ENDBRANCH   6   7
ENDBRANCH   5   6
ENDBRANCH   4   5
ENDBRANCH   3   4
ENDBRANCH   2   3
ENDBRANCH   1   2
BRANCH   1  12
ATOM     12  C   UNL     1      -8.026  -5.019  -5.381  1.00  0.00     0.000 C 
BRANCH  12  13
ATOM     13  C   UNL     1      -9.531  -5.289  -5.198  1.00  0.00    -0.000 C 
BRANCH  13  14
ATOM     14  C   UNL     1     -10.404  -4.108  -5.647  1.00  0.00    -0.000 C 
BRANCH  14  15
ATOM     15  C   UNL     1     -10.954  -3.292  -4.467  1.00  0.00    -0.000 C 
BRANCH  15  16
ATOM     16  C   UNL     1     -11.020  -4.146  -3.191  1.00  0.00    -0.000 C 
BRANCH  16  17
ATOM     17  C   UNL     1     -10.361  -3.448  -1.984  1.00  0.00    -0.000 C 
BRANCH  17  18
ATOM     18  C   UNL     1      -8.828  -3.569  -1.963  1.00  0.00    -0.003 C 
ATOM     19  C   UNL     1      -8.127  -2.250  -1.645  1.00  0.00     0.004 C 
ENDBRANCH  17  18
ENDBRANCH  16  17
ENDBRANCH  15  16
ENDBRANCH  14  15
ENDBRANCH  13  14
ENDBRANCH  12  13
ENDBRANCH   1  12
TORSDOF 14
ENDMDL
