MODEL 1
REMARK VINA RESULT:    18.397      0.000      0.000
REMARK INTER + INTRA:          47.361
REMARK INTER:                  48.510
REMARK INTRA:                  -1.149
REMARK UNBOUND:                -1.149
REMARK SMILES CCCCCCCCCCCCCCCCCCCCCCCCCCCCCC(=O)[O-]
REMARK SMILES IDX 16 1 17 2 18 3 19 4 20 5 21 6 22 7 23 8 24 9 25 10 26 11
REMARK SMILES IDX 27 12 28 13 29 14 30 15 31 16 32 17 15 18 14 19 13 20 12 21
REMARK SMILES IDX 11 22 10 23 9 24 8 25 7 26 6 27 5 28 4 29 3 30 2 31 1 32
REMARK H PARENT
REMARK Flexibility Score: inf
ROOT
ATOM      1  C   UNL     1     -31.743  12.562  18.685  1.00  0.00     0.000 C 
ENDROOT
BRANCH   1   2
ATOM      2  C   UNL     1     -33.002  12.341  19.541  1.00  0.00     0.000 C 
BRANCH   2   3
ATOM      3  C   UNL     1     -33.365  10.854  19.705  1.00  0.00     0.000 C 
BRANCH   3   4
ATOM      4  C   UNL     1     -34.478  10.555  20.727  1.00  0.00     0.000 C 
BRANCH   4   5
ATOM      5  C   UNL     1     -33.948   9.895  22.014  1.00  0.00     0.000 C 
BRANCH   5   6
ATOM      6  C   UNL     1     -32.979   8.732  21.731  1.00  0.00     0.000 C 
BRANCH   6   7
ATOM      7  C   UNL     1     -33.511   7.337  22.111  1.00  0.00     0.000 C 
BRANCH   7   8
ATOM      8  C   UNL     1     -35.006   7.344  22.476  1.00  0.00     0.000 C 
BRANCH   8   9
ATOM      9  C   UNL     1     -35.276   6.780  23.888  1.00  0.00     0.000 C 
BRANCH   9  10
ATOM     10  C   UNL     1     -34.689   7.633  25.029  1.00  0.00     0.000 C 
BRANCH  10  11
ATOM     11  C   UNL     1     -33.256   7.267  25.454  1.00  0.00     0.000 C 
BRANCH  11  12
ATOM     12  C   UNL     1     -32.781   7.897  26.781  1.00  0.00     0.000 C 
BRANCH  12  13
ATOM     13  C   UNL     1     -33.447   9.240  27.143  1.00  0.00     0.006 C 
BRANCH  13  14
ATOM     14  C   UNL     1     -33.018  10.420  26.254  1.00  0.00     0.053 C 
BRANCH  14  15
ATOM     15  C   UNL     1     -34.183  11.064  25.566  1.00  0.00     0.041 C 
ATOM     16  O   UNL     1     -35.361  10.783  25.915  1.00  0.00    -0.550 OA
ATOM     17  O   UNL     1     -33.970  11.968  24.532  1.00  0.00    -0.550 OA
ENDBRANCH  14  15
ENDBRANCH  13  14
ENDBRANCH  12  13
ENDBRANCH  11  12
ENDBRANCH  10  11
ENDBRANCH   9  10
ENDBRANCH   8   9
ENDBRANCH   7   8
ENDBRANCH   6   7
ENDBRANCH   5   6
ENDBRANCH   4   5
ENDBRANCH   3   4
ENDBRANCH   2   3
ENDBRANCH   1   2
BRANCH   1  18
ATOM     18  C   UNL     1     -32.060  13.110  17.281  1.00  0.00     0.000 C 
BRANCH  18  19
ATOM     19  C   UNL     1     -33.558  13.275  16.954  1.00  0.00     0.000 C 
BRANCH  19  20
ATOM     20  C   UNL     1     -33.888  14.361  15.915  1.00  0.00     0.000 C 
BRANCH  20  21
ATOM     21  C   UNL     1     -35.181  15.126  16.237  1.00  0.00     0.000 C 
BRANCH  21  22
ATOM     22  C   UNL     1     -34.973  16.641  16.086  1.00  0.00     0.000 C 
BRANCH  22  23
ATOM     23  C   UNL     1     -34.355  17.281  17.341  1.00  0.00     0.000 C 
BRANCH  23  24
ATOM     24  C   UNL     1     -35.151  18.506  17.825  1.00  0.00    -0.000 C 
BRANCH  24  25
ATOM     25  C   UNL     1     -36.671  18.291  17.746  1.00  0.00    -0.000 C 
BRANCH  25  26
ATOM     26  C   UNL     1     -37.105  16.915  18.272  1.00  0.00    -0.000 C 
BRANCH  26  27
ATOM     27  C   UNL     1     -38.182  16.296  17.372  1.00  0.00    -0.000 C 
BRANCH  27  28
ATOM     28  C   UNL     1     -39.584  16.730  17.815  1.00  0.00    -0.000 C 
BRANCH  28  29
ATOM     29  C   UNL     1     -40.145  15.783  18.887  1.00  0.00    -0.000 C 
BRANCH  29  30
ATOM     30  C   UNL     1     -39.378  14.445  18.940  1.00  0.00    -0.000 C 
BRANCH  30  31
ATOM     31  C   UNL     1     -40.256  13.249  19.335  1.00  0.00    -0.003 C 
ATOM     32  C   UNL     1     -39.862  11.959  18.619  1.00  0.00     0.004 C 
ENDBRANCH  30  31
ENDBRANCH  29  30
ENDBRANCH  28  29
ENDBRANCH  27  28
ENDBRANCH  26  27
ENDBRANCH  25  26
ENDBRANCH  24  25
ENDBRANCH  23  24
ENDBRANCH  22  23
ENDBRANCH  21  22
ENDBRANCH  20  21
ENDBRANCH  19  20
ENDBRANCH  18  19
ENDBRANCH   1  18
TORSDOF 28
ENDMDL
MODEL 2
REMARK VINA RESULT:    18.863      1.539      2.746
REMARK INTER + INTRA:          48.589
REMARK INTER:                  49.383
REMARK INTRA:                  -0.793
REMARK UNBOUND:                -1.149
REMARK SMILES CCCCCCCCCCCCCCCCCCCCCCCCCCCCCC(=O)[O-]
REMARK SMILES IDX 16 1 17 2 18 3 19 4 20 5 21 6 22 7 23 8 24 9 25 10 26 11
REMARK SMILES IDX 27 12 28 13 29 14 30 15 31 16 32 17 15 18 14 19 13 20 12 21
REMARK SMILES IDX 11 22 10 23 9 24 8 25 7 26 6 27 5 28 4 29 3 30 2 31 1 32
REMARK H PARENT
REMARK Flexibility Score: inf
ROOT
ATOM      1  C   UNL     1     -31.955  12.808  18.618  1.00  0.00     0.000 C 
ENDROOT
BRANCH   1   2
ATOM      2  C   UNL     1     -33.237  12.448  19.387  1.00  0.00     0.000 C 
BRANCH   2   3
ATOM      3  C   UNL     1     -33.385  10.935  19.635  1.00  0.00     0.000 C 
BRANCH   3   4
ATOM      4  C   UNL     1     -34.278  10.547  20.829  1.00  0.00     0.000 C 
BRANCH   4   5
ATOM      5  C   UNL     1     -33.714  11.025  22.180  1.00  0.00     0.000 C 
BRANCH   5   6
ATOM      6  C   UNL     1     -34.344  12.347  22.654  1.00  0.00     0.000 C 
BRANCH   6   7
ATOM      7  C   UNL     1     -34.119  12.679  24.142  1.00  0.00     0.000 C 
BRANCH   7   8
ATOM      8  C   UNL     1     -34.216  11.441  25.052  1.00  0.00     0.000 C 
BRANCH   8   9
ATOM      9  C   UNL     1     -32.871  11.087  25.720  1.00  0.00     0.000 C 
BRANCH   9  10
ATOM     10  C   UNL     1     -33.005  10.557  27.162  1.00  0.00     0.000 C 
BRANCH  10  11
ATOM     11  C   UNL     1     -33.277   9.047  27.285  1.00  0.00     0.000 C 
BRANCH  11  12
ATOM     12  C   UNL     1     -33.199   8.254  25.963  1.00  0.00     0.000 C 
BRANCH  12  13
ATOM     13  C   UNL     1     -34.559   7.953  25.300  1.00  0.00     0.006 C 
BRANCH  13  14
ATOM     14  C   UNL     1     -34.547   6.741  24.352  1.00  0.00     0.053 C 
BRANCH  14  15
ATOM     15  C   UNL     1     -34.748   7.140  22.921  1.00  0.00     0.041 C 
ATOM     16  O   UNL     1     -33.779   7.571  22.241  1.00  0.00    -0.550 OA
ATOM     17  O   UNL     1     -36.007   7.043  22.340  1.00  0.00    -0.550 OA
ENDBRANCH  14  15
ENDBRANCH  13  14
ENDBRANCH  12  13
ENDBRANCH  11  12
ENDBRANCH  10  11
ENDBRANCH   9  10
ENDBRANCH   8   9
ENDBRANCH   7   8
ENDBRANCH   6   7
ENDBRANCH   5   6
ENDBRANCH   4   5
ENDBRANCH   3   4
ENDBRANCH   2   3
ENDBRANCH   1   2
BRANCH   1  18
ATOM     18  C   UNL     1     -32.216  13.138  17.137  1.00  0.00     0.000 C 
BRANCH  18  19
ATOM     19  C   UNL     1     -33.615  12.761  16.608  1.00  0.00     0.000 C 
BRANCH  19  20
ATOM     20  C   UNL     1     -34.663  13.886  16.665  1.00  0.00     0.000 C 
BRANCH  20  21
ATOM     21  C   UNL     1     -34.092  15.258  16.271  1.00  0.00     0.000 C 
BRANCH  21  22
ATOM     22  C   UNL     1     -35.070  16.385  16.639  1.00  0.00     0.000 C 
BRANCH  22  23
ATOM     23  C   UNL     1     -34.411  17.486  17.486  1.00  0.00     0.000 C 
BRANCH  23  24
ATOM     24  C   UNL     1     -35.446  18.392  18.175  1.00  0.00    -0.000 C 
BRANCH  24  25
ATOM     25  C   UNL     1     -36.850  18.254  17.565  1.00  0.00    -0.000 C 
BRANCH  25  26
ATOM     26  C   UNL     1     -37.448  16.854  17.762  1.00  0.00    -0.000 C 
BRANCH  26  27
ATOM     27  C   UNL     1     -38.939  16.835  17.400  1.00  0.00    -0.000 C 
BRANCH  27  28
ATOM     28  C   UNL     1     -39.799  16.518  18.629  1.00  0.00    -0.000 C 
BRANCH  28  29
ATOM     29  C   UNL     1     -39.240  15.314  19.401  1.00  0.00    -0.000 C 
BRANCH  29  30
ATOM     30  C   UNL     1     -39.309  14.011  18.577  1.00  0.00    -0.000 C 
BRANCH  30  31
ATOM     31  C   UNL     1     -40.218  12.939  19.197  1.00  0.00    -0.003 C 
ATOM     32  C   UNL     1     -39.921  11.534  18.676  1.00  0.00     0.004 C 
ENDBRANCH  30  31
ENDBRANCH  29  30
ENDBRANCH  28  29
ENDBRANCH  27  28
ENDBRANCH  26  27
ENDBRANCH  25  26
ENDBRANCH  24  25
ENDBRANCH  23  24
ENDBRANCH  22  23
ENDBRANCH  21  22
ENDBRANCH  20  21
ENDBRANCH  19  20
ENDBRANCH  18  19
ENDBRANCH   1  18
TORSDOF 28
ENDMDL
MODEL 3
REMARK VINA RESULT:    19.276      1.190      2.150
REMARK INTER + INTRA:          49.680
REMARK INTER:                  48.394
REMARK INTRA:                   1.286
REMARK UNBOUND:                -1.149
REMARK SMILES CCCCCCCCCCCCCCCCCCCCCCCCCCCCCC(=O)[O-]
REMARK SMILES IDX 16 1 17 2 18 3 19 4 20 5 21 6 22 7 23 8 24 9 25 10 26 11
REMARK SMILES IDX 27 12 28 13 29 14 30 15 31 16 32 17 15 18 14 19 13 20 12 21
REMARK SMILES IDX 11 22 10 23 9 24 8 25 7 26 6 27 5 28 4 29 3 30 2 31 1 32
REMARK H PARENT
REMARK Flexibility Score: inf
ROOT
ATOM      1  C   UNL     1     -33.515  12.952  19.975  1.00  0.00     0.000 C 
ENDROOT
BRANCH   1   2
ATOM      2  C   UNL     1     -33.977  11.992  21.084  1.00  0.00     0.000 C 
BRANCH   2   3
ATOM      3  C   UNL     1     -34.008  10.521  20.632  1.00  0.00     0.000 C 
BRANCH   3   4
ATOM      4  C   UNL     1     -34.374   9.501  21.727  1.00  0.00     0.000 C 
BRANCH   4   5
ATOM      5  C   UNL     1     -33.318   8.393  21.891  1.00  0.00     0.000 C 
BRANCH   5   6
ATOM      6  C   UNL     1     -33.943   6.999  22.081  1.00  0.00     0.000 C 
BRANCH   6   7
ATOM      7  C   UNL     1     -35.391   7.001  22.607  1.00  0.00     0.000 C 
BRANCH   7   8
ATOM      8  C   UNL     1     -35.476   6.784  24.129  1.00  0.00     0.000 C 
BRANCH   8   9
ATOM      9  C   UNL     1     -34.125   7.014  24.838  1.00  0.00     0.000 C 
BRANCH   9  10
ATOM     10  C   UNL     1     -34.197   7.995  26.025  1.00  0.00     0.000 C 
BRANCH  10  11
ATOM     11  C   UNL     1     -32.872   8.219  26.775  1.00  0.00     0.000 C 
BRANCH  11  12
ATOM     12  C   UNL     1     -32.764   9.558  27.536  1.00  0.00     0.000 C 
BRANCH  12  13
ATOM     13  C   UNL     1     -32.197  10.734  26.714  1.00  0.00     0.006 C 
BRANCH  13  14
ATOM     14  C   UNL     1     -33.197  11.877  26.470  1.00  0.00     0.053 C 
BRANCH  14  15
ATOM     15  C   UNL     1     -34.259  11.499  25.483  1.00  0.00     0.041 C 
ATOM     16  O   UNL     1     -34.134  11.810  24.268  1.00  0.00    -0.550 OA
ATOM     17  O   UNL     1     -35.390  10.809  25.904  1.00  0.00    -0.550 OA
ENDBRANCH  14  15
ENDBRANCH  13  14
ENDBRANCH  12  13
ENDBRANCH  11  12
ENDBRANCH  10  11
ENDBRANCH   9  10
ENDBRANCH   8   9
ENDBRANCH   7   8
ENDBRANCH   6   7
ENDBRANCH   5   6
ENDBRANCH   4   5
ENDBRANCH   3   4
ENDBRANCH   2   3
ENDBRANCH   1   2
BRANCH   1  18
ATOM     18  C   UNL     1     -32.776  12.235  18.829  1.00  0.00     0.000 C 
BRANCH  18  19
ATOM     19  C   UNL     1     -32.167  13.156  17.752  1.00  0.00     0.000 C 
BRANCH  19  20
ATOM     20  C   UNL     1     -32.910  13.172  16.405  1.00  0.00     0.000 C 
BRANCH  20  21
ATOM     21  C   UNL     1     -34.263  13.898  16.476  1.00  0.00     0.000 C 
BRANCH  21  22
ATOM     22  C   UNL     1     -34.186  15.111  17.415  1.00  0.00     0.000 C 
BRANCH  22  23
ATOM     23  C   UNL     1     -34.735  16.394  16.769  1.00  0.00     0.000 C 
BRANCH  23  24
ATOM     24  C   UNL     1     -34.590  17.620  17.688  1.00  0.00    -0.000 C 
BRANCH  24  25
ATOM     25  C   UNL     1     -35.701  18.659  17.467  1.00  0.00    -0.000 C 
BRANCH  25  26
ATOM     26  C   UNL     1     -37.069  18.182  17.976  1.00  0.00    -0.000 C 
BRANCH  26  27
ATOM     27  C   UNL     1     -37.501  16.892  17.267  1.00  0.00    -0.000 C 
BRANCH  27  28
ATOM     28  C   UNL     1     -37.656  15.740  18.267  1.00  0.00    -0.000 C 
BRANCH  28  29
ATOM     29  C   UNL     1     -38.932  15.903  19.107  1.00  0.00    -0.000 C 
BRANCH  29  30
ATOM     30  C   UNL     1     -40.164  16.226  18.236  1.00  0.00    -0.000 C 
BRANCH  30  31
ATOM     31  C   UNL     1     -39.821  16.981  16.943  1.00  0.00    -0.003 C 
ATOM     32  C   UNL     1     -40.784  18.130  16.652  1.00  0.00     0.004 C 
ENDBRANCH  30  31
ENDBRANCH  29  30
ENDBRANCH  28  29
ENDBRANCH  27  28
ENDBRANCH  26  27
ENDBRANCH  25  26
ENDBRANCH  24  25
ENDBRANCH  23  24
ENDBRANCH  22  23
ENDBRANCH  21  22
ENDBRANCH  20  21
ENDBRANCH  19  20
ENDBRANCH  18  19
ENDBRANCH   1  18
TORSDOF 28
ENDMDL
MODEL 4
REMARK VINA RESULT:    19.350      0.988      1.859
REMARK INTER + INTRA:          49.874
REMARK INTER:                  50.073
REMARK INTRA:                  -0.199
REMARK UNBOUND:                -1.149
REMARK SMILES CCCCCCCCCCCCCCCCCCCCCCCCCCCCCC(=O)[O-]
REMARK SMILES IDX 16 1 17 2 18 3 19 4 20 5 21 6 22 7 23 8 24 9 25 10 26 11
REMARK SMILES IDX 27 12 28 13 29 14 30 15 31 16 32 17 15 18 14 19 13 20 12 21
REMARK SMILES IDX 11 22 10 23 9 24 8 25 7 26 6 27 5 28 4 29 3 30 2 31 1 32
REMARK H PARENT
REMARK Flexibility Score: inf
ROOT
ATOM      1  C   UNL     1     -32.996  13.322  17.833  1.00  0.00     0.000 C 
ENDROOT
BRANCH   1   2
ATOM      2  C   UNL     1     -32.415  12.029  18.429  1.00  0.00     0.000 C 
BRANCH   2   3
ATOM      3  C   UNL     1     -32.800  11.822  19.906  1.00  0.00     0.000 C 
BRANCH   3   4
ATOM      4  C   UNL     1     -34.027  12.620  20.386  1.00  0.00     0.000 C 
BRANCH   4   5
ATOM      5  C   UNL     1     -34.255  12.512  21.905  1.00  0.00     0.000 C 
BRANCH   5   6
ATOM      6  C   UNL     1     -33.809  11.154  22.479  1.00  0.00     0.000 C 
BRANCH   6   7
ATOM      7  C   UNL     1     -34.096   9.940  21.574  1.00  0.00     0.000 C 
BRANCH   7   8
ATOM      8  C   UNL     1     -33.228   8.716  21.921  1.00  0.00     0.000 C 
BRANCH   8   9
ATOM      9  C   UNL     1     -34.062   7.430  22.107  1.00  0.00     0.000 C 
BRANCH   9  10
ATOM     10  C   UNL     1     -35.429   7.660  22.781  1.00  0.00     0.000 C 
BRANCH  10  11
ATOM     11  C   UNL     1     -35.534   7.174  24.238  1.00  0.00     0.000 C 
BRANCH  11  12
ATOM     12  C   UNL     1     -34.201   6.742  24.886  1.00  0.00     0.000 C 
BRANCH  12  13
ATOM     13  C   UNL     1     -33.490   7.835  25.711  1.00  0.00     0.006 C 
BRANCH  13  14
ATOM     14  C   UNL     1     -34.383   9.031  26.080  1.00  0.00     0.053 C 
BRANCH  14  15
ATOM     15  C   UNL     1     -33.587  10.274  26.341  1.00  0.00     0.041 C 
ATOM     16  O   UNL     1     -32.725  10.293  27.260  1.00  0.00    -0.550 OA
ATOM     17  O   UNL     1     -33.801  11.413  25.574  1.00  0.00    -0.550 OA
ENDBRANCH  14  15
ENDBRANCH  13  14
ENDBRANCH  12  13
ENDBRANCH  11  12
ENDBRANCH  10  11
ENDBRANCH   9  10
ENDBRANCH   8   9
ENDBRANCH   7   8
ENDBRANCH   6   7
ENDBRANCH   5   6
ENDBRANCH   4   5
ENDBRANCH   3   4
ENDBRANCH   2   3
ENDBRANCH   1   2
BRANCH   1  18
ATOM     18  C   UNL     1     -33.020  13.315  16.293  1.00  0.00     0.000 C 
BRANCH  18  19
ATOM     19  C   UNL     1     -33.952  14.356  15.638  1.00  0.00     0.000 C 
BRANCH  19  20
ATOM     20  C   UNL     1     -34.830  15.157  16.615  1.00  0.00     0.000 C 
BRANCH  20  21
ATOM     21  C   UNL     1     -34.726  16.676  16.407  1.00  0.00     0.000 C 
BRANCH  21  22
ATOM     22  C   UNL     1     -34.522  17.401  17.746  1.00  0.00     0.000 C 
BRANCH  22  23
ATOM     23  C   UNL     1     -35.255  18.752  17.805  1.00  0.00     0.000 C 
BRANCH  23  24
ATOM     24  C   UNL     1     -36.784  18.590  17.758  1.00  0.00    -0.000 C 
BRANCH  24  25
ATOM     25  C   UNL     1     -37.239  17.167  18.123  1.00  0.00    -0.000 C 
BRANCH  25  26
ATOM     26  C   UNL     1     -38.161  16.548  17.063  1.00  0.00    -0.000 C 
BRANCH  26  27
ATOM     27  C   UNL     1     -39.636  16.787  17.409  1.00  0.00    -0.000 C 
BRANCH  27  28
ATOM     28  C   UNL     1     -39.895  16.557  18.903  1.00  0.00    -0.000 C 
BRANCH  28  29
ATOM     29  C   UNL     1     -39.068  15.376  19.433  1.00  0.00    -0.000 C 
BRANCH  29  30
ATOM     30  C   UNL     1     -39.267  14.100  18.587  1.00  0.00    -0.000 C 
BRANCH  30  31
ATOM     31  C   UNL     1     -40.236  13.089  19.219  1.00  0.00    -0.003 C 
ATOM     32  C   UNL     1     -40.023  11.664  18.713  1.00  0.00     0.004 C 
ENDBRANCH  30  31
ENDBRANCH  29  30
ENDBRANCH  28  29
ENDBRANCH  27  28
ENDBRANCH  26  27
ENDBRANCH  25  26
ENDBRANCH  24  25
ENDBRANCH  23  24
ENDBRANCH  22  23
ENDBRANCH  21  22
ENDBRANCH  20  21
ENDBRANCH  19  20
ENDBRANCH  18  19
ENDBRANCH   1  18
TORSDOF 28
ENDMDL
MODEL 5
REMARK VINA RESULT:    19.368      2.352      9.792
REMARK INTER + INTRA:          49.921
REMARK INTER:                  51.714
REMARK INTRA:                  -1.793
REMARK UNBOUND:                -1.149
REMARK SMILES CCCCCCCCCCCCCCCCCCCCCCCCCCCCCC(=O)[O-]
REMARK SMILES IDX 16 1 17 2 18 3 19 4 20 5 21 6 22 7 23 8 24 9 25 10 26 11
REMARK SMILES IDX 27 12 28 13 29 14 30 15 31 16 32 17 15 18 14 19 13 20 12 21
REMARK SMILES IDX 11 22 10 23 9 24 8 25 7 26 6 27 5 28 4 29 3 30 2 31 1 32
REMARK H PARENT
REMARK Flexibility Score: inf
ROOT
ATOM      1  C   UNL     1     -32.297  12.775  18.142  1.00  0.00     0.000 C 
ENDROOT
BRANCH   1   2
ATOM      2  C   UNL     1     -33.328  12.879  17.006  1.00  0.00     0.000 C 
BRANCH   2   3
ATOM      3  C   UNL     1     -34.213  14.135  17.111  1.00  0.00     0.000 C 
BRANCH   3   4
ATOM      4  C   UNL     1     -34.482  14.866  15.782  1.00  0.00     0.000 C 
BRANCH   4   5
ATOM      5  C   UNL     1     -34.711  16.378  15.965  1.00  0.00     0.000 C 
BRANCH   5   6
ATOM      6  C   UNL     1     -34.514  16.837  17.421  1.00  0.00     0.000 C 
BRANCH   6   7
ATOM      7  C   UNL     1     -35.162  18.191  17.769  1.00  0.00     0.000 C 
BRANCH   7   8
ATOM      8  C   UNL     1     -36.701  18.144  17.735  1.00  0.00     0.000 C 
BRANCH   8   9
ATOM      9  C   UNL     1     -37.249  16.708  17.599  1.00  0.00     0.000 C 
BRANCH   9  10
ATOM     10  C   UNL     1     -38.786  16.612  17.672  1.00  0.00     0.000 C 
BRANCH  10  11
ATOM     11  C   UNL     1     -39.351  16.107  19.012  1.00  0.00     0.000 C 
BRANCH  11  12
ATOM     12  C   UNL     1     -39.235  14.585  19.243  1.00  0.00     0.000 C 
BRANCH  12  13
ATOM     13  C   UNL     1     -40.439  13.755  18.751  1.00  0.00     0.006 C 
BRANCH  13  14
ATOM     14  C   UNL     1     -40.463  12.306  19.268  1.00  0.00     0.053 C 
BRANCH  14  15
ATOM     15  C   UNL     1     -39.745  11.365  18.350  1.00  0.00     0.041 C 
ATOM     16  O   UNL     1     -40.186  10.199  18.165  1.00  0.00    -0.550 OA
ATOM     17  O   UNL     1     -38.584  11.771  17.704  1.00  0.00    -0.550 OA
ENDBRANCH  14  15
ENDBRANCH  13  14
ENDBRANCH  12  13
ENDBRANCH  11  12
ENDBRANCH  10  11
ENDBRANCH   9  10
ENDBRANCH   8   9
ENDBRANCH   7   8
ENDBRANCH   6   7
ENDBRANCH   5   6
ENDBRANCH   4   5
ENDBRANCH   3   4
ENDBRANCH   2   3
ENDBRANCH   1   2
BRANCH   1  18
ATOM     18  C   UNL     1     -32.797  11.936  19.333  1.00  0.00     0.000 C 
BRANCH  18  19
ATOM     19  C   UNL     1     -33.791  12.646  20.275  1.00  0.00     0.000 C 
BRANCH  19  20
ATOM     20  C   UNL     1     -34.168  11.860  21.543  1.00  0.00     0.000 C 
BRANCH  20  21
ATOM     21  C   UNL     1     -33.617  12.498  22.829  1.00  0.00     0.000 C 
BRANCH  21  22
ATOM     22  C   UNL     1     -34.546  12.218  24.020  1.00  0.00     0.000 C 
BRANCH  22  23
ATOM     23  C   UNL     1     -34.048  11.059  24.899  1.00  0.00     0.000 C 
BRANCH  23  24
ATOM     24  C   UNL     1     -33.049  11.527  25.973  1.00  0.00    -0.000 C 
BRANCH  24  25
ATOM     25  C   UNL     1     -32.796  10.459  27.049  1.00  0.00    -0.000 C 
BRANCH  25  26
ATOM     26  C   UNL     1     -33.662   9.206  26.857  1.00  0.00    -0.000 C 
BRANCH  26  27
ATOM     27  C   UNL     1     -32.792   7.948  26.735  1.00  0.00    -0.000 C 
BRANCH  27  28
ATOM     28  C   UNL     1     -33.439   6.920  25.799  1.00  0.00    -0.000 C 
BRANCH  28  29
ATOM     29  C   UNL     1     -34.374   7.602  24.790  1.00  0.00    -0.000 C 
BRANCH  29  30
ATOM     30  C   UNL     1     -34.816   6.641  23.665  1.00  0.00    -0.000 C 
BRANCH  30  31
ATOM     31  C   UNL     1     -34.701   7.248  22.258  1.00  0.00    -0.003 C 
ATOM     32  C   UNL     1     -33.715   8.412  22.192  1.00  0.00     0.004 C 
ENDBRANCH  30  31
ENDBRANCH  29  30
ENDBRANCH  28  29
ENDBRANCH  27  28
ENDBRANCH  26  27
ENDBRANCH  25  26
ENDBRANCH  24  25
ENDBRANCH  23  24
ENDBRANCH  22  23
ENDBRANCH  21  22
ENDBRANCH  20  21
ENDBRANCH  19  20
ENDBRANCH  18  19
ENDBRANCH   1  18
TORSDOF 28
ENDMDL
MODEL 6
REMARK VINA RESULT:    19.409      1.758      3.567
REMARK INTER + INTRA:          50.029
REMARK INTER:                  50.908
REMARK INTRA:                  -0.879
REMARK UNBOUND:                -1.149
REMARK SMILES CCCCCCCCCCCCCCCCCCCCCCCCCCCCCC(=O)[O-]
REMARK SMILES IDX 16 1 17 2 18 3 19 4 20 5 21 6 22 7 23 8 24 9 25 10 26 11
REMARK SMILES IDX 27 12 28 13 29 14 30 15 31 16 32 17 15 18 14 19 13 20 12 21
REMARK SMILES IDX 11 22 10 23 9 24 8 25 7 26 6 27 5 28 4 29 3 30 2 31 1 32
REMARK H PARENT
REMARK Flexibility Score: inf
ROOT
ATOM      1  C   UNL     1     -32.819  11.115  19.798  1.00  0.00     0.000 C 
ENDROOT
BRANCH   1   2
ATOM      2  C   UNL     1     -33.783  11.006  20.991  1.00  0.00     0.000 C 
BRANCH   2   3
ATOM      3  C   UNL     1     -34.324  12.372  21.453  1.00  0.00     0.000 C 
BRANCH   3   4
ATOM      4  C   UNL     1     -34.100  12.702  22.941  1.00  0.00     0.000 C 
BRANCH   4   5
ATOM      5  C   UNL     1     -33.949  11.445  23.817  1.00  0.00     0.000 C 
BRANCH   5   6
ATOM      6  C   UNL     1     -34.617  11.597  25.196  1.00  0.00     0.000 C 
BRANCH   6   7
ATOM      7  C   UNL     1     -33.652  11.537  26.397  1.00  0.00     0.000 C 
BRANCH   7   8
ATOM      8  C   UNL     1     -32.670  10.354  26.317  1.00  0.00     0.000 C 
BRANCH   8   9
ATOM      9  C   UNL     1     -32.827   9.371  27.497  1.00  0.00     0.000 C 
BRANCH   9  10
ATOM     10  C   UNL     1     -33.058   7.909  27.070  1.00  0.00     0.000 C 
BRANCH  10  11
ATOM     11  C   UNL     1     -33.075   7.662  25.551  1.00  0.00     0.000 C 
BRANCH  11  12
ATOM     12  C   UNL     1     -33.989   6.510  25.081  1.00  0.00     0.000 C 
BRANCH  12  13
ATOM     13  C   UNL     1     -35.446   6.914  24.775  1.00  0.00     0.006 C 
BRANCH  13  14
ATOM     14  C   UNL     1     -35.648   7.558  23.393  1.00  0.00     0.053 C 
BRANCH  14  15
ATOM     15  C   UNL     1     -34.555   7.197  22.434  1.00  0.00     0.041 C 
ATOM     16  O   UNL     1     -34.524   6.051  21.910  1.00  0.00    -0.550 OA
ATOM     17  O   UNL     1     -33.565   8.122  22.124  1.00  0.00    -0.550 OA
ENDBRANCH  14  15
ENDBRANCH  13  14
ENDBRANCH  12  13
ENDBRANCH  11  12
ENDBRANCH  10  11
ENDBRANCH   9  10
ENDBRANCH   8   9
ENDBRANCH   7   8
ENDBRANCH   6   7
ENDBRANCH   5   6
ENDBRANCH   4   5
ENDBRANCH   3   4
ENDBRANCH   2   3
ENDBRANCH   1   2
BRANCH   1  18
ATOM     18  C   UNL     1     -32.763  12.532  19.198  1.00  0.00     0.000 C 
BRANCH  18  19
ATOM     19  C   UNL     1     -31.672  12.759  18.132  1.00  0.00     0.000 C 
BRANCH  19  20
ATOM     20  C   UNL     1     -32.184  12.903  16.688  1.00  0.00     0.000 C 
BRANCH  20  21
ATOM     21  C   UNL     1     -33.715  13.005  16.603  1.00  0.00     0.000 C 
BRANCH  21  22
ATOM     22  C   UNL     1     -34.144  14.382  16.072  1.00  0.00     0.000 C 
BRANCH  22  23
ATOM     23  C   UNL     1     -34.306  15.423  17.194  1.00  0.00     0.000 C 
BRANCH  23  24
ATOM     24  C   UNL     1     -34.944  16.729  16.691  1.00  0.00    -0.000 C 
BRANCH  24  25
ATOM     25  C   UNL     1     -34.904  17.849  17.743  1.00  0.00    -0.000 C 
BRANCH  25  26
ATOM     26  C   UNL     1     -36.094  18.813  17.629  1.00  0.00    -0.000 C 
BRANCH  26  27
ATOM     27  C   UNL     1     -37.425  18.067  17.791  1.00  0.00    -0.000 C 
BRANCH  27  28
ATOM     28  C   UNL     1     -37.190  16.583  18.096  1.00  0.00    -0.000 C 
BRANCH  28  29
ATOM     29  C   UNL     1     -38.482  15.770  17.919  1.00  0.00    -0.000 C 
BRANCH  29  30
ATOM     30  C   UNL     1     -39.744  16.616  18.192  1.00  0.00    -0.000 C 
BRANCH  30  31
ATOM     31  C   UNL     1     -40.644  16.791  16.960  1.00  0.00    -0.003 C 
ATOM     32  C   UNL     1     -40.780  18.249  16.525  1.00  0.00     0.004 C 
ENDBRANCH  30  31
ENDBRANCH  29  30
ENDBRANCH  28  29
ENDBRANCH  27  28
ENDBRANCH  26  27
ENDBRANCH  25  26
ENDBRANCH  24  25
ENDBRANCH  23  24
ENDBRANCH  22  23
ENDBRANCH  21  22
ENDBRANCH  20  21
ENDBRANCH  19  20
ENDBRANCH  18  19
ENDBRANCH   1  18
TORSDOF 28
ENDMDL
MODEL 7
REMARK VINA RESULT:    19.620      1.278      1.749
REMARK INTER + INTRA:          50.587
REMARK INTER:                  50.739
REMARK INTRA:                  -0.152
REMARK UNBOUND:                -1.149
REMARK SMILES CCCCCCCCCCCCCCCCCCCCCCCCCCCCCC(=O)[O-]
REMARK SMILES IDX 16 1 17 2 18 3 19 4 20 5 21 6 22 7 23 8 24 9 25 10 26 11
REMARK SMILES IDX 27 12 28 13 29 14 30 15 31 16 32 17 15 18 14 19 13 20 12 21
REMARK SMILES IDX 11 22 10 23 9 24 8 25 7 26 6 27 5 28 4 29 3 30 2 31 1 32
REMARK H PARENT
REMARK Flexibility Score: inf
ROOT
ATOM      1  C   UNL     1     -32.529  12.233  18.955  1.00  0.00     0.000 C 
ENDROOT
BRANCH   1   2
ATOM      2  C   UNL     1     -33.293  13.015  20.036  1.00  0.00     0.000 C 
BRANCH   2   3
ATOM      3  C   UNL     1     -34.007  12.100  21.049  1.00  0.00     0.000 C 
BRANCH   3   4
ATOM      4  C   UNL     1     -33.991  10.598  20.707  1.00  0.00     0.000 C 
BRANCH   4   5
ATOM      5  C   UNL     1     -34.114   9.699  21.951  1.00  0.00     0.000 C 
BRANCH   5   6
ATOM      6  C   UNL     1     -33.266   8.419  21.847  1.00  0.00     0.000 C 
BRANCH   6   7
ATOM      7  C   UNL     1     -34.026   7.110  22.136  1.00  0.00     0.000 C 
BRANCH   7   8
ATOM      8  C   UNL     1     -35.162   7.290  23.159  1.00  0.00     0.000 C 
BRANCH   8   9
ATOM      9  C   UNL     1     -34.711   6.995  24.606  1.00  0.00     0.000 C 
BRANCH   9  10
ATOM     10  C   UNL     1     -33.900   8.133  25.256  1.00  0.00     0.000 C 
BRANCH  10  11
ATOM     11  C   UNL     1     -34.671   8.991  26.275  1.00  0.00     0.000 C 
BRANCH  11  12
ATOM     12  C   UNL     1     -35.255  10.308  25.719  1.00  0.00     0.000 C 
BRANCH  12  13
ATOM     13  C   UNL     1     -34.218  11.415  25.435  1.00  0.00     0.006 C 
BRANCH  13  14
ATOM     14  C   UNL     1     -32.757  10.985  25.651  1.00  0.00     0.053 C 
BRANCH  14  15
ATOM     15  C   UNL     1     -32.407  10.878  27.104  1.00  0.00     0.041 C 
ATOM     16  O   UNL     1     -32.000  11.890  27.735  1.00  0.00    -0.550 OA
ATOM     17  O   UNL     1     -32.523   9.659  27.761  1.00  0.00    -0.550 OA
ENDBRANCH  14  15
ENDBRANCH  13  14
ENDBRANCH  12  13
ENDBRANCH  11  12
ENDBRANCH  10  11
ENDBRANCH   9  10
ENDBRANCH   8   9
ENDBRANCH   7   8
ENDBRANCH   6   7
ENDBRANCH   5   6
ENDBRANCH   4   5
ENDBRANCH   3   4
ENDBRANCH   2   3
ENDBRANCH   1   2
BRANCH   1  18
ATOM     18  C   UNL     1     -32.077  13.119  17.780  1.00  0.00     0.000 C 
BRANCH  18  19
ATOM     19  C   UNL     1     -33.048  13.183  16.583  1.00  0.00     0.000 C 
BRANCH  19  20
ATOM     20  C   UNL     1     -34.407  13.842  16.876  1.00  0.00     0.000 C 
BRANCH  20  21
ATOM     21  C   UNL     1     -34.346  15.377  16.860  1.00  0.00     0.000 C 
BRANCH  21  22
ATOM     22  C   UNL     1     -34.678  15.954  18.245  1.00  0.00     0.000 C 
BRANCH  22  23
ATOM     23  C   UNL     1     -34.419  17.467  18.332  1.00  0.00     0.000 C 
BRANCH  23  24
ATOM     24  C   UNL     1     -35.337  18.272  17.395  1.00  0.00    -0.000 C 
BRANCH  24  25
ATOM     25  C   UNL     1     -36.826  18.102  17.738  1.00  0.00    -0.000 C 
BRANCH  25  26
ATOM     26  C   UNL     1     -37.355  16.699  17.406  1.00  0.00    -0.000 C 
BRANCH  26  27
ATOM     27  C   UNL     1     -38.783  16.510  17.934  1.00  0.00    -0.000 C 
BRANCH  27  28
ATOM     28  C   UNL     1     -38.853  15.344  18.926  1.00  0.00    -0.000 C 
BRANCH  28  29
ATOM     29  C   UNL     1     -40.241  14.687  18.912  1.00  0.00    -0.000 C 
BRANCH  29  30
ATOM     30  C   UNL     1     -40.193  13.213  19.368  1.00  0.00    -0.000 C 
BRANCH  30  31
ATOM     31  C   UNL     1     -39.524  12.277  18.350  1.00  0.00    -0.003 C 
ATOM     32  C   UNL     1     -40.119  10.871  18.353  1.00  0.00     0.004 C 
ENDBRANCH  30  31
ENDBRANCH  29  30
ENDBRANCH  28  29
ENDBRANCH  27  28
ENDBRANCH  26  27
ENDBRANCH  25  26
ENDBRANCH  24  25
ENDBRANCH  23  24
ENDBRANCH  22  23
ENDBRANCH  21  22
ENDBRANCH  20  21
ENDBRANCH  19  20
ENDBRANCH  18  19
ENDBRANCH   1  18
TORSDOF 28
ENDMDL
MODEL 8
REMARK VINA RESULT:    19.868      2.236     10.039
REMARK INTER + INTRA:          51.241
REMARK INTER:                  53.193
REMARK INTRA:                  -1.953
REMARK UNBOUND:                -1.149
REMARK SMILES CCCCCCCCCCCCCCCCCCCCCCCCCCCCCC(=O)[O-]
REMARK SMILES IDX 16 1 17 2 18 3 19 4 20 5 21 6 22 7 23 8 24 9 25 10 26 11
REMARK SMILES IDX 27 12 28 13 29 14 30 15 31 16 32 17 15 18 14 19 13 20 12 21
REMARK SMILES IDX 11 22 10 23 9 24 8 25 7 26 6 27 5 28 4 29 3 30 2 31 1 32
REMARK H PARENT
REMARK Flexibility Score: inf
ROOT
ATOM      1  C   UNL     1     -32.715  12.975  17.268  1.00  0.00     0.000 C 
ENDROOT
BRANCH   1   2
ATOM      2  C   UNL     1     -34.158  13.409  16.961  1.00  0.00     0.000 C 
BRANCH   2   3
ATOM      3  C   UNL     1     -34.400  14.910  17.208  1.00  0.00     0.000 C 
BRANCH   3   4
ATOM      4  C   UNL     1     -34.615  15.762  15.943  1.00  0.00     0.000 C 
BRANCH   4   5
ATOM      5  C   UNL     1     -34.921  17.237  16.258  1.00  0.00     0.000 C 
BRANCH   5   6
ATOM      6  C   UNL     1     -35.315  17.462  17.730  1.00  0.00     0.000 C 
BRANCH   6   7
ATOM      7  C   UNL     1     -36.832  17.478  18.002  1.00  0.00     0.000 C 
BRANCH   7   8
ATOM      8  C   UNL     1     -37.589  16.376  17.237  1.00  0.00     0.000 C 
BRANCH   8   9
ATOM      9  C   UNL     1     -38.931  16.870  16.657  1.00  0.00     0.000 C 
BRANCH   9  10
ATOM     10  C   UNL     1     -39.898  17.446  17.710  1.00  0.00     0.000 C 
BRANCH  10  11
ATOM     11  C   UNL     1     -40.558  16.407  18.634  1.00  0.00     0.000 C 
BRANCH  11  12
ATOM     12  C   UNL     1     -39.605  15.708  19.628  1.00  0.00     0.000 C 
BRANCH  12  13
ATOM     13  C   UNL     1     -39.178  14.279  19.230  1.00  0.00     0.006 C 
BRANCH  13  14
ATOM     14  C   UNL     1     -40.349  13.337  18.903  1.00  0.00     0.053 C 
BRANCH  14  15
ATOM     15  C   UNL     1     -39.885  11.950  18.574  1.00  0.00     0.041 C 
ATOM     16  O   UNL     1     -40.515  10.950  19.011  1.00  0.00    -0.550 OA
ATOM     17  O   UNL     1     -38.751  11.761  17.792  1.00  0.00    -0.550 OA
ENDBRANCH  14  15
ENDBRANCH  13  14
ENDBRANCH  12  13
ENDBRANCH  11  12
ENDBRANCH  10  11
ENDBRANCH   9  10
ENDBRANCH   8   9
ENDBRANCH   7   8
ENDBRANCH   6   7
ENDBRANCH   5   6
ENDBRANCH   4   5
ENDBRANCH   3   4
ENDBRANCH   2   3
ENDBRANCH   1   2
BRANCH   1  18
ATOM     18  C   UNL     1     -32.437  12.837  18.776  1.00  0.00     0.000 C 
BRANCH  18  19
ATOM     19  C   UNL     1     -33.038  11.587  19.451  1.00  0.00     0.000 C 
BRANCH  19  20
ATOM     20  C   UNL     1     -33.873  11.859  20.714  1.00  0.00     0.000 C 
BRANCH  20  21
ATOM     21  C   UNL     1     -34.323  10.573  21.424  1.00  0.00     0.000 C 
BRANCH  21  22
ATOM     22  C   UNL     1     -33.335   9.426  21.161  1.00  0.00     0.000 C 
BRANCH  22  23
ATOM     23  C   UNL     1     -33.356   8.362  22.271  1.00  0.00     0.000 C 
BRANCH  23  24
ATOM     24  C   UNL     1     -34.681   7.580  22.305  1.00  0.00    -0.000 C 
BRANCH  24  25
ATOM     25  C   UNL     1     -34.884   6.819  23.626  1.00  0.00    -0.000 C 
BRANCH  25  26
ATOM     26  C   UNL     1     -34.477   7.646  24.855  1.00  0.00    -0.000 C 
BRANCH  26  27
ATOM     27  C   UNL     1     -33.319   6.979  25.609  1.00  0.00    -0.000 C 
BRANCH  27  28
ATOM     28  C   UNL     1     -32.961   7.766  26.875  1.00  0.00    -0.000 C 
BRANCH  28  29
ATOM     29  C   UNL     1     -33.653   9.137  26.889  1.00  0.00    -0.000 C 
BRANCH  29  30
ATOM     30  C   UNL     1     -32.641  10.299  26.968  1.00  0.00    -0.000 C 
BRANCH  30  31
ATOM     31  C   UNL     1     -32.998  11.488  26.062  1.00  0.00    -0.003 C 
ATOM     32  C   UNL     1     -34.199  11.208  25.161  1.00  0.00     0.004 C 
ENDBRANCH  30  31
ENDBRANCH  29  30
ENDBRANCH  28  29
ENDBRANCH  27  28
ENDBRANCH  26  27
ENDBRANCH  25  26
ENDBRANCH  24  25
ENDBRANCH  23  24
ENDBRANCH  22  23
ENDBRANCH  21  22
ENDBRANCH  20  21
ENDBRANCH  19  20
ENDBRANCH  18  19
ENDBRANCH   1  18
TORSDOF 28
ENDMDL
MODEL 9
REMARK VINA RESULT:    19.989      2.186     10.265
REMARK INTER + INTRA:          51.561
REMARK INTER:                  51.373
REMARK INTRA:                   0.187
REMARK UNBOUND:                -1.149
REMARK SMILES CCCCCCCCCCCCCCCCCCCCCCCCCCCCCC(=O)[O-]
REMARK SMILES IDX 16 1 17 2 18 3 19 4 20 5 21 6 22 7 23 8 24 9 25 10 26 11
REMARK SMILES IDX 27 12 28 13 29 14 30 15 31 16 32 17 15 18 14 19 13 20 12 21
REMARK SMILES IDX 11 22 10 23 9 24 8 25 7 26 6 27 5 28 4 29 3 30 2 31 1 32
REMARK H PARENT
REMARK Flexibility Score: inf
ROOT
ATOM      1  C   UNL     1     -33.173  12.583  19.634  1.00  0.00     0.000 C 
ENDROOT
BRANCH   1   2
ATOM      2  C   UNL     1     -31.933  12.907  18.784  1.00  0.00     0.000 C 
BRANCH   2   3
ATOM      3  C   UNL     1     -32.174  12.723  17.274  1.00  0.00     0.000 C 
BRANCH   3   4
ATOM      4  C   UNL     1     -33.639  12.852  16.819  1.00  0.00     0.000 C 
BRANCH   4   5
ATOM      5  C   UNL     1     -33.962  14.235  16.223  1.00  0.00     0.000 C 
BRANCH   5   6
ATOM      6  C   UNL     1     -34.475  15.232  17.278  1.00  0.00     0.000 C 
BRANCH   6   7
ATOM      7  C   UNL     1     -34.717  16.662  16.757  1.00  0.00     0.000 C 
BRANCH   7   8
ATOM      8  C   UNL     1     -34.369  17.745  17.796  1.00  0.00     0.000 C 
BRANCH   8   9
ATOM      9  C   UNL     1     -35.327  18.953  17.739  1.00  0.00     0.000 C 
BRANCH   9  10
ATOM     10  C   UNL     1     -36.820  18.572  17.722  1.00  0.00     0.000 C 
BRANCH  10  11
ATOM     11  C   UNL     1     -37.114  17.064  17.820  1.00  0.00     0.000 C 
BRANCH  11  12
ATOM     12  C   UNL     1     -38.350  16.581  17.029  1.00  0.00     0.000 C 
BRANCH  12  13
ATOM     13  C   UNL     1     -39.706  17.091  17.559  1.00  0.00     0.006 C 
BRANCH  13  14
ATOM     14  C   UNL     1     -40.502  16.051  18.366  1.00  0.00     0.053 C 
BRANCH  14  15
ATOM     15  C   UNL     1     -39.609  15.064  19.054  1.00  0.00     0.041 C 
ATOM     16  O   UNL     1     -38.595  15.461  19.688  1.00  0.00    -0.550 OA
ATOM     17  O   UNL     1     -39.892  13.705  18.991  1.00  0.00    -0.550 OA
ENDBRANCH  14  15
ENDBRANCH  13  14
ENDBRANCH  12  13
ENDBRANCH  11  12
ENDBRANCH  10  11
ENDBRANCH   9  10
ENDBRANCH   8   9
ENDBRANCH   7   8
ENDBRANCH   6   7
ENDBRANCH   5   6
ENDBRANCH   4   5
ENDBRANCH   3   4
ENDBRANCH   2   3
ENDBRANCH   1   2
BRANCH   1  18
ATOM     18  C   UNL     1     -33.619  11.114  19.511  1.00  0.00     0.000 C 
BRANCH  18  19
ATOM     19  C   UNL     1     -33.933  10.401  20.842  1.00  0.00     0.000 C 
BRANCH  19  20
ATOM     20  C   UNL     1     -32.752   9.648  21.478  1.00  0.00     0.000 C 
BRANCH  20  21
ATOM     21  C   UNL     1     -33.129   8.237  21.957  1.00  0.00     0.000 C 
BRANCH  21  22
ATOM     22  C   UNL     1     -34.646   8.117  22.168  1.00  0.00     0.000 C 
BRANCH  22  23
ATOM     23  C   UNL     1     -35.060   6.737  22.707  1.00  0.00     0.000 C 
BRANCH  23  24
ATOM     24  C   UNL     1     -35.613   6.812  24.142  1.00  0.00    -0.000 C 
BRANCH  24  25
ATOM     25  C   UNL     1     -34.790   7.747  25.043  1.00  0.00    -0.000 C 
BRANCH  25  26
ATOM     26  C   UNL     1     -33.586   7.044  25.686  1.00  0.00    -0.000 C 
BRANCH  26  27
ATOM     27  C   UNL     1     -32.599   8.064  26.269  1.00  0.00    -0.000 C 
BRANCH  27  28
ATOM     28  C   UNL     1     -33.278   8.947  27.322  1.00  0.00    -0.000 C 
BRANCH  28  29
ATOM     29  C   UNL     1     -33.258  10.424  26.903  1.00  0.00    -0.000 C 
BRANCH  29  30
ATOM     30  C   UNL     1     -33.531  10.605  25.394  1.00  0.00    -0.000 C 
BRANCH  30  31
ATOM     31  C   UNL     1     -33.615  12.075  24.957  1.00  0.00    -0.003 C 
ATOM     32  C   UNL     1     -34.447  12.273  23.693  1.00  0.00     0.004 C 
ENDBRANCH  30  31
ENDBRANCH  29  30
ENDBRANCH  28  29
ENDBRANCH  27  28
ENDBRANCH  26  27
ENDBRANCH  25  26
ENDBRANCH  24  25
ENDBRANCH  23  24
ENDBRANCH  22  23
ENDBRANCH  21  22
ENDBRANCH  20  21
ENDBRANCH  19  20
ENDBRANCH  18  19
ENDBRANCH   1  18
TORSDOF 28
ENDMDL
