MODEL 1
REMARK VINA RESULT:    -4.976      0.000      0.000
REMARK INTER + INTRA:          -5.400
REMARK INTER:                  -5.267
REMARK INTRA:                  -0.133
REMARK UNBOUND:                -0.133
REMARK SMILES C=C(C)[C@H]1CC=C(C)CC1
REMARK SMILES IDX 8 1 7 2 6 3 5 4 4 5 10 6 9 7 2 8 1 9 3 10
REMARK H PARENT
REMARK Flexibility Score: inf
ROOT
ATOM      1  C   UNL     1      41.622  57.774   7.852  1.00  0.00     0.039 C 
ATOM      2  C   UNL     1      41.339  59.250   7.881  1.00  0.00    -0.077 C 
ATOM      3  C   UNL     1      40.141  59.680   8.334  1.00  0.00    -0.027 C 
ATOM      4  C   UNL     1      39.743  61.135   8.352  1.00  0.00     0.035 C 
ATOM      5  C   UNL     1      40.964  62.072   8.347  1.00  0.00     0.018 C 
ATOM      6  C   UNL     1      41.951  61.639   7.252  1.00  0.00     0.013 C 
ATOM      7  C   UNL     1      42.454  60.217   7.527  1.00  0.00     0.031 C 
ENDROOT
BRANCH   5   8
ATOM      8  C   UNL     1      40.554  63.529   8.194  1.00  0.00    -0.077 C 
ATOM      9  C   UNL     1      39.336  63.959   8.572  1.00  0.00     0.008 C 
ATOM     10  C   UNL     1      41.539  64.496   7.591  1.00  0.00     0.039 C 
ENDBRANCH   5   8
TORSDOF 1
ENDMDL
MODEL 2
REMARK VINA RESULT:    -4.831      2.041      4.856
REMARK INTER + INTRA:          -5.247
REMARK INTER:                  -5.117
REMARK INTRA:                  -0.130
REMARK UNBOUND:                -0.133
REMARK SMILES C=C(C)[C@H]1CC=C(C)CC1
REMARK SMILES IDX 8 1 7 2 6 3 5 4 4 5 10 6 9 7 2 8 1 9 3 10
REMARK H PARENT
REMARK Flexibility Score: inf
ROOT
ATOM      1  C   UNL     1      44.093  66.073   4.684  1.00  0.00     0.039 C 
ATOM      2  C   UNL     1      43.174  65.286   5.577  1.00  0.00    -0.077 C 
ATOM      3  C   UNL     1      42.711  65.859   6.709  1.00  0.00    -0.027 C 
ATOM      4  C   UNL     1      41.829  65.134   7.696  1.00  0.00     0.035 C 
ATOM      5  C   UNL     1      41.084  63.952   7.050  1.00  0.00     0.018 C 
ATOM      6  C   UNL     1      42.067  63.093   6.241  1.00  0.00     0.013 C 
ATOM      7  C   UNL     1      42.691  63.925   5.113  1.00  0.00     0.031 C 
ENDROOT
BRANCH   5   8
ATOM      8  C   UNL     1      40.333  63.128   8.086  1.00  0.00    -0.077 C 
ATOM      9  C   UNL     1      39.357  63.667   8.838  1.00  0.00     0.008 C 
ATOM     10  C   UNL     1      40.714  61.683   8.270  1.00  0.00     0.039 C 
ENDBRANCH   5   8
TORSDOF 1
ENDMDL
MODEL 3
REMARK VINA RESULT:    -4.786      1.976      4.828
REMARK INTER + INTRA:          -5.199
REMARK INTER:                  -5.071
REMARK INTRA:                  -0.128
REMARK UNBOUND:                -0.133
REMARK SMILES C=C(C)[C@H]1CC=C(C)CC1
REMARK SMILES IDX 8 1 7 2 6 3 5 4 4 5 10 6 9 7 2 8 1 9 3 10
REMARK H PARENT
REMARK Flexibility Score: inf
ROOT
ATOM      1  C   UNL     1      44.009  65.967   4.769  1.00  0.00     0.039 C 
ATOM      2  C   UNL     1      43.043  65.237   5.660  1.00  0.00    -0.077 C 
ATOM      3  C   UNL     1      42.631  63.999   5.307  1.00  0.00    -0.027 C 
ATOM      4  C   UNL     1      41.623  63.209   6.105  1.00  0.00     0.035 C 
ATOM      5  C   UNL     1      41.548  63.675   7.570  1.00  0.00     0.018 C 
ATOM      6  C   UNL     1      41.428  65.206   7.626  1.00  0.00     0.013 C 
ATOM      7  C   UNL     1      42.663  65.856   6.992  1.00  0.00     0.031 C 
ENDROOT
BRANCH   5   8
ATOM      8  C   UNL     1      40.415  62.991   8.319  1.00  0.00    -0.077 C 
ATOM      9  C   UNL     1      39.403  63.694   8.859  1.00  0.00     0.008 C 
ATOM     10  C   UNL     1      40.450  61.492   8.465  1.00  0.00     0.039 C 
ENDBRANCH   5   8
TORSDOF 1
ENDMDL
MODEL 4
REMARK VINA RESULT:    -4.756      2.270      3.700
REMARK INTER + INTRA:          -5.168
REMARK INTER:                  -5.034
REMARK INTRA:                  -0.134
REMARK UNBOUND:                -0.133
REMARK SMILES C=C(C)[C@H]1CC=C(C)CC1
REMARK SMILES IDX 8 1 7 2 6 3 5 4 4 5 10 6 9 7 2 8 1 9 3 10
REMARK H PARENT
REMARK Flexibility Score: inf
ROOT
ATOM      1  C   UNL     1      41.616  61.211   8.183  1.00  0.00     0.039 C 
ATOM      2  C   UNL     1      40.810  62.404   7.749  1.00  0.00    -0.077 C 
ATOM      3  C   UNL     1      41.014  62.922   6.518  1.00  0.00    -0.027 C 
ATOM      4  C   UNL     1      40.295  64.148   6.012  1.00  0.00     0.035 C 
ATOM      5  C   UNL     1      38.974  64.397   6.762  1.00  0.00     0.018 C 
ATOM      6  C   UNL     1      39.207  64.309   8.277  1.00  0.00     0.013 C 
ATOM      7  C   UNL     1      39.701  62.907   8.655  1.00  0.00     0.031 C 
ENDROOT
BRANCH   5   8
ATOM      8  C   UNL     1      38.343  65.723   6.362  1.00  0.00    -0.077 C 
ATOM      9  C   UNL     1      37.359  66.280   7.090  1.00  0.00     0.008 C 
ATOM     10  C   UNL     1      38.834  66.406   5.112  1.00  0.00     0.039 C 
ENDBRANCH   5   8
TORSDOF 1
ENDMDL
MODEL 5
REMARK VINA RESULT:    -4.708      1.131      4.434
REMARK INTER + INTRA:          -5.116
REMARK INTER:                  -4.991
REMARK INTRA:                  -0.125
REMARK UNBOUND:                -0.133
REMARK SMILES C=C(C)[C@H]1CC=C(C)CC1
REMARK SMILES IDX 8 1 7 2 6 3 5 4 4 5 10 6 9 7 2 8 1 9 3 10
REMARK H PARENT
REMARK Flexibility Score: inf
ROOT
ATOM      1  C   UNL     1      42.191  65.525   6.853  1.00  0.00     0.039 C 
ATOM      2  C   UNL     1      41.692  64.133   7.130  1.00  0.00    -0.077 C 
ATOM      3  C   UNL     1      41.946  63.155   6.233  1.00  0.00    -0.027 C 
ATOM      4  C   UNL     1      41.442  61.742   6.393  1.00  0.00     0.035 C 
ATOM      5  C   UNL     1      41.125  61.402   7.861  1.00  0.00     0.018 C 
ATOM      6  C   UNL     1      40.269  62.515   8.482  1.00  0.00     0.013 C 
ATOM      7  C   UNL     1      41.036  63.842   8.467  1.00  0.00     0.031 C 
ENDROOT
BRANCH   5   8
ATOM      8  C   UNL     1      40.461  60.039   7.989  1.00  0.00    -0.077 C 
ATOM      9  C   UNL     1      39.140  59.879   7.793  1.00  0.00     0.008 C 
ATOM     10  C   UNL     1      41.315  58.854   8.361  1.00  0.00     0.039 C 
ENDBRANCH   5   8
TORSDOF 1
ENDMDL
MODEL 6
REMARK VINA RESULT:    -4.707      1.281      2.115
REMARK INTER + INTRA:          -5.115
REMARK INTER:                  -4.984
REMARK INTRA:                  -0.131
REMARK UNBOUND:                -0.133
REMARK SMILES C=C(C)[C@H]1CC=C(C)CC1
REMARK SMILES IDX 8 1 7 2 6 3 5 4 4 5 10 6 9 7 2 8 1 9 3 10
REMARK H PARENT
REMARK Flexibility Score: inf
ROOT
ATOM      1  C   UNL     1      42.290  59.051   7.779  1.00  0.00     0.039 C 
ATOM      2  C   UNL     1      41.682  60.418   7.624  1.00  0.00    -0.077 C 
ATOM      3  C   UNL     1      42.159  61.243   6.666  1.00  0.00    -0.027 C 
ATOM      4  C   UNL     1      41.653  62.651   6.467  1.00  0.00     0.035 C 
ATOM      5  C   UNL     1      40.238  62.846   7.042  1.00  0.00     0.018 C 
ATOM      6  C   UNL     1      40.171  62.282   8.469  1.00  0.00     0.013 C 
ATOM      7  C   UNL     1      40.467  60.778   8.458  1.00  0.00     0.031 C 
ENDROOT
BRANCH   5   8
ATOM      8  C   UNL     1      39.807  64.304   6.988  1.00  0.00    -0.077 C 
ATOM      9  C   UNL     1      39.083  64.859   7.977  1.00  0.00     0.008 C 
ATOM     10  C   UNL     1      40.195  65.126   5.787  1.00  0.00     0.039 C 
ENDBRANCH   5   8
TORSDOF 1
ENDMDL
MODEL 7
REMARK VINA RESULT:    -4.687      2.710      5.629
REMARK INTER + INTRA:          -5.094
REMARK INTER:                  -4.969
REMARK INTRA:                  -0.125
REMARK UNBOUND:                -0.133
REMARK SMILES C=C(C)[C@H]1CC=C(C)CC1
REMARK SMILES IDX 8 1 7 2 6 3 5 4 4 5 10 6 9 7 2 8 1 9 3 10
REMARK H PARENT
REMARK Flexibility Score: inf
ROOT
ATOM      1  C   UNL     1      37.874  67.247   4.611  1.00  0.00     0.039 C 
ATOM      2  C   UNL     1      38.523  66.240   5.520  1.00  0.00    -0.077 C 
ATOM      3  C   UNL     1      37.917  65.921   6.685  1.00  0.00    -0.027 C 
ATOM      4  C   UNL     1      38.515  64.964   7.687  1.00  0.00     0.035 C 
ATOM      5  C   UNL     1      39.532  64.006   7.041  1.00  0.00     0.018 C 
ATOM      6  C   UNL     1      40.517  64.799   6.170  1.00  0.00     0.013 C 
ATOM      7  C   UNL     1      39.767  65.515   5.041  1.00  0.00     0.031 C 
ENDROOT
BRANCH   5   8
ATOM      8  C   UNL     1      40.250  63.163   8.084  1.00  0.00    -0.077 C 
ATOM      9  C   UNL     1      41.193  63.689   8.885  1.00  0.00     0.008 C 
ATOM     10  C   UNL     1      39.895  61.703   8.198  1.00  0.00     0.039 C 
ENDBRANCH   5   8
TORSDOF 1
ENDMDL
MODEL 8
REMARK VINA RESULT:    -4.639      1.697      4.554
REMARK INTER + INTRA:          -5.044
REMARK INTER:                  -4.913
REMARK INTRA:                  -0.131
REMARK UNBOUND:                -0.133
REMARK SMILES C=C(C)[C@H]1CC=C(C)CC1
REMARK SMILES IDX 8 1 7 2 6 3 5 4 4 5 10 6 9 7 2 8 1 9 3 10
REMARK H PARENT
REMARK Flexibility Score: inf
ROOT
ATOM      1  C   UNL     1      42.737  66.206   6.540  1.00  0.00     0.039 C 
ATOM      2  C   UNL     1      42.037  64.890   6.740  1.00  0.00    -0.077 C 
ATOM      3  C   UNL     1      41.544  64.588   7.961  1.00  0.00    -0.027 C 
ATOM      4  C   UNL     1      40.874  63.272   8.274  1.00  0.00     0.035 C 
ATOM      5  C   UNL     1      40.325  62.585   7.011  1.00  0.00     0.018 C 
ATOM      6  C   UNL     1      41.400  62.569   5.915  1.00  0.00     0.013 C 
ATOM      7  C   UNL     1      41.788  64.002   5.534  1.00  0.00     0.031 C 
ENDROOT
BRANCH   5   8
ATOM      8  C   UNL     1      39.804  61.188   7.315  1.00  0.00    -0.077 C 
ATOM      9  C   UNL     1      40.145  60.541   8.443  1.00  0.00     0.008 C 
ATOM     10  C   UNL     1      38.899  60.523   6.310  1.00  0.00     0.039 C 
ENDBRANCH   5   8
TORSDOF 1
ENDMDL
MODEL 9
REMARK VINA RESULT:    -4.463      1.359      2.188
REMARK INTER + INTRA:          -4.857
REMARK INTER:                  -4.731
REMARK INTRA:                  -0.126
REMARK UNBOUND:                -0.133
REMARK SMILES C=C(C)[C@H]1CC=C(C)CC1
REMARK SMILES IDX 8 1 7 2 6 3 5 4 4 5 10 6 9 7 2 8 1 9 3 10
REMARK H PARENT
REMARK Flexibility Score: inf
ROOT
ATOM      1  C   UNL     1      40.386  59.147   8.254  1.00  0.00     0.039 C 
ATOM      2  C   UNL     1      40.585  60.567   7.801  1.00  0.00    -0.077 C 
ATOM      3  C   UNL     1      40.394  61.570   8.685  1.00  0.00    -0.027 C 
ATOM      4  C   UNL     1      40.516  63.027   8.313  1.00  0.00     0.035 C 
ATOM      5  C   UNL     1      41.386  63.236   7.061  1.00  0.00     0.018 C 
ATOM      6  C   UNL     1      40.942  62.274   5.949  1.00  0.00     0.013 C 
ATOM      7  C   UNL     1      41.122  60.822   6.405  1.00  0.00     0.031 C 
ENDROOT
BRANCH   5   8
ATOM      8  C   UNL     1      41.364  64.686   6.597  1.00  0.00    -0.077 C 
ATOM      9  C   UNL     1      42.340  65.547   6.938  1.00  0.00     0.008 C 
ATOM     10  C   UNL     1      40.209  65.154   5.752  1.00  0.00     0.039 C 
ENDBRANCH   5   8
TORSDOF 1
ENDMDL
