MODEL 1
REMARK VINA RESULT:    -7.344      0.000      0.000
REMARK INTER + INTRA:         -10.851
REMARK INTER:                  -9.921
REMARK INTRA:                  -0.931
REMARK UNBOUND:                -0.931
REMARK SMILES O=c1c(-c2ccc(O)cc2)coc2c([C@H]3O[C@H](CO)[C@@H](O)[C@@H](O)[C@@H]3O)c(O)ccc12
REMARK SMILES IDX 3 1 11 2 12 3 13 4 30 5 2 6 1 7 29 8 28 9 26 10 14 11 4 12
REMARK SMILES IDX 5 13 6 14 7 15 10 16 9 17 8 18 15 20 24 21 16 22 22 23 17 24
REMARK SMILES IDX 20 25 25 26 23 28 18 30 19 31 21 33 27 35
REMARK H PARENT 8 19 25 27 23 29 19 32 21 34 27 36
REMARK Flexibility Score: inf
ROOT
ATOM      1  C   UNL     1     -16.983 -30.728 -13.237  1.00  0.00     0.065 A 
ATOM      2  C   UNL     1     -16.569 -31.934 -12.656  1.00  0.00     0.208 A 
ATOM      3  O   UNL     1     -16.110 -31.968 -11.411  1.00  0.00    -0.463 OA
ATOM      4  C   UNL     1     -16.012 -30.888 -10.638  1.00  0.00     0.147 A 
ATOM      5  C   UNL     1     -16.418 -29.631 -11.144  1.00  0.00     0.066 A 
ATOM      6  C   UNL     1     -16.911 -29.560 -12.460  1.00  0.00     0.200 A 
ATOM      7  O   UNL     1     -17.309 -28.458 -12.932  1.00  0.00    -0.288 OA
ATOM      8  C   UNL     1     -16.329 -28.495 -10.329  1.00  0.00     0.020 A 
ATOM      9  C   UNL     1     -15.859 -28.604  -9.025  1.00  0.00     0.047 A 
ATOM     10  C   UNL     1     -15.459 -29.836  -8.502  1.00  0.00     0.125 A 
ATOM     11  C   UNL     1     -15.506 -31.004  -9.318  1.00  0.00     0.069 A 
ENDROOT
BRANCH   1  12
ATOM     12  C   UNL     1     -17.484 -30.714 -14.635  1.00  0.00    -0.011 A 
ATOM     13  C   UNL     1     -16.807 -29.981 -15.625  1.00  0.00     0.013 A 
ATOM     14  C   UNL     1     -17.281 -29.958 -16.939  1.00  0.00     0.047 A 
ATOM     15  C   UNL     1     -18.440 -30.663 -17.281  1.00  0.00     0.115 A 
ATOM     16  C   UNL     1     -18.653 -31.415 -14.985  1.00  0.00     0.013 A 
ATOM     17  C   UNL     1     -19.125 -31.391 -16.300  1.00  0.00     0.047 A 
BRANCH  15  18
ATOM     18  O   UNL     1     -18.901 -30.632 -18.596  1.00  0.00    -0.508 OA
ATOM     19  H   UNL     1     -19.842 -30.923 -18.833  1.00  0.00     0.293 HD
ENDBRANCH  15  18
ENDBRANCH   1  12
BRANCH  11  20
ATOM     20  C   UNL     1     -15.068 -32.370  -8.800  1.00  0.00     0.188 C 
ATOM     21  C   UNL     1     -16.258 -33.098  -8.133  1.00  0.00     0.179 C 
ATOM     22  O   UNL     1     -13.964 -32.207  -7.919  1.00  0.00    -0.362 OA
ATOM     23  C   UNL     1     -15.794 -34.449  -7.569  1.00  0.00     0.177 C 
ATOM     24  C   UNL     1     -13.465 -33.439  -7.414  1.00  0.00     0.176 C 
ATOM     25  C   UNL     1     -14.558 -34.253  -6.676  1.00  0.00     0.177 C 
BRANCH  21  26
ATOM     26  O   UNL     1     -17.266 -33.309  -9.090  1.00  0.00    -0.387 OA
ATOM     27  H   UNL     1     -18.007 -32.685  -8.874  1.00  0.00     0.211 HD
ENDBRANCH  21  26
BRANCH  23  28
ATOM     28  O   UNL     1     -16.838 -35.031  -6.831  1.00  0.00    -0.387 OA
ATOM     29  H   UNL     1     -16.748 -34.698  -5.900  1.00  0.00     0.211 HD
ENDBRANCH  23  28
BRANCH  24  30
ATOM     30  C   UNL     1     -12.698 -34.241  -8.488  1.00  0.00     0.191 C 
BRANCH  30  31
ATOM     31  O   UNL     1     -12.385 -35.524  -8.012  1.00  0.00    -0.394 OA
ATOM     32  H   UNL     1     -11.913 -35.999  -8.746  1.00  0.00     0.210 HD
ENDBRANCH  30  31
ENDBRANCH  24  30
BRANCH  25  33
ATOM     33  O   UNL     1     -14.936 -33.579  -5.502  1.00  0.00    -0.388 OA
ATOM     34  H   UNL     1     -14.991 -34.260  -4.782  1.00  0.00     0.211 HD
ENDBRANCH  25  33
ENDBRANCH  11  20
BRANCH  10  35
ATOM     35  O   UNL     1     -15.032 -29.849  -7.171  1.00  0.00    -0.507 OA
ATOM     36  H   UNL     1     -14.847 -29.024  -6.620  1.00  0.00     0.293 HD
ENDBRANCH  10  35
TORSDOF 9
ENDMDL
MODEL 2
REMARK VINA RESULT:    -6.963      2.284      8.244
REMARK INTER + INTRA:         -10.336
REMARK INTER:                  -9.848
REMARK INTRA:                  -0.488
REMARK UNBOUND:                -0.931
REMARK SMILES O=c1c(-c2ccc(O)cc2)coc2c([C@H]3O[C@H](CO)[C@@H](O)[C@@H](O)[C@@H]3O)c(O)ccc12
REMARK SMILES IDX 3 1 11 2 12 3 13 4 30 5 2 6 1 7 29 8 28 9 26 10 14 11 4 12
REMARK SMILES IDX 5 13 6 14 7 15 10 16 9 17 8 18 15 20 24 21 16 22 22 23 17 24
REMARK SMILES IDX 20 25 25 26 23 28 18 30 19 31 21 33 27 35
REMARK H PARENT 8 19 25 27 23 29 19 32 21 34 27 36
REMARK Flexibility Score: inf
ROOT
ATOM      1  C   UNL     1     -16.150 -32.505  -9.423  1.00  0.00     0.065 A 
ATOM      2  C   UNL     1     -15.420 -31.353  -9.745  1.00  0.00     0.208 A 
ATOM      3  O   UNL     1     -15.706 -30.647 -10.831  1.00  0.00    -0.463 OA
ATOM      4  C   UNL     1     -16.682 -30.970 -11.678  1.00  0.00     0.147 A 
ATOM      5  C   UNL     1     -17.474 -32.113 -11.422  1.00  0.00     0.066 A 
ATOM      6  C   UNL     1     -17.200 -32.883 -10.277  1.00  0.00     0.200 A 
ATOM      7  O   UNL     1     -17.908 -33.893 -10.005  1.00  0.00    -0.288 OA
ATOM      8  C   UNL     1     -18.512 -32.447 -12.302  1.00  0.00     0.020 A 
ATOM      9  C   UNL     1     -18.772 -31.651 -13.413  1.00  0.00     0.047 A 
ATOM     10  C   UNL     1     -18.006 -30.514 -13.681  1.00  0.00     0.125 A 
ATOM     11  C   UNL     1     -16.923 -30.167 -12.823  1.00  0.00     0.069 A 
ENDROOT
BRANCH   1  12
ATOM     12  C   UNL     1     -15.806 -33.284  -8.206  1.00  0.00    -0.011 A 
ATOM     13  C   UNL     1     -14.481 -33.317  -7.736  1.00  0.00     0.013 A 
ATOM     14  C   UNL     1     -14.153 -34.056  -6.596  1.00  0.00     0.047 A 
ATOM     15  C   UNL     1     -15.141 -34.774  -5.914  1.00  0.00     0.115 A 
ATOM     16  C   UNL     1     -16.793 -34.013  -7.519  1.00  0.00     0.013 A 
ATOM     17  C   UNL     1     -16.462 -34.751  -6.379  1.00  0.00     0.047 A 
BRANCH  15  18
ATOM     18  O   UNL     1     -14.799 -35.505  -4.778  1.00  0.00    -0.508 OA
ATOM     19  H   UNL     1     -13.865 -35.877  -4.650  1.00  0.00     0.293 HD
ENDBRANCH  15  18
ENDBRANCH   1  12
BRANCH  11  20
ATOM     20  C   UNL     1     -16.049 -28.943 -13.078  1.00  0.00     0.188 C 
ATOM     21  C   UNL     1     -16.698 -27.682 -12.465  1.00  0.00     0.179 C 
ATOM     22  O   UNL     1     -15.817 -28.815 -14.475  1.00  0.00    -0.362 OA
ATOM     23  C   UNL     1     -15.836 -26.448 -12.773  1.00  0.00     0.177 C 
ATOM     24  C   UNL     1     -14.977 -27.716 -14.804  1.00  0.00     0.176 C 
ATOM     25  C   UNL     1     -15.542 -26.372 -14.280  1.00  0.00     0.177 C 
BRANCH  21  26
ATOM     26  O   UNL     1     -16.803 -27.846 -11.073  1.00  0.00    -0.387 OA
ATOM     27  H   UNL     1     -17.267 -28.710 -10.916  1.00  0.00     0.211 HD
ENDBRANCH  21  26
BRANCH  23  28
ATOM     28  O   UNL     1     -16.509 -25.290 -12.351  1.00  0.00    -0.387 OA
ATOM     29  H   UNL     1     -15.876 -24.786 -11.775  1.00  0.00     0.211 HD
ENDBRANCH  23  28
BRANCH  24  30
ATOM     30  C   UNL     1     -13.503 -27.973 -14.419  1.00  0.00     0.191 C 
BRANCH  30  31
ATOM     31  O   UNL     1     -12.760 -28.355 -15.545  1.00  0.00    -0.394 OA
ATOM     32  H   UNL     1     -13.300 -28.120 -16.344  1.00  0.00     0.210 HD
ENDBRANCH  30  31
ENDBRANCH  24  30
BRANCH  25  33
ATOM     33  O   UNL     1     -16.728 -26.060 -14.968  1.00  0.00    -0.388 OA
ATOM     34  H   UNL     1     -17.467 -26.105 -14.306  1.00  0.00     0.211 HD
ENDBRANCH  25  33
ENDBRANCH  11  20
BRANCH  10  35
ATOM     35  O   UNL     1     -18.365 -29.761 -14.803  1.00  0.00    -0.507 OA
ATOM     36  H   UNL     1     -18.033 -29.934 -15.740  1.00  0.00     0.293 HD
ENDBRANCH  10  35
TORSDOF 9
ENDMDL
MODEL 3
REMARK VINA RESULT:    -6.859      2.023      3.476
REMARK INTER + INTRA:         -10.196
REMARK INTER:                 -10.513
REMARK INTRA:                   0.318
REMARK UNBOUND:                -0.931
REMARK SMILES O=c1c(-c2ccc(O)cc2)coc2c([C@H]3O[C@H](CO)[C@@H](O)[C@@H](O)[C@@H]3O)c(O)ccc12
REMARK SMILES IDX 3 1 11 2 12 3 13 4 30 5 2 6 1 7 29 8 28 9 26 10 14 11 4 12
REMARK SMILES IDX 5 13 6 14 7 15 10 16 9 17 8 18 15 20 24 21 16 22 22 23 17 24
REMARK SMILES IDX 20 25 25 26 23 28 18 30 19 31 21 33 27 35
REMARK H PARENT 8 19 25 27 23 29 19 32 21 34 27 36
REMARK Flexibility Score: inf
ROOT
ATOM      1  C   UNL     1     -17.017 -30.444 -12.727  1.00  0.00     0.065 A 
ATOM      2  C   UNL     1     -16.037 -30.269 -11.741  1.00  0.00     0.208 A 
ATOM      3  O   UNL     1     -15.896 -31.147 -10.757  1.00  0.00    -0.463 OA
ATOM      4  C   UNL     1     -16.654 -32.236 -10.633  1.00  0.00     0.147 A 
ATOM      5  C   UNL     1     -17.661 -32.494 -11.592  1.00  0.00     0.066 A 
ATOM      6  C   UNL     1     -17.836 -31.584 -12.651  1.00  0.00     0.200 A 
ATOM      7  O   UNL     1     -18.707 -31.800 -13.539  1.00  0.00    -0.288 OA
ATOM      8  C   UNL     1     -18.451 -33.645 -11.474  1.00  0.00     0.020 A 
ATOM      9  C   UNL     1     -18.237 -34.537 -10.428  1.00  0.00     0.047 A 
ATOM     10  C   UNL     1     -17.243 -34.305  -9.474  1.00  0.00     0.125 A 
ATOM     11  C   UNL     1     -16.446 -33.127  -9.549  1.00  0.00     0.069 A 
ENDROOT
BRANCH   1  12
ATOM     12  C   UNL     1     -17.161 -29.443 -13.814  1.00  0.00    -0.011 A 
ATOM     13  C   UNL     1     -16.425 -29.577 -15.005  1.00  0.00     0.013 A 
ATOM     14  C   UNL     1     -16.551 -28.631 -16.026  1.00  0.00     0.047 A 
ATOM     15  C   UNL     1     -17.409 -27.538 -15.870  1.00  0.00     0.115 A 
ATOM     16  C   UNL     1     -18.017 -28.337 -13.662  1.00  0.00     0.013 A 
ATOM     17  C   UNL     1     -18.141 -27.393 -14.685  1.00  0.00     0.047 A 
BRANCH  15  18
ATOM     18  O   UNL     1     -17.526 -26.604 -16.897  1.00  0.00    -0.508 OA
ATOM     19  H   UNL     1     -17.875 -26.865 -17.812  1.00  0.00     0.293 HD
ENDBRANCH  15  18
ENDBRANCH   1  12
BRANCH  11  20
ATOM     20  C   UNL     1     -15.358 -32.820  -8.525  1.00  0.00     0.188 C 
ATOM     21  C   UNL     1     -15.047 -31.306  -8.509  1.00  0.00     0.179 C 
ATOM     22  O   UNL     1     -14.210 -33.610  -8.808  1.00  0.00    -0.362 OA
ATOM     23  C   UNL     1     -13.915 -31.015  -7.513  1.00  0.00     0.177 C 
ATOM     24  C   UNL     1     -13.153 -33.415  -7.877  1.00  0.00     0.176 C 
ATOM     25  C   UNL     1     -12.713 -31.931  -7.797  1.00  0.00     0.177 C 
BRANCH  21  26
ATOM     26  O   UNL     1     -16.202 -30.601  -8.127  1.00  0.00    -0.387 OA
ATOM     27  H   UNL     1     -16.978 -31.082  -8.514  1.00  0.00     0.211 HD
ENDBRANCH  21  26
BRANCH  23  28
ATOM     28  O   UNL     1     -13.532 -29.668  -7.619  1.00  0.00    -0.387 OA
ATOM     29  H   UNL     1     -14.080 -29.272  -8.347  1.00  0.00     0.211 HD
ENDBRANCH  23  28
BRANCH  24  30
ATOM     30  C   UNL     1     -13.457 -34.056  -6.505  1.00  0.00     0.191 C 
BRANCH  30  31
ATOM     31  O   UNL     1     -13.034 -35.394  -6.483  1.00  0.00    -0.394 OA
ATOM     32  H   UNL     1     -12.878 -35.634  -5.533  1.00  0.00     0.210 HD
ENDBRANCH  30  31
ENDBRANCH  24  30
BRANCH  25  33
ATOM     33  O   UNL     1     -12.117 -31.550  -9.013  1.00  0.00    -0.388 OA
ATOM     34  H   UNL     1     -11.870 -32.386  -9.488  1.00  0.00     0.211 HD
ENDBRANCH  25  33
ENDBRANCH  11  20
BRANCH  10  35
ATOM     35  O   UNL     1     -17.083 -35.276  -8.480  1.00  0.00    -0.507 OA
ATOM     36  H   UNL     1     -17.806 -35.562  -7.836  1.00  0.00     0.293 HD
ENDBRANCH  10  35
TORSDOF 9
ENDMDL
MODEL 4
REMARK VINA RESULT:    -6.848      2.771      8.040
REMARK INTER + INTRA:         -10.180
REMARK INTER:                  -9.278
REMARK INTRA:                  -0.902
REMARK UNBOUND:                -0.931
REMARK SMILES O=c1c(-c2ccc(O)cc2)coc2c([C@H]3O[C@H](CO)[C@@H](O)[C@@H](O)[C@@H]3O)c(O)ccc12
REMARK SMILES IDX 3 1 11 2 12 3 13 4 30 5 2 6 1 7 29 8 28 9 26 10 14 11 4 12
REMARK SMILES IDX 5 13 6 14 7 15 10 16 9 17 8 18 15 20 24 21 16 22 22 23 17 24
REMARK SMILES IDX 20 25 25 26 23 28 18 30 19 31 21 33 27 35
REMARK H PARENT 8 19 25 27 23 29 19 32 21 34 27 36
REMARK Flexibility Score: inf
ROOT
ATOM      1  C   UNL     1     -16.869 -31.890 -10.163  1.00  0.00     0.065 A 
ATOM      2  C   UNL     1     -16.129 -30.712  -9.994  1.00  0.00     0.208 A 
ATOM      3  O   UNL     1     -15.970 -29.858 -10.997  1.00  0.00    -0.463 OA
ATOM      4  C   UNL     1     -16.488 -30.049 -12.210  1.00  0.00     0.147 A 
ATOM      5  C   UNL     1     -17.258 -31.208 -12.462  1.00  0.00     0.066 A 
ATOM      6  C   UNL     1     -17.448 -32.134 -11.420  1.00  0.00     0.200 A 
ATOM      7  O   UNL     1     -18.153 -33.164 -11.605  1.00  0.00    -0.288 OA
ATOM      8  C   UNL     1     -17.816 -31.404 -13.732  1.00  0.00     0.020 A 
ATOM      9  C   UNL     1     -17.628 -30.459 -14.734  1.00  0.00     0.047 A 
ATOM     10  C   UNL     1     -16.878 -29.303 -14.504  1.00  0.00     0.125 A 
ATOM     11  C   UNL     1     -16.270 -29.091 -13.233  1.00  0.00     0.069 A 
ENDROOT
BRANCH   1  12
ATOM     12  C   UNL     1     -17.026 -32.835  -9.028  1.00  0.00    -0.011 A 
ATOM     13  C   UNL     1     -15.898 -33.447  -8.453  1.00  0.00     0.013 A 
ATOM     14  C   UNL     1     -16.043 -34.343  -7.391  1.00  0.00     0.047 A 
ATOM     15  C   UNL     1     -17.314 -34.644  -6.892  1.00  0.00     0.115 A 
ATOM     16  C   UNL     1     -18.302 -33.147  -8.526  1.00  0.00     0.013 A 
ATOM     17  C   UNL     1     -18.444 -34.044  -7.463  1.00  0.00     0.047 A 
BRANCH  15  18
ATOM     18  O   UNL     1     -17.444 -35.538  -5.832  1.00  0.00    -0.508 OA
ATOM     19  H   UNL     1     -17.074 -35.326  -4.913  1.00  0.00     0.293 HD
ENDBRANCH  15  18
ENDBRANCH   1  12
BRANCH  11  20
ATOM     20  C   UNL     1     -15.430 -27.853 -12.935  1.00  0.00     0.188 C 
ATOM     21  C   UNL     1     -16.335 -26.688 -12.476  1.00  0.00     0.179 C 
ATOM     22  O   UNL     1     -14.655 -27.524 -14.081  1.00  0.00    -0.362 OA
ATOM     23  C   UNL     1     -15.486 -25.432 -12.228  1.00  0.00     0.177 C 
ATOM     24  C   UNL     1     -13.810 -26.398 -13.880  1.00  0.00     0.176 C 
ATOM     25  C   UNL     1     -14.607 -25.139 -13.455  1.00  0.00     0.177 C 
BRANCH  21  26
ATOM     26  O   UNL     1     -16.992 -27.053 -11.287  1.00  0.00    -0.387 OA
ATOM     27  H   UNL     1     -16.378 -26.838 -10.538  1.00  0.00     0.211 HD
ENDBRANCH  21  26
BRANCH  23  28
ATOM     28  O   UNL     1     -16.330 -24.341 -11.965  1.00  0.00    -0.387 OA
ATOM     29  H   UNL     1     -15.809 -23.521 -12.172  1.00  0.00     0.211 HD
ENDBRANCH  23  28
BRANCH  24  30
ATOM     30  C   UNL     1     -12.611 -26.724 -12.962  1.00  0.00     0.191 C 
BRANCH  30  31
ATOM     31  O   UNL     1     -12.090 -25.550 -12.398  1.00  0.00    -0.394 OA
ATOM     32  H   UNL     1     -12.472 -24.788 -12.908  1.00  0.00     0.210 HD
ENDBRANCH  30  31
ENDBRANCH  24  30
BRANCH  25  33
ATOM     33  O   UNL     1     -15.423 -24.716 -14.519  1.00  0.00    -0.388 OA
ATOM     34  H   UNL     1     -14.845 -24.197 -15.138  1.00  0.00     0.211 HD
ENDBRANCH  25  33
ENDBRANCH  11  20
BRANCH  10  35
ATOM     35  O   UNL     1     -16.774 -28.396 -15.564  1.00  0.00    -0.507 OA
ATOM     36  H   UNL     1     -17.506 -28.210 -16.234  1.00  0.00     0.293 HD
ENDBRANCH  10  35
TORSDOF 9
ENDMDL
MODEL 5
REMARK VINA RESULT:    -6.704      2.285      7.953
REMARK INTER + INTRA:          -9.986
REMARK INTER:                  -9.557
REMARK INTRA:                  -0.429
REMARK UNBOUND:                -0.931
REMARK SMILES O=c1c(-c2ccc(O)cc2)coc2c([C@H]3O[C@H](CO)[C@@H](O)[C@@H](O)[C@@H]3O)c(O)ccc12
REMARK SMILES IDX 3 1 11 2 12 3 13 4 30 5 2 6 1 7 29 8 28 9 26 10 14 11 4 12
REMARK SMILES IDX 5 13 6 14 7 15 10 16 9 17 8 18 15 20 24 21 16 22 22 23 17 24
REMARK SMILES IDX 20 25 25 26 23 28 18 30 19 31 21 33 27 35
REMARK H PARENT 8 19 25 27 23 29 19 32 21 34 27 36
REMARK Flexibility Score: inf
ROOT
ATOM      1  C   UNL     1     -17.299 -32.952  -9.474  1.00  0.00     0.065 A 
ATOM      2  C   UNL     1     -18.050 -32.490 -10.563  1.00  0.00     0.208 A 
ATOM      3  O   UNL     1     -17.641 -31.451 -11.279  1.00  0.00    -0.463 OA
ATOM      4  C   UNL     1     -16.516 -30.784 -11.027  1.00  0.00     0.147 A 
ATOM      5  C   UNL     1     -15.694 -31.192  -9.951  1.00  0.00     0.066 A 
ATOM      6  C   UNL     1     -16.096 -32.292  -9.172  1.00  0.00     0.200 A 
ATOM      7  O   UNL     1     -15.370 -32.699  -8.222  1.00  0.00    -0.288 OA
ATOM      8  C   UNL     1     -14.502 -30.502  -9.691  1.00  0.00     0.020 A 
ATOM      9  C   UNL     1     -14.122 -29.433 -10.494  1.00  0.00     0.047 A 
ATOM     10  C   UNL     1     -14.915 -29.019 -11.567  1.00  0.00     0.125 A 
ATOM     11  C   UNL     1     -16.149 -29.678 -11.836  1.00  0.00     0.069 A 
ENDROOT
BRANCH   1  12
ATOM     12  C   UNL     1     -17.782 -34.112  -8.682  1.00  0.00    -0.011 A 
ATOM     13  C   UNL     1     -18.311 -33.921  -7.393  1.00  0.00     0.013 A 
ATOM     14  C   UNL     1     -18.757 -35.011  -6.642  1.00  0.00     0.047 A 
ATOM     15  C   UNL     1     -18.675 -36.306  -7.164  1.00  0.00     0.115 A 
ATOM     16  C   UNL     1     -17.697 -35.418  -9.198  1.00  0.00     0.013 A 
ATOM     17  C   UNL     1     -18.144 -36.507  -8.444  1.00  0.00     0.047 A 
BRANCH  15  18
ATOM     18  O   UNL     1     -19.125 -37.384  -6.404  1.00  0.00    -0.508 OA
ATOM     19  H   UNL     1     -18.559 -37.781  -5.663  1.00  0.00     0.293 HD
ENDBRANCH  15  18
ENDBRANCH   1  12
BRANCH  11  20
ATOM     20  C   UNL     1     -17.058 -29.256 -12.986  1.00  0.00     0.188 C 
ATOM     21  C   UNL     1     -16.870 -30.201 -14.194  1.00  0.00     0.179 C 
ATOM     22  O   UNL     1     -16.803 -27.895 -13.311  1.00  0.00    -0.362 OA
ATOM     23  C   UNL     1     -17.751 -29.736 -15.363  1.00  0.00     0.177 C 
ATOM     24  C   UNL     1     -17.635 -27.404 -14.354  1.00  0.00     0.176 C 
ATOM     25  C   UNL     1     -17.506 -28.245 -15.649  1.00  0.00     0.177 C 
BRANCH  21  26
ATOM     26  O   UNL     1     -17.234 -31.506 -13.821  1.00  0.00    -0.387 OA
ATOM     27  H   UNL     1     -17.039 -31.598 -12.852  1.00  0.00     0.211 HD
ENDBRANCH  21  26
BRANCH  23  28
ATOM     28  O   UNL     1     -17.458 -30.502 -16.504  1.00  0.00    -0.387 OA
ATOM     29  H   UNL     1     -17.079 -31.361 -16.180  1.00  0.00     0.211 HD
ENDBRANCH  23  28
BRANCH  24  30
ATOM     30  C   UNL     1     -19.091 -27.188 -13.885  1.00  0.00     0.191 C 
BRANCH  30  31
ATOM     31  O   UNL     1     -19.124 -26.383 -12.737  1.00  0.00    -0.394 OA
ATOM     32  H   UNL     1     -18.636 -25.546 -12.954  1.00  0.00     0.210 HD
ENDBRANCH  30  31
ENDBRANCH  24  30
BRANCH  25  33
ATOM     33  O   UNL     1     -16.219 -28.082 -16.190  1.00  0.00    -0.388 OA
ATOM     34  H   UNL     1     -15.606 -27.900 -15.430  1.00  0.00     0.211 HD
ENDBRANCH  25  33
ENDBRANCH  11  20
BRANCH  10  35
ATOM     35  O   UNL     1     -14.432 -27.955 -12.336  1.00  0.00    -0.507 OA
ATOM     36  H   UNL     1     -13.953 -28.058 -13.219  1.00  0.00     0.293 HD
ENDBRANCH  10  35
TORSDOF 9
ENDMDL
MODEL 6
REMARK VINA RESULT:    -6.646      2.950      4.492
REMARK INTER + INTRA:          -9.907
REMARK INTER:                  -9.804
REMARK INTRA:                  -0.103
REMARK UNBOUND:                -0.931
REMARK SMILES O=c1c(-c2ccc(O)cc2)coc2c([C@H]3O[C@H](CO)[C@@H](O)[C@@H](O)[C@@H]3O)c(O)ccc12
REMARK SMILES IDX 3 1 11 2 12 3 13 4 30 5 2 6 1 7 29 8 28 9 26 10 14 11 4 12
REMARK SMILES IDX 5 13 6 14 7 15 10 16 9 17 8 18 15 20 24 21 16 22 22 23 17 24
REMARK SMILES IDX 20 25 25 26 23 28 18 30 19 31 21 33 27 35
REMARK H PARENT 8 19 25 27 23 29 19 32 21 34 27 36
REMARK Flexibility Score: inf
ROOT
ATOM      1  C   UNL     1     -14.910 -28.251 -12.790  1.00  0.00     0.065 A 
ATOM      2  C   UNL     1     -14.260 -28.725 -11.643  1.00  0.00     0.208 A 
ATOM      3  O   UNL     1     -14.810 -29.667 -10.889  1.00  0.00    -0.463 OA
ATOM      4  C   UNL     1     -15.991 -30.222 -11.156  1.00  0.00     0.147 A 
ATOM      5  C   UNL     1     -16.710 -29.808 -12.302  1.00  0.00     0.066 A 
ATOM      6  C   UNL     1     -16.154 -28.813 -13.126  1.00  0.00     0.200 A 
ATOM      7  O   UNL     1     -16.756 -28.441 -14.171  1.00  0.00    -0.288 OA
ATOM      8  C   UNL     1     -17.945 -30.400 -12.595  1.00  0.00     0.020 A 
ATOM      9  C   UNL     1     -18.457 -31.399 -11.773  1.00  0.00     0.047 A 
ATOM     10  C   UNL     1     -17.760 -31.828 -10.640  1.00  0.00     0.125 A 
ATOM     11  C   UNL     1     -16.517 -31.222 -10.298  1.00  0.00     0.069 A 
ENDROOT
BRANCH   1  12
ATOM     12  C   UNL     1     -14.277 -27.190 -13.615  1.00  0.00    -0.011 A 
ATOM     13  C   UNL     1     -13.369 -27.529 -14.633  1.00  0.00     0.013 A 
ATOM     14  C   UNL     1     -12.765 -26.532 -15.404  1.00  0.00     0.047 A 
ATOM     15  C   UNL     1     -13.056 -25.185 -15.166  1.00  0.00     0.115 A 
ATOM     16  C   UNL     1     -14.560 -25.833 -13.376  1.00  0.00     0.013 A 
ATOM     17  C   UNL     1     -13.955 -24.838 -14.149  1.00  0.00     0.047 A 
BRANCH  15  18
ATOM     18  O   UNL     1     -12.447 -24.202 -15.943  1.00  0.00    -0.508 OA
ATOM     19  H   UNL     1     -12.472 -24.238 -16.955  1.00  0.00     0.293 HD
ENDBRANCH  15  18
ENDBRANCH   1  12
BRANCH  11  20
ATOM     20  C   UNL     1     -15.724 -31.644  -9.065  1.00  0.00     0.188 C 
ATOM     21  C   UNL     1     -14.956 -30.436  -8.481  1.00  0.00     0.179 C 
ATOM     22  O   UNL     1     -14.865 -32.725  -9.406  1.00  0.00    -0.362 OA
ATOM     23  C   UNL     1     -14.121 -30.883  -7.272  1.00  0.00     0.177 C 
ATOM     24  C   UNL     1     -14.111 -33.208  -8.302  1.00  0.00     0.176 C 
ATOM     25  C   UNL     1     -13.254 -32.096  -7.648  1.00  0.00     0.177 C 
BRANCH  21  26
ATOM     26  O   UNL     1     -15.877 -29.454  -8.079  1.00  0.00    -0.387 OA
ATOM     27  H   UNL     1     -15.354 -28.645  -7.837  1.00  0.00     0.211 HD
ENDBRANCH  21  26
BRANCH  23  28
ATOM     28  O   UNL     1     -13.308 -29.819  -6.846  1.00  0.00    -0.387 OA
ATOM     29  H   UNL     1     -12.452 -30.219  -6.542  1.00  0.00     0.211 HD
ENDBRANCH  23  28
BRANCH  24  30
ATOM     30  C   UNL     1     -14.981 -34.003  -7.303  1.00  0.00     0.191 C 
BRANCH  30  31
ATOM     31  O   UNL     1     -15.726 -34.985  -7.973  1.00  0.00    -0.394 OA
ATOM     32  H   UNL     1     -15.275 -35.150  -8.842  1.00  0.00     0.210 HD
ENDBRANCH  30  31
ENDBRANCH  24  30
BRANCH  25  33
ATOM     33  O   UNL     1     -12.249 -31.687  -8.543  1.00  0.00    -0.388 OA
ATOM     34  H   UNL     1     -12.655 -31.677  -9.449  1.00  0.00     0.211 HD
ENDBRANCH  25  33
ENDBRANCH  11  20
BRANCH  10  35
ATOM     35  O   UNL     1     -18.340 -32.859  -9.895  1.00  0.00    -0.507 OA
ATOM     36  H   UNL     1     -18.014 -33.166  -8.991  1.00  0.00     0.293 HD
ENDBRANCH  10  35
TORSDOF 9
ENDMDL
MODEL 7
REMARK VINA RESULT:    -6.622      2.405      3.436
REMARK INTER + INTRA:          -9.875
REMARK INTER:                  -9.911
REMARK INTRA:                   0.037
REMARK UNBOUND:                -0.931
REMARK SMILES O=c1c(-c2ccc(O)cc2)coc2c([C@H]3O[C@H](CO)[C@@H](O)[C@@H](O)[C@@H]3O)c(O)ccc12
REMARK SMILES IDX 3 1 11 2 12 3 13 4 30 5 2 6 1 7 29 8 28 9 26 10 14 11 4 12
REMARK SMILES IDX 5 13 6 14 7 15 10 16 9 17 8 18 15 20 24 21 16 22 22 23 17 24
REMARK SMILES IDX 20 25 25 26 23 28 18 30 19 31 21 33 27 35
REMARK H PARENT 8 19 25 27 23 29 19 32 21 34 27 36
REMARK Flexibility Score: inf
ROOT
ATOM      1  C   UNL     1     -16.943 -29.214 -13.423  1.00  0.00     0.065 A 
ATOM      2  C   UNL     1     -17.805 -30.276 -13.120  1.00  0.00     0.208 A 
ATOM      3  O   UNL     1     -17.619 -31.015 -12.034  1.00  0.00    -0.463 OA
ATOM      4  C   UNL     1     -16.625 -30.811 -11.171  1.00  0.00     0.147 A 
ATOM      5  C   UNL     1     -15.715 -29.752 -11.397  1.00  0.00     0.066 A 
ATOM      6  C   UNL     1     -15.885 -28.947 -12.538  1.00  0.00     0.200 A 
ATOM      7  O   UNL     1     -15.106 -27.976 -12.754  1.00  0.00    -0.288 OA
ATOM      8  C   UNL     1     -14.677 -29.525 -10.484  1.00  0.00     0.020 A 
ATOM      9  C   UNL     1     -14.551 -30.325  -9.354  1.00  0.00     0.047 A 
ATOM     10  C   UNL     1     -15.443 -31.371  -9.107  1.00  0.00     0.125 A 
ATOM     11  C   UNL     1     -16.489 -31.648 -10.034  1.00  0.00     0.069 A 
ENDROOT
BRANCH   1  12
ATOM     12  C   UNL     1     -17.167 -28.405 -14.649  1.00  0.00    -0.011 A 
ATOM     13  C   UNL     1     -16.585 -28.790 -15.869  1.00  0.00     0.013 A 
ATOM     14  C   UNL     1     -16.786 -28.027 -17.023  1.00  0.00     0.047 A 
ATOM     15  C   UNL     1     -17.567 -26.868 -16.971  1.00  0.00     0.115 A 
ATOM     16  C   UNL     1     -17.946 -27.234 -14.603  1.00  0.00     0.013 A 
ATOM     17  C   UNL     1     -18.146 -26.473 -15.758  1.00  0.00     0.047 A 
BRANCH  15  18
ATOM     18  O   UNL     1     -17.760 -26.117 -18.129  1.00  0.00    -0.508 OA
ATOM     19  H   UNL     1     -18.007 -25.135 -18.087  1.00  0.00     0.293 HD
ENDBRANCH  15  18
ENDBRANCH   1  12
BRANCH  11  20
ATOM     20  C   UNL     1     -17.481 -32.787  -9.818  1.00  0.00     0.188 C 
ATOM     21  C   UNL     1     -17.754 -32.982  -8.310  1.00  0.00     0.179 C 
ATOM     22  O   UNL     1     -16.985 -33.966 -10.441  1.00  0.00    -0.362 OA
ATOM     23  C   UNL     1     -18.713 -34.164  -8.101  1.00  0.00     0.177 C 
ATOM     24  C   UNL     1     -17.867 -35.074 -10.320  1.00  0.00     0.176 C 
ATOM     25  C   UNL     1     -18.190 -35.406  -8.842  1.00  0.00     0.177 C 
BRANCH  21  26
ATOM     26  O   UNL     1     -18.332 -31.811  -7.789  1.00  0.00    -0.387 OA
ATOM     27  H   UNL     1     -17.592 -31.262  -7.418  1.00  0.00     0.211 HD
ENDBRANCH  21  26
BRANCH  23  28
ATOM     28  O   UNL     1     -18.832 -34.433  -6.728  1.00  0.00    -0.387 OA
ATOM     29  H   UNL     1     -19.292 -33.651  -6.323  1.00  0.00     0.211 HD
ENDBRANCH  23  28
BRANCH  24  30
ATOM     30  C   UNL     1     -19.114 -34.928 -11.220  1.00  0.00     0.191 C 
BRANCH  30  31
ATOM     31  O   UNL     1     -19.120 -33.676 -11.853  1.00  0.00    -0.394 OA
ATOM     32  H   UNL     1     -20.030 -33.545 -12.229  1.00  0.00     0.210 HD
ENDBRANCH  30  31
ENDBRANCH  24  30
BRANCH  25  33
ATOM     33  O   UNL     1     -17.030 -35.873  -8.199  1.00  0.00    -0.388 OA
ATOM     34  H   UNL     1     -16.490 -35.075  -7.959  1.00  0.00     0.211 HD
ENDBRANCH  25  33
ENDBRANCH  11  20
BRANCH  10  35
ATOM     35  O   UNL     1     -15.253 -32.099  -7.927  1.00  0.00    -0.507 OA
ATOM     36  H   UNL     1     -14.433 -32.038  -7.342  1.00  0.00     0.293 HD
ENDBRANCH  10  35
TORSDOF 9
ENDMDL
MODEL 8
REMARK VINA RESULT:    -6.455      2.026      8.319
REMARK INTER + INTRA:          -9.649
REMARK INTER:                  -9.382
REMARK INTRA:                  -0.267
REMARK UNBOUND:                -0.931
REMARK SMILES O=c1c(-c2ccc(O)cc2)coc2c([C@H]3O[C@H](CO)[C@@H](O)[C@@H](O)[C@@H]3O)c(O)ccc12
REMARK SMILES IDX 3 1 11 2 12 3 13 4 30 5 2 6 1 7 29 8 28 9 26 10 14 11 4 12
REMARK SMILES IDX 5 13 6 14 7 15 10 16 9 17 8 18 15 20 24 21 16 22 22 23 17 24
REMARK SMILES IDX 20 25 25 26 23 28 18 30 19 31 21 33 27 35
REMARK H PARENT 8 19 25 27 23 29 19 32 21 34 27 36
REMARK Flexibility Score: inf
ROOT
ATOM      1  C   UNL     1     -16.663 -31.508 -10.381  1.00  0.00     0.065 A 
ATOM      2  C   UNL     1     -16.847 -31.919 -11.708  1.00  0.00     0.208 A 
ATOM      3  O   UNL     1     -16.785 -31.046 -12.706  1.00  0.00    -0.463 OA
ATOM      4  C   UNL     1     -16.547 -29.748 -12.529  1.00  0.00     0.147 A 
ATOM      5  C   UNL     1     -16.339 -29.251 -11.221  1.00  0.00     0.066 A 
ATOM      6  C   UNL     1     -16.396 -30.149 -10.140  1.00  0.00     0.200 A 
ATOM      7  O   UNL     1     -16.186 -29.743  -8.963  1.00  0.00    -0.288 OA
ATOM      8  C   UNL     1     -16.075 -27.888 -11.033  1.00  0.00     0.020 A 
ATOM      9  C   UNL     1     -16.002 -27.031 -12.125  1.00  0.00     0.047 A 
ATOM     10  C   UNL     1     -16.197 -27.502 -13.426  1.00  0.00     0.125 A 
ATOM     11  C   UNL     1     -16.501 -28.876 -13.647  1.00  0.00     0.069 A 
ENDROOT
BRANCH   1  12
ATOM     12  C   UNL     1     -16.745 -32.501  -9.280  1.00  0.00    -0.011 A 
ATOM     13  C   UNL     1     -15.574 -33.052  -8.731  1.00  0.00     0.013 A 
ATOM     14  C   UNL     1     -15.648 -33.993  -7.702  1.00  0.00     0.047 A 
ATOM     15  C   UNL     1     -16.892 -34.402  -7.210  1.00  0.00     0.115 A 
ATOM     16  C   UNL     1     -17.994 -32.922  -8.786  1.00  0.00     0.013 A 
ATOM     17  C   UNL     1     -18.065 -33.863  -7.756  1.00  0.00     0.047 A 
BRANCH  15  18
ATOM     18  O   UNL     1     -16.952 -35.340  -6.183  1.00  0.00    -0.508 OA
ATOM     19  H   UNL     1     -17.586 -35.229  -5.401  1.00  0.00     0.293 HD
ENDBRANCH  15  18
ENDBRANCH   1  12
BRANCH  11  20
ATOM     20  C   UNL     1     -16.736 -29.437 -15.046  1.00  0.00     0.188 C 
ATOM     21  C   UNL     1     -15.765 -28.786 -16.057  1.00  0.00     0.179 C 
ATOM     22  O   UNL     1     -18.100 -29.254 -15.403  1.00  0.00    -0.362 OA
ATOM     23  C   UNL     1     -16.045 -29.319 -17.469  1.00  0.00     0.177 C 
ATOM     24  C   UNL     1     -18.419 -29.783 -16.683  1.00  0.00     0.176 C 
ATOM     25  C   UNL     1     -17.539 -29.173 -17.803  1.00  0.00     0.177 C 
BRANCH  21  26
ATOM     26  O   UNL     1     -14.443 -29.093 -15.692  1.00  0.00    -0.387 OA
ATOM     27  H   UNL     1     -13.867 -28.868 -16.468  1.00  0.00     0.211 HD
ENDBRANCH  21  26
BRANCH  23  28
ATOM     28  O   UNL     1     -15.269 -28.609 -18.400  1.00  0.00    -0.387 OA
ATOM     29  H   UNL     1     -14.597 -29.247 -18.757  1.00  0.00     0.211 HD
ENDBRANCH  23  28
BRANCH  24  30
ATOM     30  C   UNL     1     -18.458 -31.327 -16.684  1.00  0.00     0.191 C 
BRANCH  30  31
ATOM     31  O   UNL     1     -19.007 -31.806 -15.484  1.00  0.00    -0.394 OA
ATOM     32  H   UNL     1     -19.222 -31.013 -14.926  1.00  0.00     0.210 HD
ENDBRANCH  30  31
ENDBRANCH  24  30
BRANCH  25  33
ATOM     33  O   UNL     1     -17.849 -27.809 -17.955  1.00  0.00    -0.388 OA
ATOM     34  H   UNL     1     -18.363 -27.722 -18.800  1.00  0.00     0.211 HD
ENDBRANCH  25  33
ENDBRANCH  11  20
BRANCH  10  35
ATOM     35  O   UNL     1     -16.072 -26.569 -14.461  1.00  0.00    -0.507 OA
ATOM     36  H   UNL     1     -15.396 -26.630 -15.208  1.00  0.00     0.293 HD
ENDBRANCH  10  35
TORSDOF 9
ENDMDL
MODEL 9
REMARK VINA RESULT:    -6.349      2.542      4.155
REMARK INTER + INTRA:          -9.506
REMARK INTER:                  -9.922
REMARK INTRA:                   0.416
REMARK UNBOUND:                -0.931
REMARK SMILES O=c1c(-c2ccc(O)cc2)coc2c([C@H]3O[C@H](CO)[C@@H](O)[C@@H](O)[C@@H]3O)c(O)ccc12
REMARK SMILES IDX 3 1 11 2 12 3 13 4 30 5 2 6 1 7 29 8 28 9 26 10 14 11 4 12
REMARK SMILES IDX 5 13 6 14 7 15 10 16 9 17 8 18 15 20 24 21 16 22 22 23 17 24
REMARK SMILES IDX 20 25 25 26 23 28 18 30 19 31 21 33 27 35
REMARK H PARENT 8 19 25 27 23 29 19 32 21 34 27 36
REMARK Flexibility Score: inf
ROOT
ATOM      1  C   UNL     1     -15.831 -29.215 -11.331  1.00  0.00     0.065 A 
ATOM      2  C   UNL     1     -14.981 -29.813 -10.392  1.00  0.00     0.208 A 
ATOM      3  O   UNL     1     -15.193 -31.054  -9.974  1.00  0.00    -0.463 OA
ATOM      4  C   UNL     1     -16.203 -31.808 -10.404  1.00  0.00     0.147 A 
ATOM      5  C   UNL     1     -17.103 -31.284 -11.360  1.00  0.00     0.066 A 
ATOM      6  C   UNL     1     -16.906 -29.972 -11.826  1.00  0.00     0.200 A 
ATOM      7  O   UNL     1     -17.675 -29.485 -12.701  1.00  0.00    -0.288 OA
ATOM      8  C   UNL     1     -18.159 -32.080 -11.826  1.00  0.00     0.020 A 
ATOM      9  C   UNL     1     -18.312 -33.382 -11.362  1.00  0.00     0.047 A 
ATOM     10  C   UNL     1     -17.430 -33.922 -10.423  1.00  0.00     0.125 A 
ATOM     11  C   UNL     1     -16.367 -33.127  -9.906  1.00  0.00     0.069 A 
ENDROOT
BRANCH   1  12
ATOM     12  C   UNL     1     -15.578 -27.821 -11.777  1.00  0.00    -0.011 A 
ATOM     13  C   UNL     1     -14.395 -27.500 -12.465  1.00  0.00     0.013 A 
ATOM     14  C   UNL     1     -14.149 -26.188 -12.878  1.00  0.00     0.047 A 
ATOM     15  C   UNL     1     -15.078 -25.179 -12.605  1.00  0.00     0.115 A 
ATOM     16  C   UNL     1     -16.505 -26.800 -11.500  1.00  0.00     0.013 A 
ATOM     17  C   UNL     1     -16.257 -25.488 -11.914  1.00  0.00     0.047 A 
BRANCH  15  18
ATOM     18  O   UNL     1     -14.821 -23.875 -13.024  1.00  0.00    -0.508 OA
ATOM     19  H   UNL     1     -15.305 -23.469 -13.816  1.00  0.00     0.293 HD
ENDBRANCH  15  18
ENDBRANCH   1  12
BRANCH  11  20
ATOM     20  C   UNL     1     -15.385 -33.664  -8.869  1.00  0.00     0.188 C 
ATOM     21  C   UNL     1     -16.030 -33.658  -7.465  1.00  0.00     0.179 C 
ATOM     22  O   UNL     1     -14.184 -32.905  -8.922  1.00  0.00    -0.362 OA
ATOM     23  C   UNL     1     -15.016 -34.151  -6.422  1.00  0.00     0.177 C 
ATOM     24  C   UNL     1     -13.193 -33.361  -8.010  1.00  0.00     0.176 C 
ATOM     25  C   UNL     1     -13.703 -33.361  -6.547  1.00  0.00     0.177 C 
BRANCH  21  26
ATOM     26  O   UNL     1     -17.152 -34.505  -7.468  1.00  0.00    -0.387 OA
ATOM     27  H   UNL     1     -17.600 -34.398  -6.588  1.00  0.00     0.211 HD
ENDBRANCH  21  26
BRANCH  23  28
ATOM     28  O   UNL     1     -15.556 -33.994  -5.134  1.00  0.00    -0.387 OA
ATOM     29  H   UNL     1     -16.000 -33.106  -5.118  1.00  0.00     0.211 HD
ENDBRANCH  23  28
BRANCH  24  30
ATOM     30  C   UNL     1     -12.560 -34.697  -8.457  1.00  0.00     0.191 C 
BRANCH  30  31
ATOM     31  O   UNL     1     -12.382 -35.549  -7.356  1.00  0.00    -0.394 OA
ATOM     32  H   UNL     1     -13.177 -36.141  -7.315  1.00  0.00     0.210 HD
ENDBRANCH  30  31
ENDBRANCH  24  30
BRANCH  25  33
ATOM     33  O   UNL     1     -13.916 -32.038  -6.122  1.00  0.00    -0.388 OA
ATOM     34  H   UNL     1     -13.022 -31.616  -6.031  1.00  0.00     0.211 HD
ENDBRANCH  25  33
ENDBRANCH  11  20
BRANCH  10  35
ATOM     35  O   UNL     1     -17.647 -35.250 -10.042  1.00  0.00    -0.507 OA
ATOM     36  H   UNL     1     -17.072 -35.761  -9.389  1.00  0.00     0.293 HD
ENDBRANCH  10  35
TORSDOF 9
ENDMDL
