MODEL 1
REMARK VINA RESULT:    -3.586      0.000      0.000
REMARK INTER + INTRA:          -4.297
REMARK INTER:                  -4.214
REMARK INTRA:                  -0.083
REMARK UNBOUND:                -0.083
REMARK SMILES CCCCC(=O)[O-]
REMARK SMILES IDX 4 1 5 2 6 3 7 4 3 5 2 6 1 7
REMARK H PARENT
REMARK Flexibility Score: inf
ROOT
ATOM      1  C   UNL     1       7.556  25.295 109.580  1.00  0.00     0.053 C 
ENDROOT
BRANCH   1   2
ATOM      2  C   UNL     1       8.024  26.090 110.759  1.00  0.00     0.041 C 
ATOM      3  O   UNL     1       8.795  25.569 111.608  1.00  0.00    -0.550 OA
ATOM      4  O   UNL     1       7.650  27.420 110.895  1.00  0.00    -0.550 OA
ENDBRANCH   1   2
BRANCH   1   5
ATOM      5  C   UNL     1       8.389  25.634 108.341  1.00  0.00     0.006 C 
BRANCH   5   6
ATOM      6  C   UNL     1       7.497  25.777 107.102  1.00  0.00    -0.003 C 
ATOM      7  C   UNL     1       6.300  26.679 107.385  1.00  0.00     0.004 C 
ENDBRANCH   5   6
ENDBRANCH   1   5
TORSDOF 3
ENDMDL
MODEL 2
REMARK VINA RESULT:    -3.560      0.551      1.322
REMARK INTER + INTRA:          -4.267
REMARK INTER:                  -4.221
REMARK INTRA:                  -0.046
REMARK UNBOUND:                -0.083
REMARK SMILES CCCCC(=O)[O-]
REMARK SMILES IDX 4 1 5 2 6 3 7 4 3 5 2 6 1 7
REMARK H PARENT
REMARK Flexibility Score: inf
ROOT
ATOM      1  C   UNL     1       7.003  26.129 109.550  1.00  0.00     0.053 C 
ENDROOT
BRANCH   1   2
ATOM      2  C   UNL     1       7.695  26.578 110.798  1.00  0.00     0.041 C 
ATOM      3  O   UNL     1       7.408  27.688 111.317  1.00  0.00    -0.550 OA
ATOM      4  O   UNL     1       8.622  25.748 111.417  1.00  0.00    -0.550 OA
ENDBRANCH   1   2
BRANCH   1   5
ATOM      5  C   UNL     1       8.010  25.530 108.564  1.00  0.00     0.006 C 
BRANCH   5   6
ATOM      6  C   UNL     1       7.666  25.920 107.122  1.00  0.00    -0.003 C 
ATOM      7  C   UNL     1       6.398  26.767 107.067  1.00  0.00     0.004 C 
ENDBRANCH   5   6
ENDBRANCH   1   5
TORSDOF 3
ENDMDL
MODEL 3
REMARK VINA RESULT:    -3.513      1.445      1.779
REMARK INTER + INTRA:          -4.212
REMARK INTER:                  -4.172
REMARK INTRA:                  -0.040
REMARK UNBOUND:                -0.083
REMARK SMILES CCCCC(=O)[O-]
REMARK SMILES IDX 4 1 5 2 6 3 7 4 3 5 2 6 1 7
REMARK H PARENT
REMARK Flexibility Score: inf
ROOT
ATOM      1  C   UNL     1       7.973  26.209 110.666  1.00  0.00     0.053 C 
ENDROOT
BRANCH   1   2
ATOM      2  C   UNL     1       8.063  25.014 111.562  1.00  0.00     0.041 C 
ATOM      3  O   UNL     1       8.923  24.975 112.481  1.00  0.00    -0.550 OA
ATOM      4  O   UNL     1       7.164  23.965 111.415  1.00  0.00    -0.550 OA
ENDBRANCH   1   2
BRANCH   1   5
ATOM      5  C   UNL     1       8.200  25.803 109.207  1.00  0.00     0.006 C 
BRANCH   5   6
ATOM      6  C   UNL     1       7.040  26.272 108.320  1.00  0.00    -0.003 C 
ATOM      7  C   UNL     1       7.311  25.965 106.851  1.00  0.00     0.004 C 
ENDBRANCH   5   6
ENDBRANCH   1   5
TORSDOF 3
ENDMDL
MODEL 4
REMARK VINA RESULT:    -3.504      1.457      1.852
REMARK INTER + INTRA:          -4.201
REMARK INTER:                  -4.167
REMARK INTRA:                  -0.035
REMARK UNBOUND:                -0.083
REMARK SMILES CCCCC(=O)[O-]
REMARK SMILES IDX 4 1 5 2 6 3 7 4 3 5 2 6 1 7
REMARK H PARENT
REMARK Flexibility Score: inf
ROOT
ATOM      1  C   UNL     1       7.831  26.179 110.674  1.00  0.00     0.053 C 
ENDROOT
BRANCH   1   2
ATOM      2  C   UNL     1       7.984  25.015 111.602  1.00  0.00     0.041 C 
ATOM      3  O   UNL     1       7.182  24.047 111.541  1.00  0.00    -0.550 OA
ATOM      4  O   UNL     1       9.042  24.977 112.502  1.00  0.00    -0.550 OA
ENDBRANCH   1   2
BRANCH   1   5
ATOM      5  C   UNL     1       8.088  25.748 109.227  1.00  0.00     0.006 C 
BRANCH   5   6
ATOM      6  C   UNL     1       7.006  26.297 108.290  1.00  0.00    -0.003 C 
ATOM      7  C   UNL     1       7.318  25.965 106.834  1.00  0.00     0.004 C 
ENDBRANCH   5   6
ENDBRANCH   1   5
TORSDOF 3
ENDMDL
MODEL 5
REMARK VINA RESULT:    -3.123      1.434      1.659
REMARK INTER + INTRA:          -3.754
REMARK INTER:                  -3.660
REMARK INTRA:                  -0.094
REMARK UNBOUND:                -0.083
REMARK SMILES CCCCC(=O)[O-]
REMARK SMILES IDX 4 1 5 2 6 3 7 4 3 5 2 6 1 7
REMARK H PARENT
REMARK Flexibility Score: inf
ROOT
ATOM      1  C   UNL     1       7.801  26.636 110.203  1.00  0.00     0.053 C 
ENDROOT
BRANCH   1   2
ATOM      2  C   UNL     1       6.649  26.682 111.156  1.00  0.00     0.041 C 
ATOM      3  O   UNL     1       5.752  25.799 111.107  1.00  0.00    -0.550 OA
ATOM      4  O   UNL     1       6.590  27.670 112.130  1.00  0.00    -0.550 OA
ENDBRANCH   1   2
BRANCH   1   5
ATOM      5  C   UNL     1       7.741  25.367 109.348  1.00  0.00     0.006 C 
BRANCH   5   6
ATOM      6  C   UNL     1       7.839  25.704 107.856  1.00  0.00    -0.003 C 
ATOM      7  C   UNL     1       6.643  26.534 107.398  1.00  0.00     0.004 C 
ENDBRANCH   5   6
ENDBRANCH   1   5
TORSDOF 3
ENDMDL
MODEL 6
REMARK VINA RESULT:    -3.054      2.416      3.904
REMARK INTER + INTRA:          -3.673
REMARK INTER:                  -3.628
REMARK INTRA:                  -0.045
REMARK UNBOUND:                -0.083
REMARK SMILES CCCCC(=O)[O-]
REMARK SMILES IDX 4 1 5 2 6 3 7 4 3 5 2 6 1 7
REMARK H PARENT
REMARK Flexibility Score: inf
ROOT
ATOM      1  C   UNL     1       7.918  25.711 108.894  1.00  0.00     0.053 C 
ENDROOT
BRANCH   1   2
ATOM      2  C   UNL     1       7.041  26.234 107.800  1.00  0.00     0.041 C 
ATOM      3  O   UNL     1       5.930  26.759 108.076  1.00  0.00    -0.550 OA
ATOM      4  O   UNL     1       7.471  26.187 106.480  1.00  0.00    -0.550 OA
ENDBRANCH   1   2
BRANCH   1   5
ATOM      5  C   UNL     1       7.375  26.130 110.263  1.00  0.00     0.006 C 
BRANCH   5   6
ATOM      6  C   UNL     1       7.110  24.905 111.147  1.00  0.00    -0.003 C 
ATOM      7  C   UNL     1       8.115  24.824 112.292  1.00  0.00     0.004 C 
ENDBRANCH   5   6
ENDBRANCH   1   5
TORSDOF 3
ENDMDL
MODEL 7
REMARK VINA RESULT:    -2.985      2.421      3.658
REMARK INTER + INTRA:          -3.591
REMARK INTER:                  -3.521
REMARK INTRA:                  -0.071
REMARK UNBOUND:                -0.083
REMARK SMILES CCCCC(=O)[O-]
REMARK SMILES IDX 4 1 5 2 6 3 7 4 3 5 2 6 1 7
REMARK H PARENT
REMARK Flexibility Score: inf
ROOT
ATOM      1  C   UNL     1       8.004  25.450 111.040  1.00  0.00     0.053 C 
ENDROOT
BRANCH   1   2
ATOM      2  C   UNL     1       7.391  26.724 110.551  1.00  0.00     0.041 C 
ATOM      3  O   UNL     1       7.424  27.759 111.267  1.00  0.00    -0.550 OA
ATOM      4  O   UNL     1       6.828  26.783 109.282  1.00  0.00    -0.550 OA
ENDBRANCH   1   2
BRANCH   1   5
ATOM      5  C   UNL     1       6.940  24.354 111.158  1.00  0.00     0.006 C 
BRANCH   5   6
ATOM      6  C   UNL     1       6.179  24.468 112.484  1.00  0.00    -0.003 C 
ATOM      7  C   UNL     1       4.830  23.758 112.408  1.00  0.00     0.004 C 
ENDBRANCH   5   6
ENDBRANCH   1   5
TORSDOF 3
ENDMDL
MODEL 8
REMARK VINA RESULT:    -2.902      2.904      3.926
REMARK INTER + INTRA:          -3.494
REMARK INTER:                  -3.386
REMARK INTRA:                  -0.108
REMARK UNBOUND:                -0.083
REMARK SMILES CCCCC(=O)[O-]
REMARK SMILES IDX 4 1 5 2 6 3 7 4 3 5 2 6 1 7
REMARK H PARENT
REMARK Flexibility Score: inf
ROOT
ATOM      1  C   UNL     1       5.370  25.820 111.198  1.00  0.00     0.053 C 
ENDROOT
BRANCH   1   2
ATOM      2  C   UNL     1       4.319  26.278 110.237  1.00  0.00     0.041 C 
ATOM      3  O   UNL     1       4.614  27.076 109.308  1.00  0.00    -0.550 OA
ATOM      4  O   UNL     1       3.024  25.786 110.335  1.00  0.00    -0.550 OA
ENDBRANCH   1   2
BRANCH   1   5
ATOM      5  C   UNL     1       6.513  26.837 111.268  1.00  0.00     0.006 C 
BRANCH   5   6
ATOM      6  C   UNL     1       7.860  26.173 110.963  1.00  0.00    -0.003 C 
ATOM      7  C   UNL     1       7.964  25.784 109.492  1.00  0.00     0.004 C 
ENDBRANCH   5   6
ENDBRANCH   1   5
TORSDOF 3
ENDMDL
MODEL 9
REMARK VINA RESULT:    -2.847      2.485      3.181
REMARK INTER + INTRA:          -3.430
REMARK INTER:                  -3.323
REMARK INTRA:                  -0.106
REMARK UNBOUND:                -0.083
REMARK SMILES CCCCC(=O)[O-]
REMARK SMILES IDX 4 1 5 2 6 3 7 4 3 5 2 6 1 7
REMARK H PARENT
REMARK Flexibility Score: inf
ROOT
ATOM      1  C   UNL     1       6.978  26.264 111.587  1.00  0.00     0.053 C 
ENDROOT
BRANCH   1   2
ATOM      2  C   UNL     1       7.689  25.011 111.990  1.00  0.00     0.041 C 
ATOM      3  O   UNL     1       7.087  23.905 111.965  1.00  0.00    -0.550 OA
ATOM      4  O   UNL     1       9.031  25.056 112.346  1.00  0.00    -0.550 OA
ENDBRANCH   1   2
BRANCH   1   5
ATOM      5  C   UNL     1       6.273  26.072 110.241  1.00  0.00     0.006 C 
BRANCH   5   6
ATOM      6  C   UNL     1       4.795  26.467 110.333  1.00  0.00    -0.003 C 
ATOM      7  C   UNL     1       3.996  25.433 111.122  1.00  0.00     0.004 C 
ENDBRANCH   5   6
ENDBRANCH   1   5
TORSDOF 3
ENDMDL
