MODEL 1
REMARK VINA RESULT:    -3.839      0.000      0.000
REMARK INTER + INTRA:          -6.287
REMARK INTER:                  -5.858
REMARK INTRA:                  -0.428
REMARK UNBOUND:                -0.428
REMARK SMILES CC1=CCC[C@H](C)C(=O)C[C@H](C(C)C)C(=O)C1
REMARK SMILES IDX 8 1 9 2 6 3 7 4 5 5 4 6 3 7 2 8 1 9 10 11 11 12 15 13 16 14
REMARK SMILES IDX 17 15 12 17 13 18 14 19
REMARK H PARENT
REMARK Flexibility Score: 70.00
ROOT
ATOM      1  C   UNL     1     -10.198  -4.585 -15.651  1.00  0.00     0.136 C 
ATOM      2  O   UNL     1     -10.433  -4.939 -16.798  1.00  0.00    -0.299 OA
ENDROOT
BRANCH   1   3
ATOM      3  C   UNL     1     -11.143  -5.053 -14.554  1.00  0.00     0.053 C 
ATOM      4  C   UNL     1     -12.478  -4.293 -14.518  1.00  0.00     0.016 C 
BRANCH   3   5
ATOM      5  C   UNL     1     -11.313  -6.590 -14.551  1.00  0.00     0.015 C 
BRANCH   5   6
ATOM      6  C   UNL     1     -10.094  -7.359 -14.002  1.00  0.00     0.028 C 
BRANCH   6   7
ATOM      7  C   UNL     1      -9.207  -7.902 -15.095  1.00  0.00    -0.028 C 
ATOM      8  C   UNL     1      -7.903  -7.579 -15.277  1.00  0.00    -0.070 CG0
ATOM      9  C   UNL     1      -7.197  -8.161 -16.476  1.00  0.00     0.039 C 
ATOM     10  G   UNL     1      -7.114  -6.692 -14.321  1.00  0.00     0.000 G0
ENDBRANCH   6   7
ENDBRANCH   5   6
ENDBRANCH   3   5
ENDBRANCH   1   3
BRANCH   1  11
ATOM     11  C   UNL     1      -8.971  -3.730 -15.402  1.00  0.00     0.087 C 
BRANCH  11  12
ATOM     12  C   UNL     1      -8.097  -4.266 -14.236  1.00  0.00     0.066 C 
BRANCH  12  13
ATOM     13  C   UNL     1      -7.042  -5.238 -14.742  1.00  0.00     0.140 C 
ATOM     14  O   UNL     1      -6.131  -4.844 -15.458  1.00  0.00    -0.299 OA
BRANCH  13  15
ATOM     15  C   UNL     1      -7.083  -6.688 -14.324  1.00  0.00     0.106 CG0
ATOM     16  G   UNL     1      -7.891  -7.572 -15.266  1.00  0.00     0.000 G0
ENDBRANCH  13  15
ENDBRANCH  12  13
BRANCH  12  17
ATOM     17  C   UNL     1      -7.471  -3.134 -13.355  1.00  0.00    -0.006 C 
ATOM     18  C   UNL     1      -6.659  -3.714 -12.186  1.00  0.00     0.008 C 
ATOM     19  C   UNL     1      -8.500  -2.120 -12.822  1.00  0.00     0.008 C 
ENDBRANCH  12  17
ENDBRANCH  11  12
ENDBRANCH   1  11
TORSDOF 1
ENDMDL
MODEL 2
REMARK VINA RESULT:    -3.728      5.943      9.025
REMARK INTER + INTRA:          -6.117
REMARK INTER:                  -5.864
REMARK INTRA:                  -0.254
REMARK UNBOUND:                -0.428
REMARK SMILES CC1=CCC[C@H](C)C(=O)C[C@H](C(C)C)C(=O)C1
REMARK SMILES IDX 8 1 9 2 6 3 7 4 5 5 4 6 3 7 2 8 1 9 10 11 11 12 15 13 16 14
REMARK SMILES IDX 17 15 12 17 13 18 14 19
REMARK H PARENT
REMARK Flexibility Score: 70.00
ROOT
ATOM      1  C   UNL     1      -6.736   0.304  -8.971  1.00  0.00     0.136 C 
ATOM      2  O   UNL     1      -7.810   0.294  -8.387  1.00  0.00    -0.299 OA
ENDROOT
BRANCH   1   3
ATOM      3  C   UNL     1      -6.068   1.650  -9.212  1.00  0.00     0.053 C 
ATOM      4  C   UNL     1      -7.029   2.739  -9.713  1.00  0.00     0.016 C 
BRANCH   3   5
ATOM      5  C   UNL     1      -5.210   2.097  -8.006  1.00  0.00     0.015 C 
BRANCH   5   6
ATOM      6  C   UNL     1      -3.999   1.187  -7.721  1.00  0.00     0.028 C 
BRANCH   6   7
ATOM      7  C   UNL     1      -2.921   1.305  -8.772  1.00  0.00    -0.028 C 
ATOM      8  C   UNL     1      -2.575   0.332  -9.649  1.00  0.00    -0.070 CG0
ATOM      9  C   UNL     1      -1.416   0.602 -10.575  1.00  0.00     0.039 C 
ATOM     10  G   UNL     1      -3.312  -0.997  -9.766  1.00  0.00     0.000 G0
ENDBRANCH   6   7
ENDBRANCH   5   6
ENDBRANCH   3   5
ENDBRANCH   1   3
BRANCH   1  11
ATOM     11  C   UNL     1      -6.135  -1.024  -9.389  1.00  0.00     0.087 C 
BRANCH  11  12
ATOM     12  C   UNL     1      -5.685  -1.034 -10.875  1.00  0.00     0.066 C 
BRANCH  12  13
ATOM     13  C   UNL     1      -4.174  -1.167 -10.991  1.00  0.00     0.140 C 
ATOM     14  O   UNL     1      -3.651  -1.346 -12.083  1.00  0.00    -0.299 OA
BRANCH  13  15
ATOM     15  C   UNL     1      -3.305  -1.030  -9.766  1.00  0.00     0.106 CG0
ATOM     16  G   UNL     1      -2.603   0.319  -9.663  1.00  0.00     0.000 G0
ENDBRANCH  13  15
ENDBRANCH  12  13
BRANCH  12  17
ATOM     17  C   UNL     1      -6.431  -2.101 -11.744  1.00  0.00    -0.006 C 
ATOM     18  C   UNL     1      -7.835  -1.620 -12.145  1.00  0.00     0.008 C 
ATOM     19  C   UNL     1      -6.526  -3.488 -11.080  1.00  0.00     0.008 C 
ENDBRANCH  12  17
ENDBRANCH  11  12
ENDBRANCH   1  11
TORSDOF 1
ENDMDL
MODEL 3
REMARK VINA RESULT:    -3.564      6.711      8.317
REMARK INTER + INTRA:          -5.867
REMARK INTER:                  -5.387
REMARK INTRA:                  -0.479
REMARK UNBOUND:                -0.428
REMARK SMILES CC1=CCC[C@H](C)C(=O)C[C@H](C(C)C)C(=O)C1
REMARK SMILES IDX 8 1 9 2 6 3 7 4 5 5 4 6 3 7 2 8 1 9 10 11 11 12 15 13 16 14
REMARK SMILES IDX 17 15 12 17 13 18 14 19
REMARK H PARENT
REMARK Flexibility Score: 70.00
ROOT
ATOM      1  C   UNL     1      -5.478   1.925 -10.619  1.00  0.00     0.136 C 
ATOM      2  O   UNL     1      -6.272   2.777 -10.993  1.00  0.00    -0.299 OA
ENDROOT
BRANCH   1   3
ATOM      3  C   UNL     1      -5.775   1.197  -9.316  1.00  0.00     0.053 C 
ATOM      4  C   UNL     1      -5.879   2.125  -8.096  1.00  0.00     0.016 C 
BRANCH   3   5
ATOM      5  C   UNL     1      -6.970   0.226  -9.453  1.00  0.00     0.015 C 
BRANCH   5   6
ATOM      6  C   UNL     1      -6.879  -0.721 -10.666  1.00  0.00     0.028 C 
BRANCH   6   7
ATOM      7  C   UNL     1      -6.030  -1.939 -10.392  1.00  0.00    -0.028 C 
ATOM      8  C   UNL     1      -4.899  -2.269 -11.061  1.00  0.00    -0.070 CG0
ATOM      9  C   UNL     1      -4.226  -3.571 -10.702  1.00  0.00     0.039 C 
ATOM     10  G   UNL     1      -4.261  -1.384 -12.125  1.00  0.00     0.000 G0
ENDBRANCH   6   7
ENDBRANCH   5   6
ENDBRANCH   3   5
ENDBRANCH   1   3
BRANCH   1  11
ATOM     11  C   UNL     1      -4.271   1.638 -11.492  1.00  0.00     0.087 C 
BRANCH  11  12
ATOM     12  C   UNL     1      -3.272   0.655 -10.824  1.00  0.00     0.066 C 
BRANCH  12  13
ATOM     13  C   UNL     1      -3.072  -0.589 -11.677  1.00  0.00     0.140 C 
ATOM     14  O   UNL     1      -1.945  -0.977 -11.950  1.00  0.00    -0.299 OA
BRANCH  13  15
ATOM     15  C   UNL     1      -4.265  -1.383 -12.150  1.00  0.00     0.106 CG0
ATOM     16  G   UNL     1      -4.888  -2.254 -11.065  1.00  0.00     0.000 G0
ENDBRANCH  13  15
ENDBRANCH  12  13
BRANCH  12  17
ATOM     17  C   UNL     1      -1.909   1.321 -10.438  1.00  0.00    -0.006 C 
ATOM     18  C   UNL     1      -1.984   2.002  -9.062  1.00  0.00     0.008 C 
ATOM     19  C   UNL     1      -1.386   2.320 -11.487  1.00  0.00     0.008 C 
ENDBRANCH  12  17
ENDBRANCH  11  12
ENDBRANCH   1  11
TORSDOF 1
ENDMDL
MODEL 4
REMARK VINA RESULT:    -3.540      5.913      8.951
REMARK INTER + INTRA:          -5.830
REMARK INTER:                  -5.395
REMARK INTRA:                  -0.436
REMARK UNBOUND:                -0.428
REMARK SMILES CC1=CCC[C@H](C)C(=O)C[C@H](C(C)C)C(=O)C1
REMARK SMILES IDX 8 1 9 2 6 3 7 4 5 5 4 6 3 7 2 8 1 9 10 11 11 12 15 13 16 14
REMARK SMILES IDX 17 15 12 17 13 18 14 19
REMARK H PARENT
REMARK Flexibility Score: 70.00
ROOT
ATOM      1  C   UNL     1      -6.354   0.678  -9.345  1.00  0.00     0.136 C 
ATOM      2  O   UNL     1      -6.586   1.105  -8.223  1.00  0.00    -0.299 OA
ENDROOT
BRANCH   1   3
ATOM      3  C   UNL     1      -5.824   1.655 -10.384  1.00  0.00     0.053 C 
ATOM      4  C   UNL     1      -6.871   2.669 -10.873  1.00  0.00     0.016 C 
BRANCH   3   5
ATOM      5  C   UNL     1      -4.496   2.310  -9.941  1.00  0.00     0.015 C 
BRANCH   5   6
ATOM      6  C   UNL     1      -3.234   1.550 -10.397  1.00  0.00     0.028 C 
BRANCH   6   7
ATOM      7  C   UNL     1      -2.530   0.854  -9.258  1.00  0.00    -0.028 C 
ATOM      8  C   UNL     1      -2.444  -0.489  -9.096  1.00  0.00    -0.070 CG0
ATOM      9  C   UNL     1      -1.768  -1.004  -7.850  1.00  0.00     0.039 C 
ATOM     10  G   UNL     1      -2.963  -1.495 -10.117  1.00  0.00     0.000 G0
ENDBRANCH   6   7
ENDBRANCH   5   6
ENDBRANCH   3   5
ENDBRANCH   1   3
BRANCH   1  11
ATOM     11  C   UNL     1      -6.584  -0.798  -9.612  1.00  0.00     0.087 C 
BRANCH  11  12
ATOM     12  C   UNL     1      -5.543  -1.395 -10.596  1.00  0.00     0.066 C 
BRANCH  12  13
ATOM     13  C   UNL     1      -4.363  -1.999  -9.849  1.00  0.00     0.140 C 
ATOM     14  O   UNL     1      -4.537  -2.914  -9.055  1.00  0.00    -0.299 OA
BRANCH  13  15
ATOM     15  C   UNL     1      -2.963  -1.507 -10.119  1.00  0.00     0.106 CG0
ATOM     16  G   UNL     1      -2.465  -0.492  -9.097  1.00  0.00     0.000 G0
ENDBRANCH  13  15
ENDBRANCH  12  13
BRANCH  12  17
ATOM     17  C   UNL     1      -6.161  -2.405 -11.619  1.00  0.00    -0.006 C 
ATOM     18  C   UNL     1      -5.347  -2.458 -12.922  1.00  0.00     0.008 C 
ATOM     19  C   UNL     1      -7.643  -2.134 -11.942  1.00  0.00     0.008 C 
ENDBRANCH  12  17
ENDBRANCH  11  12
ENDBRANCH   1  11
TORSDOF 1
ENDMDL
MODEL 5
REMARK VINA RESULT:    -3.385      2.326      5.301
REMARK INTER + INTRA:          -5.594
REMARK INTER:                  -5.260
REMARK INTRA:                  -0.334
REMARK UNBOUND:                -0.428
REMARK SMILES CC1=CCC[C@H](C)C(=O)C[C@H](C(C)C)C(=O)C1
REMARK SMILES IDX 8 1 9 2 6 3 7 4 5 5 4 6 3 7 2 8 1 9 10 11 11 12 15 13 16 14
REMARK SMILES IDX 17 15 12 17 13 18 14 19
REMARK H PARENT
REMARK Flexibility Score: 70.00
ROOT
ATOM      1  C   UNL     1      -6.481  -5.977 -11.888  1.00  0.00     0.136 C 
ATOM      2  O   UNL     1      -5.300  -6.151 -12.152  1.00  0.00    -0.299 OA
ENDROOT
BRANCH   1   3
ATOM      3  C   UNL     1      -6.824  -5.259 -10.591  1.00  0.00     0.053 C 
ATOM      4  C   UNL     1      -6.840  -6.177  -9.359  1.00  0.00     0.016 C 
BRANCH   3   5
ATOM      5  C   UNL     1      -5.977  -3.981 -10.393  1.00  0.00     0.015 C 
BRANCH   5   6
ATOM      6  C   UNL     1      -6.402  -2.797 -11.284  1.00  0.00     0.028 C 
BRANCH   6   7
ATOM      7  C   UNL     1      -5.400  -2.497 -12.372  1.00  0.00    -0.028 C 
ATOM      8  C   UNL     1      -5.615  -2.659 -13.701  1.00  0.00    -0.070 CG0
ATOM      9  C   UNL     1      -4.465  -2.383 -14.637  1.00  0.00     0.039 C 
ATOM     10  G   UNL     1      -6.959  -3.070 -14.291  1.00  0.00     0.000 G0
ENDBRANCH   6   7
ENDBRANCH   5   6
ENDBRANCH   3   5
ENDBRANCH   1   3
BRANCH   1  11
ATOM     11  C   UNL     1      -7.517  -6.464 -12.884  1.00  0.00     0.087 C 
BRANCH  11  12
ATOM     12  C   UNL     1      -8.175  -5.302 -13.676  1.00  0.00     0.066 C 
BRANCH  12  13
ATOM     13  C   UNL     1      -7.144  -4.545 -14.500  1.00  0.00     0.140 C 
ATOM     14  O   UNL     1      -6.486  -5.126 -15.352  1.00  0.00    -0.299 OA
BRANCH  13  15
ATOM     15  C   UNL     1      -6.962  -3.059 -14.307  1.00  0.00     0.106 CG0
ATOM     16  G   UNL     1      -5.617  -2.684 -13.695  1.00  0.00     0.000 G0
ENDBRANCH  13  15
ENDBRANCH  12  13
BRANCH  12  17
ATOM     17  C   UNL     1      -9.396  -5.754 -14.544  1.00  0.00    -0.006 C 
ATOM     18  C   UNL     1     -10.361  -4.587 -14.811  1.00  0.00     0.008 C 
ATOM     19  C   UNL     1     -10.171  -6.947 -13.954  1.00  0.00     0.008 C 
ENDBRANCH  12  17
ENDBRANCH  11  12
ENDBRANCH   1  11
TORSDOF 1
ENDMDL
MODEL 6
REMARK VINA RESULT:    -3.343      3.115      5.294
REMARK INTER + INTRA:          -5.530
REMARK INTER:                  -5.394
REMARK INTRA:                  -0.135
REMARK UNBOUND:                -0.428
REMARK SMILES CC1=CCC[C@H](C)C(=O)C[C@H](C(C)C)C(=O)C1
REMARK SMILES IDX 8 1 9 2 6 3 7 4 5 5 4 6 3 7 2 8 1 9 10 11 11 12 15 13 16 14
REMARK SMILES IDX 17 15 12 17 13 18 14 19
REMARK H PARENT
REMARK Flexibility Score: 70.00
ROOT
ATOM      1  C   UNL     1      -7.271  -4.565 -15.186  1.00  0.00     0.136 C 
ATOM      2  O   UNL     1      -7.502  -5.313 -16.125  1.00  0.00    -0.299 OA
ENDROOT
BRANCH   1   3
ATOM      3  C   UNL     1      -8.358  -3.582 -14.774  1.00  0.00     0.053 C 
ATOM      4  C   UNL     1      -9.733  -3.883 -15.391  1.00  0.00     0.016 C 
BRANCH   3   5
ATOM      5  C   UNL     1      -8.404  -3.375 -13.243  1.00  0.00     0.015 C 
BRANCH   5   6
ATOM      6  C   UNL     1      -8.080  -1.937 -12.790  1.00  0.00     0.028 C 
BRANCH   6   7
ATOM      7  C   UNL     1      -7.373  -1.892 -11.457  1.00  0.00    -0.028 C 
ATOM      8  C   UNL     1      -6.029  -1.848 -11.285  1.00  0.00    -0.070 CG0
ATOM      9  C   UNL     1      -5.500  -1.889  -9.873  1.00  0.00     0.039 C 
ATOM     10  G   UNL     1      -5.037  -1.727 -12.436  1.00  0.00     0.000 G0
ENDBRANCH   6   7
ENDBRANCH   5   6
ENDBRANCH   3   5
ENDBRANCH   1   3
BRANCH   1  11
ATOM     11  C   UNL     1      -5.933  -4.688 -14.483  1.00  0.00     0.087 C 
BRANCH  11  12
ATOM     12  C   UNL     1      -5.136  -3.356 -14.480  1.00  0.00     0.066 C 
BRANCH  12  13
ATOM     13  C   UNL     1      -4.631  -3.021 -13.084  1.00  0.00     0.140 C 
ATOM     14  O   UNL     1      -3.881  -3.789 -12.497  1.00  0.00    -0.299 OA
BRANCH  13  15
ATOM     15  C   UNL     1      -5.012  -1.714 -12.433  1.00  0.00     0.106 CG0
ATOM     16  G   UNL     1      -6.020  -1.868 -11.300  1.00  0.00     0.000 G0
ENDBRANCH  13  15
ENDBRANCH  12  13
BRANCH  12  17
ATOM     17  C   UNL     1      -3.986  -3.315 -15.540  1.00  0.00    -0.006 C 
ATOM     18  C   UNL     1      -3.997  -1.999 -16.335  1.00  0.00     0.008 C 
ATOM     19  C   UNL     1      -3.993  -4.511 -16.511  1.00  0.00     0.008 C 
ENDBRANCH  12  17
ENDBRANCH  11  12
ENDBRANCH   1  11
TORSDOF 1
ENDMDL
MODEL 7
REMARK VINA RESULT:    -3.275      6.972      8.802
REMARK INTER + INTRA:          -5.427
REMARK INTER:                  -5.260
REMARK INTRA:                  -0.167
REMARK UNBOUND:                -0.428
REMARK SMILES CC1=CCC[C@H](C)C(=O)C[C@H](C(C)C)C(=O)C1
REMARK SMILES IDX 8 1 9 2 6 3 7 4 5 5 4 6 3 7 2 8 1 9 10 11 11 12 15 13 16 14
REMARK SMILES IDX 17 15 12 17 13 18 14 19
REMARK H PARENT
REMARK Flexibility Score: 70.00
ROOT
ATOM      1  C   UNL     1      -5.066   1.943  -8.620  1.00  0.00     0.136 C 
ATOM      2  O   UNL     1      -5.082   2.187  -7.422  1.00  0.00    -0.299 OA
ENDROOT
BRANCH   1   3
ATOM      3  C   UNL     1      -6.400   1.847  -9.347  1.00  0.00     0.053 C 
ATOM      4  C   UNL     1      -6.341   2.300 -10.814  1.00  0.00     0.016 C 
BRANCH   3   5
ATOM      5  C   UNL     1      -7.066   0.465  -9.157  1.00  0.00     0.015 C 
BRANCH   5   6
ATOM      6  C   UNL     1      -7.080  -0.408 -10.428  1.00  0.00     0.028 C 
BRANCH   6   7
ATOM      7  C   UNL     1      -6.239  -1.653 -10.288  1.00  0.00    -0.028 C 
ATOM      8  C   UNL     1      -5.010  -1.831 -10.831  1.00  0.00    -0.070 CG0
ATOM      9  C   UNL     1      -4.352  -3.177 -10.653  1.00  0.00     0.039 C 
ATOM     10  G   UNL     1      -4.253  -0.739 -11.577  1.00  0.00     0.000 G0
ENDBRANCH   6   7
ENDBRANCH   5   6
ENDBRANCH   3   5
ENDBRANCH   1   3
BRANCH   1  11
ATOM     11  C   UNL     1      -3.720   1.780  -9.300  1.00  0.00     0.087 C 
BRANCH  11  12
ATOM     12  C   UNL     1      -3.266   0.297  -9.376  1.00  0.00     0.066 C 
BRANCH  12  13
ATOM     13  C   UNL     1      -3.078  -0.146 -10.820  1.00  0.00     0.140 C 
ATOM     14  O   UNL     1      -1.979  -0.069 -11.353  1.00  0.00    -0.299 OA
BRANCH  13  15
ATOM     15  C   UNL     1      -4.236  -0.733 -11.590  1.00  0.00     0.106 CG0
ATOM     16  G   UNL     1      -4.988  -1.818 -10.828  1.00  0.00     0.000 G0
ENDBRANCH  13  15
ENDBRANCH  12  13
BRANCH  12  17
ATOM     17  C   UNL     1      -2.005  -0.014  -8.504  1.00  0.00    -0.006 C 
ATOM     18  C   UNL     1      -1.740  -1.526  -8.415  1.00  0.00     0.008 C 
ATOM     19  C   UNL     1      -2.065   0.588  -7.087  1.00  0.00     0.008 C 
ENDBRANCH  12  17
ENDBRANCH  11  12
ENDBRANCH   1  11
TORSDOF 1
ENDMDL
MODEL 8
REMARK VINA RESULT:    -3.204      7.316      9.122
REMARK INTER + INTRA:          -5.317
REMARK INTER:                  -4.886
REMARK INTRA:                  -0.431
REMARK UNBOUND:                -0.428
REMARK SMILES CC1=CCC[C@H](C)C(=O)C[C@H](C(C)C)C(=O)C1
REMARK SMILES IDX 8 1 9 2 6 3 7 4 5 5 4 6 3 7 2 8 1 9 10 11 11 12 15 13 16 14
REMARK SMILES IDX 17 15 12 17 13 18 14 19
REMARK H PARENT
REMARK Flexibility Score: 70.00
ROOT
ATOM      1  C   UNL     1      -4.705   1.928 -10.407  1.00  0.00     0.136 C 
ATOM      2  O   UNL     1      -4.759   2.129 -11.612  1.00  0.00    -0.299 OA
ENDROOT
BRANCH   1   3
ATOM      3  C   UNL     1      -5.981   1.498  -9.697  1.00  0.00     0.053 C 
ATOM      4  C   UNL     1      -6.966   2.649  -9.440  1.00  0.00     0.016 C 
BRANCH   3   5
ATOM      5  C   UNL     1      -6.635   0.270 -10.372  1.00  0.00     0.015 C 
BRANCH   5   6
ATOM      6  C   UNL     1      -5.984  -1.076  -9.999  1.00  0.00     0.028 C 
BRANCH   6   7
ATOM      7  C   UNL     1      -5.020  -1.569 -11.050  1.00  0.00    -0.028 C 
ATOM      8  C   UNL     1      -3.685  -1.728 -10.875  1.00  0.00    -0.070 CG0
ATOM      9  C   UNL     1      -2.867  -2.155 -12.068  1.00  0.00     0.039 C 
ATOM     10  G   UNL     1      -2.983  -1.531  -9.537  1.00  0.00     0.000 G0
ENDBRANCH   6   7
ENDBRANCH   5   6
ENDBRANCH   3   5
ENDBRANCH   1   3
BRANCH   1  11
ATOM     11  C   UNL     1      -3.367   2.096  -9.712  1.00  0.00     0.087 C 
BRANCH  11  12
ATOM     12  C   UNL     1      -3.073   0.954  -8.701  1.00  0.00     0.066 C 
BRANCH  12  13
ATOM     13  C   UNL     1      -2.316  -0.187  -9.366  1.00  0.00     0.140 C 
ATOM     14  O   UNL     1      -1.160  -0.031  -9.733  1.00  0.00    -0.299 OA
BRANCH  13  15
ATOM     15  C   UNL     1      -2.972  -1.536  -9.530  1.00  0.00     0.106 CG0
ATOM     16  G   UNL     1      -3.674  -1.715 -10.871  1.00  0.00     0.000 G0
ENDBRANCH  13  15
ENDBRANCH  12  13
BRANCH  12  17
ATOM     17  C   UNL     1      -2.358   1.446  -7.399  1.00  0.00    -0.006 C 
ATOM     18  C   UNL     1      -3.250   1.259  -6.161  1.00  0.00     0.008 C 
ATOM     19  C   UNL     1      -1.866   2.903  -7.472  1.00  0.00     0.008 C 
ENDBRANCH  12  17
ENDBRANCH  11  12
ENDBRANCH   1  11
TORSDOF 1
ENDMDL
MODEL 9
REMARK VINA RESULT:    -3.202      6.467      8.947
REMARK INTER + INTRA:          -5.315
REMARK INTER:                  -5.043
REMARK INTRA:                  -0.272
REMARK UNBOUND:                -0.428
REMARK SMILES CC1=CCC[C@H](C)C(=O)C[C@H](C(C)C)C(=O)C1
REMARK SMILES IDX 8 1 9 2 6 3 7 4 5 5 4 6 3 7 2 8 1 9 10 11 11 12 15 13 16 14
REMARK SMILES IDX 17 15 12 17 13 18 14 19
REMARK H PARENT
REMARK Flexibility Score: 70.00
ROOT
ATOM      1  C   UNL     1      -6.625  -0.853 -10.632  1.00  0.00     0.136 C 
ATOM      2  O   UNL     1      -7.196  -1.257 -11.636  1.00  0.00    -0.299 OA
ENDROOT
BRANCH   1   3
ATOM      3  C   UNL     1      -6.989   0.530 -10.113  1.00  0.00     0.053 C 
ATOM      4  C   UNL     1      -7.315   0.564  -8.612  1.00  0.00     0.016 C 
BRANCH   3   5
ATOM      5  C   UNL     1      -5.960   1.601 -10.542  1.00  0.00     0.015 C 
BRANCH   5   6
ATOM      6  C   UNL     1      -4.998   2.038  -9.419  1.00  0.00     0.028 C 
BRANCH   6   7
ATOM      7  C   UNL     1      -3.549   1.970  -9.834  1.00  0.00    -0.028 C 
ATOM      8  C   UNL     1      -2.671   1.010  -9.453  1.00  0.00    -0.070 CG0
ATOM      9  C   UNL     1      -1.238   1.152  -9.902  1.00  0.00     0.039 C 
ATOM     10  G   UNL     1      -3.063  -0.210  -8.629  1.00  0.00     0.000 G0
ENDBRANCH   6   7
ENDBRANCH   5   6
ENDBRANCH   3   5
ENDBRANCH   1   3
BRANCH   1  11
ATOM     11  C   UNL     1      -5.619  -1.769  -9.963  1.00  0.00     0.087 C 
BRANCH  11  12
ATOM     12  C   UNL     1      -4.188  -1.608 -10.544  1.00  0.00     0.066 C 
BRANCH  12  13
ATOM     13  C   UNL     1      -3.154  -1.489  -9.433  1.00  0.00     0.140 C 
ATOM     14  O   UNL     1      -2.376  -2.406  -9.212  1.00  0.00    -0.299 OA
BRANCH  13  15
ATOM     15  C   UNL     1      -3.049  -0.216  -8.629  1.00  0.00     0.106 CG0
ATOM     16  G   UNL     1      -2.674   1.003  -9.463  1.00  0.00     0.000 G0
ENDBRANCH  13  15
ENDBRANCH  12  13
BRANCH  12  17
ATOM     17  C   UNL     1      -3.806  -2.720 -11.576  1.00  0.00    -0.006 C 
ATOM     18  C   UNL     1      -3.617  -2.138 -12.987  1.00  0.00     0.008 C 
ATOM     19  C   UNL     1      -4.805  -3.892 -11.626  1.00  0.00     0.008 C 
ENDBRANCH  12  17
ENDBRANCH  11  12
ENDBRANCH   1  11
TORSDOF 1
ENDMDL
