MODEL 1
REMARK VINA RESULT:    -2.643      0.000      0.000
REMARK INTER + INTRA:          -3.302
REMARK INTER:                  -3.106
REMARK INTRA:                  -0.196
REMARK UNBOUND:                -0.196
REMARK SMILES [NH3+][C@@H](CO)C(=O)[O-]
REMARK SMILES IDX 3 1 2 2 1 3 5 7 6 8 7 9 4 10
REMARK H PARENT 1 4 1 5 1 6 4 11
REMARK Flexibility Score: inf
ROOT
ATOM      1  C   UNL     1      11.002   6.773  41.781  1.00  0.00     0.227 C 
ENDROOT
BRANCH   1   2
ATOM      2  C   UNL     1       9.553   6.482  41.352  1.00  0.00     0.253 C 
BRANCH   2   3
ATOM      3  N   UNL     1       9.283   5.040  41.385  1.00  0.00    -0.348 N 
ATOM      4  H   UNL     1       9.989   4.562  41.991  1.00  0.00     0.345 HD
ATOM      5  H   UNL     1       8.334   4.866  41.790  1.00  0.00     0.345 HD
ATOM      6  H   UNL     1       9.327   4.633  40.423  1.00  0.00     0.345 HD
ENDBRANCH   2   3
BRANCH   2   7
ATOM      7  C   UNL     1       9.287   7.028  39.974  1.00  0.00     0.102 C 
ATOM      8  O   UNL     1      10.234   7.174  39.157  1.00  0.00    -0.544 OA
ATOM      9  O   UNL     1       7.994   7.365  39.590  1.00  0.00    -0.544 OA
ENDBRANCH   2   7
ENDBRANCH   1   2
BRANCH   1  10
ATOM     10  O   UNL     1      11.851   5.723  41.402  1.00  0.00    -0.390 OA
ATOM     11  H   UNL     1      11.990   5.804  40.422  1.00  0.00     0.210 HD
ENDBRANCH   1  10
TORSDOF 4
ENDMDL
MODEL 2
REMARK VINA RESULT:    -2.614      2.348      2.980
REMARK INTER + INTRA:          -3.268
REMARK INTER:                  -3.043
REMARK INTRA:                  -0.226
REMARK UNBOUND:                -0.196
REMARK SMILES [NH3+][C@@H](CO)C(=O)[O-]
REMARK SMILES IDX 3 1 2 2 1 3 5 7 6 8 7 9 4 10
REMARK H PARENT 1 4 1 5 1 6 4 11
REMARK Flexibility Score: inf
ROOT
ATOM      1  C   UNL     1       9.522   6.886  40.177  1.00  0.00     0.227 C 
ENDROOT
BRANCH   1   2
ATOM      2  C   UNL     1      10.423   7.006  41.420  1.00  0.00     0.253 C 
BRANCH   2   3
ATOM      3  N   UNL     1      11.341   5.864  41.504  1.00  0.00    -0.348 N 
ATOM      4  H   UNL     1      10.835   4.984  41.256  1.00  0.00     0.345 HD
ATOM      5  H   UNL     1      12.127   5.991  40.825  1.00  0.00     0.345 HD
ATOM      6  H   UNL     1      11.731   5.774  42.470  1.00  0.00     0.345 HD
ENDBRANCH   2   3
BRANCH   2   7
ATOM      7  C   UNL     1       9.591   7.096  42.672  1.00  0.00     0.102 C 
ATOM      8  O   UNL     1       9.653   8.123  43.399  1.00  0.00    -0.544 OA
ATOM      9  O   UNL     1       8.743   6.055  43.028  1.00  0.00    -0.544 OA
ENDBRANCH   2   7
ENDBRANCH   1   2
BRANCH   1  10
ATOM     10  O   UNL     1       8.814   5.675  40.193  1.00  0.00    -0.390 OA
ATOM     11  H   UNL     1       9.467   4.957  39.988  1.00  0.00     0.210 HD
ENDBRANCH   1  10
TORSDOF 4
ENDMDL
MODEL 3
REMARK VINA RESULT:    -2.599      9.319      9.697
REMARK INTER + INTRA:          -3.251
REMARK INTER:                  -2.868
REMARK INTRA:                  -0.383
REMARK UNBOUND:                -0.196
REMARK SMILES [NH3+][C@@H](CO)C(=O)[O-]
REMARK SMILES IDX 3 1 2 2 1 3 5 7 6 8 7 9 4 10
REMARK H PARENT 1 4 1 5 1 6 4 11
REMARK Flexibility Score: inf
ROOT
ATOM      1  C   UNL     1       6.086  -1.765  43.362  1.00  0.00     0.227 C 
ENDROOT
BRANCH   1   2
ATOM      2  C   UNL     1       7.302  -2.398  42.661  1.00  0.00     0.253 C 
BRANCH   2   3
ATOM      3  N   UNL     1       8.456  -1.494  42.712  1.00  0.00    -0.348 N 
ATOM      4  H   UNL     1       8.988  -1.649  43.599  1.00  0.00     0.345 HD
ATOM      5  H   UNL     1       9.097  -1.692  41.909  1.00  0.00     0.345 HD
ATOM      6  H   UNL     1       8.147  -0.496  42.668  1.00  0.00     0.345 HD
ENDBRANCH   2   3
BRANCH   2   7
ATOM      7  C   UNL     1       6.973  -2.740  41.231  1.00  0.00     0.102 C 
ATOM      8  O   UNL     1       7.362  -1.990  40.297  1.00  0.00    -0.544 OA
ATOM      9  O   UNL     1       6.251  -3.888  40.933  1.00  0.00    -0.544 OA
ENDBRANCH   2   7
ENDBRANCH   1   2
BRANCH   1  10
ATOM     10  O   UNL     1       5.041  -1.558  42.450  1.00  0.00    -0.390 OA
ATOM     11  H   UNL     1       4.241  -1.306  42.982  1.00  0.00     0.210 HD
ENDBRANCH   1  10
TORSDOF 4
ENDMDL
MODEL 4
REMARK VINA RESULT:    -2.588      9.808     10.155
REMARK INTER + INTRA:          -3.238
REMARK INTER:                  -3.229
REMARK INTRA:                  -0.009
REMARK UNBOUND:                -0.196
REMARK SMILES [NH3+][C@@H](CO)C(=O)[O-]
REMARK SMILES IDX 3 1 2 2 1 3 5 7 6 8 7 9 4 10
REMARK H PARENT 1 4 1 5 1 6 4 11
REMARK Flexibility Score: inf
ROOT
ATOM      1  C   UNL     1       7.748  -2.378  42.672  1.00  0.00     0.227 C 
ENDROOT
BRANCH   1   2
ATOM      2  C   UNL     1       6.281  -1.955  42.867  1.00  0.00     0.253 C 
BRANCH   2   3
ATOM      3  N   UNL     1       6.099  -1.309  44.173  1.00  0.00    -0.348 N 
ATOM      4  H   UNL     1       5.320  -0.614  44.118  1.00  0.00     0.345 HD
ATOM      5  H   UNL     1       5.846  -2.028  44.891  1.00  0.00     0.345 HD
ATOM      6  H   UNL     1       6.974  -0.820  44.469  1.00  0.00     0.345 HD
ENDBRANCH   2   3
BRANCH   2   7
ATOM      7  C   UNL     1       5.363  -3.143  42.744  1.00  0.00     0.102 C 
ATOM      8  O   UNL     1       5.772  -4.204  42.201  1.00  0.00    -0.544 OA
ATOM      9  O   UNL     1       4.066  -3.082  43.237  1.00  0.00    -0.544 OA
ENDBRANCH   2   7
ENDBRANCH   1   2
BRANCH   1  10
ATOM     10  O   UNL     1       8.601  -1.269  42.772  1.00  0.00    -0.390 OA
ATOM     11  H   UNL     1       8.357  -0.793  43.608  1.00  0.00     0.210 HD
ENDBRANCH   1  10
TORSDOF 4
ENDMDL
MODEL 5
REMARK VINA RESULT:    -2.514      1.624      2.253
REMARK INTER + INTRA:          -3.152
REMARK INTER:                  -2.759
REMARK INTRA:                  -0.393
REMARK UNBOUND:                -0.196
REMARK SMILES [NH3+][C@@H](CO)C(=O)[O-]
REMARK SMILES IDX 3 1 2 2 1 3 5 7 6 8 7 9 4 10
REMARK H PARENT 1 4 1 5 1 6 4 11
REMARK Flexibility Score: inf
ROOT
ATOM      1  C   UNL     1       9.877   7.695  42.578  1.00  0.00     0.227 C 
ENDROOT
BRANCH   1   2
ATOM      2  C   UNL     1       9.943   6.447  41.679  1.00  0.00     0.253 C 
BRANCH   2   3
ATOM      3  N   UNL     1      11.334   6.028  41.477  1.00  0.00    -0.348 N 
ATOM      4  H   UNL     1      11.752   5.735  42.390  1.00  0.00     0.345 HD
ATOM      5  H   UNL     1      11.367   5.210  40.825  1.00  0.00     0.345 HD
ATOM      6  H   UNL     1      11.901   6.810  41.076  1.00  0.00     0.345 HD
ENDBRANCH   2   3
BRANCH   2   7
ATOM      7  C   UNL     1       9.282   6.712  40.352  1.00  0.00     0.102 C 
ATOM      8  O   UNL     1       8.057   6.464  40.195  1.00  0.00    -0.544 OA
ATOM      9  O   UNL     1      10.015   7.241  39.297  1.00  0.00    -0.544 OA
ENDBRANCH   2   7
ENDBRANCH   1   2
BRANCH   1  10
ATOM     10  O   UNL     1       9.148   8.718  41.953  1.00  0.00    -0.390 OA
ATOM     11  H   UNL     1       8.228   8.372  41.814  1.00  0.00     0.210 HD
ENDBRANCH   1  10
TORSDOF 4
ENDMDL
MODEL 6
REMARK VINA RESULT:    -2.511      7.674      7.952
REMARK INTER + INTRA:          -3.148
REMARK INTER:                  -2.755
REMARK INTRA:                  -0.393
REMARK UNBOUND:                -0.196
REMARK SMILES [NH3+][C@@H](CO)C(=O)[O-]
REMARK SMILES IDX 3 1 2 2 1 3 5 7 6 8 7 9 4 10
REMARK H PARENT 1 4 1 5 1 6 4 11
REMARK Flexibility Score: inf
ROOT
ATOM      1  C   UNL     1       8.289   0.831  38.092  1.00  0.00     0.227 C 
ENDROOT
BRANCH   1   2
ATOM      2  C   UNL     1       6.912   0.811  37.403  1.00  0.00     0.253 C 
BRANCH   2   3
ATOM      3  N   UNL     1       6.102   1.956  37.834  1.00  0.00    -0.348 N 
ATOM      4  H   UNL     1       5.942   1.908  38.866  1.00  0.00     0.345 HD
ATOM      5  H   UNL     1       6.609   2.847  37.623  1.00  0.00     0.345 HD
ATOM      6  H   UNL     1       5.178   1.961  37.344  1.00  0.00     0.345 HD
ENDBRANCH   2   3
BRANCH   2   7
ATOM      7  C   UNL     1       6.189  -0.477  37.697  1.00  0.00     0.102 C 
ATOM      8  O   UNL     1       5.355  -0.532  38.639  1.00  0.00    -0.544 OA
ATOM      9  O   UNL     1       6.427  -1.608  36.926  1.00  0.00    -0.544 OA
ENDBRANCH   2   7
ENDBRANCH   1   2
BRANCH   1  10
ATOM     10  O   UNL     1       8.493  -0.347  38.825  1.00  0.00    -0.390 OA
ATOM     11  H   UNL     1       8.328  -0.125  39.779  1.00  0.00     0.210 HD
ENDBRANCH   1  10
TORSDOF 4
ENDMDL
MODEL 7
REMARK VINA RESULT:    -2.500     10.041     10.439
REMARK INTER + INTRA:          -3.134
REMARK INTER:                  -2.744
REMARK INTRA:                  -0.391
REMARK UNBOUND:                -0.196
REMARK SMILES [NH3+][C@@H](CO)C(=O)[O-]
REMARK SMILES IDX 3 1 2 2 1 3 5 7 6 8 7 9 4 10
REMARK H PARENT 1 4 1 5 1 6 4 11
REMARK Flexibility Score: inf
ROOT
ATOM      1  C   UNL     1       6.416  -3.985  42.182  1.00  0.00     0.227 C 
ENDROOT
BRANCH   1   2
ATOM      2  C   UNL     1       6.589  -2.458  42.273  1.00  0.00     0.253 C 
BRANCH   2   3
ATOM      3  N   UNL     1       7.842  -2.121  42.958  1.00  0.00    -0.348 N 
ATOM      4  H   UNL     1       7.757  -1.180  43.407  1.00  0.00     0.345 HD
ATOM      5  H   UNL     1       8.035  -2.824  43.709  1.00  0.00     0.345 HD
ATOM      6  H   UNL     1       8.641  -2.108  42.284  1.00  0.00     0.345 HD
ENDBRANCH   2   3
BRANCH   2   7
ATOM      7  C   UNL     1       5.421  -1.832  42.988  1.00  0.00     0.102 C 
ATOM      8  O   UNL     1       4.471  -1.332  42.330  1.00  0.00    -0.544 OA
ATOM      9  O   UNL     1       5.378  -1.812  44.377  1.00  0.00    -0.544 OA
ENDBRANCH   2   7
ENDBRANCH   1   2
BRANCH   1  10
ATOM     10  O   UNL     1       5.120  -4.361  42.567  1.00  0.00    -0.390 OA
ATOM     11  H   UNL     1       4.497  -3.975  41.897  1.00  0.00     0.210 HD
ENDBRANCH   1  10
TORSDOF 4
ENDMDL
MODEL 8
REMARK VINA RESULT:    -2.489      9.409     10.020
REMARK INTER + INTRA:          -3.122
REMARK INTER:                  -2.741
REMARK INTRA:                  -0.381
REMARK UNBOUND:                -0.196
REMARK SMILES [NH3+][C@@H](CO)C(=O)[O-]
REMARK SMILES IDX 3 1 2 2 1 3 5 7 6 8 7 9 4 10
REMARK H PARENT 1 4 1 5 1 6 4 11
REMARK Flexibility Score: inf
ROOT
ATOM      1  C   UNL     1       4.612  -1.646  42.215  1.00  0.00     0.227 C 
ENDROOT
BRANCH   1   2
ATOM      2  C   UNL     1       5.622  -2.080  43.293  1.00  0.00     0.253 C 
BRANCH   2   3
ATOM      3  N   UNL     1       5.929  -0.962  44.192  1.00  0.00    -0.348 N 
ATOM      4  H   UNL     1       6.576  -0.292  43.716  1.00  0.00     0.345 HD
ATOM      5  H   UNL     1       5.049  -0.449  44.434  1.00  0.00     0.345 HD
ATOM      6  H   UNL     1       6.379  -1.306  45.071  1.00  0.00     0.345 HD
ENDBRANCH   2   3
BRANCH   2   7
ATOM      7  C   UNL     1       6.887  -2.598  42.660  1.00  0.00     0.102 C 
ATOM      8  O   UNL     1       7.883  -1.840  42.525  1.00  0.00    -0.544 OA
ATOM      9  O   UNL     1       6.967  -3.917  42.231  1.00  0.00    -0.544 OA
ENDBRANCH   2   7
ENDBRANCH   1   2
BRANCH   1  10
ATOM     10  O   UNL     1       5.107  -1.923  40.932  1.00  0.00    -0.390 OA
ATOM     11  H   UNL     1       4.849  -1.159  40.353  1.00  0.00     0.210 HD
ENDBRANCH   1  10
TORSDOF 4
ENDMDL
MODEL 9
REMARK VINA RESULT:    -2.478      2.809      3.166
REMARK INTER + INTRA:          -3.109
REMARK INTER:                  -2.720
REMARK INTRA:                  -0.389
REMARK UNBOUND:                -0.196
REMARK SMILES [NH3+][C@@H](CO)C(=O)[O-]
REMARK SMILES IDX 3 1 2 2 1 3 5 7 6 8 7 9 4 10
REMARK H PARENT 1 4 1 5 1 6 4 11
REMARK Flexibility Score: inf
ROOT
ATOM      1  C   UNL     1      10.181   6.721  41.538  1.00  0.00     0.227 C 
ENDROOT
BRANCH   1   2
ATOM      2  C   UNL     1       9.089   7.473  42.319  1.00  0.00     0.253 C 
BRANCH   2   3
ATOM      3  N   UNL     1       9.683   8.280  43.391  1.00  0.00    -0.348 N 
ATOM      4  H   UNL     1      10.669   8.525  43.143  1.00  0.00     0.345 HD
ATOM      5  H   UNL     1       9.144   9.170  43.505  1.00  0.00     0.345 HD
ATOM      6  H   UNL     1       9.677   7.755  44.295  1.00  0.00     0.345 HD
ENDBRANCH   2   3
BRANCH   2   7
ATOM      7  C   UNL     1       8.084   6.509  42.891  1.00  0.00     0.102 C 
ATOM      8  O   UNL     1       8.230   6.063  44.060  1.00  0.00    -0.544 OA
ATOM      9  O   UNL     1       6.984   6.112  42.140  1.00  0.00    -0.544 OA
ENDBRANCH   2   7
ENDBRANCH   1   2
BRANCH   1  10
ATOM     10  O   UNL     1       9.881   5.353  41.458  1.00  0.00    -0.390 OA
ATOM     11  H   UNL     1       9.739   5.145  40.498  1.00  0.00     0.210 HD
ENDBRANCH   1  10
TORSDOF 4
ENDMDL
