MODEL 1
REMARK VINA RESULT:    -0.017      0.000      0.000
REMARK INTER + INTRA:          -0.119
REMARK INTER:                  -0.018
REMARK INTRA:                  -0.101
REMARK UNBOUND:                -0.101
REMARK SMILES CC(=O)[C@@H]1CC[C@@H]2[C@H]3CC=C4C[C@H](O)CC[C@@]4(C)[C@@H]3CC[C@]21C
REMARK SMILES IDX 4 1 5 2 6 3 7 4 22 5 21 6 20 7 19 8 8 9 9 10 10 11 11 12
REMARK SMILES IDX 17 13 16 14 15 15 13 16 12 17 18 18 23 19 2 20 1 21 3 22
REMARK SMILES IDX 14 23
REMARK H PARENT 14 24
REMARK Flexibility Score: inf
ROOT
ATOM      1  C   UNL     1       3.008  44.371  12.435  1.00  0.00     0.062 C 
ATOM      2  C   UNL     1       1.903  43.299  12.275  1.00  0.00     0.012 C 
ATOM      3  C   UNL     1       0.952  43.816  11.179  1.00  0.00     0.005 C 
ATOM      4  C   UNL     1       1.431  45.238  10.910  1.00  0.00    -0.001 C 
ATOM      5  C   UNL     1       2.948  45.186  11.121  1.00  0.00    -0.020 C 
ATOM      6  C   UNL     1       3.451  46.640  11.245  1.00  0.00     0.008 C 
ATOM      7  C   UNL     1       3.095  47.461   9.983  1.00  0.00     0.005 C 
ATOM      8  C   UNL     1       1.582  47.385   9.592  1.00  0.00     0.003 C 
ATOM      9  C   UNL     1       1.026  45.927   9.589  1.00  0.00     0.000 C 
ATOM     10  C   UNL     1      -0.503  45.966   9.454  1.00  0.00     0.031 C 
ATOM     11  C   UNL     1      -0.967  46.867   8.345  1.00  0.00    -0.027 C 
ATOM     12  C   UNL     1      -0.256  47.922   7.889  1.00  0.00    -0.065 C 
ATOM     13  C   UNL     1       1.226  48.138   8.252  1.00  0.00    -0.008 C 
ATOM     14  C   UNL     1       1.475  49.667   8.450  1.00  0.00     0.014 C 
ATOM     15  C   UNL     1       0.907  50.540   7.322  1.00  0.00     0.033 C 
ATOM     16  C   UNL     1      -0.600  50.297   7.150  1.00  0.00     0.118 C 
ATOM     17  C   UNL     1      -0.891  48.822   6.845  1.00  0.00     0.063 C 
ATOM     18  C   UNL     1       2.092  47.626   7.067  1.00  0.00     0.016 C 
ATOM     19  C   UNL     1       3.712  44.445   9.974  1.00  0.00     0.012 C 
ENDROOT
BRANCH   1  20
ATOM     20  C   UNL     1       4.367  43.798  12.796  1.00  0.00     0.133 C 
ATOM     21  C   UNL     1       5.317  44.599  13.632  1.00  0.00     0.088 C 
ATOM     22  O   UNL     1       4.684  42.674  12.437  1.00  0.00    -0.300 OA
ENDBRANCH   1  20
BRANCH  16  23
ATOM     23  O   UNL     1      -1.125  51.125   6.143  1.00  0.00    -0.393 OA
ATOM     24  H   UNL     1      -1.054  52.064   6.457  1.00  0.00     0.210 HD
ENDBRANCH  16  23
TORSDOF 2
ENDMDL
MODEL 2
REMARK VINA RESULT:    -0.009      1.857      6.988
REMARK INTER + INTRA:          -0.111
REMARK INTER:                  -0.031
REMARK INTRA:                  -0.080
REMARK UNBOUND:                -0.101
REMARK SMILES CC(=O)[C@@H]1CC[C@@H]2[C@H]3CC=C4C[C@H](O)CC[C@@]4(C)[C@@H]3CC[C@]21C
REMARK SMILES IDX 4 1 5 2 6 3 7 4 22 5 21 6 20 7 19 8 8 9 9 10 10 11 11 12
REMARK SMILES IDX 17 13 16 14 15 15 13 16 12 17 18 18 23 19 2 20 1 21 3 22
REMARK SMILES IDX 14 23
REMARK H PARENT 14 24
REMARK Flexibility Score: inf
ROOT
ATOM      1  C   UNL     1       2.786  49.843   8.236  1.00  0.00     0.062 C 
ATOM      2  C   UNL     1       4.273  49.603   7.881  1.00  0.00     0.012 C 
ATOM      3  C   UNL     1       4.614  48.184   8.377  1.00  0.00     0.005 C 
ATOM      4  C   UNL     1       3.382  47.760   9.169  1.00  0.00    -0.001 C 
ATOM      5  C   UNL     1       2.205  48.424   8.447  1.00  0.00    -0.020 C 
ATOM      6  C   UNL     1       0.985  48.365   9.392  1.00  0.00     0.008 C 
ATOM      7  C   UNL     1       0.649  46.904   9.774  1.00  0.00     0.005 C 
ATOM      8  C   UNL     1       1.873  46.103  10.329  1.00  0.00     0.003 C 
ATOM      9  C   UNL     1       3.153  46.260   9.450  1.00  0.00     0.000 C 
ATOM     10  C   UNL     1       4.357  45.666  10.195  1.00  0.00     0.031 C 
ATOM     11  C   UNL     1       4.082  44.296  10.748  1.00  0.00    -0.027 C 
ATOM     12  C   UNL     1       2.846  43.851  11.068  1.00  0.00    -0.065 C 
ATOM     13  C   UNL     1       1.565  44.585  10.629  1.00  0.00    -0.008 C 
ATOM     14  C   UNL     1       0.519  44.501  11.786  1.00  0.00     0.014 C 
ATOM     15  C   UNL     1       0.342  43.089  12.362  1.00  0.00     0.033 C 
ATOM     16  C   UNL     1       1.684  42.530  12.860  1.00  0.00     0.118 C 
ATOM     17  C   UNL     1       2.719  42.491  11.728  1.00  0.00     0.063 C 
ATOM     18  C   UNL     1       1.001  43.863   9.374  1.00  0.00     0.016 C 
ATOM     19  C   UNL     1       1.859  47.757   7.075  1.00  0.00     0.012 C 
ENDROOT
BRANCH   1  20
ATOM     20  C   UNL     1       2.052  50.714   7.233  1.00  0.00     0.133 C 
ATOM     21  C   UNL     1       0.629  51.111   7.487  1.00  0.00     0.088 C 
ATOM     22  O   UNL     1       2.619  51.125   6.232  1.00  0.00    -0.300 OA
ENDBRANCH   1  20
BRANCH  16  23
ATOM     23  O   UNL     1       1.513  41.253  13.421  1.00  0.00    -0.393 OA
ATOM     24  H   UNL     1       2.407  40.925  13.702  1.00  0.00     0.210 HD
ENDBRANCH  16  23
TORSDOF 2
ENDMDL
MODEL 3
REMARK VINA RESULT:     0.851      2.705      4.212
REMARK INTER + INTRA:           0.824
REMARK INTER:                   0.233
REMARK INTRA:                   0.591
REMARK UNBOUND:                -0.101
REMARK SMILES CC(=O)[C@@H]1CC[C@@H]2[C@H]3CC=C4C[C@H](O)CC[C@@]4(C)[C@@H]3CC[C@]21C
REMARK SMILES IDX 4 1 5 2 6 3 7 4 22 5 21 6 20 7 19 8 8 9 9 10 10 11 11 12
REMARK SMILES IDX 17 13 16 14 15 15 13 16 12 17 18 18 23 19 2 20 1 21 3 22
REMARK SMILES IDX 14 23
REMARK H PARENT 14 24
REMARK Flexibility Score: inf
ROOT
ATOM      1  C   UNL     1       0.289  42.845  13.820  1.00  0.00     0.062 C 
ATOM      2  C   UNL     1      -1.085  43.087  13.150  1.00  0.00     0.012 C 
ATOM      3  C   UNL     1      -0.820  43.984  11.927  1.00  0.00     0.005 C 
ATOM      4  C   UNL     1       0.645  44.383  12.067  1.00  0.00    -0.001 C 
ATOM      5  C   UNL     1       1.321  43.168  12.713  1.00  0.00    -0.020 C 
ATOM      6  C   UNL     1       2.700  43.626  13.236  1.00  0.00     0.008 C 
ATOM      7  C   UNL     1       3.567  44.197  12.089  1.00  0.00     0.005 C 
ATOM      8  C   UNL     1       2.848  45.307  11.252  1.00  0.00     0.003 C 
ATOM      9  C   UNL     1       1.400  44.909  10.827  1.00  0.00     0.000 C 
ATOM     10  C   UNL     1       0.684  46.136  10.247  1.00  0.00     0.031 C 
ATOM     11  C   UNL     1       1.511  46.864   9.225  1.00  0.00    -0.027 C 
ATOM     12  C   UNL     1       2.862  46.836   9.197  1.00  0.00    -0.065 C 
ATOM     13  C   UNL     1       3.685  45.828  10.021  1.00  0.00    -0.008 C 
ATOM     14  C   UNL     1       4.969  46.543  10.549  1.00  0.00     0.014 C 
ATOM     15  C   UNL     1       5.726  47.335   9.472  1.00  0.00     0.033 C 
ATOM     16  C   UNL     1       4.808  48.377   8.815  1.00  0.00     0.118 C 
ATOM     17  C   UNL     1       3.579  47.710   8.184  1.00  0.00     0.063 C 
ATOM     18  C   UNL     1       4.097  44.660   9.082  1.00  0.00     0.016 C 
ATOM     19  C   UNL     1       1.486  41.956  11.739  1.00  0.00     0.012 C 
ENDROOT
BRANCH   1  20
ATOM     20  C   UNL     1       0.421  41.479  14.468  1.00  0.00     0.133 C 
ATOM     21  C   UNL     1       0.065  41.298  15.912  1.00  0.00     0.088 C 
ATOM     22  O   UNL     1       0.786  40.513  13.815  1.00  0.00    -0.300 OA
ENDBRANCH   1  20
BRANCH  16  23
ATOM     23  O   UNL     1       5.513  49.126   7.857  1.00  0.00    -0.393 OA
ATOM     24  H   UNL     1       5.409  50.086   8.089  1.00  0.00     0.210 HD
ENDBRANCH  16  23
TORSDOF 2
ENDMDL
MODEL 4
REMARK VINA RESULT:     1.575      2.285      6.867
REMARK INTER + INTRA:           1.612
REMARK INTER:                   1.698
REMARK INTRA:                  -0.086
REMARK UNBOUND:                -0.101
REMARK SMILES CC(=O)[C@@H]1CC[C@@H]2[C@H]3CC=C4C[C@H](O)CC[C@@]4(C)[C@@H]3CC[C@]21C
REMARK SMILES IDX 4 1 5 2 6 3 7 4 22 5 21 6 20 7 19 8 8 9 9 10 10 11 11 12
REMARK SMILES IDX 17 13 16 14 15 15 13 16 12 17 18 18 23 19 2 20 1 21 3 22
REMARK SMILES IDX 14 23
REMARK H PARENT 14 24
REMARK Flexibility Score: inf
ROOT
ATOM      1  C   UNL     1       3.875  48.857   8.792  1.00  0.00     0.062 C 
ATOM      2  C   UNL     1       5.371  48.478   8.906  1.00  0.00     0.012 C 
ATOM      3  C   UNL     1       5.421  47.123   9.638  1.00  0.00     0.005 C 
ATOM      4  C   UNL     1       3.984  46.889  10.089  1.00  0.00    -0.001 C 
ATOM      5  C   UNL     1       3.122  47.519   8.989  1.00  0.00    -0.020 C 
ATOM      6  C   UNL     1       1.689  47.666   9.548  1.00  0.00     0.008 C 
ATOM      7  C   UNL     1       1.118  46.296   9.982  1.00  0.00     0.005 C 
ATOM      8  C   UNL     1       2.058  45.503  10.951  1.00  0.00     0.003 C 
ATOM      9  C   UNL     1       3.540  45.458  10.462  1.00  0.00     0.000 C 
ATOM     10  C   UNL     1       4.427  44.899  11.582  1.00  0.00     0.031 C 
ATOM     11  C   UNL     1       3.878  43.638  12.187  1.00  0.00    -0.027 C 
ATOM     12  C   UNL     1       2.564  43.319  12.190  1.00  0.00    -0.065 C 
ATOM     13  C   UNL     1       1.532  44.063  11.322  1.00  0.00    -0.008 C 
ATOM     14  C   UNL     1       0.205  44.204  12.134  1.00  0.00     0.014 C 
ATOM     15  C   UNL     1      -0.262  42.898  12.794  1.00  0.00     0.033 C 
ATOM     16  C   UNL     1       0.830  42.331  13.713  1.00  0.00     0.118 C 
ATOM     17  C   UNL     1       2.128  42.072  12.937  1.00  0.00     0.063 C 
ATOM     18  C   UNL     1       1.266  43.212  10.050  1.00  0.00     0.016 C 
ATOM     19  C   UNL     1       3.103  46.693   7.662  1.00  0.00     0.012 C 
ENDROOT
BRANCH   1  20
ATOM     20  C   UNL     1       3.534  49.626   7.529  1.00  0.00     0.133 C 
ATOM     21  C   UNL     1       2.451  50.661   7.553  1.00  0.00     0.088 C 
ATOM     22  O   UNL     1       4.157  49.433   6.496  1.00  0.00    -0.300 OA
ENDBRANCH   1  20
BRANCH  16  23
ATOM     23  O   UNL     1       0.386  41.156  14.345  1.00  0.00    -0.393 OA
ATOM     24  H   UNL     1       0.622  40.391  13.757  1.00  0.00     0.210 HD
ENDBRANCH  16  23
TORSDOF 2
ENDMDL
MODEL 5
REMARK VINA RESULT:     2.391      1.207      2.801
REMARK INTER + INTRA:           2.500
REMARK INTER:                   2.611
REMARK INTRA:                  -0.111
REMARK UNBOUND:                -0.101
REMARK SMILES CC(=O)[C@@H]1CC[C@@H]2[C@H]3CC=C4C[C@H](O)CC[C@@]4(C)[C@@H]3CC[C@]21C
REMARK SMILES IDX 4 1 5 2 6 3 7 4 22 5 21 6 20 7 19 8 8 9 9 10 10 11 11 12
REMARK SMILES IDX 17 13 16 14 15 15 13 16 12 17 18 18 23 19 2 20 1 21 3 22
REMARK SMILES IDX 14 23
REMARK H PARENT 14 24
REMARK Flexibility Score: inf
ROOT
ATOM      1  C   UNL     1       3.955  44.101  10.763  1.00  0.00     0.062 C 
ATOM      2  C   UNL     1       4.863  45.091  11.531  1.00  0.00     0.012 C 
ATOM      3  C   UNL     1       4.366  46.504  11.173  1.00  0.00     0.005 C 
ATOM      4  C   UNL     1       3.343  46.271  10.067  1.00  0.00    -0.001 C 
ATOM      5  C   UNL     1       2.693  44.926  10.414  1.00  0.00    -0.020 C 
ATOM      6  C   UNL     1       1.935  44.439   9.160  1.00  0.00     0.008 C 
ATOM      7  C   UNL     1       0.871  45.471   8.718  1.00  0.00     0.005 C 
ATOM      8  C   UNL     1       1.436  46.920   8.547  1.00  0.00     0.003 C 
ATOM      9  C   UNL     1       2.314  47.378   9.753  1.00  0.00     0.000 C 
ATOM     10  C   UNL     1       3.031  48.686   9.392  1.00  0.00     0.031 C 
ATOM     11  C   UNL     1       2.108  49.714   8.801  1.00  0.00    -0.027 C 
ATOM     12  C   UNL     1       0.965  49.407   8.148  1.00  0.00    -0.065 C 
ATOM     13  C   UNL     1       0.341  48.000   8.192  1.00  0.00    -0.008 C 
ATOM     14  C   UNL     1      -0.254  47.672   6.785  1.00  0.00     0.014 C 
ATOM     15  C   UNL     1      -1.124  48.795   6.202  1.00  0.00     0.033 C 
ATOM     16  C   UNL     1      -0.334  50.109   6.117  1.00  0.00     0.118 C 
ATOM     17  C   UNL     1       0.183  50.533   7.498  1.00  0.00     0.063 C 
ATOM     18  C   UNL     1      -0.804  48.012   9.243  1.00  0.00     0.016 C 
ATOM     19  C   UNL     1       1.723  45.000  11.638  1.00  0.00     0.012 C 
ENDROOT
BRANCH   1  20
ATOM     20  C   UNL     1       3.708  42.798  11.502  1.00  0.00     0.133 C 
ATOM     21  C   UNL     1       2.986  41.677  10.819  1.00  0.00     0.088 C 
ATOM     22  O   UNL     1       4.121  42.641  12.641  1.00  0.00    -0.300 OA
ENDBRANCH   1  20
BRANCH  16  23
ATOM     23  O   UNL     1      -1.121  51.125   5.548  1.00  0.00    -0.393 OA
ATOM     24  H   UNL     1      -1.935  50.700   5.168  1.00  0.00     0.210 HD
ENDBRANCH  16  23
TORSDOF 2
ENDMDL
MODEL 6
REMARK VINA RESULT:     2.539      1.329      7.054
REMARK INTER + INTRA:           2.660
REMARK INTER:                   2.075
REMARK INTRA:                   0.585
REMARK UNBOUND:                -0.101
REMARK SMILES CC(=O)[C@@H]1CC[C@@H]2[C@H]3CC=C4C[C@H](O)CC[C@@]4(C)[C@@H]3CC[C@]21C
REMARK SMILES IDX 4 1 5 2 6 3 7 4 22 5 21 6 20 7 19 8 8 9 9 10 10 11 11 12
REMARK SMILES IDX 17 13 16 14 15 15 13 16 12 17 18 18 23 19 2 20 1 21 3 22
REMARK SMILES IDX 14 23
REMARK H PARENT 14 24
REMARK Flexibility Score: inf
ROOT
ATOM      1  C   UNL     1      -0.174  48.961   6.669  1.00  0.00     0.062 C 
ATOM      2  C   UNL     1      -1.107  47.934   5.983  1.00  0.00     0.012 C 
ATOM      3  C   UNL     1      -0.815  46.573   6.642  1.00  0.00     0.005 C 
ATOM      4  C   UNL     1       0.404  46.838   7.519  1.00  0.00    -0.001 C 
ATOM      5  C   UNL     1       0.234  48.283   7.999  1.00  0.00    -0.020 C 
ATOM      6  C   UNL     1       1.593  48.749   8.565  1.00  0.00     0.008 C 
ATOM      7  C   UNL     1       2.056  47.832   9.722  1.00  0.00     0.005 C 
ATOM      8  C   UNL     1       2.052  46.311   9.357  1.00  0.00     0.003 C 
ATOM      9  C   UNL     1       0.731  45.854   8.663  1.00  0.00     0.000 C 
ATOM     10  C   UNL     1       0.912  44.433   8.110  1.00  0.00     0.031 C 
ATOM     11  C   UNL     1       1.508  43.489   9.115  1.00  0.00    -0.027 C 
ATOM     12  C   UNL     1       2.297  43.883  10.139  1.00  0.00    -0.065 C 
ATOM     13  C   UNL     1       2.429  45.360  10.558  1.00  0.00    -0.008 C 
ATOM     14  C   UNL     1       3.910  45.632  10.972  1.00  0.00     0.014 C 
ATOM     15  C   UNL     1       4.486  44.586  11.938  1.00  0.00     0.033 C 
ATOM     16  C   UNL     1       4.385  43.176  11.339  1.00  0.00     0.118 C 
ATOM     17  C   UNL     1       2.930  42.817  11.013  1.00  0.00     0.063 C 
ATOM     18  C   UNL     1       1.501  45.600  11.782  1.00  0.00     0.016 C 
ATOM     19  C   UNL     1      -0.888  48.455   9.075  1.00  0.00     0.012 C 
ENDROOT
BRANCH   1  20
ATOM     20  C   UNL     1      -0.778  50.348   6.792  1.00  0.00     0.133 C 
ATOM     21  C   UNL     1      -1.124  51.125   5.558  1.00  0.00     0.088 C 
ATOM     22  O   UNL     1      -1.015  50.829   7.890  1.00  0.00    -0.300 OA
ENDBRANCH   1  20
BRANCH  16  23
ATOM     23  O   UNL     1       4.948  42.226  12.209  1.00  0.00    -0.393 OA
ATOM     24  H   UNL     1       5.358  42.718  12.969  1.00  0.00     0.210 HD
ENDBRANCH  16  23
TORSDOF 2
ENDMDL
MODEL 7
REMARK VINA RESULT:     2.898      3.289      4.775
REMARK INTER + INTRA:           3.052
REMARK INTER:                   2.426
REMARK INTRA:                   0.626
REMARK UNBOUND:                -0.101
REMARK SMILES CC(=O)[C@@H]1CC[C@@H]2[C@H]3CC=C4C[C@H](O)CC[C@@]4(C)[C@@H]3CC[C@]21C
REMARK SMILES IDX 4 1 5 2 6 3 7 4 22 5 21 6 20 7 19 8 8 9 9 10 10 11 11 12
REMARK SMILES IDX 17 13 16 14 15 15 13 16 12 17 18 18 23 19 2 20 1 21 3 22
REMARK SMILES IDX 14 23
REMARK H PARENT 14 24
REMARK Flexibility Score: inf
ROOT
ATOM      1  C   UNL     1       1.572  44.372  11.689  1.00  0.00     0.062 C 
ATOM      2  C   UNL     1       0.436  44.763  10.714  1.00  0.00     0.012 C 
ATOM      3  C   UNL     1       1.035  45.800   9.743  1.00  0.00     0.005 C 
ATOM      4  C   UNL     1       2.409  46.107  10.327  1.00  0.00    -0.001 C 
ATOM      5  C   UNL     1       2.871  44.788  10.957  1.00  0.00    -0.020 C 
ATOM      6  C   UNL     1       4.059  45.108  11.890  1.00  0.00     0.008 C 
ATOM      7  C   UNL     1       5.212  45.783  11.110  1.00  0.00     0.005 C 
ATOM      8  C   UNL     1       4.759  47.025  10.273  1.00  0.00     0.003 C 
ATOM      9  C   UNL     1       3.480  46.754   9.422  1.00  0.00     0.000 C 
ATOM     10  C   UNL     1       2.962  48.080   8.847  1.00  0.00     0.031 C 
ATOM     11  C   UNL     1       4.044  48.895   8.197  1.00  0.00    -0.027 C 
ATOM     12  C   UNL     1       5.351  48.807   8.530  1.00  0.00    -0.065 C 
ATOM     13  C   UNL     1       5.907  47.663   9.397  1.00  0.00    -0.008 C 
ATOM     14  C   UNL     1       7.004  48.241  10.346  1.00  0.00     0.014 C 
ATOM     15  C   UNL     1       8.034  49.131   9.634  1.00  0.00     0.033 C 
ATOM     16  C   UNL     1       7.341  50.291   8.905  1.00  0.00     0.118 C 
ATOM     17  C   UNL     1       6.326  49.771   7.879  1.00  0.00     0.063 C 
ATOM     18  C   UNL     1       6.549  46.609   8.453  1.00  0.00     0.016 C 
ATOM     19  C   UNL     1       3.284  43.707   9.905  1.00  0.00     0.012 C 
ENDROOT
BRANCH   1  20
ATOM     20  C   UNL     1       1.509  42.928  12.153  1.00  0.00     0.133 C 
ATOM     21  C   UNL     1       0.460  42.503  13.135  1.00  0.00     0.088 C 
ATOM     22  O   UNL     1       2.286  42.097  11.708  1.00  0.00    -0.300 OA
ENDBRANCH   1  20
BRANCH  16  23
ATOM     23  O   UNL     1       8.289  51.125   8.286  1.00  0.00    -0.393 OA
ATOM     24  H   UNL     1       9.184  50.715   8.420  1.00  0.00     0.210 HD
ENDBRANCH  16  23
TORSDOF 2
ENDMDL
