MODEL 1
REMARK VINA RESULT:    -3.360      0.000      0.000
REMARK INTER + INTRA:          -4.037
REMARK INTER:                  -3.950
REMARK INTRA:                  -0.087
REMARK UNBOUND:                -0.087
REMARK SMILES O=C([O-])CCC(=O)[O-]
REMARK SMILES IDX 4 1 2 2 1 3 3 4 5 5 6 6 7 7 8 8
REMARK H PARENT
REMARK Flexibility Score: inf
ROOT
ATOM      1  C   UNL     1      16.472  -9.314 -28.180  1.00  0.00     0.059 C 
ENDROOT
BRANCH   1   2
ATOM      2  C   UNL     1      16.287  -9.980 -26.851  1.00  0.00     0.042 C 
ATOM      3  O   UNL     1      15.386 -10.847 -26.696  1.00  0.00    -0.550 OA
ATOM      4  O   UNL     1      17.082  -9.613 -25.772  1.00  0.00    -0.550 OA
ENDBRANCH   1   2
BRANCH   1   5
ATOM      5  C   UNL     1      15.196  -8.599 -28.636  1.00  0.00     0.059 C 
BRANCH   5   6
ATOM      6  C   UNL     1      14.458  -9.395 -29.668  1.00  0.00     0.042 C 
ATOM      7  O   UNL     1      14.751  -9.280 -30.887  1.00  0.00    -0.550 OA
ATOM      8  O   UNL     1      13.419 -10.234 -29.286  1.00  0.00    -0.550 OA
ENDBRANCH   5   6
ENDBRANCH   1   5
TORSDOF 3
ENDMDL
MODEL 2
REMARK VINA RESULT:    -3.334      0.152      1.153
REMARK INTER + INTRA:          -4.006
REMARK INTER:                  -3.909
REMARK INTRA:                  -0.097
REMARK UNBOUND:                -0.087
REMARK SMILES O=C([O-])CCC(=O)[O-]
REMARK SMILES IDX 4 1 2 2 1 3 3 4 5 5 6 6 7 7 8 8
REMARK H PARENT
REMARK Flexibility Score: inf
ROOT
ATOM      1  C   UNL     1      16.372  -9.375 -28.215  1.00  0.00     0.059 C 
ENDROOT
BRANCH   1   2
ATOM      2  C   UNL     1      16.184 -10.047 -26.889  1.00  0.00     0.042 C 
ATOM      3  O   UNL     1      15.270 -10.898 -26.733  1.00  0.00    -0.550 OA
ATOM      4  O   UNL     1      16.994  -9.701 -25.814  1.00  0.00    -0.550 OA
ENDBRANCH   1   2
BRANCH   1   5
ATOM      5  C   UNL     1      15.122  -8.593 -28.634  1.00  0.00     0.059 C 
BRANCH   5   6
ATOM      6  C   UNL     1      14.353  -9.314 -29.698  1.00  0.00     0.042 C 
ATOM      7  O   UNL     1      13.474 -10.159 -29.383  1.00  0.00    -0.550 OA
ATOM      8  O   UNL     1      14.635  -9.080 -31.038  1.00  0.00    -0.550 OA
ENDBRANCH   5   6
ENDBRANCH   1   5
TORSDOF 3
ENDMDL
MODEL 3
REMARK VINA RESULT:    -3.330      0.208      1.633
REMARK INTER + INTRA:          -4.001
REMARK INTER:                  -3.916
REMARK INTRA:                  -0.085
REMARK UNBOUND:                -0.087
REMARK SMILES O=C([O-])CCC(=O)[O-]
REMARK SMILES IDX 4 1 2 2 1 3 3 4 5 5 6 6 7 7 8 8
REMARK H PARENT
REMARK Flexibility Score: inf
ROOT
ATOM      1  C   UNL     1      16.364  -9.168 -28.304  1.00  0.00     0.059 C 
ENDROOT
BRANCH   1   2
ATOM      2  C   UNL     1      16.265  -9.927 -27.016  1.00  0.00     0.042 C 
ATOM      3  O   UNL     1      17.032  -9.651 -26.056  1.00  0.00    -0.550 OA
ATOM      4  O   UNL     1      15.353 -10.968 -26.891  1.00  0.00    -0.550 OA
ENDBRANCH   1   2
BRANCH   1   5
ATOM      5  C   UNL     1      15.018  -8.551 -28.700  1.00  0.00     0.059 C 
BRANCH   5   6
ATOM      6  C   UNL     1      14.328  -9.363 -29.753  1.00  0.00     0.042 C 
ATOM      7  O   UNL     1      13.421 -10.176 -29.433  1.00  0.00    -0.550 OA
ATOM      8  O   UNL     1      14.714  -9.250 -31.082  1.00  0.00    -0.550 OA
ENDBRANCH   5   6
ENDBRANCH   1   5
TORSDOF 3
ENDMDL
MODEL 4
REMARK VINA RESULT:    -3.313      0.157      3.902
REMARK INTER + INTRA:          -3.982
REMARK INTER:                  -3.882
REMARK INTRA:                  -0.100
REMARK UNBOUND:                -0.087
REMARK SMILES O=C([O-])CCC(=O)[O-]
REMARK SMILES IDX 4 1 2 2 1 3 3 4 5 5 6 6 7 7 8 8
REMARK H PARENT
REMARK Flexibility Score: inf
ROOT
ATOM      1  C   UNL     1      15.266  -8.524 -28.600  1.00  0.00     0.059 C 
ENDROOT
BRANCH   1   2
ATOM      2  C   UNL     1      14.525  -9.223 -29.699  1.00  0.00     0.042 C 
ATOM      3  O   UNL     1      14.775  -8.954 -30.904  1.00  0.00    -0.550 OA
ATOM      4  O   UNL     1      13.529 -10.142 -29.391  1.00  0.00    -0.550 OA
ENDBRANCH   1   2
BRANCH   1   5
ATOM      5  C   UNL     1      16.507  -9.311 -28.166  1.00  0.00     0.059 C 
BRANCH   5   6
ATOM      6  C   UNL     1      16.286 -10.012 -26.861  1.00  0.00     0.042 C 
ATOM      7  O   UNL     1      15.375 -10.874 -26.750  1.00  0.00    -0.550 OA
ATOM      8  O   UNL     1      17.060  -9.683 -25.756  1.00  0.00    -0.550 OA
ENDBRANCH   5   6
ENDBRANCH   1   5
TORSDOF 3
ENDMDL
MODEL 5
REMARK VINA RESULT:    -3.300      1.030      1.086
REMARK INTER + INTRA:          -3.966
REMARK INTER:                  -3.865
REMARK INTRA:                  -0.101
REMARK UNBOUND:                -0.087
REMARK SMILES O=C([O-])CCC(=O)[O-]
REMARK SMILES IDX 4 1 2 2 1 3 3 4 5 5 6 6 7 7 8 8
REMARK H PARENT
REMARK Flexibility Score: inf
ROOT
ATOM      1  C   UNL     1      16.125  -9.066 -28.282  1.00  0.00     0.059 C 
ENDROOT
BRANCH   1   2
ATOM      2  C   UNL     1      16.193  -9.962 -27.084  1.00  0.00     0.042 C 
ATOM      3  O   UNL     1      15.441 -10.969 -27.001  1.00  0.00    -0.550 OA
ATOM      4  O   UNL     1      17.058  -9.661 -26.039  1.00  0.00    -0.550 OA
ENDBRANCH   1   2
BRANCH   1   5
ATOM      5  C   UNL     1      15.297  -9.692 -29.410  1.00  0.00     0.059 C 
BRANCH   5   6
ATOM      6  C   UNL     1      14.064  -8.892 -29.697  1.00  0.00     0.042 C 
ATOM      7  O   UNL     1      13.513  -8.960 -30.827  1.00  0.00    -0.550 OA
ATOM      8  O   UNL     1      13.546  -8.040 -28.729  1.00  0.00    -0.550 OA
ENDBRANCH   5   6
ENDBRANCH   1   5
TORSDOF 3
ENDMDL
MODEL 6
REMARK VINA RESULT:    -3.294      0.168      3.749
REMARK INTER + INTRA:          -3.959
REMARK INTER:                  -3.868
REMARK INTRA:                  -0.091
REMARK UNBOUND:                -0.087
REMARK SMILES O=C([O-])CCC(=O)[O-]
REMARK SMILES IDX 4 1 2 2 1 3 3 4 5 5 6 6 7 7 8 8
REMARK H PARENT
REMARK Flexibility Score: inf
ROOT
ATOM      1  C   UNL     1      15.143  -8.509 -28.631  1.00  0.00     0.059 C 
ENDROOT
BRANCH   1   2
ATOM      2  C   UNL     1      14.366  -9.370 -29.579  1.00  0.00     0.042 C 
ATOM      3  O   UNL     1      13.492 -10.165 -29.142  1.00  0.00    -0.550 OA
ATOM      4  O   UNL     1      14.636  -9.324 -30.941  1.00  0.00    -0.550 OA
ENDBRANCH   1   2
BRANCH   1   5
ATOM      5  C   UNL     1      16.466  -9.168 -28.225  1.00  0.00     0.059 C 
BRANCH   5   6
ATOM      6  C   UNL     1      16.371  -9.806 -26.873  1.00  0.00     0.042 C 
ATOM      7  O   UNL     1      17.100  -9.401 -25.929  1.00  0.00    -0.550 OA
ATOM      8  O   UNL     1      15.507 -10.873 -26.667  1.00  0.00    -0.550 OA
ENDBRANCH   5   6
ENDBRANCH   1   5
TORSDOF 3
ENDMDL
MODEL 7
REMARK VINA RESULT:    -3.127      1.114      3.942
REMARK INTER + INTRA:          -3.763
REMARK INTER:                  -3.713
REMARK INTRA:                  -0.050
REMARK UNBOUND:                -0.087
REMARK SMILES O=C([O-])CCC(=O)[O-]
REMARK SMILES IDX 4 1 2 2 1 3 3 4 5 5 6 6 7 7 8 8
REMARK H PARENT
REMARK Flexibility Score: inf
ROOT
ATOM      1  C   UNL     1      14.982  -9.717 -29.538  1.00  0.00     0.059 C 
ENDROOT
BRANCH   1   2
ATOM      2  C   UNL     1      14.074  -8.778 -30.269  1.00  0.00     0.042 C 
ATOM      3  O   UNL     1      13.573  -9.111 -31.376  1.00  0.00    -0.550 OA
ATOM      4  O   UNL     1      13.814  -7.516 -29.748  1.00  0.00    -0.550 OA
ENDBRANCH   1   2
BRANCH   1   5
ATOM      5  C   UNL     1      15.878  -8.975 -28.541  1.00  0.00     0.059 C 
BRANCH   5   6
ATOM      6  C   UNL     1      16.141  -9.798 -27.318  1.00  0.00     0.042 C 
ATOM      7  O   UNL     1      17.034  -9.453 -26.500  1.00  0.00    -0.550 OA
ATOM      8  O   UNL     1      15.425 -10.969 -27.101  1.00  0.00    -0.550 OA
ENDBRANCH   5   6
ENDBRANCH   1   5
TORSDOF 3
ENDMDL
MODEL 8
REMARK VINA RESULT:    -2.966      1.465      2.056
REMARK INTER + INTRA:          -3.573
REMARK INTER:                  -3.506
REMARK INTRA:                  -0.067
REMARK UNBOUND:                -0.087
REMARK SMILES O=C([O-])CCC(=O)[O-]
REMARK SMILES IDX 4 1 2 2 1 3 3 4 5 5 6 6 7 7 8 8
REMARK H PARENT
REMARK Flexibility Score: inf
ROOT
ATOM      1  C   UNL     1      15.838  -8.914 -28.964  1.00  0.00     0.059 C 
ENDROOT
BRANCH   1   2
ATOM      2  C   UNL     1      15.218  -9.994 -28.133  1.00  0.00     0.042 C 
ATOM      3  O   UNL     1      13.969 -10.161 -28.137  1.00  0.00    -0.550 OA
ATOM      4  O   UNL     1      16.016 -10.790 -27.320  1.00  0.00    -0.550 OA
ENDBRANCH   1   2
BRANCH   1   5
ATOM      5  C   UNL     1      14.799  -8.217 -29.850  1.00  0.00     0.059 C 
BRANCH   5   6
ATOM      6  C   UNL     1      15.101  -8.404 -31.305  1.00  0.00     0.042 C 
ATOM      7  O   UNL     1      16.107  -7.849 -31.820  1.00  0.00    -0.550 OA
ATOM      8  O   UNL     1      14.250  -9.161 -32.100  1.00  0.00    -0.550 OA
ENDBRANCH   5   6
ENDBRANCH   1   5
TORSDOF 3
ENDMDL
MODEL 9
REMARK VINA RESULT:    -2.931      1.437      3.976
REMARK INTER + INTRA:          -3.532
REMARK INTER:                  -3.442
REMARK INTRA:                  -0.090
REMARK UNBOUND:                -0.087
REMARK SMILES O=C([O-])CCC(=O)[O-]
REMARK SMILES IDX 4 1 2 2 1 3 3 4 5 5 6 6 7 7 8 8
REMARK H PARENT
REMARK Flexibility Score: inf
ROOT
ATOM      1  C   UNL     1      14.584  -8.093 -29.934  1.00  0.00     0.059 C 
ENDROOT
BRANCH   1   2
ATOM      2  C   UNL     1      15.008  -8.382 -31.342  1.00  0.00     0.042 C 
ATOM      3  O   UNL     1      14.322  -9.150 -32.066  1.00  0.00    -0.550 OA
ATOM      4  O   UNL     1      16.184  -7.834 -31.840  1.00  0.00    -0.550 OA
ENDBRANCH   1   2
BRANCH   1   5
ATOM      5  C   UNL     1      15.570  -8.677 -28.917  1.00  0.00     0.059 C 
BRANCH   5   6
ATOM      6  C   UNL     1      15.012  -9.892 -28.243  1.00  0.00     0.042 C 
ATOM      7  O   UNL     1      13.786 -10.164 -28.340  1.00  0.00    -0.550 OA
ATOM      8  O   UNL     1      15.838 -10.703 -27.475  1.00  0.00    -0.550 OA
ENDBRANCH   5   6
ENDBRANCH   1   5
TORSDOF 3
ENDMDL
