MODEL 1
REMARK VINA RESULT:    -3.046      0.000      0.000
REMARK INTER + INTRA:          -2.981
REMARK INTER:                  -3.759
REMARK INTRA:                   0.778
REMARK UNBOUND:                 0.778
REMARK SMILES CC1=CC=CC(C)(C)CC1=O
REMARK SMILES IDX 1 1 2 2 3 3 10 4 11 5 9 6 4 8 5 9 6 10 7 11 8 12
REMARK H PARENT
REMARK Flexibility Score: 80.00
ROOT
ATOM      1  C   UNL     1      12.453  61.835  19.403  1.00  0.00     0.048 C 
ATOM      2  C   UNL     1      13.364  61.387  20.521  1.00  0.00    -0.008 C 
ATOM      3  C   UNL     1      14.544  62.028  20.662  1.00  0.00     0.007 C 
ENDROOT
BRANCH   2   4
ATOM      4  C   UNL     1      12.920  60.224  21.330  1.00  0.00     0.159 C 
ATOM      5  O   UNL     1      11.917  59.563  20.945  1.00  0.00    -0.295 OA
BRANCH   4   6
ATOM      6  C   UNL     1      13.592  59.794  22.597  1.00  0.00     0.091 CG0
ATOM      7  G   UNL     1      15.087  59.453  22.409  1.00  0.00     0.000 G0
ENDBRANCH   4   6
ENDBRANCH   2   4
BRANCH   3   8
ATOM      8  C   UNL     1      15.641  61.800  21.631  1.00  0.00    -0.003 C 
ATOM      9  C   UNL     1      15.898  60.717  22.376  1.00  0.00    -0.020 C 
BRANCH   9  10
ATOM     10  C   UNL     1      15.086  59.445  22.420  1.00  0.00    -0.010 CG0
ATOM     11  C   UNL     1      15.545  58.618  23.643  1.00  0.00     0.016 C 
ATOM     12  C   UNL     1      15.351  58.605  21.150  1.00  0.00     0.016 C 
ATOM     13  G   UNL     1      13.591  59.788  22.606  1.00  0.00     0.000 G0
ENDBRANCH   9  10
ENDBRANCH   3   8
TORSDOF 0
ENDMDL
MODEL 2
REMARK VINA RESULT:    -2.873      1.649      3.221
REMARK INTER + INTRA:          -2.767
REMARK INTER:                  -3.520
REMARK INTRA:                   0.753
REMARK UNBOUND:                 0.778
REMARK SMILES CC1=CC=CC(C)(C)CC1=O
REMARK SMILES IDX 1 1 2 2 3 3 10 4 11 5 9 6 4 8 5 9 6 10 7 11 8 12
REMARK H PARENT
REMARK Flexibility Score: 80.00
ROOT
ATOM      1  C   UNL     1      17.710  60.097  21.622  1.00  0.00     0.048 C 
ATOM      2  C   UNL     1      16.235  60.281  21.348  1.00  0.00    -0.008 C 
ATOM      3  C   UNL     1      15.821  61.501  20.943  1.00  0.00     0.007 C 
ENDROOT
BRANCH   2   4
ATOM      4  C   UNL     1      15.348  59.123  21.622  1.00  0.00     0.159 C 
ATOM      5  O   UNL     1      15.807  58.146  22.274  1.00  0.00    -0.295 OA
BRANCH   4   6
ATOM      6  C   UNL     1      13.929  59.041  21.151  1.00  0.00     0.091 CG0
ATOM      7  G   UNL     1      13.031  60.161  21.721  1.00  0.00     0.000 G0
ENDBRANCH   4   6
ENDBRANCH   2   4
BRANCH   3   8
ATOM      8  C   UNL     1      14.457  61.987  20.630  1.00  0.00    -0.003 C 
ATOM      9  C   UNL     1      13.274  61.452  20.957  1.00  0.00    -0.020 C 
BRANCH   9  10
ATOM     10  C   UNL     1      13.051  60.172  21.725  1.00  0.00    -0.010 CG0
ATOM     11  C   UNL     1      11.574  59.749  21.545  1.00  0.00     0.016 C 
ATOM     12  C   UNL     1      13.297  60.411  23.233  1.00  0.00     0.016 C 
ATOM     13  G   UNL     1      13.945  59.054  21.147  1.00  0.00     0.000 G0
ENDBRANCH   9  10
ENDBRANCH   3   8
TORSDOF 0
ENDMDL
MODEL 3
REMARK VINA RESULT:    -2.850     13.899     15.206
REMARK INTER + INTRA:          -2.739
REMARK INTER:                  -3.504
REMARK INTRA:                   0.765
REMARK UNBOUND:                 0.778
REMARK SMILES CC1=CC=CC(C)(C)CC1=O
REMARK SMILES IDX 1 1 2 2 3 3 10 4 11 5 9 6 4 8 5 9 6 10 7 11 8 12
REMARK H PARENT
REMARK Flexibility Score: 80.00
ROOT
ATOM      1  C   UNL     1      19.653  54.231  34.014  1.00  0.00     0.048 C 
ATOM      2  C   UNL     1      18.309  53.925  34.631  1.00  0.00    -0.008 C 
ATOM      3  C   UNL     1      18.033  52.636  34.922  1.00  0.00     0.007 C 
ENDROOT
BRANCH   2   4
ATOM      4  C   UNL     1      17.367  55.060  34.798  1.00  0.00     0.159 C 
ATOM      5  O   UNL     1      17.652  56.169  34.267  1.00  0.00    -0.295 OA
BRANCH   4   6
ATOM      6  C   UNL     1      16.093  54.969  35.579  1.00  0.00     0.091 CG0
ATOM      7  G   UNL     1      15.132  53.880  35.053  1.00  0.00     0.000 G0
ENDBRANCH   4   6
ENDBRANCH   2   4
BRANCH   3   8
ATOM      8  C   UNL     1      16.809  52.031  35.498  1.00  0.00    -0.003 C 
ATOM      9  C   UNL     1      15.568  52.532  35.560  1.00  0.00    -0.020 C 
BRANCH   9  10
ATOM     10  C   UNL     1      15.123  53.887  35.065  1.00  0.00    -0.010 CG0
ATOM     11  C   UNL     1      13.723  54.182  35.652  1.00  0.00     0.016 C 
ATOM     12  C   UNL     1      14.999  53.871  33.523  1.00  0.00     0.016 C 
ATOM     13  G   UNL     1      16.096  54.974  35.572  1.00  0.00     0.000 G0
ENDBRANCH   9  10
ENDBRANCH   3   8
TORSDOF 0
ENDMDL
MODEL 4
REMARK VINA RESULT:    -2.847     12.693     14.819
REMARK INTER + INTRA:          -2.735
REMARK INTER:                  -3.489
REMARK INTRA:                   0.754
REMARK UNBOUND:                 0.778
REMARK SMILES CC1=CC=CC(C)(C)CC1=O
REMARK SMILES IDX 1 1 2 2 3 3 10 4 11 5 9 6 4 8 5 9 6 10 7 11 8 12
REMARK H PARENT
REMARK Flexibility Score: 80.00
ROOT
ATOM      1  C   UNL     1      15.158  51.465  36.464  1.00  0.00     0.048 C 
ATOM      2  C   UNL     1      15.878  52.252  35.394  1.00  0.00    -0.008 C 
ATOM      3  C   UNL     1      17.164  51.928  35.138  1.00  0.00     0.007 C 
ENDROOT
BRANCH   2   4
ATOM      4  C   UNL     1      15.135  53.371  34.762  1.00  0.00     0.159 C 
ATOM      5  O   UNL     1      14.044  53.743  35.275  1.00  0.00    -0.295 OA
BRANCH   4   6
ATOM      6  C   UNL     1      15.604  54.082  33.531  1.00  0.00     0.091 CG0
ATOM      7  G   UNL     1      16.988  54.745  33.699  1.00  0.00     0.000 G0
ENDBRANCH   4   6
ENDBRANCH   2   4
BRANCH   3   8
ATOM      8  C   UNL     1      18.123  52.528  34.182  1.00  0.00    -0.003 C 
ATOM      9  C   UNL     1      18.074  53.718  33.571  1.00  0.00    -0.020 C 
BRANCH   9  10
ATOM     10  C   UNL     1      16.979  54.749  33.701  1.00  0.00    -0.010 CG0
ATOM     11  C   UNL     1      17.145  55.780  32.561  1.00  0.00     0.016 C 
ATOM     12  C   UNL     1      17.116  55.499  35.046  1.00  0.00     0.016 C 
ATOM     13  G   UNL     1      15.602  54.068  33.537  1.00  0.00     0.000 G0
ENDBRANCH   9  10
ENDBRANCH   3   8
TORSDOF 0
ENDMDL
MODEL 5
REMARK VINA RESULT:    -2.768      2.166      2.727
REMARK INTER + INTRA:          -2.638
REMARK INTER:                  -3.389
REMARK INTRA:                   0.751
REMARK UNBOUND:                 0.778
REMARK SMILES CC1=CC=CC(C)(C)CC1=O
REMARK SMILES IDX 1 1 2 2 3 3 10 4 11 5 9 6 4 8 5 9 6 10 7 11 8 12
REMARK H PARENT
REMARK Flexibility Score: 80.00
ROOT
ATOM      1  C   UNL     1      11.866  62.999  23.743  1.00  0.00     0.048 C 
ATOM      2  C   UNL     1      12.890  62.362  22.834  1.00  0.00    -0.008 C 
ATOM      3  C   UNL     1      12.649  62.387  21.505  1.00  0.00     0.007 C 
ENDROOT
BRANCH   2   4
ATOM      4  C   UNL     1      14.044  61.689  23.481  1.00  0.00     0.159 C 
ATOM      5  O   UNL     1      14.019  61.505  24.729  1.00  0.00    -0.295 OA
BRANCH   4   6
ATOM      6  C   UNL     1      15.255  61.224  22.733  1.00  0.00     0.091 CG0
ATOM      7  G   UNL     1      14.932  60.191  21.632  1.00  0.00     0.000 G0
ENDBRANCH   4   6
ENDBRANCH   2   4
BRANCH   3   8
ATOM      8  C   UNL     1      13.440  61.830  20.384  1.00  0.00    -0.003 C 
ATOM      9  C   UNL     1      14.396  60.893  20.409  1.00  0.00    -0.020 C 
BRANCH   9  10
ATOM     10  C   UNL     1      14.925  60.184  21.632  1.00  0.00    -0.010 CG0
ATOM     11  C   UNL     1      16.245  59.475  21.250  1.00  0.00     0.016 C 
ATOM     12  C   UNL     1      13.920  59.102  22.092  1.00  0.00     0.016 C 
ATOM     13  G   UNL     1      15.236  61.216  22.739  1.00  0.00     0.000 G0
ENDBRANCH   9  10
ENDBRANCH   3   8
TORSDOF 0
ENDMDL
MODEL 6
REMARK VINA RESULT:    -2.760      2.080      3.406
REMARK INTER + INTRA:          -2.628
REMARK INTER:                  -3.387
REMARK INTRA:                   0.759
REMARK UNBOUND:                 0.778
REMARK SMILES CC1=CC=CC(C)(C)CC1=O
REMARK SMILES IDX 1 1 2 2 3 3 10 4 11 5 9 6 4 8 5 9 6 10 7 11 8 12
REMARK H PARENT
REMARK Flexibility Score: 80.00
ROOT
ATOM      1  C   UNL     1      17.150  62.740  23.020  1.00  0.00     0.048 C 
ATOM      2  C   UNL     1      16.042  61.873  22.469  1.00  0.00    -0.008 C 
ATOM      3  C   UNL     1      16.007  61.675  21.134  1.00  0.00     0.007 C 
ENDROOT
BRANCH   2   4
ATOM      4  C   UNL     1      15.034  61.371  23.436  1.00  0.00     0.159 C 
ATOM      5  O   UNL     1      15.032  61.834  24.609  1.00  0.00    -0.295 OA
BRANCH   4   6
ATOM      6  C   UNL     1      14.017  60.324  23.100  1.00  0.00     0.091 CG0
ATOM      7  G   UNL     1      13.089  60.729  21.933  1.00  0.00     0.000 G0
ENDBRANCH   4   6
ENDBRANCH   2   4
BRANCH   3   8
ATOM      8  C   UNL     1      15.042  60.909  20.311  1.00  0.00    -0.003 C 
ATOM      9  C   UNL     1      13.803  60.506  20.619  1.00  0.00    -0.020 C 
BRANCH   9  10
ATOM     10  C   UNL     1      13.089  60.725  21.931  1.00  0.00    -0.010 CG0
ATOM     11  C   UNL     1      11.849  59.802  21.968  1.00  0.00     0.016 C 
ATOM     12  C   UNL     1      12.597  62.188  22.028  1.00  0.00     0.016 C 
ATOM     13  G   UNL     1      14.016  60.330  23.101  1.00  0.00     0.000 G0
ENDBRANCH   9  10
ENDBRANCH   3   8
TORSDOF 0
ENDMDL
MODEL 7
REMARK VINA RESULT:    -2.748      2.097      3.071
REMARK INTER + INTRA:          -2.613
REMARK INTER:                  -3.385
REMARK INTRA:                   0.772
REMARK UNBOUND:                 0.778
REMARK SMILES CC1=CC=CC(C)(C)CC1=O
REMARK SMILES IDX 1 1 2 2 3 3 10 4 11 5 9 6 4 8 5 9 6 10 7 11 8 12
REMARK H PARENT
REMARK Flexibility Score: 80.00
ROOT
ATOM      1  C   UNL     1      16.057  60.852  20.014  1.00  0.00     0.048 C 
ATOM      2  C   UNL     1      15.321  61.418  21.206  1.00  0.00    -0.008 C 
ATOM      3  C   UNL     1      16.028  61.624  22.337  1.00  0.00     0.007 C 
ENDROOT
BRANCH   2   4
ATOM      4  C   UNL     1      13.859  61.628  21.060  1.00  0.00     0.159 C 
ATOM      5  O   UNL     1      13.271  61.138  20.058  1.00  0.00    -0.295 OA
BRANCH   4   6
ATOM      6  C   UNL     1      13.035  62.410  22.037  1.00  0.00     0.091 CG0
ATOM      7  G   UNL     1      13.048  61.812  23.461  1.00  0.00     0.000 G0
ENDBRANCH   4   6
ENDBRANCH   2   4
BRANCH   3   8
ATOM      8  C   UNL     1      15.585  62.134  23.656  1.00  0.00    -0.003 C 
ATOM      9  C   UNL     1      14.346  62.215  24.158  1.00  0.00    -0.020 C 
BRANCH   9  10
ATOM     10  C   UNL     1      13.069  61.816  23.460  1.00  0.00    -0.010 CG0
ATOM     11  C   UNL     1      11.879  62.401  24.254  1.00  0.00     0.016 C 
ATOM     12  C   UNL     1      12.928  60.275  23.456  1.00  0.00     0.016 C 
ATOM     13  G   UNL     1      13.041  62.419  22.038  1.00  0.00     0.000 G0
ENDBRANCH   9  10
ENDBRANCH   3   8
TORSDOF 0
ENDMDL
MODEL 8
REMARK VINA RESULT:    -2.732      1.998      2.490
REMARK INTER + INTRA:          -2.593
REMARK INTER:                  -3.353
REMARK INTRA:                   0.759
REMARK UNBOUND:                 0.778
REMARK SMILES CC1=CC=CC(C)(C)CC1=O
REMARK SMILES IDX 1 1 2 2 3 3 10 4 11 5 9 6 4 8 5 9 6 10 7 11 8 12
REMARK H PARENT
REMARK Flexibility Score: 80.00
ROOT
ATOM      1  C   UNL     1      13.529  61.767  20.197  1.00  0.00     0.048 C 
ATOM      2  C   UNL     1      14.774  61.486  21.005  1.00  0.00    -0.008 C 
ATOM      3  C   UNL     1      15.795  60.858  20.383  1.00  0.00     0.007 C 
ENDROOT
BRANCH   2   4
ATOM      4  C   UNL     1      14.745  61.854  22.443  1.00  0.00     0.159 C 
ATOM      5  O   UNL     1      13.646  62.194  22.961  1.00  0.00    -0.295 OA
BRANCH   4   6
ATOM      6  C   UNL     1      15.959  61.859  23.319  1.00  0.00     0.091 CG0
ATOM      7  G   UNL     1      16.650  60.481  23.412  1.00  0.00     0.000 G0
ENDBRANCH   4   6
ENDBRANCH   2   4
BRANCH   3   8
ATOM      8  C   UNL     1      17.111  60.430  20.911  1.00  0.00    -0.003 C 
ATOM      9  C   UNL     1      17.494  60.252  22.181  1.00  0.00    -0.020 C 
BRANCH   9  10
ATOM     10  C   UNL     1      16.651  60.481  23.412  1.00  0.00    -0.010 CG0
ATOM     11  C   UNL     1      17.586  60.501  24.644  1.00  0.00     0.016 C 
ATOM     12  C   UNL     1      15.651  59.314  23.592  1.00  0.00     0.016 C 
ATOM     13  G   UNL     1      15.952  61.854  23.317  1.00  0.00     0.000 G0
ENDBRANCH   9  10
ENDBRANCH   3   8
TORSDOF 0
ENDMDL
MODEL 9
REMARK VINA RESULT:    -2.712      1.522      2.662
REMARK INTER + INTRA:          -2.568
REMARK INTER:                  -3.317
REMARK INTRA:                   0.749
REMARK UNBOUND:                 0.778
REMARK SMILES CC1=CC=CC(C)(C)CC1=O
REMARK SMILES IDX 1 1 2 2 3 3 10 4 11 5 9 6 4 8 5 9 6 10 7 11 8 12
REMARK H PARENT
REMARK Flexibility Score: 80.00
ROOT
ATOM      1  C   UNL     1      12.650  61.939  19.349  1.00  0.00     0.048 C 
ATOM      2  C   UNL     1      12.918  60.955  20.464  1.00  0.00    -0.008 C 
ATOM      3  C   UNL     1      11.914  60.126  20.821  1.00  0.00     0.007 C 
ENDROOT
BRANCH   2   4
ATOM      4  C   UNL     1      14.241  61.033  21.132  1.00  0.00     0.159 C 
ATOM      5  O   UNL     1      14.986  62.023  20.892  1.00  0.00    -0.295 OA
BRANCH   4   6
ATOM      6  C   UNL     1      14.755  59.988  22.072  1.00  0.00     0.091 CG0
ATOM      7  G   UNL     1      13.856  59.789  23.313  1.00  0.00     0.000 G0
ENDBRANCH   4   6
ENDBRANCH   2   4
BRANCH   3   8
ATOM      8  C   UNL     1      11.866  59.090  21.879  1.00  0.00    -0.003 C 
ATOM      9  C   UNL     1      12.664  58.932  22.943  1.00  0.00    -0.020 C 
BRANCH   9  10
ATOM     10  C   UNL     1      13.853  59.788  23.307  1.00  0.00    -0.010 CG0
ATOM     11  C   UNL     1      14.682  59.038  24.375  1.00  0.00     0.016 C 
ATOM     12  C   UNL     1      13.374  61.122  23.926  1.00  0.00     0.016 C 
ATOM     13  G   UNL     1      14.746  59.996  22.064  1.00  0.00     0.000 G0
ENDBRANCH   9  10
ENDBRANCH   3   8
TORSDOF 0
ENDMDL
