MODEL 1
REMARK VINA RESULT:    -3.850      0.000      0.000
REMARK INTER + INTRA:          -5.284
REMARK INTER:                  -5.425
REMARK INTRA:                   0.142
REMARK UNBOUND:                 0.142
REMARK SMILES CC1=CCC(=C(C)C)C(=O)CC(C)=CCC1
REMARK SMILES IDX 12 1 14 2 13 3 15 4 16 5 2 6 1 7 3 8 11 10 9 11 10 12 5 13
REMARK SMILES IDX 6 14 7 15 8 16 4 17
REMARK H PARENT
REMARK Flexibility Score: 60.00
ROOT
ATOM      1  C   UNL     1       0.711   9.124  19.156  1.00  0.00    -0.070 C 
ATOM      2  C   UNL     1       1.184   8.523  18.042  1.00  0.00    -0.027 C 
ATOM      3  C   UNL     1       0.426   8.258  20.358  1.00  0.00     0.039 C 
ENDROOT
BRANCH   2   4
ATOM      4  C   UNL     1       1.619   9.228  16.775  1.00  0.00     0.032 C 
BRANCH   4   5
ATOM      5  C   UNL     1       3.000   9.912  16.857  1.00  0.00     0.034 C 
BRANCH   5   6
ATOM      6  C   UNL     1       2.993  11.338  16.335  1.00  0.00    -0.077 C 
ATOM      7  C   UNL     1       2.679  11.550  14.876  1.00  0.00     0.039 C 
ATOM      8  C   UNL     1       3.182  12.436  17.109  1.00  0.00    -0.023 CG0
ATOM      9  G   UNL     1       3.527  12.466  18.584  1.00  0.00     0.000 G0
ENDBRANCH   5   6
ENDBRANCH   4   5
ENDBRANCH   2   4
BRANCH   1  10
ATOM     10  C   UNL     1       0.543  10.625  19.284  1.00  0.00     0.111 C 
BRANCH  10  11
ATOM     11  C   UNL     1       1.727  11.261  19.962  1.00  0.00     0.163 C 
ATOM     12  O   UNL     1       2.267  10.643  20.919  1.00  0.00    -0.294 OA
BRANCH  11  13
ATOM     13  C   UNL     1       2.315  12.555  19.501  1.00  0.00    -0.002 C 
ATOM     14  C   UNL     1       1.821  13.747  19.952  1.00  0.00    -0.069 C 
ATOM     15  C   UNL     1       2.492  15.064  19.630  1.00  0.00     0.039 C 
ATOM     16  C   UNL     1       0.571  13.807  20.803  1.00  0.00     0.039 C 
BRANCH  13  17
ATOM     17  C   UNL     1       3.534  12.481  18.595  1.00  0.00     0.066 CG0
ATOM     18  G   UNL     1       3.158  12.441  17.127  1.00  0.00     0.000 G0
ENDBRANCH  13  17
ENDBRANCH  11  13
ENDBRANCH  10  11
ENDBRANCH   1  10
TORSDOF 0
ENDMDL
MODEL 2
REMARK VINA RESULT:    -3.789      2.186      4.127
REMARK INTER + INTRA:          -5.198
REMARK INTER:                  -5.309
REMARK INTRA:                   0.112
REMARK UNBOUND:                 0.142
REMARK SMILES CC1=CCC(=C(C)C)C(=O)CC(C)=CCC1
REMARK SMILES IDX 12 1 14 2 13 3 15 4 16 5 2 6 1 7 3 8 11 10 9 11 10 12 5 13
REMARK SMILES IDX 6 14 7 15 8 16 4 17
REMARK H PARENT
REMARK Flexibility Score: 60.00
ROOT
ATOM      1  C   UNL     1       2.186  10.128  16.936  1.00  0.00    -0.070 C 
ATOM      2  C   UNL     1       1.812   8.850  17.167  1.00  0.00    -0.027 C 
ATOM      3  C   UNL     1       2.275  10.589  15.502  1.00  0.00     0.039 C 
ENDROOT
BRANCH   2   4
ATOM      4  C   UNL     1       1.572   8.233  18.528  1.00  0.00     0.032 C 
BRANCH   4   5
ATOM      5  C   UNL     1       0.143   8.418  19.081  1.00  0.00     0.034 C 
BRANCH   5   6
ATOM      6  C   UNL     1       0.116   8.841  20.538  1.00  0.00    -0.077 C 
ATOM      7  C   UNL     1       0.467   7.805  21.576  1.00  0.00     0.039 C 
ATOM      8  C   UNL     1      -0.135  10.105  20.963  1.00  0.00    -0.023 CG0
ATOM      9  G   UNL     1      -0.525  11.295  20.111  1.00  0.00     0.000 G0
ENDBRANCH   5   6
ENDBRANCH   4   5
ENDBRANCH   2   4
BRANCH   1  10
ATOM     10  C   UNL     1       2.428  11.137  18.040  1.00  0.00     0.111 C 
BRANCH  10  11
ATOM     11  C   UNL     1       1.202  11.965  18.315  1.00  0.00     0.163 C 
ATOM     12  O   UNL     1       0.588  12.462  17.333  1.00  0.00    -0.294 OA
BRANCH  11  13
ATOM     13  C   UNL     1       0.660  12.162  19.694  1.00  0.00    -0.002 C 
ATOM     14  C   UNL     1       1.167  13.133  20.512  1.00  0.00    -0.069 C 
ATOM     15  C   UNL     1       0.538  13.462  21.848  1.00  0.00     0.039 C 
ATOM     16  C   UNL     1       2.389  13.933  20.117  1.00  0.00     0.039 C 
BRANCH  13  17
ATOM     17  C   UNL     1      -0.530  11.308  20.102  1.00  0.00     0.066 CG0
ATOM     18  G   UNL     1      -0.122  10.122  20.952  1.00  0.00     0.000 G0
ENDBRANCH  13  17
ENDBRANCH  11  13
ENDBRANCH  10  11
ENDBRANCH   1  10
TORSDOF 0
ENDMDL
MODEL 3
REMARK VINA RESULT:    -3.768      1.068      1.273
REMARK INTER + INTRA:          -5.168
REMARK INTER:                  -5.356
REMARK INTRA:                   0.188
REMARK UNBOUND:                 0.142
REMARK SMILES CC1=CCC(=C(C)C)C(=O)CC(C)=CCC1
REMARK SMILES IDX 12 1 14 2 13 3 15 4 16 5 2 6 1 7 3 8 11 10 9 11 10 12 5 13
REMARK SMILES IDX 6 14 7 15 8 16 4 17
REMARK H PARENT
REMARK Flexibility Score: 60.00
ROOT
ATOM      1  C   UNL     1       1.223   9.388  17.973  1.00  0.00    -0.070 C 
ATOM      2  C   UNL     1       1.722   9.224  16.728  1.00  0.00    -0.027 C 
ATOM      3  C   UNL     1       1.379   8.249  18.950  1.00  0.00     0.039 C 
ENDROOT
BRANCH   2   4
ATOM      4  C   UNL     1       1.750  10.279  15.642  1.00  0.00     0.032 C 
BRANCH   4   5
ATOM      5  C   UNL     1       2.898  11.303  15.765  1.00  0.00     0.034 C 
BRANCH   5   6
ATOM      6  C   UNL     1       2.420  12.743  15.732  1.00  0.00    -0.077 C 
ATOM      7  C   UNL     1       1.863  13.268  14.433  1.00  0.00     0.039 C 
ATOM      8  C   UNL     1       2.397  13.565  16.810  1.00  0.00    -0.023 CG0
ATOM      9  G   UNL     1       2.918  13.264  18.201  1.00  0.00     0.000 G0
ENDBRANCH   5   6
ENDBRANCH   4   5
ENDBRANCH   2   4
BRANCH   1  10
ATOM     10  C   UNL     1       0.603  10.682  18.457  1.00  0.00     0.111 C 
BRANCH  10  11
ATOM     11  C   UNL     1       1.532  11.436  19.370  1.00  0.00     0.163 C 
ATOM     12  O   UNL     1       2.120  10.794  20.281  1.00  0.00    -0.294 OA
BRANCH  11  13
ATOM     13  C   UNL     1       1.824  12.891  19.193  1.00  0.00    -0.002 C 
ATOM     14  C   UNL     1       1.177  13.831  19.946  1.00  0.00    -0.069 C 
ATOM     15  C   UNL     1       1.561  15.293  19.903  1.00  0.00     0.039 C 
ATOM     16  C   UNL     1       0.038  13.450  20.867  1.00  0.00     0.039 C 
BRANCH  13  17
ATOM     17  C   UNL     1       2.929  13.265  18.217  1.00  0.00     0.066 CG0
ATOM     18  G   UNL     1       2.395  13.564  16.830  1.00  0.00     0.000 G0
ENDBRANCH  13  17
ENDBRANCH  11  13
ENDBRANCH  10  11
ENDBRANCH   1  10
TORSDOF 0
ENDMDL
MODEL 4
REMARK VINA RESULT:    -3.758      3.567      5.413
REMARK INTER + INTRA:          -5.154
REMARK INTER:                  -5.556
REMARK INTRA:                   0.401
REMARK UNBOUND:                 0.142
REMARK SMILES CC1=CCC(=C(C)C)C(=O)CC(C)=CCC1
REMARK SMILES IDX 12 1 14 2 13 3 15 4 16 5 2 6 1 7 3 8 11 10 9 11 10 12 5 13
REMARK SMILES IDX 6 14 7 15 8 16 4 17
REMARK H PARENT
REMARK Flexibility Score: 60.00
ROOT
ATOM      1  C   UNL     1       1.370  16.814  21.413  1.00  0.00    -0.070 C 
ATOM      2  C   UNL     1       1.177  17.130  20.113  1.00  0.00    -0.027 C 
ATOM      3  C   UNL     1       0.249  17.098  22.382  1.00  0.00     0.039 C 
ENDROOT
BRANCH   2   4
ATOM      4  C   UNL     1       2.137  16.835  18.981  1.00  0.00     0.032 C 
BRANCH   4   5
ATOM      5  C   UNL     1       1.625  15.809  17.948  1.00  0.00     0.034 C 
BRANCH   5   6
ATOM      6  C   UNL     1       0.960  14.602  18.584  1.00  0.00    -0.077 C 
ATOM      7  C   UNL     1      -0.521  14.422  18.368  1.00  0.00     0.039 C 
ATOM      8  C   UNL     1       1.621  13.639  19.274  1.00  0.00    -0.023 CG0
ATOM      9  G   UNL     1       3.095  13.618  19.629  1.00  0.00     0.000 G0
ENDBRANCH   5   6
ENDBRANCH   4   5
ENDBRANCH   2   4
BRANCH   1  10
ATOM     10  C   UNL     1       2.611  16.110  21.922  1.00  0.00     0.111 C 
BRANCH  10  11
ATOM     11  C   UNL     1       2.442  14.614  21.918  1.00  0.00     0.163 C 
ATOM     12  O   UNL     1       1.468  14.123  22.550  1.00  0.00    -0.294 OA
BRANCH  11  13
ATOM     13  C   UNL     1       3.345  13.708  21.145  1.00  0.00    -0.002 C 
ATOM     14  C   UNL     1       4.282  12.944  21.784  1.00  0.00    -0.069 C 
ATOM     15  C   UNL     1       5.101  11.904  21.052  1.00  0.00     0.039 C 
ATOM     16  C   UNL     1       4.546  13.102  23.266  1.00  0.00     0.039 C 
BRANCH  13  17
ATOM     17  C   UNL     1       3.111  13.605  19.647  1.00  0.00     0.066 CG0
ATOM     18  G   UNL     1       1.639  13.654  19.289  1.00  0.00     0.000 G0
ENDBRANCH  13  17
ENDBRANCH  11  13
ENDBRANCH  10  11
ENDBRANCH   1  10
TORSDOF 0
ENDMDL
MODEL 5
REMARK VINA RESULT:    -3.715      3.241      6.211
REMARK INTER + INTRA:          -5.094
REMARK INTER:                  -5.828
REMARK INTRA:                   0.735
REMARK UNBOUND:                 0.142
REMARK SMILES CC1=CCC(=C(C)C)C(=O)CC(C)=CCC1
REMARK SMILES IDX 12 1 14 2 13 3 15 4 16 5 2 6 1 7 3 8 11 10 9 11 10 12 5 13
REMARK SMILES IDX 6 14 7 15 8 16 4 17
REMARK H PARENT
REMARK Flexibility Score: 60.00
ROOT
ATOM      1  C   UNL     1       1.699  16.369  21.996  1.00  0.00    -0.070 C 
ATOM      2  C   UNL     1       2.206  15.990  23.190  1.00  0.00    -0.027 C 
ATOM      3  C   UNL     1       0.383  17.107  21.992  1.00  0.00     0.039 C 
ENDROOT
BRANCH   2   4
ATOM      4  C   UNL     1       3.552  15.330  23.408  1.00  0.00     0.032 C 
BRANCH   4   5
ATOM      5  C   UNL     1       3.494  13.969  24.132  1.00  0.00     0.034 C 
BRANCH   5   6
ATOM      6  C   UNL     1       2.581  12.967  23.450  1.00  0.00    -0.077 C 
ATOM      7  C   UNL     1       1.521  12.299  24.288  1.00  0.00     0.039 C 
ATOM      8  C   UNL     1       2.610  12.686  22.123  1.00  0.00    -0.023 CG0
ATOM      9  G   UNL     1       3.590  13.219  21.097  1.00  0.00     0.000 G0
ENDBRANCH   5   6
ENDBRANCH   4   5
ENDBRANCH   2   4
BRANCH   1  10
ATOM     10  C   UNL     1       2.426  16.171  20.682  1.00  0.00     0.111 C 
BRANCH  10  11
ATOM     11  C   UNL     1       1.983  14.913  19.985  1.00  0.00     0.163 C 
ATOM     12  O   UNL     1       0.831  14.892  19.474  1.00  0.00    -0.294 OA
BRANCH  11  13
ATOM     13  C   UNL     1       2.876  13.726  19.828  1.00  0.00    -0.002 C 
ATOM     14  C   UNL     1       3.112  13.188  18.593  1.00  0.00    -0.069 C 
ATOM     15  C   UNL     1       4.130  12.090  18.381  1.00  0.00     0.039 C 
ATOM     16  C   UNL     1       2.362  13.670  17.370  1.00  0.00     0.039 C 
BRANCH  13  17
ATOM     17  C   UNL     1       3.576  13.211  21.075  1.00  0.00     0.066 CG0
ATOM     18  G   UNL     1       2.597  12.710  22.119  1.00  0.00     0.000 G0
ENDBRANCH  13  17
ENDBRANCH  11  13
ENDBRANCH  10  11
ENDBRANCH   1  10
TORSDOF 0
ENDMDL
MODEL 6
REMARK VINA RESULT:    -3.617      2.275      5.241
REMARK INTER + INTRA:          -4.956
REMARK INTER:                  -5.138
REMARK INTRA:                   0.182
REMARK UNBOUND:                 0.142
REMARK SMILES CC1=CCC(=C(C)C)C(=O)CC(C)=CCC1
REMARK SMILES IDX 12 1 14 2 13 3 15 4 16 5 2 6 1 7 3 8 11 10 9 11 10 12 5 13
REMARK SMILES IDX 6 14 7 15 8 16 4 17
REMARK H PARENT
REMARK Flexibility Score: 60.00
ROOT
ATOM      1  C   UNL     1       2.715  15.099  22.534  1.00  0.00    -0.070 C 
ATOM      2  C   UNL     1       2.490  16.376  22.153  1.00  0.00    -0.027 C 
ATOM      3  C   UNL     1       3.619  14.865  23.719  1.00  0.00     0.039 C 
ENDROOT
BRANCH   2   4
ATOM      4  C   UNL     1       1.543  16.817  21.057  1.00  0.00     0.032 C 
BRANCH   4   5
ATOM      5  C   UNL     1       2.084  16.635  19.623  1.00  0.00     0.034 C 
BRANCH   5   6
ATOM      6  C   UNL     1       1.137  15.866  18.719  1.00  0.00    -0.077 C 
ATOM      7  C   UNL     1      -0.166  16.525  18.347  1.00  0.00     0.039 C 
ATOM      8  C   UNL     1       1.417  14.658  18.170  1.00  0.00    -0.023 CG0
ATOM      9  G   UNL     1       2.646  13.806  18.414  1.00  0.00     0.000 G0
ENDBRANCH   5   6
ENDBRANCH   4   5
ENDBRANCH   2   4
BRANCH   1  10
ATOM     10  C   UNL     1       2.035  13.907  21.891  1.00  0.00     0.111 C 
BRANCH  10  11
ATOM     11  C   UNL     1       2.935  13.224  20.896  1.00  0.00     0.163 C 
ATOM     12  O   UNL     1       4.117  12.960  21.246  1.00  0.00    -0.294 OA
BRANCH  11  13
ATOM     13  C   UNL     1       2.459  12.799  19.545  1.00  0.00    -0.002 C 
ATOM     14  C   UNL     1       1.814  11.605  19.375  1.00  0.00    -0.069 C 
ATOM     15  C   UNL     1       1.183  11.218  18.056  1.00  0.00     0.039 C 
ATOM     16  C   UNL     1       1.697  10.608  20.507  1.00  0.00     0.039 C 
BRANCH  13  17
ATOM     17  C   UNL     1       2.639  13.784  18.401  1.00  0.00     0.066 CG0
ATOM     18  G   UNL     1       1.408  14.640  18.179  1.00  0.00     0.000 G0
ENDBRANCH  13  17
ENDBRANCH  11  13
ENDBRANCH  10  11
ENDBRANCH   1  10
TORSDOF 0
ENDMDL
MODEL 7
REMARK VINA RESULT:    -3.614      1.901      4.073
REMARK INTER + INTRA:          -4.951
REMARK INTER:                  -5.203
REMARK INTRA:                   0.253
REMARK UNBOUND:                 0.142
REMARK SMILES CC1=CCC(=C(C)C)C(=O)CC(C)=CCC1
REMARK SMILES IDX 12 1 14 2 13 3 15 4 16 5 2 6 1 7 3 8 11 10 9 11 10 12 5 13
REMARK SMILES IDX 6 14 7 15 8 16 4 17
REMARK H PARENT
REMARK Flexibility Score: 60.00
ROOT
ATOM      1  C   UNL     1       3.203  10.955  15.984  1.00  0.00    -0.070 C 
ATOM      2  C   UNL     1       2.303   9.950  16.068  1.00  0.00    -0.027 C 
ATOM      3  C   UNL     1       3.212  11.790  14.727  1.00  0.00     0.039 C 
ENDROOT
BRANCH   2   4
ATOM      4  C   UNL     1       2.073   9.069  17.278  1.00  0.00     0.032 C 
BRANCH   4   5
ATOM      5  C   UNL     1       0.892   9.496  18.174  1.00  0.00     0.034 C 
BRANCH   5   6
ATOM      6  C   UNL     1       1.185   9.355  19.657  1.00  0.00    -0.077 C 
ATOM      7  C   UNL     1       0.996   7.998  20.284  1.00  0.00     0.039 C 
ATOM      8  C   UNL     1       1.673  10.352  20.437  1.00  0.00    -0.023 CG0
ATOM      9  G   UNL     1       1.923  11.791  20.032  1.00  0.00     0.000 G0
ENDBRANCH   5   6
ENDBRANCH   4   5
ENDBRANCH   2   4
BRANCH   1  10
ATOM     10  C   UNL     1       4.132  11.337  17.118  1.00  0.00     0.111 C 
BRANCH  10  11
ATOM     11  C   UNL     1       3.483  12.313  18.062  1.00  0.00     0.163 C 
ATOM     12  O   UNL     1       3.004  13.376  17.582  1.00  0.00    -0.294 OA
BRANCH  11  13
ATOM     13  C   UNL     1       3.335  12.038  19.523  1.00  0.00    -0.002 C 
ATOM     14  C   UNL     1       4.419  12.080  20.356  1.00  0.00    -0.069 C 
ATOM     15  C   UNL     1       4.279  11.962  21.858  1.00  0.00     0.039 C 
ATOM     16  C   UNL     1       5.821  12.249  19.811  1.00  0.00     0.039 C 
BRANCH  13  17
ATOM     17  C   UNL     1       1.927  11.807  20.049  1.00  0.00     0.066 CG0
ATOM     18  G   UNL     1       1.687  10.361  20.434  1.00  0.00     0.000 G0
ENDBRANCH  13  17
ENDBRANCH  11  13
ENDBRANCH  10  11
ENDBRANCH   1  10
TORSDOF 0
ENDMDL
MODEL 8
REMARK VINA RESULT:    -3.611      2.686      6.036
REMARK INTER + INTRA:          -4.947
REMARK INTER:                  -5.136
REMARK INTRA:                   0.189
REMARK UNBOUND:                 0.142
REMARK SMILES CC1=CCC(=C(C)C)C(=O)CC(C)=CCC1
REMARK SMILES IDX 12 1 14 2 13 3 15 4 16 5 2 6 1 7 3 8 11 10 9 11 10 12 5 13
REMARK SMILES IDX 6 14 7 15 8 16 4 17
REMARK H PARENT
REMARK Flexibility Score: 60.00
ROOT
ATOM      1  C   UNL     1       1.942  15.942  20.481  1.00  0.00    -0.070 C 
ATOM      2  C   UNL     1       2.540  16.336  21.626  1.00  0.00    -0.027 C 
ATOM      3  C   UNL     1       2.158  16.782  19.247  1.00  0.00     0.039 C 
ENDROOT
BRANCH   2   4
ATOM      4  C   UNL     1       2.524  15.579  22.937  1.00  0.00     0.032 C 
BRANCH   4   5
ATOM      5  C   UNL     1       3.583  14.463  23.053  1.00  0.00     0.034 C 
BRANCH   5   6
ATOM      6  C   UNL     1       2.995  13.117  23.439  1.00  0.00    -0.077 C 
ATOM      7  C   UNL     1       2.502  12.947  24.853  1.00  0.00     0.039 C 
ATOM      8  C   UNL     1       2.820  12.085  22.577  1.00  0.00    -0.023 CG0
ATOM      9  G   UNL     1       3.252  12.022  21.126  1.00  0.00     0.000 G0
ENDBRANCH   5   6
ENDBRANCH   4   5
ENDBRANCH   2   4
BRANCH   1  10
ATOM     10  C   UNL     1       1.148  14.657  20.357  1.00  0.00     0.111 C 
BRANCH  10  11
ATOM     11  C   UNL     1       1.916  13.599  19.611  1.00  0.00     0.163 C 
ATOM     12  O   UNL     1       2.457  13.917  18.518  1.00  0.00    -0.294 OA
BRANCH  11  13
ATOM     13  C   UNL     1       2.109  12.219  20.149  1.00  0.00    -0.002 C 
ATOM     14  C   UNL     1       1.326  11.184  19.717  1.00  0.00    -0.069 C 
ATOM     15  C   UNL     1       1.596   9.752  20.123  1.00  0.00     0.039 C 
ATOM     16  C   UNL     1       0.142  11.424  18.805  1.00  0.00     0.039 C 
BRANCH  13  17
ATOM     17  C   UNL     1       3.263  12.003  21.115  1.00  0.00     0.066 CG0
ATOM     18  G   UNL     1       2.827  12.100  22.564  1.00  0.00     0.000 G0
ENDBRANCH  13  17
ENDBRANCH  11  13
ENDBRANCH  10  11
ENDBRANCH   1  10
TORSDOF 0
ENDMDL
MODEL 9
REMARK VINA RESULT:    -3.571      2.796      5.654
REMARK INTER + INTRA:          -4.891
REMARK INTER:                  -5.127
REMARK INTRA:                   0.236
REMARK UNBOUND:                 0.142
REMARK SMILES CC1=CCC(=C(C)C)C(=O)CC(C)=CCC1
REMARK SMILES IDX 12 1 14 2 13 3 15 4 16 5 2 6 1 7 3 8 11 10 9 11 10 12 5 13
REMARK SMILES IDX 6 14 7 15 8 16 4 17
REMARK H PARENT
REMARK Flexibility Score: 60.00
ROOT
ATOM      1  C   UNL     1       3.705  13.718  23.344  1.00  0.00    -0.070 C 
ATOM      2  C   UNL     1       3.250  14.926  23.744  1.00  0.00    -0.027 C 
ATOM      3  C   UNL     1       3.988  12.684  24.405  1.00  0.00     0.039 C 
ENDROOT
BRANCH   2   4
ATOM      4  C   UNL     1       2.821  16.055  22.831  1.00  0.00     0.032 C 
BRANCH   4   5
ATOM      5  C   UNL     1       1.339  16.012  22.402  1.00  0.00     0.034 C 
BRANCH   5   6
ATOM      6  C   UNL     1       1.150  16.039  20.896  1.00  0.00    -0.077 C 
ATOM      7  C   UNL     1       1.322  17.361  20.192  1.00  0.00     0.039 C 
ATOM      8  C   UNL     1       0.908  14.943  20.136  1.00  0.00    -0.023 CG0
ATOM      9  G   UNL     1       0.682  13.525  20.623  1.00  0.00     0.000 G0
ENDBRANCH   5   6
ENDBRANCH   4   5
ENDBRANCH   2   4
BRANCH   1  10
ATOM     10  C   UNL     1       3.856  13.326  21.888  1.00  0.00     0.111 C 
BRANCH  10  11
ATOM     11  C   UNL     1       2.804  12.335  21.468  1.00  0.00     0.163 C 
ATOM     12  O   UNL     1       2.690  11.271  22.134  1.00  0.00    -0.294 OA
BRANCH  11  13
ATOM     13  C   UNL     1       1.860  12.597  20.340  1.00  0.00    -0.002 C 
ATOM     14  C   UNL     1       2.015  11.965  19.137  1.00  0.00    -0.069 C 
ATOM     15  C   UNL     1       0.991  12.088  18.031  1.00  0.00     0.039 C 
ATOM     16  C   UNL     1       3.228  11.105  18.853  1.00  0.00     0.039 C 
BRANCH  13  17
ATOM     17  C   UNL     1       0.679  13.513  20.619  1.00  0.00     0.066 CG0
ATOM     18  G   UNL     1       0.918  14.926  20.125  1.00  0.00     0.000 G0
ENDBRANCH  13  17
ENDBRANCH  11  13
ENDBRANCH  10  11
ENDBRANCH   1  10
TORSDOF 0
ENDMDL
