MODEL 1
REMARK VINA RESULT:    -3.708      0.000      0.000
REMARK INTER + INTRA:          -4.992
REMARK INTER:                  -4.791
REMARK INTRA:                  -0.201
REMARK UNBOUND:                -0.201
REMARK SMILES CCCCCCC(=O)[O-]
REMARK SMILES IDX 5 1 6 2 7 3 8 4 9 5 4 6 3 7 2 8 1 9
REMARK H PARENT
REMARK Flexibility Score: inf
ROOT
ATOM      1  C   UNL     1     130.569 132.945 128.542  1.00  0.00     0.006 C 
ENDROOT
BRANCH   1   2
ATOM      2  C   UNL     1     129.737 131.688 128.253  1.00  0.00     0.053 C 
BRANCH   2   3
ATOM      3  C   UNL     1     128.584 132.021 127.359  1.00  0.00     0.041 C 
ATOM      4  O   UNL     1     128.453 131.436 126.251  1.00  0.00    -0.550 OA
ATOM      5  O   UNL     1     127.681 133.010 127.726  1.00  0.00    -0.550 OA
ENDBRANCH   2   3
ENDBRANCH   1   2
BRANCH   1   6
ATOM      6  C   UNL     1     131.319 132.864 129.880  1.00  0.00     0.000 C 
BRANCH   6   7
ATOM      7  C   UNL     1     131.167 134.139 130.723  1.00  0.00    -0.000 C 
BRANCH   7   8
ATOM      8  C   UNL     1     130.191 135.118 130.063  1.00  0.00    -0.003 C 
ATOM      9  C   UNL     1     130.566 136.565 130.374  1.00  0.00     0.004 C 
ENDBRANCH   7   8
ENDBRANCH   6   7
ENDBRANCH   1   6
TORSDOF 5
ENDMDL
MODEL 2
REMARK VINA RESULT:    -3.670     10.353     12.372
REMARK INTER + INTRA:          -4.944
REMARK INTER:                  -4.777
REMARK INTRA:                  -0.166
REMARK UNBOUND:                -0.201
REMARK SMILES CCCCCCC(=O)[O-]
REMARK SMILES IDX 5 1 6 2 7 3 8 4 9 5 4 6 3 7 2 8 1 9
REMARK H PARENT
REMARK Flexibility Score: inf
ROOT
ATOM      1  C   UNL     1     124.616 123.467 129.304  1.00  0.00     0.006 C 
ENDROOT
BRANCH   1   2
ATOM      2  C   UNL     1     125.496 123.072 128.111  1.00  0.00     0.053 C 
BRANCH   2   3
ATOM      3  C   UNL     1     126.488 124.152 127.814  1.00  0.00     0.041 C 
ATOM      4  O   UNL     1     126.281 125.329 128.213  1.00  0.00    -0.550 OA
ATOM      5  O   UNL     1     127.618 123.871 127.056  1.00  0.00    -0.550 OA
ENDBRANCH   2   3
ENDBRANCH   1   2
BRANCH   1   6
ATOM      6  C   UNL     1     124.486 122.342 130.342  1.00  0.00     0.000 C 
BRANCH   6   7
ATOM      7  C   UNL     1     125.402 121.147 130.039  1.00  0.00    -0.000 C 
BRANCH   7   8
ATOM      8  C   UNL     1     124.857 119.863 130.675  1.00  0.00    -0.003 C 
ATOM      9  C   UNL     1     125.832 118.703 130.497  1.00  0.00     0.004 C 
ENDBRANCH   7   8
ENDBRANCH   6   7
ENDBRANCH   1   6
TORSDOF 5
ENDMDL
MODEL 3
REMARK VINA RESULT:    -3.602      2.895      4.625
REMARK INTER + INTRA:          -4.855
REMARK INTER:                  -4.663
REMARK INTRA:                  -0.192
REMARK UNBOUND:                -0.201
REMARK SMILES CCCCCCC(=O)[O-]
REMARK SMILES IDX 5 1 6 2 7 3 8 4 9 5 4 6 3 7 2 8 1 9
REMARK H PARENT
REMARK Flexibility Score: inf
ROOT
ATOM      1  C   UNL     1     131.273 134.456 130.150  1.00  0.00     0.006 C 
ENDROOT
BRANCH   1   2
ATOM      2  C   UNL     1     129.873 135.081 130.188  1.00  0.00     0.053 C 
BRANCH   2   3
ATOM      3  C   UNL     1     129.969 136.574 130.201  1.00  0.00     0.041 C 
ATOM      4  O   UNL     1     131.068 137.136 130.452  1.00  0.00    -0.550 OA
ATOM      5  O   UNL     1     128.835 137.346 129.983  1.00  0.00    -0.550 OA
ENDBRANCH   2   3
ENDBRANCH   1   2
BRANCH   1   6
ATOM      6  C   UNL     1     131.266 133.020 129.604  1.00  0.00     0.000 C 
BRANCH   6   7
ATOM      7  C   UNL     1     130.556 132.905 128.247  1.00  0.00    -0.000 C 
BRANCH   7   8
ATOM      8  C   UNL     1     129.677 131.650 128.193  1.00  0.00    -0.003 C 
ATOM      9  C   UNL     1     128.384 131.915 127.428  1.00  0.00     0.004 C 
ENDBRANCH   7   8
ENDBRANCH   6   7
ENDBRANCH   1   6
TORSDOF 5
ENDMDL
MODEL 4
REMARK VINA RESULT:    -3.601     10.857     12.452
REMARK INTER + INTRA:          -4.854
REMARK INTER:                  -4.624
REMARK INTRA:                  -0.230
REMARK UNBOUND:                -0.201
REMARK SMILES CCCCCCC(=O)[O-]
REMARK SMILES IDX 5 1 6 2 7 3 8 4 9 5 4 6 3 7 2 8 1 9
REMARK H PARENT
REMARK Flexibility Score: inf
ROOT
ATOM      1  C   UNL     1     124.579 122.415 130.156  1.00  0.00     0.006 C 
ENDROOT
BRANCH   1   2
ATOM      2  C   UNL     1     125.443 121.200 129.794  1.00  0.00     0.053 C 
BRANCH   2   3
ATOM      3  C   UNL     1     124.894 119.962 130.428  1.00  0.00     0.041 C 
ATOM      4  O   UNL     1     125.502 118.865 130.308  1.00  0.00    -0.550 OA
ATOM      5  O   UNL     1     123.685 120.007 131.111  1.00  0.00    -0.550 OA
ENDBRANCH   2   3
ENDBRANCH   1   2
BRANCH   1   6
ATOM      6  C   UNL     1     124.769 123.589 129.183  1.00  0.00     0.000 C 
BRANCH   6   7
ATOM      7  C   UNL     1     125.591 123.204 127.944  1.00  0.00    -0.000 C 
BRANCH   7   8
ATOM      8  C   UNL     1     126.423 124.392 127.448  1.00  0.00    -0.003 C 
ATOM      9  C   UNL     1     126.708 125.376 128.579  1.00  0.00     0.004 C 
ENDBRANCH   7   8
ENDBRANCH   6   7
ENDBRANCH   1   6
TORSDOF 5
ENDMDL
MODEL 5
REMARK VINA RESULT:    -3.576      2.468      4.183
REMARK INTER + INTRA:          -4.821
REMARK INTER:                  -4.525
REMARK INTRA:                  -0.297
REMARK UNBOUND:                -0.201
REMARK SMILES CCCCCCC(=O)[O-]
REMARK SMILES IDX 5 1 6 2 7 3 8 4 9 5 4 6 3 7 2 8 1 9
REMARK H PARENT
REMARK Flexibility Score: inf
ROOT
ATOM      1  C   UNL     1     130.759 132.431 128.591  1.00  0.00     0.006 C 
ENDROOT
BRANCH   1   2
ATOM      2  C   UNL     1     131.478 132.765 129.904  1.00  0.00     0.053 C 
BRANCH   2   3
ATOM      3  C   UNL     1     131.279 134.206 130.256  1.00  0.00     0.041 C 
ATOM      4  O   UNL     1     132.185 134.842 130.857  1.00  0.00    -0.550 OA
ATOM      5  O   UNL     1     130.075 134.833 129.964  1.00  0.00    -0.550 OA
ENDBRANCH   2   3
ENDBRANCH   1   2
BRANCH   1   6
ATOM      6  C   UNL     1     129.908 131.155 128.690  1.00  0.00     0.000 C 
BRANCH   6   7
ATOM      7  C   UNL     1     128.486 131.347 128.142  1.00  0.00    -0.000 C 
BRANCH   7   8
ATOM      8  C   UNL     1     128.347 132.704 127.443  1.00  0.00    -0.003 C 
ATOM      9  C   UNL     1     127.274 133.561 128.109  1.00  0.00     0.004 C 
ENDBRANCH   7   8
ENDBRANCH   6   7
ENDBRANCH   1   6
TORSDOF 5
ENDMDL
MODEL 6
REMARK VINA RESULT:    -3.533      9.513     11.521
REMARK INTER + INTRA:          -4.766
REMARK INTER:                  -4.580
REMARK INTRA:                  -0.185
REMARK UNBOUND:                -0.201
REMARK SMILES CCCCCCC(=O)[O-]
REMARK SMILES IDX 5 1 6 2 7 3 8 4 9 5 4 6 3 7 2 8 1 9
REMARK H PARENT
REMARK Flexibility Score: inf
ROOT
ATOM      1  C   UNL     1     125.436 124.110 129.036  1.00  0.00     0.006 C 
ENDROOT
BRANCH   1   2
ATOM      2  C   UNL     1     126.199 125.077 128.120  1.00  0.00     0.053 C 
BRANCH   2   3
ATOM      3  C   UNL     1     127.317 124.366 127.427  1.00  0.00     0.041 C 
ATOM      4  O   UNL     1     127.405 124.396 126.171  1.00  0.00    -0.550 OA
ATOM      5  O   UNL     1     128.236 123.629 128.164  1.00  0.00    -0.550 OA
ENDBRANCH   2   3
ENDBRANCH   1   2
BRANCH   1   6
ATOM      6  C   UNL     1     124.969 122.844 128.302  1.00  0.00     0.000 C 
BRANCH   6   7
ATOM      7  C   UNL     1     124.807 121.640 129.242  1.00  0.00    -0.000 C 
BRANCH   7   8
ATOM      8  C   UNL     1     124.478 122.098 130.667  1.00  0.00    -0.003 C 
ATOM      9  C   UNL     1     123.794 120.987 131.459  1.00  0.00     0.004 C 
ENDBRANCH   7   8
ENDBRANCH   6   7
ENDBRANCH   1   6
TORSDOF 5
ENDMDL
MODEL 7
REMARK VINA RESULT:    -3.523      3.338      5.065
REMARK INTER + INTRA:          -4.753
REMARK INTER:                  -4.625
REMARK INTRA:                  -0.129
REMARK UNBOUND:                -0.201
REMARK SMILES CCCCCCC(=O)[O-]
REMARK SMILES IDX 5 1 6 2 7 3 8 4 9 5 4 6 3 7 2 8 1 9
REMARK H PARENT
REMARK Flexibility Score: inf
ROOT
ATOM      1  C   UNL     1     130.986 133.859 129.742  1.00  0.00     0.006 C 
ENDROOT
BRANCH   1   2
ATOM      2  C   UNL     1     130.198 135.097 130.189  1.00  0.00     0.053 C 
BRANCH   2   3
ATOM      3  C   UNL     1     131.130 136.156 130.688  1.00  0.00     0.041 C 
ATOM      4  O   UNL     1     130.841 137.374 130.540  1.00  0.00    -0.550 OA
ATOM      5  O   UNL     1     132.339 135.801 131.272  1.00  0.00    -0.550 OA
ENDBRANCH   2   3
ENDBRANCH   1   2
BRANCH   1   6
ATOM      6  C   UNL     1     130.289 133.092 128.607  1.00  0.00     0.000 C 
BRANCH   6   7
ATOM      7  C   UNL     1     130.402 131.568 128.766  1.00  0.00    -0.000 C 
BRANCH   7   8
ATOM      8  C   UNL     1     129.155 130.867 128.217  1.00  0.00    -0.003 C 
ATOM      9  C   UNL     1     128.650 131.553 126.950  1.00  0.00     0.004 C 
ENDBRANCH   7   8
ENDBRANCH   6   7
ENDBRANCH   1   6
TORSDOF 5
ENDMDL
MODEL 8
REMARK VINA RESULT:    -3.485      1.339      2.002
REMARK INTER + INTRA:          -4.705
REMARK INTER:                  -4.563
REMARK INTRA:                  -0.142
REMARK UNBOUND:                -0.201
REMARK SMILES CCCCCCC(=O)[O-]
REMARK SMILES IDX 5 1 6 2 7 3 8 4 9 5 4 6 3 7 2 8 1 9
REMARK H PARENT
REMARK Flexibility Score: inf
ROOT
ATOM      1  C   UNL     1     130.816 132.931 128.221  1.00  0.00     0.006 C 
ENDROOT
BRANCH   1   2
ATOM      2  C   UNL     1     129.314 132.691 128.024  1.00  0.00     0.053 C 
BRANCH   2   3
ATOM      3  C   UNL     1     129.071 131.311 127.499  1.00  0.00     0.041 C 
ATOM      4  O   UNL     1     129.133 130.319 128.273  1.00  0.00    -0.550 OA
ATOM      5  O   UNL     1     128.824 131.115 126.147  1.00  0.00    -0.550 OA
ENDBRANCH   2   3
ENDBRANCH   1   2
BRANCH   1   6
ATOM      6  C   UNL     1     131.215 133.005 129.703  1.00  0.00     0.000 C 
BRANCH   6   7
ATOM      7  C   UNL     1     130.923 134.378 130.328  1.00  0.00    -0.000 C 
BRANCH   7   8
ATOM      8  C   UNL     1     131.783 134.605 131.576  1.00  0.00    -0.003 C 
ATOM      9  C   UNL     1     131.545 133.514 132.616  1.00  0.00     0.004 C 
ENDBRANCH   7   8
ENDBRANCH   6   7
ENDBRANCH   1   6
TORSDOF 5
ENDMDL
MODEL 9
REMARK VINA RESULT:    -3.454      1.237      2.081
REMARK INTER + INTRA:          -4.664
REMARK INTER:                  -4.482
REMARK INTRA:                  -0.183
REMARK UNBOUND:                -0.201
REMARK SMILES CCCCCCC(=O)[O-]
REMARK SMILES IDX 5 1 6 2 7 3 8 4 9 5 4 6 3 7 2 8 1 9
REMARK H PARENT
REMARK Flexibility Score: inf
ROOT
ATOM      1  C   UNL     1     131.443 133.414 130.010  1.00  0.00     0.006 C 
ENDROOT
BRANCH   1   2
ATOM      2  C   UNL     1     130.859 133.634 128.608  1.00  0.00     0.053 C 
BRANCH   2   3
ATOM      3  C   UNL     1     129.803 132.616 128.317  1.00  0.00     0.041 C 
ATOM      4  O   UNL     1     128.668 132.979 127.907  1.00  0.00    -0.550 OA
ATOM      5  O   UNL     1     130.054 131.269 128.545  1.00  0.00    -0.550 OA
ENDBRANCH   2   3
ENDBRANCH   1   2
BRANCH   1   6
ATOM      6  C   UNL     1     131.112 134.560 130.977  1.00  0.00     0.000 C 
BRANCH   6   7
ATOM      7  C   UNL     1     130.068 135.534 130.407  1.00  0.00    -0.000 C 
BRANCH   7   8
ATOM      8  C   UNL     1     130.680 136.920 130.178  1.00  0.00    -0.003 C 
ATOM      9  C   UNL     1     131.238 137.498 131.475  1.00  0.00     0.004 C 
ENDBRANCH   7   8
ENDBRANCH   6   7
ENDBRANCH   1   6
TORSDOF 5
ENDMDL
