MODEL 1
REMARK VINA RESULT:    -3.646      0.000      0.000
REMARK INTER + INTRA:          -4.335
REMARK INTER:                  -4.179
REMARK INTRA:                  -0.156
REMARK UNBOUND:                -0.156
REMARK SMILES CC=Cc1ccc(O)c(OC)c1
REMARK SMILES IDX 4 1 12 2 9 3 7 4 6 5 5 6 3 7 1 8 2 9 10 10 11 11 8 12
REMARK H PARENT 8 13
REMARK Flexibility Score: inf
ROOT
ATOM      1  C   UNL     1     238.665 228.622 235.014  1.00  0.00    -0.022 A 
ATOM      2  C   UNL     1     237.659 229.406 234.414  1.00  0.00     0.058 A 
ATOM      3  C   UNL     1     236.637 228.803 233.650  1.00  0.00     0.161 A 
ATOM      4  C   UNL     1     236.637 227.408 233.482  1.00  0.00     0.157 A 
ATOM      5  C   UNL     1     237.645 226.633 234.063  1.00  0.00     0.051 A 
ATOM      6  C   UNL     1     238.652 227.234 234.818  1.00  0.00     0.012 A 
ENDROOT
BRANCH   1   7
ATOM      7  C   UNL     1     239.763 229.214 235.818  1.00  0.00     0.003 C 
ATOM      8  C   UNL     1     240.734 230.661 237.560  1.00  0.00     0.035 C 
ATOM      9  C   UNL     1     239.576 230.123 236.781  1.00  0.00    -0.030 C 
ENDBRANCH   1   7
BRANCH   3  10
ATOM     10  O   UNL     1     235.618 229.557 233.044  1.00  0.00    -0.493 OA
ATOM     11  C   UNL     1     235.833 230.579 232.077  1.00  0.00     0.278 C 
ENDBRANCH   3  10
BRANCH   4  12
ATOM     12  O   UNL     1     235.644 226.770 232.736  1.00  0.00    -0.504 OA
ATOM     13  H   UNL     1     234.944 227.287 232.219  1.00  0.00     0.293 HD
ENDBRANCH   4  12
TORSDOF 3
ENDMDL
MODEL 2
REMARK VINA RESULT:    -3.641     11.249     13.768
REMARK INTER + INTRA:          -4.328
REMARK INTER:                  -4.177
REMARK INTRA:                  -0.151
REMARK UNBOUND:                -0.156
REMARK SMILES CC=Cc1ccc(O)c(OC)c1
REMARK SMILES IDX 4 1 12 2 9 3 7 4 6 5 5 6 3 7 1 8 2 9 10 10 11 11 8 12
REMARK H PARENT 8 13
REMARK Flexibility Score: inf
ROOT
ATOM      1  C   UNL     1     229.806 239.927 235.038  1.00  0.00    -0.022 A 
ATOM      2  C   UNL     1     230.803 239.127 234.445  1.00  0.00     0.058 A 
ATOM      3  C   UNL     1     231.829 239.709 233.671  1.00  0.00     0.161 A 
ATOM      4  C   UNL     1     231.842 241.103 233.485  1.00  0.00     0.157 A 
ATOM      5  C   UNL     1     230.844 241.895 234.059  1.00  0.00     0.051 A 
ATOM      6  C   UNL     1     229.832 241.313 234.824  1.00  0.00     0.012 A 
ENDROOT
BRANCH   1   7
ATOM      7  C   UNL     1     228.704 239.357 235.852  1.00  0.00     0.003 C 
ATOM      8  C   UNL     1     227.706 237.853 237.529  1.00  0.00     0.035 C 
ATOM      9  C   UNL     1     228.865 238.364 236.733  1.00  0.00    -0.030 C 
ENDBRANCH   1   7
BRANCH   3  10
ATOM     10  O   UNL     1     232.839 238.939 233.073  1.00  0.00    -0.493 OA
ATOM     11  C   UNL     1     232.609 237.803 232.246  1.00  0.00     0.278 C 
ENDBRANCH   3  10
BRANCH   4  12
ATOM     12  O   UNL     1     232.840 241.721 232.730  1.00  0.00    -0.504 OA
ATOM     13  H   UNL     1     233.022 241.466 231.766  1.00  0.00     0.293 HD
ENDBRANCH   4  12
TORSDOF 3
ENDMDL
MODEL 3
REMARK VINA RESULT:    -3.624      8.253      9.766
REMARK INTER + INTRA:          -4.309
REMARK INTER:                  -4.155
REMARK INTRA:                  -0.154
REMARK UNBOUND:                -0.156
REMARK SMILES CC=Cc1ccc(O)c(OC)c1
REMARK SMILES IDX 4 1 12 2 9 3 7 4 6 5 5 6 3 7 1 8 2 9 10 10 11 11 8 12
REMARK H PARENT 8 13
REMARK Flexibility Score: inf
ROOT
ATOM      1  C   UNL     1     228.507 229.785 235.101  1.00  0.00    -0.022 A 
ATOM      2  C   UNL     1     229.316 230.782 234.520  1.00  0.00     0.058 A 
ATOM      3  C   UNL     1     228.747 231.801 233.728  1.00  0.00     0.161 A 
ATOM      4  C   UNL     1     227.358 231.808 233.512  1.00  0.00     0.157 A 
ATOM      5  C   UNL     1     226.557 230.809 234.074  1.00  0.00     0.051 A 
ATOM      6  C   UNL     1     227.126 229.804 234.857  1.00  0.00     0.012 A 
ENDROOT
BRANCH   1   7
ATOM      7  C   UNL     1     229.064 228.690 235.934  1.00  0.00     0.003 C 
ATOM      8  C   UNL     1     230.602 227.686 237.576  1.00  0.00     0.035 C 
ATOM      9  C   UNL     1     230.108 228.835 236.756  1.00  0.00    -0.030 C 
ENDBRANCH   1   7
BRANCH   3  10
ATOM     10  O   UNL     1     229.527 232.810 233.142  1.00  0.00    -0.493 OA
ATOM     11  C   UNL     1     230.628 232.579 232.269  1.00  0.00     0.278 C 
ENDBRANCH   3  10
BRANCH   4  12
ATOM     12  O   UNL     1     226.753 232.798 232.737  1.00  0.00    -0.504 OA
ATOM     13  H   UNL     1     227.039 232.987 231.785  1.00  0.00     0.293 HD
ENDBRANCH   4  12
TORSDOF 3
ENDMDL
MODEL 4
REMARK VINA RESULT:    -3.560      8.322      9.886
REMARK INTER + INTRA:          -4.236
REMARK INTER:                  -4.091
REMARK INTRA:                  -0.145
REMARK UNBOUND:                -0.156
REMARK SMILES CC=Cc1ccc(O)c(OC)c1
REMARK SMILES IDX 4 1 12 2 9 3 7 4 6 5 5 6 3 7 1 8 2 9 10 10 11 11 8 12
REMARK H PARENT 8 13
REMARK Flexibility Score: inf
ROOT
ATOM      1  C   UNL     1     239.995 238.794 235.239  1.00  0.00    -0.022 A 
ATOM      2  C   UNL     1     239.203 237.841 234.567  1.00  0.00     0.058 A 
ATOM      3  C   UNL     1     239.799 236.848 233.763  1.00  0.00     0.161 A 
ATOM      4  C   UNL     1     241.198 236.821 233.627  1.00  0.00     0.157 A 
ATOM      5  C   UNL     1     241.982 237.776 234.280  1.00  0.00     0.051 A 
ATOM      6  C   UNL     1     241.387 238.756 235.074  1.00  0.00     0.012 A 
ENDROOT
BRANCH   1   7
ATOM      7  C   UNL     1     239.411 239.862 236.088  1.00  0.00     0.003 C 
ATOM      8  C   UNL     1     237.773 240.836 237.649  1.00  0.00     0.035 C 
ATOM      9  C   UNL     1     238.290 239.716 236.804  1.00  0.00    -0.030 C 
ENDBRANCH   1   7
BRANCH   3  10
ATOM     10  O   UNL     1     239.036 235.882 233.086  1.00  0.00    -0.493 OA
ATOM     11  C   UNL     1     237.747 236.114 232.527  1.00  0.00     0.278 C 
ENDBRANCH   3  10
BRANCH   4  12
ATOM     12  O   UNL     1     241.829 235.854 232.843  1.00  0.00    -0.504 OA
ATOM     13  H   UNL     1     242.387 236.096 232.034  1.00  0.00     0.293 HD
ENDBRANCH   4  12
TORSDOF 3
ENDMDL
MODEL 5
REMARK VINA RESULT:    -3.410      9.178     10.766
REMARK INTER + INTRA:          -4.064
REMARK INTER:                  -3.877
REMARK INTRA:                  -0.187
REMARK UNBOUND:                -0.156
REMARK SMILES CC=Cc1ccc(O)c(OC)c1
REMARK SMILES IDX 4 1 12 2 9 3 7 4 6 5 5 6 3 7 1 8 2 9 10 10 11 11 8 12
REMARK H PARENT 8 13
REMARK Flexibility Score: inf
ROOT
ATOM      1  C   UNL     1     239.852 239.019 235.393  1.00  0.00    -0.022 A 
ATOM      2  C   UNL     1     241.131 239.250 234.849  1.00  0.00     0.058 A 
ATOM      3  C   UNL     1     241.762 238.273 234.051  1.00  0.00     0.161 A 
ATOM      4  C   UNL     1     241.105 237.053 233.811  1.00  0.00     0.157 A 
ATOM      5  C   UNL     1     239.844 236.818 234.365  1.00  0.00     0.051 A 
ATOM      6  C   UNL     1     239.224 237.788 235.152  1.00  0.00     0.012 A 
ENDROOT
BRANCH   1   7
ATOM      7  C   UNL     1     239.155 240.015 236.244  1.00  0.00     0.003 C 
ATOM      8  C   UNL     1     237.427 240.799 237.815  1.00  0.00     0.035 C 
ATOM      9  C   UNL     1     238.063 239.744 236.968  1.00  0.00    -0.030 C 
ENDBRANCH   1   7
BRANCH   3  10
ATOM     10  O   UNL     1     243.034 238.476 233.491  1.00  0.00    -0.493 OA
ATOM     11  C   UNL     1     243.393 239.592 232.684  1.00  0.00     0.278 C 
ENDBRANCH   3  10
BRANCH   4  12
ATOM     12  O   UNL     1     241.691 236.060 233.025  1.00  0.00    -0.504 OA
ATOM     13  H   UNL     1     242.007 236.237 232.080  1.00  0.00     0.293 HD
ENDBRANCH   4  12
TORSDOF 3
ENDMDL
MODEL 6
REMARK VINA RESULT:    -3.396     13.236     14.644
REMARK INTER + INTRA:          -4.048
REMARK INTER:                  -3.861
REMARK INTRA:                  -0.187
REMARK UNBOUND:                -0.156
REMARK SMILES CC=Cc1ccc(O)c(OC)c1
REMARK SMILES IDX 4 1 12 2 9 3 7 4 6 5 5 6 3 7 1 8 2 9 10 10 11 11 8 12
REMARK H PARENT 8 13
REMARK Flexibility Score: inf
ROOT
ATOM      1  C   UNL     1     229.412 239.967 235.503  1.00  0.00    -0.022 A 
ATOM      2  C   UNL     1     229.179 241.212 234.885  1.00  0.00     0.058 A 
ATOM      3  C   UNL     1     230.158 241.799 234.056  1.00  0.00     0.161 A 
ATOM      4  C   UNL     1     231.381 241.133 233.859  1.00  0.00     0.157 A 
ATOM      5  C   UNL     1     231.618 239.907 234.487  1.00  0.00     0.051 A 
ATOM      6  C   UNL     1     230.646 239.331 235.305  1.00  0.00     0.012 A 
ENDROOT
BRANCH   1   7
ATOM      7  C   UNL     1     228.415 239.317 236.389  1.00  0.00     0.003 C 
ATOM      8  C   UNL     1     227.532 237.526 237.832  1.00  0.00     0.035 C 
ATOM      9  C   UNL     1     228.578 238.107 236.935  1.00  0.00    -0.030 C 
ENDBRANCH   1   7
BRANCH   3  10
ATOM     10  O   UNL     1     229.953 243.034 233.422  1.00  0.00    -0.493 OA
ATOM     11  C   UNL     1     228.824 243.353 232.614  1.00  0.00     0.278 C 
ENDBRANCH   3  10
BRANCH   4  12
ATOM     12  O   UNL     1     232.376 241.676 233.046  1.00  0.00    -0.504 OA
ATOM     13  H   UNL     1     232.585 242.667 233.039  1.00  0.00     0.293 HD
ENDBRANCH   4  12
TORSDOF 3
ENDMDL
MODEL 7
REMARK VINA RESULT:    -3.388      1.350      2.823
REMARK INTER + INTRA:          -4.039
REMARK INTER:                  -3.847
REMARK INTRA:                  -0.192
REMARK UNBOUND:                -0.156
REMARK SMILES CC=Cc1ccc(O)c(OC)c1
REMARK SMILES IDX 4 1 12 2 9 3 7 4 6 5 5 6 3 7 1 8 2 9 10 10 11 11 8 12
REMARK H PARENT 8 13
REMARK Flexibility Score: inf
ROOT
ATOM      1  C   UNL     1     239.036 228.729 235.406  1.00  0.00    -0.022 A 
ATOM      2  C   UNL     1     239.248 227.399 234.989  1.00  0.00     0.058 A 
ATOM      3  C   UNL     1     238.287 226.729 234.204  1.00  0.00     0.161 A 
ATOM      4  C   UNL     1     237.103 227.397 233.848  1.00  0.00     0.157 A 
ATOM      5  C   UNL     1     236.885 228.710 234.276  1.00  0.00     0.051 A 
ATOM      6  C   UNL     1     237.839 229.369 235.051  1.00  0.00     0.012 A 
ENDROOT
BRANCH   1   7
ATOM      7  C   UNL     1     240.015 229.470 236.240  1.00  0.00     0.003 C 
ATOM      8  C   UNL     1     240.738 231.194 237.844  1.00  0.00     0.035 C 
ATOM      9  C   UNL     1     239.696 230.509 237.019  1.00  0.00    -0.030 C 
ENDBRANCH   1   7
BRANCH   3  10
ATOM     10  O   UNL     1     238.473 225.406 233.769  1.00  0.00    -0.493 OA
ATOM     11  C   UNL     1     239.315 225.020 232.688  1.00  0.00     0.278 C 
ENDBRANCH   3  10
BRANCH   4  12
ATOM     12  O   UNL     1     236.127 226.772 233.070  1.00  0.00    -0.504 OA
ATOM     13  H   UNL     1     236.216 226.679 232.066  1.00  0.00     0.293 HD
ENDBRANCH   4  12
TORSDOF 3
ENDMDL
MODEL 8
REMARK VINA RESULT:    -3.385      8.626     10.207
REMARK INTER + INTRA:          -4.035
REMARK INTER:                  -3.845
REMARK INTRA:                  -0.191
REMARK UNBOUND:                -0.156
REMARK SMILES CC=Cc1ccc(O)c(OC)c1
REMARK SMILES IDX 4 1 12 2 9 3 7 4 6 5 5 6 3 7 1 8 2 9 10 10 11 11 8 12
REMARK H PARENT 8 13
REMARK Flexibility Score: inf
ROOT
ATOM      1  C   UNL     1     228.604 229.410 235.456  1.00  0.00    -0.022 A 
ATOM      2  C   UNL     1     227.310 229.185 234.944  1.00  0.00     0.058 A 
ATOM      3  C   UNL     1     226.680 230.148 234.129  1.00  0.00     0.161 A 
ATOM      4  C   UNL     1     227.353 231.348 233.838  1.00  0.00     0.157 A 
ATOM      5  C   UNL     1     228.629 231.578 234.360  1.00  0.00     0.051 A 
ATOM      6  C   UNL     1     229.248 230.622 235.165  1.00  0.00     0.012 A 
ENDROOT
BRANCH   1   7
ATOM      7  C   UNL     1     229.301 228.429 236.325  1.00  0.00     0.003 C 
ATOM      8  C   UNL     1     231.079 227.645 237.839  1.00  0.00     0.035 C 
ATOM      9  C   UNL     1     230.445 228.683 236.968  1.00  0.00    -0.030 C 
ENDBRANCH   1   7
BRANCH   3  10
ATOM     10  O   UNL     1     225.395 229.950 233.600  1.00  0.00    -0.493 OA
ATOM     11  C   UNL     1     225.060 228.955 232.638  1.00  0.00     0.278 C 
ENDBRANCH   3  10
BRANCH   4  12
ATOM     12  O   UNL     1     226.768 232.327 233.034  1.00  0.00    -0.504 OA
ATOM     13  H   UNL     1     227.297 233.109 232.666  1.00  0.00     0.293 HD
ENDBRANCH   4  12
TORSDOF 3
ENDMDL
MODEL 9
REMARK VINA RESULT:    -3.312      9.314     10.546
REMARK INTER + INTRA:          -3.951
REMARK INTER:                  -3.763
REMARK INTRA:                  -0.188
REMARK UNBOUND:                -0.156
REMARK SMILES CC=Cc1ccc(O)c(OC)c1
REMARK SMILES IDX 4 1 12 2 9 3 7 4 6 5 5 6 3 7 1 8 2 9 10 10 11 11 8 12
REMARK H PARENT 8 13
REMARK Flexibility Score: inf
ROOT
ATOM      1  C   UNL     1     228.423 231.382 233.898  1.00  0.00    -0.022 A 
ATOM      2  C   UNL     1     227.047 231.106 233.769  1.00  0.00     0.058 A 
ATOM      3  C   UNL     1     226.471 229.996 234.423  1.00  0.00     0.161 A 
ATOM      4  C   UNL     1     227.288 229.157 235.200  1.00  0.00     0.157 A 
ATOM      5  C   UNL     1     228.655 229.421 235.314  1.00  0.00     0.051 A 
ATOM      6  C   UNL     1     229.220 230.520 234.666  1.00  0.00     0.012 A 
ENDROOT
BRANCH   1   7
ATOM      7  C   UNL     1     229.073 232.532 233.222  1.00  0.00     0.003 C 
ATOM      8  C   UNL     1     230.824 233.656 231.902  1.00  0.00     0.035 C 
ATOM      9  C   UNL     1     230.240 232.454 232.574  1.00  0.00    -0.030 C 
ENDBRANCH   1   7
BRANCH   3  10
ATOM     10  O   UNL     1     225.103 229.699 234.317  1.00  0.00    -0.493 OA
ATOM     11  C   UNL     1     224.484 229.127 233.170  1.00  0.00     0.278 C 
ENDBRANCH   3  10
BRANCH   4  12
ATOM     12  O   UNL     1     226.758 228.050 235.866  1.00  0.00    -0.504 OA
ATOM     13  H   UNL     1     227.347 227.347 236.295  1.00  0.00     0.293 HD
ENDBRANCH   4  12
TORSDOF 3
ENDMDL
