MODEL 1
REMARK VINA RESULT:    -4.026      0.000      0.000
REMARK INTER + INTRA:         -12.592
REMARK INTER:                  -8.733
REMARK INTRA:                  -3.860
REMARK UNBOUND:                -3.860
REMARK SMILES CCCCCCCCCCCCCCCCCCCCCC(=O)[O-]
REMARK SMILES IDX 12 1 11 2 10 3 9 4 8 5 7 6 6 7 5 8 4 9 3 10 2 11 1 12 13 13
REMARK SMILES IDX 14 14 15 15 16 16 17 17 18 18 19 19 20 20 21 21 22 22 23 23
REMARK SMILES IDX 24 24
REMARK H PARENT
REMARK Flexibility Score: inf
ROOT
ATOM      1  C   UNL     1     176.024 176.630 183.413  1.00  0.00     0.000 C 
ENDROOT
BRANCH   1   2
ATOM      2  C   UNL     1     176.976 177.320 182.416  1.00  0.00     0.000 C 
BRANCH   2   3
ATOM      3  C   UNL     1     176.955 176.744 180.986  1.00  0.00     0.000 C 
BRANCH   3   4
ATOM      4  C   UNL     1     176.409 177.696 179.903  1.00  0.00    -0.000 C 
BRANCH   4   5
ATOM      5  C   UNL     1     175.038 177.299 179.318  1.00  0.00    -0.000 C 
BRANCH   5   6
ATOM      6  C   UNL     1     175.031 175.972 178.537  1.00  0.00    -0.000 C 
BRANCH   6   7
ATOM      7  C   UNL     1     173.856 175.058 178.927  1.00  0.00    -0.000 C 
BRANCH   7   8
ATOM      8  C   UNL     1     174.318 173.820 179.723  1.00  0.00    -0.000 C 
BRANCH   8   9
ATOM      9  C   UNL     1     175.829 173.545 179.616  1.00  0.00    -0.000 C 
BRANCH   9  10
ATOM     10  C   UNL     1     176.241 172.203 180.241  1.00  0.00    -0.000 C 
BRANCH  10  11
ATOM     11  C   UNL     1     176.702 172.351 181.700  1.00  0.00    -0.003 C 
ATOM     12  C   UNL     1     177.830 173.370 181.859  1.00  0.00     0.004 C 
ENDBRANCH  10  11
ENDBRANCH   9  10
ENDBRANCH   8   9
ENDBRANCH   7   8
ENDBRANCH   6   7
ENDBRANCH   5   6
ENDBRANCH   4   5
ENDBRANCH   3   4
ENDBRANCH   2   3
ENDBRANCH   1   2
BRANCH   1  13
ATOM     13  C   UNL     1     175.167 175.535 182.758  1.00  0.00     0.000 C 
BRANCH  13  14
ATOM     14  C   UNL     1     173.699 175.952 182.581  1.00  0.00     0.000 C 
BRANCH  14  15
ATOM     15  C   UNL     1     173.491 177.471 182.682  1.00  0.00     0.000 C 
BRANCH  15  16
ATOM     16  C   UNL     1     172.056 177.861 182.291  1.00  0.00     0.000 C 
BRANCH  16  17
ATOM     17  C   UNL     1     171.667 177.351 180.887  1.00  0.00     0.000 C 
BRANCH  17  18
ATOM     18  C   UNL     1     170.269 176.711 180.821  1.00  0.00     0.000 C 
BRANCH  18  19
ATOM     19  C   UNL     1     170.244 175.268 181.340  1.00  0.00     0.000 C 
BRANCH  19  20
ATOM     20  C   UNL     1     169.371 175.141 182.596  1.00  0.00     0.006 C 
BRANCH  20  21
ATOM     21  C   UNL     1     170.235 175.116 183.861  1.00  0.00     0.053 C 
BRANCH  21  22
ATOM     22  C   UNL     1     170.673 173.720 184.175  1.00  0.00     0.041 C 
ATOM     23  O   UNL     1     169.848 172.770 184.115  1.00  0.00    -0.550 OA
ATOM     24  O   UNL     1     171.999 173.461 184.496  1.00  0.00    -0.550 OA
ENDBRANCH  21  22
ENDBRANCH  20  21
ENDBRANCH  19  20
ENDBRANCH  18  19
ENDBRANCH  17  18
ENDBRANCH  16  17
ENDBRANCH  15  16
ENDBRANCH  14  15
ENDBRANCH  13  14
ENDBRANCH   1  13
TORSDOF 20
ENDMDL
MODEL 2
REMARK VINA RESULT:    -3.967      2.241      5.823
REMARK INTER + INTRA:         -12.464
REMARK INTER:                  -8.972
REMARK INTRA:                  -3.492
REMARK UNBOUND:                -3.860
REMARK SMILES CCCCCCCCCCCCCCCCCCCCCC(=O)[O-]
REMARK SMILES IDX 12 1 11 2 10 3 9 4 8 5 7 6 6 7 5 8 4 9 3 10 2 11 1 12 13 13
REMARK SMILES IDX 14 14 15 15 16 16 17 17 18 18 19 19 20 20 21 21 22 22 23 23
REMARK SMILES IDX 24 24
REMARK H PARENT
REMARK Flexibility Score: inf
ROOT
ATOM      1  C   UNL     1     174.389 176.347 179.962  1.00  0.00     0.000 C 
ENDROOT
BRANCH   1   2
ATOM      2  C   UNL     1     173.053 176.903 180.491  1.00  0.00     0.000 C 
BRANCH   2   3
ATOM      3  C   UNL     1     172.989 177.112 182.018  1.00  0.00     0.000 C 
BRANCH   3   4
ATOM      4  C   UNL     1     171.774 177.917 182.519  1.00  0.00    -0.000 C 
BRANCH   4   5
ATOM      5  C   UNL     1     170.642 177.071 183.137  1.00  0.00    -0.000 C 
BRANCH   5   6
ATOM      6  C   UNL     1     169.316 177.099 182.354  1.00  0.00    -0.000 C 
BRANCH   6   7
ATOM      7  C   UNL     1     168.779 175.691 182.044  1.00  0.00    -0.000 C 
BRANCH   7   8
ATOM      8  C   UNL     1     169.777 174.854 181.217  1.00  0.00    -0.000 C 
BRANCH   8   9
ATOM      9  C   UNL     1     170.317 173.620 181.962  1.00  0.00    -0.000 C 
BRANCH   9  10
ATOM     10  C   UNL     1     171.816 173.723 182.288  1.00  0.00    -0.000 C 
BRANCH  10  11
ATOM     11  C   UNL     1     172.091 173.695 183.801  1.00  0.00    -0.003 C 
ATOM     12  C   UNL     1     170.809 173.696 184.632  1.00  0.00     0.004 C 
ENDBRANCH  10  11
ENDBRANCH   9  10
ENDBRANCH   8   9
ENDBRANCH   7   8
ENDBRANCH   6   7
ENDBRANCH   5   6
ENDBRANCH   4   5
ENDBRANCH   3   4
ENDBRANCH   2   3
ENDBRANCH   1   2
BRANCH   1  13
ATOM     13  C   UNL     1     175.156 177.363 179.099  1.00  0.00     0.000 C 
BRANCH  13  14
ATOM     14  C   UNL     1     176.317 178.029 179.853  1.00  0.00     0.000 C 
BRANCH  14  15
ATOM     15  C   UNL     1     177.020 177.076 180.833  1.00  0.00     0.000 C 
BRANCH  15  16
ATOM     16  C   UNL     1     176.861 177.558 182.284  1.00  0.00     0.000 C 
BRANCH  16  17
ATOM     17  C   UNL     1     176.347 176.446 183.223  1.00  0.00     0.000 C 
BRANCH  17  18
ATOM     18  C   UNL     1     176.700 175.022 182.757  1.00  0.00     0.000 C 
BRANCH  18  19
ATOM     19  C   UNL     1     175.478 174.098 182.672  1.00  0.00     0.000 C 
BRANCH  19  20
ATOM     20  C   UNL     1     175.642 173.054 181.559  1.00  0.00     0.006 C 
BRANCH  20  21
ATOM     21  C   UNL     1     176.941 172.262 181.741  1.00  0.00     0.053 C 
BRANCH  21  22
ATOM     22  C   UNL     1     176.739 170.824 181.382  1.00  0.00     0.041 C 
ATOM     23  O   UNL     1     177.508 170.264 180.557  1.00  0.00    -0.550 OA
ATOM     24  O   UNL     1     175.726 170.090 181.987  1.00  0.00    -0.550 OA
ENDBRANCH  21  22
ENDBRANCH  20  21
ENDBRANCH  19  20
ENDBRANCH  18  19
ENDBRANCH  17  18
ENDBRANCH  16  17
ENDBRANCH  15  16
ENDBRANCH  14  15
ENDBRANCH  13  14
ENDBRANCH   1  13
TORSDOF 20
ENDMDL
MODEL 3
REMARK VINA RESULT:    -3.957      2.488      5.912
REMARK INTER + INTRA:         -12.442
REMARK INTER:                  -8.893
REMARK INTRA:                  -3.549
REMARK UNBOUND:                -3.860
REMARK SMILES CCCCCCCCCCCCCCCCCCCCCC(=O)[O-]
REMARK SMILES IDX 12 1 11 2 10 3 9 4 8 5 7 6 6 7 5 8 4 9 3 10 2 11 1 12 13 13
REMARK SMILES IDX 14 14 15 15 16 16 17 17 18 18 19 19 20 20 21 21 22 22 23 23
REMARK SMILES IDX 24 24
REMARK H PARENT
REMARK Flexibility Score: inf
ROOT
ATOM      1  C   UNL     1     176.845 177.795 179.954  1.00  0.00     0.000 C 
ENDROOT
BRANCH   1   2
ATOM      2  C   UNL     1     177.031 177.034 181.281  1.00  0.00     0.000 C 
BRANCH   2   3
ATOM      3  C   UNL     1     177.244 175.513 181.139  1.00  0.00     0.000 C 
BRANCH   3   4
ATOM      4  C   UNL     1     177.066 174.702 182.438  1.00  0.00    -0.000 C 
BRANCH   4   5
ATOM      5  C   UNL     1     175.845 175.100 183.292  1.00  0.00    -0.000 C 
BRANCH   5   6
ATOM      6  C   UNL     1     174.547 174.343 182.954  1.00  0.00    -0.000 C 
BRANCH   6   7
ATOM      7  C   UNL     1     173.522 175.221 182.216  1.00  0.00    -0.000 C 
BRANCH   7   8
ATOM      8  C   UNL     1     173.705 176.721 182.529  1.00  0.00    -0.000 C 
BRANCH   8   9
ATOM      9  C   UNL     1     172.563 177.607 181.999  1.00  0.00    -0.000 C 
BRANCH   9  10
ATOM     10  C   UNL     1     171.367 177.684 182.961  1.00  0.00    -0.000 C 
BRANCH  10  11
ATOM     11  C   UNL     1     170.223 176.743 182.551  1.00  0.00    -0.003 C 
ATOM     12  C   UNL     1     169.985 175.629 183.569  1.00  0.00     0.004 C 
ENDBRANCH  10  11
ENDBRANCH   9  10
ENDBRANCH   8   9
ENDBRANCH   7   8
ENDBRANCH   6   7
ENDBRANCH   5   6
ENDBRANCH   4   5
ENDBRANCH   3   4
ENDBRANCH   2   3
ENDBRANCH   1   2
BRANCH   1  13
ATOM     13  C   UNL     1     176.055 176.989 178.911  1.00  0.00     0.000 C 
BRANCH  13  14
ATOM     14  C   UNL     1     174.567 177.370 178.864  1.00  0.00     0.000 C 
BRANCH  14  15
ATOM     15  C   UNL     1     173.639 176.150 178.762  1.00  0.00     0.000 C 
BRANCH  15  16
ATOM     16  C   UNL     1     174.227 175.084 177.823  1.00  0.00     0.000 C 
BRANCH  16  17
ATOM     17  C   UNL     1     174.179 173.667 178.435  1.00  0.00     0.000 C 
BRANCH  17  18
ATOM     18  C   UNL     1     175.396 173.325 179.314  1.00  0.00     0.000 C 
BRANCH  18  19
ATOM     19  C   UNL     1     175.204 172.042 180.132  1.00  0.00     0.000 C 
BRANCH  19  20
ATOM     20  C   UNL     1     176.548 171.477 180.610  1.00  0.00     0.006 C 
BRANCH  20  21
ATOM     21  C   UNL     1     176.441 170.958 182.048  1.00  0.00     0.053 C 
BRANCH  21  22
ATOM     22  C   UNL     1     177.163 169.656 182.195  1.00  0.00     0.041 C 
ATOM     23  O   UNL     1     177.176 169.062 183.306  1.00  0.00    -0.550 OA
ATOM     24  O   UNL     1     177.789 169.077 181.098  1.00  0.00    -0.550 OA
ENDBRANCH  21  22
ENDBRANCH  20  21
ENDBRANCH  19  20
ENDBRANCH  18  19
ENDBRANCH  17  18
ENDBRANCH  16  17
ENDBRANCH  15  16
ENDBRANCH  14  15
ENDBRANCH  13  14
ENDBRANCH   1  13
TORSDOF 20
ENDMDL
MODEL 4
REMARK VINA RESULT:    -3.902      2.048      5.550
REMARK INTER + INTRA:         -12.324
REMARK INTER:                  -8.530
REMARK INTRA:                  -3.794
REMARK UNBOUND:                -3.860
REMARK SMILES CCCCCCCCCCCCCCCCCCCCCC(=O)[O-]
REMARK SMILES IDX 12 1 11 2 10 3 9 4 8 5 7 6 6 7 5 8 4 9 3 10 2 11 1 12 13 13
REMARK SMILES IDX 14 14 15 15 16 16 17 17 18 18 19 19 20 20 21 21 22 22 23 23
REMARK SMILES IDX 24 24
REMARK H PARENT
REMARK Flexibility Score: inf
ROOT
ATOM      1  C   UNL     1     175.892 175.541 178.702  1.00  0.00     0.000 C 
ENDROOT
BRANCH   1   2
ATOM      2  C   UNL     1     174.557 175.395 179.458  1.00  0.00     0.000 C 
BRANCH   2   3
ATOM      3  C   UNL     1     173.297 175.722 178.631  1.00  0.00     0.000 C 
BRANCH   3   4
ATOM      4  C   UNL     1     172.466 176.914 179.147  1.00  0.00    -0.000 C 
BRANCH   4   5
ATOM      5  C   UNL     1     172.501 177.119 180.675  1.00  0.00    -0.000 C 
BRANCH   5   6
ATOM      6  C   UNL     1     171.135 177.428 181.315  1.00  0.00    -0.000 C 
BRANCH   6   7
ATOM      7  C   UNL     1     171.217 177.587 182.843  1.00  0.00    -0.000 C 
BRANCH   7   8
ATOM      8  C   UNL     1     170.082 176.835 183.570  1.00  0.00    -0.000 C 
BRANCH   8   9
ATOM      9  C   UNL     1     169.831 175.418 183.024  1.00  0.00    -0.000 C 
BRANCH   9  10
ATOM     10  C   UNL     1     170.535 174.325 183.844  1.00  0.00    -0.000 C 
BRANCH  10  11
ATOM     11  C   UNL     1     172.004 174.138 183.434  1.00  0.00    -0.003 C 
ATOM     12  C   UNL     1     172.155 173.656 181.993  1.00  0.00     0.004 C 
ENDBRANCH  10  11
ENDBRANCH   9  10
ENDBRANCH   8   9
ENDBRANCH   7   8
ENDBRANCH   6   7
ENDBRANCH   5   6
ENDBRANCH   4   5
ENDBRANCH   3   4
ENDBRANCH   2   3
ENDBRANCH   1   2
BRANCH   1  13
ATOM     13  C   UNL     1     176.834 176.568 179.351  1.00  0.00     0.000 C 
BRANCH  13  14
ATOM     14  C   UNL     1     176.152 177.386 180.459  1.00  0.00     0.000 C 
BRANCH  14  15
ATOM     15  C   UNL     1     177.129 177.844 181.553  1.00  0.00     0.000 C 
BRANCH  15  16
ATOM     16  C   UNL     1     176.833 177.145 182.890  1.00  0.00     0.000 C 
BRANCH  16  17
ATOM     17  C   UNL     1     175.496 176.373 182.869  1.00  0.00     0.000 C 
BRANCH  17  18
ATOM     18  C   UNL     1     175.656 174.844 182.939  1.00  0.00     0.000 C 
BRANCH  18  19
ATOM     19  C   UNL     1     177.060 174.369 182.547  1.00  0.00     0.000 C 
BRANCH  19  20
ATOM     20  C   UNL     1     177.001 173.285 181.462  1.00  0.00     0.006 C 
BRANCH  20  21
ATOM     21  C   UNL     1     175.673 172.522 181.525  1.00  0.00     0.053 C 
BRANCH  21  22
ATOM     22  C   UNL     1     175.909 171.073 181.809  1.00  0.00     0.041 C 
ATOM     23  O   UNL     1     174.944 170.264 181.817  1.00  0.00    -0.550 OA
ATOM     24  O   UNL     1     177.200 170.606 182.027  1.00  0.00    -0.550 OA
ENDBRANCH  21  22
ENDBRANCH  20  21
ENDBRANCH  19  20
ENDBRANCH  18  19
ENDBRANCH  17  18
ENDBRANCH  16  17
ENDBRANCH  15  16
ENDBRANCH  14  15
ENDBRANCH  13  14
ENDBRANCH   1  13
TORSDOF 20
ENDMDL
MODEL 5
REMARK VINA RESULT:    -3.889      2.054      3.508
REMARK INTER + INTRA:         -12.296
REMARK INTER:                  -8.485
REMARK INTRA:                  -3.810
REMARK UNBOUND:                -3.860
REMARK SMILES CCCCCCCCCCCCCCCCCCCCCC(=O)[O-]
REMARK SMILES IDX 12 1 11 2 10 3 9 4 8 5 7 6 6 7 5 8 4 9 3 10 2 11 1 12 13 13
REMARK SMILES IDX 14 14 15 15 16 16 17 17 18 18 19 19 20 20 21 21 22 22 23 23
REMARK SMILES IDX 24 24
REMARK H PARENT
REMARK Flexibility Score: inf
ROOT
ATOM      1  C   UNL     1     175.664 176.389 178.871  1.00  0.00     0.000 C 
ENDROOT
BRANCH   1   2
ATOM      2  C   UNL     1     176.929 177.161 179.292  1.00  0.00     0.000 C 
BRANCH   2   3
ATOM      3  C   UNL     1     176.767 178.055 180.538  1.00  0.00     0.000 C 
BRANCH   3   4
ATOM      4  C   UNL     1     177.325 177.462 181.847  1.00  0.00    -0.000 C 
BRANCH   4   5
ATOM      5  C   UNL     1     176.276 176.795 182.759  1.00  0.00    -0.000 C 
BRANCH   5   6
ATOM      6  C   UNL     1     176.431 175.271 182.913  1.00  0.00    -0.000 C 
BRANCH   6   7
ATOM      7  C   UNL     1     177.252 174.638 181.776  1.00  0.00    -0.000 C 
BRANCH   7   8
ATOM      8  C   UNL     1     177.568 173.151 182.042  1.00  0.00    -0.000 C 
BRANCH   8   9
ATOM      9  C   UNL     1     176.804 172.183 181.122  1.00  0.00    -0.000 C 
BRANCH   9  10
ATOM     10  C   UNL     1     176.073 172.897 179.973  1.00  0.00    -0.000 C 
BRANCH  10  11
ATOM     11  C   UNL     1     174.544 172.805 180.103  1.00  0.00    -0.003 C 
ATOM     12  C   UNL     1     174.104 171.831 181.194  1.00  0.00     0.004 C 
ENDBRANCH  10  11
ENDBRANCH   9  10
ENDBRANCH   8   9
ENDBRANCH   7   8
ENDBRANCH   6   7
ENDBRANCH   5   6
ENDBRANCH   4   5
ENDBRANCH   3   4
ENDBRANCH   2   3
ENDBRANCH   1   2
BRANCH   1  13
ATOM     13  C   UNL     1     174.366 177.123 179.246  1.00  0.00     0.000 C 
BRANCH  13  14
ATOM     14  C   UNL     1     173.541 176.374 180.304  1.00  0.00     0.000 C 
BRANCH  14  15
ATOM     15  C   UNL     1     173.025 177.293 181.422  1.00  0.00     0.000 C 
BRANCH  15  16
ATOM     16  C   UNL     1     172.705 176.491 182.694  1.00  0.00     0.000 C 
BRANCH  16  17
ATOM     17  C   UNL     1     172.700 174.967 182.447  1.00  0.00     0.000 C 
BRANCH  17  18
ATOM     18  C   UNL     1     171.412 174.263 182.910  1.00  0.00     0.000 C 
BRANCH  18  19
ATOM     19  C   UNL     1     170.372 175.232 183.485  1.00  0.00     0.000 C 
BRANCH  19  20
ATOM     20  C   UNL     1     169.157 175.363 182.557  1.00  0.00     0.006 C 
BRANCH  20  21
ATOM     21  C   UNL     1     168.994 176.808 182.071  1.00  0.00     0.053 C 
BRANCH  21  22
ATOM     22  C   UNL     1     169.570 176.972 180.700  1.00  0.00     0.041 C 
ATOM     23  O   UNL     1     169.839 178.121 180.260  1.00  0.00    -0.550 OA
ATOM     24  O   UNL     1     169.848 175.855 179.922  1.00  0.00    -0.550 OA
ENDBRANCH  21  22
ENDBRANCH  20  21
ENDBRANCH  19  20
ENDBRANCH  18  19
ENDBRANCH  17  18
ENDBRANCH  16  17
ENDBRANCH  15  16
ENDBRANCH  14  15
ENDBRANCH  13  14
ENDBRANCH   1  13
TORSDOF 20
ENDMDL
MODEL 6
REMARK VINA RESULT:    -3.875      1.898      3.394
REMARK INTER + INTRA:         -12.265
REMARK INTER:                  -8.710
REMARK INTRA:                  -3.555
REMARK UNBOUND:                -3.860
REMARK SMILES CCCCCCCCCCCCCCCCCCCCCC(=O)[O-]
REMARK SMILES IDX 12 1 11 2 10 3 9 4 8 5 7 6 6 7 5 8 4 9 3 10 2 11 1 12 13 13
REMARK SMILES IDX 14 14 15 15 16 16 17 17 18 18 19 19 20 20 21 21 22 22 23 23
REMARK SMILES IDX 24 24
REMARK H PARENT
REMARK Flexibility Score: inf
ROOT
ATOM      1  C   UNL     1     177.010 176.639 180.498  1.00  0.00     0.000 C 
ENDROOT
BRANCH   1   2
ATOM      2  C   UNL     1     177.280 177.680 181.601  1.00  0.00     0.000 C 
BRANCH   2   3
ATOM      3  C   UNL     1     176.826 177.268 183.016  1.00  0.00     0.000 C 
BRANCH   3   4
ATOM      4  C   UNL     1     175.619 176.310 183.064  1.00  0.00    -0.000 C 
BRANCH   4   5
ATOM      5  C   UNL     1     174.261 176.956 182.721  1.00  0.00    -0.000 C 
BRANCH   5   6
ATOM      6  C   UNL     1     173.374 176.127 181.773  1.00  0.00    -0.000 C 
BRANCH   6   7
ATOM      7  C   UNL     1     173.713 174.627 181.801  1.00  0.00    -0.000 C 
BRANCH   7   8
ATOM      8  C   UNL     1     173.984 174.063 180.390  1.00  0.00    -0.000 C 
BRANCH   8   9
ATOM      9  C   UNL     1     175.356 173.380 180.250  1.00  0.00    -0.000 C 
BRANCH   9  10
ATOM     10  C   UNL     1     175.496 172.129 181.132  1.00  0.00    -0.000 C 
BRANCH  10  11
ATOM     11  C   UNL     1     176.887 172.018 181.777  1.00  0.00    -0.003 C 
ATOM     12  C   UNL     1     177.614 173.360 181.841  1.00  0.00     0.004 C 
ENDBRANCH  10  11
ENDBRANCH   9  10
ENDBRANCH   8   9
ENDBRANCH   7   8
ENDBRANCH   6   7
ENDBRANCH   5   6
ENDBRANCH   4   5
ENDBRANCH   3   4
ENDBRANCH   2   3
ENDBRANCH   1   2
BRANCH   1  13
ATOM     13  C   UNL     1     176.155 177.197 179.349  1.00  0.00     0.000 C 
BRANCH  13  14
ATOM     14  C   UNL     1     176.169 176.298 178.103  1.00  0.00     0.000 C 
BRANCH  14  15
ATOM     15  C   UNL     1     174.824 176.281 177.361  1.00  0.00     0.000 C 
BRANCH  15  16
ATOM     16  C   UNL     1     173.847 177.305 177.962  1.00  0.00     0.000 C 
BRANCH  16  17
ATOM     17  C   UNL     1     172.458 176.697 178.254  1.00  0.00     0.000 C 
BRANCH  17  18
ATOM     18  C   UNL     1     171.360 177.743 178.517  1.00  0.00     0.000 C 
BRANCH  18  19
ATOM     19  C   UNL     1     170.784 177.664 179.936  1.00  0.00     0.000 C 
BRANCH  19  20
ATOM     20  C   UNL     1     169.644 176.641 180.021  1.00  0.00     0.006 C 
BRANCH  20  21
ATOM     21  C   UNL     1     169.575 176.016 181.418  1.00  0.00     0.053 C 
BRANCH  21  22
ATOM     22  C   UNL     1     169.069 177.008 182.417  1.00  0.00     0.041 C 
ATOM     23  O   UNL     1     169.747 177.271 183.446  1.00  0.00    -0.550 OA
ATOM     24  O   UNL     1     167.869 177.672 182.194  1.00  0.00    -0.550 OA
ENDBRANCH  21  22
ENDBRANCH  20  21
ENDBRANCH  19  20
ENDBRANCH  18  19
ENDBRANCH  17  18
ENDBRANCH  16  17
ENDBRANCH  15  16
ENDBRANCH  14  15
ENDBRANCH  13  14
ENDBRANCH   1  13
TORSDOF 20
ENDMDL
MODEL 7
REMARK VINA RESULT:    -3.831      1.784      3.818
REMARK INTER + INTRA:         -12.169
REMARK INTER:                  -8.371
REMARK INTRA:                  -3.799
REMARK UNBOUND:                -3.860
REMARK SMILES CCCCCCCCCCCCCCCCCCCCCC(=O)[O-]
REMARK SMILES IDX 12 1 11 2 10 3 9 4 8 5 7 6 6 7 5 8 4 9 3 10 2 11 1 12 13 13
REMARK SMILES IDX 14 14 15 15 16 16 17 17 18 18 19 19 20 20 21 21 22 22 23 23
REMARK SMILES IDX 24 24
REMARK H PARENT
REMARK Flexibility Score: inf
ROOT
ATOM      1  C   UNL     1     173.414 176.308 176.693  1.00  0.00     0.000 C 
ENDROOT
BRANCH   1   2
ATOM      2  C   UNL     1     174.929 176.041 176.778  1.00  0.00     0.000 C 
BRANCH   2   3
ATOM      3  C   UNL     1     175.419 175.470 178.124  1.00  0.00     0.000 C 
BRANCH   3   4
ATOM      4  C   UNL     1     176.637 176.189 178.737  1.00  0.00    -0.000 C 
BRANCH   4   5
ATOM      5  C   UNL     1     176.310 177.491 179.495  1.00  0.00    -0.000 C 
BRANCH   5   6
ATOM      6  C   UNL     1     176.811 177.532 180.951  1.00  0.00    -0.000 C 
BRANCH   6   7
ATOM      7  C   UNL     1     176.976 176.130 181.563  1.00  0.00    -0.000 C 
BRANCH   7   8
ATOM      8  C   UNL     1     176.409 176.048 182.996  1.00  0.00    -0.000 C 
BRANCH   8   9
ATOM      9  C   UNL     1     175.605 174.765 183.270  1.00  0.00    -0.000 C 
BRANCH   9  10
ATOM     10  C   UNL     1     175.139 174.062 181.985  1.00  0.00    -0.000 C 
BRANCH  10  11
ATOM     11  C   UNL     1     175.836 172.709 181.770  1.00  0.00    -0.003 C 
ATOM     12  C   UNL     1     176.462 172.584 180.382  1.00  0.00     0.004 C 
ENDBRANCH  10  11
ENDBRANCH   9  10
ENDBRANCH   8   9
ENDBRANCH   7   8
ENDBRANCH   6   7
ENDBRANCH   5   6
ENDBRANCH   4   5
ENDBRANCH   3   4
ENDBRANCH   2   3
ENDBRANCH   1   2
BRANCH   1  13
ATOM     13  C   UNL     1     173.004 177.629 177.365  1.00  0.00     0.000 C 
BRANCH  13  14
ATOM     14  C   UNL     1     171.953 177.435 178.469  1.00  0.00     0.000 C 
BRANCH  14  15
ATOM     15  C   UNL     1     171.815 175.972 178.914  1.00  0.00     0.000 C 
BRANCH  15  16
ATOM     16  C   UNL     1     172.548 175.725 180.243  1.00  0.00     0.000 C 
BRANCH  16  17
ATOM     17  C   UNL     1     173.014 177.035 180.913  1.00  0.00     0.000 C 
BRANCH  17  18
ATOM     18  C   UNL     1     172.795 177.070 182.436  1.00  0.00     0.000 C 
BRANCH  18  19
ATOM     19  C   UNL     1     171.637 177.985 182.855  1.00  0.00     0.000 C 
BRANCH  19  20
ATOM     20  C   UNL     1     170.407 177.172 183.279  1.00  0.00     0.006 C 
BRANCH  20  21
ATOM     21  C   UNL     1     169.436 176.999 182.106  1.00  0.00     0.053 C 
BRANCH  21  22
ATOM     22  C   UNL     1     169.129 175.553 181.882  1.00  0.00     0.041 C 
ATOM     23  O   UNL     1     168.893 175.128 180.720  1.00  0.00    -0.550 OA
ATOM     24  O   UNL     1     169.141 174.664 182.950  1.00  0.00    -0.550 OA
ENDBRANCH  21  22
ENDBRANCH  20  21
ENDBRANCH  19  20
ENDBRANCH  18  19
ENDBRANCH  17  18
ENDBRANCH  16  17
ENDBRANCH  15  16
ENDBRANCH  14  15
ENDBRANCH  13  14
ENDBRANCH   1  13
TORSDOF 20
ENDMDL
MODEL 8
REMARK VINA RESULT:    -3.751      3.057      4.475
REMARK INTER + INTRA:         -11.997
REMARK INTER:                  -7.805
REMARK INTRA:                  -4.191
REMARK UNBOUND:                -3.860
REMARK SMILES CCCCCCCCCCCCCCCCCCCCCC(=O)[O-]
REMARK SMILES IDX 12 1 11 2 10 3 9 4 8 5 7 6 6 7 5 8 4 9 3 10 2 11 1 12 13 13
REMARK SMILES IDX 14 14 15 15 16 16 17 17 18 18 19 19 20 20 21 21 22 22 23 23
REMARK SMILES IDX 24 24
REMARK H PARENT
REMARK Flexibility Score: inf
ROOT
ATOM      1  C   UNL     1     173.255 175.085 180.492  1.00  0.00     0.000 C 
ENDROOT
BRANCH   1   2
ATOM      2  C   UNL     1     173.421 176.583 180.816  1.00  0.00     0.000 C 
BRANCH   2   3
ATOM      3  C   UNL     1     174.407 177.344 179.907  1.00  0.00     0.000 C 
BRANCH   3   4
ATOM      4  C   UNL     1     175.667 176.554 179.500  1.00  0.00    -0.000 C 
BRANCH   4   5
ATOM      5  C   UNL     1     177.001 177.173 179.964  1.00  0.00    -0.000 C 
BRANCH   5   6
ATOM      6  C   UNL     1     176.926 177.944 181.295  1.00  0.00    -0.000 C 
BRANCH   6   7
ATOM      7  C   UNL     1     177.305 177.077 182.507  1.00  0.00    -0.000 C 
BRANCH   7   8
ATOM      8  C   UNL     1     176.067 176.623 183.309  1.00  0.00    -0.000 C 
BRANCH   8   9
ATOM      9  C   UNL     1     175.821 175.104 183.260  1.00  0.00    -0.000 C 
BRANCH   9  10
ATOM     10  C   UNL     1     176.785 174.370 182.314  1.00  0.00    -0.000 C 
BRANCH  10  11
ATOM     11  C   UNL     1     176.187 173.066 181.762  1.00  0.00    -0.003 C 
ATOM     12  C   UNL     1     176.353 172.937 180.249  1.00  0.00     0.004 C 
ENDBRANCH  10  11
ENDBRANCH   9  10
ENDBRANCH   8   9
ENDBRANCH   7   8
ENDBRANCH   6   7
ENDBRANCH   5   6
ENDBRANCH   4   5
ENDBRANCH   3   4
ENDBRANCH   2   3
ENDBRANCH   1   2
BRANCH   1  13
ATOM     13  C   UNL     1     172.522 174.315 181.602  1.00  0.00     0.000 C 
BRANCH  13  14
ATOM     14  C   UNL     1     172.229 175.181 182.837  1.00  0.00     0.000 C 
BRANCH  14  15
ATOM     15  C   UNL     1     170.736 175.218 183.201  1.00  0.00     0.000 C 
BRANCH  15  16
ATOM     16  C   UNL     1     170.193 176.656 183.169  1.00  0.00     0.000 C 
BRANCH  16  17
ATOM     17  C   UNL     1     169.114 176.856 182.084  1.00  0.00     0.000 C 
BRANCH  17  18
ATOM     18  C   UNL     1     169.681 177.182 180.691  1.00  0.00     0.000 C 
BRANCH  18  19
ATOM     19  C   UNL     1     169.703 175.968 179.753  1.00  0.00     0.000 C 
BRANCH  19  20
ATOM     20  C   UNL     1     169.918 176.393 178.295  1.00  0.00     0.006 C 
BRANCH  20  21
ATOM     21  C   UNL     1     171.032 177.440 178.189  1.00  0.00     0.053 C 
BRANCH  21  22
ATOM     22  C   UNL     1     171.777 177.291 176.900  1.00  0.00     0.041 C 
ATOM     23  O   UNL     1     171.259 176.664 175.939  1.00  0.00    -0.550 OA
ATOM     24  O   UNL     1     173.026 177.879 176.745  1.00  0.00    -0.550 OA
ENDBRANCH  21  22
ENDBRANCH  20  21
ENDBRANCH  19  20
ENDBRANCH  18  19
ENDBRANCH  17  18
ENDBRANCH  16  17
ENDBRANCH  15  16
ENDBRANCH  14  15
ENDBRANCH  13  14
ENDBRANCH   1  13
TORSDOF 20
ENDMDL
MODEL 9
REMARK VINA RESULT:    -3.735      2.156      6.027
REMARK INTER + INTRA:         -11.960
REMARK INTER:                  -8.133
REMARK INTRA:                  -3.828
REMARK UNBOUND:                -3.860
REMARK SMILES CCCCCCCCCCCCCCCCCCCCCC(=O)[O-]
REMARK SMILES IDX 12 1 11 2 10 3 9 4 8 5 7 6 6 7 5 8 4 9 3 10 2 11 1 12 13 13
REMARK SMILES IDX 14 14 15 15 16 16 17 17 18 18 19 19 20 20 21 21 22 22 23 23
REMARK SMILES IDX 24 24
REMARK H PARENT
REMARK Flexibility Score: inf
ROOT
ATOM      1  C   UNL     1     173.478 175.802 180.221  1.00  0.00     0.000 C 
ENDROOT
BRANCH   1   2
ATOM      2  C   UNL     1     173.201 177.000 181.150  1.00  0.00     0.000 C 
BRANCH   2   3
ATOM      3  C   UNL     1     172.624 176.636 182.533  1.00  0.00     0.000 C 
BRANCH   3   4
ATOM      4  C   UNL     1     171.648 175.443 182.543  1.00  0.00    -0.000 C 
BRANCH   4   5
ATOM      5  C   UNL     1     170.338 175.680 183.321  1.00  0.00    -0.000 C 
BRANCH   5   6
ATOM      6  C   UNL     1     169.572 176.955 182.921  1.00  0.00    -0.000 C 
BRANCH   6   7
ATOM      7  C   UNL     1     168.586 176.718 181.764  1.00  0.00    -0.000 C 
BRANCH   7   8
ATOM      8  C   UNL     1     169.142 177.212 180.412  1.00  0.00    -0.000 C 
BRANCH   8   9
ATOM      9  C   UNL     1     169.227 176.112 179.339  1.00  0.00    -0.000 C 
BRANCH   9  10
ATOM     10  C   UNL     1     170.434 176.280 178.401  1.00  0.00    -0.000 C 
BRANCH  10  11
ATOM     11  C   UNL     1     170.995 177.711 178.417  1.00  0.00    -0.003 C 
ATOM     12  C   UNL     1     171.588 178.125 177.072  1.00  0.00     0.004 C 
ENDBRANCH  10  11
ENDBRANCH   9  10
ENDBRANCH   8   9
ENDBRANCH   7   8
ENDBRANCH   6   7
ENDBRANCH   5   6
ENDBRANCH   4   5
ENDBRANCH   3   4
ENDBRANCH   2   3
ENDBRANCH   1   2
BRANCH   1  13
ATOM     13  C   UNL     1     174.756 175.980 179.386  1.00  0.00     0.000 C 
BRANCH  13  14
ATOM     14  C   UNL     1     175.131 177.455 179.177  1.00  0.00     0.000 C 
BRANCH  14  15
ATOM     15  C   UNL     1     176.544 177.791 179.680  1.00  0.00     0.000 C 
BRANCH  15  16
ATOM     16  C   UNL     1     176.997 176.799 180.764  1.00  0.00     0.000 C 
BRANCH  16  17
ATOM     17  C   UNL     1     176.813 177.358 182.191  1.00  0.00     0.000 C 
BRANCH  17  18
ATOM     18  C   UNL     1     176.240 176.338 183.192  1.00  0.00     0.000 C 
BRANCH  18  19
ATOM     19  C   UNL     1     176.641 174.893 182.871  1.00  0.00     0.000 C 
BRANCH  19  20
ATOM     20  C   UNL     1     175.412 174.031 182.552  1.00  0.00     0.006 C 
BRANCH  20  21
ATOM     21  C   UNL     1     175.813 172.781 181.761  1.00  0.00     0.053 C 
BRANCH  21  22
ATOM     22  C   UNL     1     174.739 172.401 180.792  1.00  0.00     0.041 C 
ATOM     23  O   UNL     1     173.595 172.081 181.209  1.00  0.00    -0.550 OA
ATOM     24  O   UNL     1     174.987 172.438 179.425  1.00  0.00    -0.550 OA
ENDBRANCH  21  22
ENDBRANCH  20  21
ENDBRANCH  19  20
ENDBRANCH  18  19
ENDBRANCH  17  18
ENDBRANCH  16  17
ENDBRANCH  15  16
ENDBRANCH  14  15
ENDBRANCH  13  14
ENDBRANCH   1  13
TORSDOF 20
ENDMDL
