MODEL 1
REMARK VINA RESULT:    -1.452      0.000      0.000
REMARK INTER + INTRA:          -1.045
REMARK INTER:                  -1.791
REMARK INTRA:                   0.746
REMARK UNBOUND:                 0.746
REMARK SMILES CC1=CC=CC(C)(C)CC1=O
REMARK SMILES IDX 1 1 2 2 3 3 10 4 11 5 9 6 4 8 5 9 6 10 7 11 8 12
REMARK H PARENT
REMARK Flexibility Score: 80.00
ROOT
ATOM      1  C   UNL     1      32.114  59.953   8.512  1.00  0.00     0.048 C 
ATOM      2  C   UNL     1      31.595  59.226   9.729  1.00  0.00    -0.008 C 
ATOM      3  C   UNL     1      31.369  59.954  10.844  1.00  0.00     0.007 C 
ENDROOT
BRANCH   2   4
ATOM      4  C   UNL     1      31.300  57.779   9.578  1.00  0.00     0.159 C 
ATOM      5  O   UNL     1      31.282  57.280   8.419  1.00  0.00    -0.295 OA
BRANCH   4   6
ATOM      6  C   UNL     1      31.035  56.864  10.734  1.00  0.00     0.091 CG0
ATOM      7  G   UNL     1      29.811  57.288  11.577  1.00  0.00     0.000 G0
ENDBRANCH   4   6
ENDBRANCH   2   4
BRANCH   3   8
ATOM      8  C   UNL     1      30.844  59.534  12.165  1.00  0.00    -0.003 C 
ATOM      9  C   UNL     1      30.173  58.422  12.491  1.00  0.00    -0.020 C 
BRANCH   9  10
ATOM     10  C   UNL     1      29.808  57.289  11.563  1.00  0.00    -0.010 CG0
ATOM     11  C   UNL     1      29.396  56.071  12.422  1.00  0.00     0.016 C 
ATOM     12  C   UNL     1      28.596  57.689  10.691  1.00  0.00     0.016 C 
ATOM     13  G   UNL     1      31.040  56.887  10.721  1.00  0.00     0.000 G0
ENDBRANCH   9  10
ENDBRANCH   3   8
TORSDOF 0
ENDMDL
MODEL 2
REMARK VINA RESULT:    -1.381      1.682      2.657
REMARK INTER + INTRA:          -0.958
REMARK INTER:                  -1.695
REMARK INTRA:                   0.737
REMARK UNBOUND:                 0.746
REMARK SMILES CC1=CC=CC(C)(C)CC1=O
REMARK SMILES IDX 1 1 2 2 3 3 10 4 11 5 9 6 4 8 5 9 6 10 7 11 8 12
REMARK H PARENT
REMARK Flexibility Score: 80.00
ROOT
ATOM      1  C   UNL     1      30.436  61.700  11.033  1.00  0.00     0.048 C 
ATOM      2  C   UNL     1      30.805  60.257  10.785  1.00  0.00    -0.008 C 
ATOM      3  C   UNL     1      30.586  59.374  11.783  1.00  0.00     0.007 C 
ENDROOT
BRANCH   2   4
ATOM      4  C   UNL     1      31.309  59.911   9.432  1.00  0.00     0.159 C 
ATOM      5  O   UNL     1      31.208  60.766   8.509  1.00  0.00    -0.295 OA
BRANCH   4   6
ATOM      6  C   UNL     1      31.950  58.599   9.099  1.00  0.00     0.091 CG0
ATOM      7  G   UNL     1      31.018  57.389   9.335  1.00  0.00     0.000 G0
ENDBRANCH   4   6
ENDBRANCH   2   4
BRANCH   3   8
ATOM      8  C   UNL     1      30.818  57.911  11.828  1.00  0.00    -0.003 C 
ATOM      9  C   UNL     1      30.995  57.054  10.815  1.00  0.00    -0.020 C 
BRANCH   9  10
ATOM     10  C   UNL     1      31.027  57.396   9.344  1.00  0.00    -0.010 CG0
ATOM     11  C   UNL     1      31.633  56.196   8.580  1.00  0.00     0.016 C 
ATOM     12  C   UNL     1      29.589  57.615   8.822  1.00  0.00     0.016 C 
ATOM     13  G   UNL     1      31.938  58.622   9.114  1.00  0.00     0.000 G0
ENDBRANCH   9  10
ENDBRANCH   3   8
TORSDOF 0
ENDMDL
MODEL 3
REMARK VINA RESULT:    -1.348      2.315      3.326
REMARK INTER + INTRA:          -0.917
REMARK INTER:                  -1.685
REMARK INTRA:                   0.768
REMARK UNBOUND:                 0.746
REMARK SMILES CC1=CC=CC(C)(C)CC1=O
REMARK SMILES IDX 1 1 2 2 3 3 10 4 11 5 9 6 4 8 5 9 6 10 7 11 8 12
REMARK H PARENT
REMARK Flexibility Score: 80.00
ROOT
ATOM      1  C   UNL     1      31.336  60.842  14.604  1.00  0.00     0.048 C 
ATOM      2  C   UNL     1      31.278  59.491  13.931  1.00  0.00    -0.008 C 
ATOM      3  C   UNL     1      31.767  58.432  14.611  1.00  0.00     0.007 C 
ENDROOT
BRANCH   2   4
ATOM      4  C   UNL     1      30.615  59.425  12.604  1.00  0.00     0.159 C 
ATOM      5  O   UNL     1      29.931  60.412  12.216  1.00  0.00    -0.295 OA
BRANCH   4   6
ATOM      6  C   UNL     1      30.725  58.248  11.684  1.00  0.00     0.091 CG0
ATOM      7  G   UNL     1      30.148  56.948  12.287  1.00  0.00     0.000 G0
ENDBRANCH   4   6
ENDBRANCH   2   4
BRANCH   3   8
ATOM      8  C   UNL     1      31.824  57.001  14.230  1.00  0.00    -0.003 C 
ATOM      9  C   UNL     1      31.146  56.355  13.273  1.00  0.00    -0.020 C 
BRANCH   9  10
ATOM     10  C   UNL     1      30.155  56.962  12.310  1.00  0.00    -0.010 CG0
ATOM     11  C   UNL     1      29.909  55.951  11.166  1.00  0.00     0.016 C 
ATOM     12  C   UNL     1      28.807  57.208  13.026  1.00  0.00     0.016 C 
ATOM     13  G   UNL     1      30.747  58.249  11.695  1.00  0.00     0.000 G0
ENDBRANCH   9  10
ENDBRANCH   3   8
TORSDOF 0
ENDMDL
MODEL 4
REMARK VINA RESULT:    -1.327      1.918      2.951
REMARK INTER + INTRA:          -0.891
REMARK INTER:                  -1.630
REMARK INTRA:                   0.739
REMARK UNBOUND:                 0.746
REMARK SMILES CC1=CC=CC(C)(C)CC1=O
REMARK SMILES IDX 1 1 2 2 3 3 10 4 11 5 9 6 4 8 5 9 6 10 7 11 8 12
REMARK H PARENT
REMARK Flexibility Score: 80.00
ROOT
ATOM      1  C   UNL     1      30.290  61.728  11.663  1.00  0.00     0.048 C 
ATOM      2  C   UNL     1      30.502  60.505  10.804  1.00  0.00    -0.008 C 
ATOM      3  C   UNL     1      31.632  60.445  10.066  1.00  0.00     0.007 C 
ENDROOT
BRANCH   2   4
ATOM      4  C   UNL     1      29.485  59.427  10.899  1.00  0.00     0.159 C 
ATOM      5  O   UNL     1      28.614  59.491  11.811  1.00  0.00    -0.295 OA
BRANCH   4   6
ATOM      6  C   UNL     1      29.422  58.264   9.957  1.00  0.00     0.091 CG0
ATOM      7  G   UNL     1      30.711  57.413   9.954  1.00  0.00     0.000 G0
ENDBRANCH   4   6
ENDBRANCH   2   4
BRANCH   3   8
ATOM      8  C   UNL     1      32.122  59.379   9.161  1.00  0.00    -0.003 C 
ATOM      9  C   UNL     1      31.762  58.092   9.101  1.00  0.00    -0.020 C 
BRANCH   9  10
ATOM     10  C   UNL     1      30.716  57.411   9.951  1.00  0.00    -0.010 CG0
ATOM     11  C   UNL     1      30.364  56.056   9.296  1.00  0.00     0.016 C 
ATOM     12  C   UNL     1      31.284  57.127  11.360  1.00  0.00     0.016 C 
ATOM     13  G   UNL     1      29.434  58.274   9.989  1.00  0.00     0.000 G0
ENDBRANCH   9  10
ENDBRANCH   3   8
TORSDOF 0
ENDMDL
MODEL 5
REMARK VINA RESULT:    -1.257      2.625      3.862
REMARK INTER + INTRA:          -0.805
REMARK INTER:                  -1.552
REMARK INTRA:                   0.747
REMARK UNBOUND:                 0.746
REMARK SMILES CC1=CC=CC(C)(C)CC1=O
REMARK SMILES IDX 1 1 2 2 3 3 10 4 11 5 9 6 4 8 5 9 6 10 7 11 8 12
REMARK H PARENT
REMARK Flexibility Score: 80.00
ROOT
ATOM      1  C   UNL     1      31.631  58.471  15.543  1.00  0.00     0.048 C 
ATOM      2  C   UNL     1      31.160  58.075  14.164  1.00  0.00    -0.008 C 
ATOM      3  C   UNL     1      31.521  56.857  13.705  1.00  0.00     0.007 C 
ENDROOT
BRANCH   2   4
ATOM      4  C   UNL     1      30.270  59.028  13.454  1.00  0.00     0.159 C 
ATOM      5  O   UNL     1      29.774  59.992  14.099  1.00  0.00    -0.295 OA
BRANCH   4   6
ATOM      6  C   UNL     1      29.937  58.918  11.997  1.00  0.00     0.091 CG0
ATOM      7  G   UNL     1      29.232  57.592  11.633  1.00  0.00     0.000 G0
ENDBRANCH   4   6
ENDBRANCH   2   4
BRANCH   3   8
ATOM      8  C   UNL     1      31.195  56.188  12.424  1.00  0.00    -0.003 C 
ATOM      9  C   UNL     1      30.224  56.472  11.547  1.00  0.00    -0.020 C 
BRANCH   9  10
ATOM     10  C   UNL     1      29.221  57.595  11.651  1.00  0.00    -0.010 CG0
ATOM     11  C   UNL     1      28.553  57.779  10.269  1.00  0.00     0.016 C 
ATOM     12  C   UNL     1      28.117  57.224  12.668  1.00  0.00     0.016 C 
ATOM     13  G   UNL     1      29.947  58.911  12.012  1.00  0.00     0.000 G0
ENDBRANCH   9  10
ENDBRANCH   3   8
TORSDOF 0
ENDMDL
MODEL 6
REMARK VINA RESULT:    -1.180      2.286      3.193
REMARK INTER + INTRA:          -0.711
REMARK INTER:                  -1.464
REMARK INTRA:                   0.753
REMARK UNBOUND:                 0.746
REMARK SMILES CC1=CC=CC(C)(C)CC1=O
REMARK SMILES IDX 1 1 2 2 3 3 10 4 11 5 9 6 4 8 5 9 6 10 7 11 8 12
REMARK H PARENT
REMARK Flexibility Score: 80.00
ROOT
ATOM      1  C   UNL     1      30.715  59.995  12.682  1.00  0.00     0.048 C 
ATOM      2  C   UNL     1      30.274  58.944  11.692  1.00  0.00    -0.008 C 
ATOM      3  C   UNL     1      31.165  57.985  11.357  1.00  0.00     0.007 C 
ENDROOT
BRANCH   2   4
ATOM      4  C   UNL     1      28.866  59.004  11.224  1.00  0.00     0.159 C 
ATOM      5  O   UNL     1      28.056  59.760  11.829  1.00  0.00    -0.295 OA
BRANCH   4   6
ATOM      6  C   UNL     1      28.349  58.223  10.055  1.00  0.00     0.091 CG0
ATOM      7  G   UNL     1      28.466  56.694  10.245  1.00  0.00     0.000 G0
ENDBRANCH   4   6
ENDBRANCH   2   4
BRANCH   3   8
ATOM      8  C   UNL     1      31.017  56.825  10.447  1.00  0.00    -0.003 C 
ATOM      9  C   UNL     1      29.899  56.257   9.978  1.00  0.00    -0.020 C 
BRANCH   9  10
ATOM     10  C   UNL     1      28.483  56.702  10.254  1.00  0.00    -0.010 CG0
ATOM     11  C   UNL     1      27.551  56.015   9.229  1.00  0.00     0.016 C 
ATOM     12  C   UNL     1      28.053  56.248  11.668  1.00  0.00     0.016 C 
ATOM     13  G   UNL     1      28.369  58.231  10.058  1.00  0.00     0.000 G0
ENDBRANCH   9  10
ENDBRANCH   3   8
TORSDOF 0
ENDMDL
MODEL 7
REMARK VINA RESULT:    -1.176      1.941      3.041
REMARK INTER + INTRA:          -0.706
REMARK INTER:                  -1.450
REMARK INTRA:                   0.745
REMARK UNBOUND:                 0.746
REMARK SMILES CC1=CC=CC(C)(C)CC1=O
REMARK SMILES IDX 1 1 2 2 3 3 10 4 11 5 9 6 4 8 5 9 6 10 7 11 8 12
REMARK H PARENT
REMARK Flexibility Score: 80.00
ROOT
ATOM      1  C   UNL     1      31.509  59.768  14.162  1.00  0.00     0.048 C 
ATOM      2  C   UNL     1      30.704  59.239  13.000  1.00  0.00    -0.008 C 
ATOM      3  C   UNL     1      30.152  60.140  12.159  1.00  0.00     0.007 C 
ENDROOT
BRANCH   2   4
ATOM      4  C   UNL     1      30.649  57.764  12.831  1.00  0.00     0.159 C 
ATOM      5  O   UNL     1      31.424  57.044  13.519  1.00  0.00    -0.295 OA
BRANCH   4   6
ATOM      6  C   UNL     1      29.707  57.075  11.893  1.00  0.00     0.091 CG0
ATOM      7  G   UNL     1      29.884  57.512  10.421  1.00  0.00     0.000 G0
ENDBRANCH   4   6
ENDBRANCH   2   4
BRANCH   3   8
ATOM      8  C   UNL     1      29.343  59.928  10.935  1.00  0.00    -0.003 C 
ATOM      9  C   UNL     1      29.226  58.828  10.181  1.00  0.00    -0.020 C 
BRANCH   9  10
ATOM     10  C   UNL     1      29.891  57.495  10.428  1.00  0.00    -0.010 CG0
ATOM     11  C   UNL     1      29.191  56.434   9.549  1.00  0.00     0.016 C 
ATOM     12  C   UNL     1      31.376  57.561  10.005  1.00  0.00     0.016 C 
ATOM     13  G   UNL     1      29.710  57.089  11.908  1.00  0.00     0.000 G0
ENDBRANCH   9  10
ENDBRANCH   3   8
TORSDOF 0
ENDMDL
MODEL 8
REMARK VINA RESULT:    -1.084      2.250      4.097
REMARK INTER + INTRA:          -0.591
REMARK INTER:                  -1.330
REMARK INTRA:                   0.739
REMARK UNBOUND:                 0.746
REMARK SMILES CC1=CC=CC(C)(C)CC1=O
REMARK SMILES IDX 1 1 2 2 3 3 10 4 11 5 9 6 4 8 5 9 6 10 7 11 8 12
REMARK H PARENT
REMARK Flexibility Score: 80.00
ROOT
ATOM      1  C   UNL     1      29.095  56.992  15.475  1.00  0.00     0.048 C 
ATOM      2  C   UNL     1      29.307  56.825  13.989  1.00  0.00    -0.008 C 
ATOM      3  C   UNL     1      28.242  57.010  13.179  1.00  0.00     0.007 C 
ENDROOT
BRANCH   2   4
ATOM      4  C   UNL     1      30.692  56.546  13.530  1.00  0.00     0.159 C 
ATOM      5  O   UNL     1      31.640  56.657  14.356  1.00  0.00    -0.295 OA
BRANCH   4   6
ATOM      6  C   UNL     1      31.031  56.122  12.134  1.00  0.00     0.091 CG0
ATOM      7  G   UNL     1      30.603  57.152  11.065  1.00  0.00     0.000 G0
ENDBRANCH   4   6
ENDBRANCH   2   4
BRANCH   3   8
ATOM      8  C   UNL     1      28.146  56.942  11.702  1.00  0.00    -0.003 C 
ATOM      9  C   UNL     1      29.123  57.009  10.789  1.00  0.00    -0.020 C 
BRANCH   9  10
ATOM     10  C   UNL     1      30.601  57.144  11.065  1.00  0.00    -0.010 CG0
ATOM     11  C   UNL     1      31.370  56.795   9.770  1.00  0.00     0.016 C 
ATOM     12  C   UNL     1      30.937  58.605  11.439  1.00  0.00     0.016 C 
ATOM     13  G   UNL     1      31.021  56.137  12.159  1.00  0.00     0.000 G0
ENDBRANCH   9  10
ENDBRANCH   3   8
TORSDOF 0
ENDMDL
MODEL 9
REMARK VINA RESULT:    -0.967      1.817      2.662
REMARK INTER + INTRA:          -0.448
REMARK INTER:                  -1.207
REMARK INTRA:                   0.759
REMARK UNBOUND:                 0.746
REMARK SMILES CC1=CC=CC(C)(C)CC1=O
REMARK SMILES IDX 1 1 2 2 3 3 10 4 11 5 9 6 4 8 5 9 6 10 7 11 8 12
REMARK H PARENT
REMARK Flexibility Score: 80.00
ROOT
ATOM      1  C   UNL     1      30.000  62.233  12.289  1.00  0.00     0.048 C 
ATOM      2  C   UNL     1      30.378  60.804  11.979  1.00  0.00    -0.008 C 
ATOM      3  C   UNL     1      30.549  59.961  13.021  1.00  0.00     0.007 C 
ENDROOT
BRANCH   2   4
ATOM      4  C   UNL     1      30.457  60.421  10.546  1.00  0.00     0.159 C 
ATOM      5  O   UNL     1      30.020  61.224   9.677  1.00  0.00    -0.295 OA
BRANCH   4   6
ATOM      6  C   UNL     1      31.045  59.129  10.068  1.00  0.00     0.091 CG0
ATOM      7  G   UNL     1      30.318  57.885  10.627  1.00  0.00     0.000 G0
ENDBRANCH   4   6
ENDBRANCH   2   4
BRANCH   3   8
ATOM      8  C   UNL     1      30.891  58.519  13.032  1.00  0.00    -0.003 C 
ATOM      9  C   UNL     1      30.793  57.621  12.044  1.00  0.00    -0.020 C 
BRANCH   9  10
ATOM     10  C   UNL     1      30.322  57.885  10.634  1.00  0.00    -0.010 CG0
ATOM     11  C   UNL     1      30.709  56.672   9.758  1.00  0.00     0.016 C 
ATOM     12  C   UNL     1      28.782  58.020  10.608  1.00  0.00     0.016 C 
ATOM     13  G   UNL     1      31.039  59.133  10.071  1.00  0.00     0.000 G0
ENDBRANCH   9  10
ENDBRANCH   3   8
TORSDOF 0
ENDMDL
