MODEL 1
REMARK VINA RESULT:    -5.413      0.000      0.000
REMARK INTER + INTRA:          -6.753
REMARK INTER:                  -6.521
REMARK INTRA:                  -0.232
REMARK UNBOUND:                -0.232
REMARK SMILES O=c1c(O)c(-c2ccc(O)c(O)c2)oc2cc(O)cc(O)c12
REMARK SMILES IDX 5 1 3 2 2 3 1 4 22 5 20 6 19 7 17 8 16 9 15 10 14 11 6 12
REMARK SMILES IDX 7 13 8 14 9 15 13 16 11 17 10 18 12 20 4 22 21 24 18 26
REMARK H PARENT 10 19 12 21 4 23 21 25 18 27
REMARK Flexibility Score: inf
ROOT
ATOM      1  C   UNL     1     137.554 129.913 118.988  1.00  0.00     0.180 A 
ATOM      2  C   UNL     1     136.191 130.045 119.304  1.00  0.00     0.208 A 
ATOM      3  C   UNL     1     135.259 129.219 118.657  1.00  0.00     0.238 A 
ATOM      4  O   UNL     1     134.049 129.290 118.999  1.00  0.00    -0.285 OA
ATOM      5  C   UNL     1     135.693 128.310 117.661  1.00  0.00     0.111 A 
ATOM      6  C   UNL     1     134.830 127.456 116.909  1.00  0.00     0.134 A 
ATOM      7  C   UNL     1     135.383 126.522 116.024  1.00  0.00     0.093 A 
ATOM      8  C   UNL     1     136.760 126.454 115.816  1.00  0.00     0.123 A 
ATOM      9  C   UNL     1     137.609 127.321 116.505  1.00  0.00     0.094 A 
ATOM     10  C   UNL     1     137.091 128.238 117.423  1.00  0.00     0.146 A 
ATOM     11  O   UNL     1     137.934 129.030 118.073  1.00  0.00    -0.452 OA
ENDROOT
BRANCH   1  12
ATOM     12  C   UNL     1     138.597 130.738 119.637  1.00  0.00     0.025 A 
ATOM     13  C   UNL     1     138.929 130.566 120.992  1.00  0.00     0.016 A 
ATOM     14  C   UNL     1     139.935 131.340 121.577  1.00  0.00     0.051 A 
ATOM     15  C   UNL     1     140.633 132.286 120.815  1.00  0.00     0.157 A 
ATOM     16  C   UNL     1     139.315 131.673 118.872  1.00  0.00     0.062 A 
ATOM     17  C   UNL     1     140.323 132.450 119.455  1.00  0.00     0.158 A 
BRANCH  15  18
ATOM     18  O   UNL     1     141.635 133.058 121.401  1.00  0.00    -0.504 OA
ATOM     19  H   UNL     1     141.429 133.948 121.842  1.00  0.00     0.293 HD
ENDBRANCH  15  18
BRANCH  17  20
ATOM     20  O   UNL     1     141.003 133.378 118.667  1.00  0.00    -0.504 OA
ATOM     21  H   UNL     1     140.924 133.388 117.658  1.00  0.00     0.293 HD
ENDBRANCH  17  20
ENDBRANCH   1  12
BRANCH   2  22
ATOM     22  O   UNL     1     135.773 131.002 120.234  1.00  0.00    -0.502 OA
ATOM     23  H   UNL     1     135.118 130.789 120.976  1.00  0.00     0.293 HD
ENDBRANCH   2  22
BRANCH   6  24
ATOM     24  O   UNL     1     133.434 127.501 116.972  1.00  0.00    -0.507 OA
ATOM     25  H   UNL     1     132.886 128.340 117.072  1.00  0.00     0.293 HD
ENDBRANCH   6  24
BRANCH   8  26
ATOM     26  O   UNL     1     137.275 125.524 114.916  1.00  0.00    -0.508 OA
ATOM     27  H   UNL     1     138.219 125.599 114.556  1.00  0.00     0.293 HD
ENDBRANCH   8  26
TORSDOF 6
ENDMDL
MODEL 2
REMARK VINA RESULT:    -5.273      2.436      3.036
REMARK INTER + INTRA:          -6.584
REMARK INTER:                  -6.270
REMARK INTRA:                  -0.314
REMARK UNBOUND:                -0.232
REMARK SMILES O=c1c(O)c(-c2ccc(O)c(O)c2)oc2cc(O)cc(O)c12
REMARK SMILES IDX 5 1 3 2 2 3 1 4 22 5 20 6 19 7 17 8 16 9 15 10 14 11 6 12
REMARK SMILES IDX 7 13 8 14 9 15 13 16 11 17 10 18 12 20 4 22 21 24 18 26
REMARK H PARENT 10 19 12 21 4 23 21 25 18 27
REMARK Flexibility Score: inf
ROOT
ATOM      1  C   UNL     1     136.527 130.351 120.081  1.00  0.00     0.180 A 
ATOM      2  C   UNL     1     135.203 129.980 119.787  1.00  0.00     0.208 A 
ATOM      3  C   UNL     1     134.969 129.033 118.778  1.00  0.00     0.238 A 
ATOM      4  O   UNL     1     133.787 128.651 118.571  1.00  0.00    -0.285 OA
ATOM      5  C   UNL     1     136.055 128.510 118.035  1.00  0.00     0.111 A 
ATOM      6  C   UNL     1     135.931 127.578 116.960  1.00  0.00     0.134 A 
ATOM      7  C   UNL     1     137.084 127.049 116.368  1.00  0.00     0.093 A 
ATOM      8  C   UNL     1     138.354 127.462 116.767  1.00  0.00     0.123 A 
ATOM      9  C   UNL     1     138.487 128.414 117.780  1.00  0.00     0.094 A 
ATOM     10  C   UNL     1     137.357 128.932 118.416  1.00  0.00     0.146 A 
ATOM     11  O   UNL     1     137.528 129.818 119.389  1.00  0.00    -0.452 OA
ENDROOT
BRANCH   1  12
ATOM     12  C   UNL     1     136.855 131.332 121.140  1.00  0.00     0.025 A 
ATOM     13  C   UNL     1     137.018 132.697 120.848  1.00  0.00     0.016 A 
ATOM     14  C   UNL     1     137.303 133.608 121.868  1.00  0.00     0.051 A 
ATOM     15  C   UNL     1     137.415 133.172 123.195  1.00  0.00     0.157 A 
ATOM     16  C   UNL     1     136.947 130.903 122.474  1.00  0.00     0.062 A 
ATOM     17  C   UNL     1     137.232 131.812 123.499  1.00  0.00     0.158 A 
BRANCH  15  18
ATOM     18  O   UNL     1     137.701 134.082 124.211  1.00  0.00    -0.504 OA
ATOM     19  H   UNL     1     138.116 134.986 124.013  1.00  0.00     0.293 HD
ENDBRANCH  15  18
BRANCH  17  20
ATOM     20  O   UNL     1     137.329 131.347 124.810  1.00  0.00    -0.504 OA
ATOM     21  H   UNL     1     137.925 130.568 125.061  1.00  0.00     0.293 HD
ENDBRANCH  17  20
ENDBRANCH   1  12
BRANCH   2  22
ATOM     22  O   UNL     1     134.139 130.565 120.479  1.00  0.00    -0.502 OA
ATOM     23  H   UNL     1     133.923 130.335 121.441  1.00  0.00     0.293 HD
ENDBRANCH   2  22
BRANCH   6  24
ATOM     24  O   UNL     1     134.709 127.162 116.422  1.00  0.00    -0.507 OA
ATOM     25  H   UNL     1     134.131 127.713 115.807  1.00  0.00     0.293 HD
ENDBRANCH   6  24
BRANCH   8  26
ATOM     26  O   UNL     1     139.480 126.927 116.145  1.00  0.00    -0.508 OA
ATOM     27  H   UNL     1     140.163 126.384 116.659  1.00  0.00     0.293 HD
ENDBRANCH   8  26
TORSDOF 6
ENDMDL
MODEL 3
REMARK VINA RESULT:    -5.232      2.616      7.192
REMARK INTER + INTRA:          -6.535
REMARK INTER:                  -6.279
REMARK INTRA:                  -0.256
REMARK UNBOUND:                -0.232
REMARK SMILES O=c1c(O)c(-c2ccc(O)c(O)c2)oc2cc(O)cc(O)c12
REMARK SMILES IDX 5 1 3 2 2 3 1 4 22 5 20 6 19 7 17 8 16 9 15 10 14 11 6 12
REMARK SMILES IDX 7 13 8 14 9 15 13 16 11 17 10 18 12 20 4 22 21 24 18 26
REMARK H PARENT 10 19 12 21 4 23 21 25 18 27
REMARK Flexibility Score: inf
ROOT
ATOM      1  C   UNL     1     135.840 128.432 116.929  1.00  0.00     0.180 A 
ATOM      2  C   UNL     1     136.834 127.526 116.521  1.00  0.00     0.208 A 
ATOM      3  C   UNL     1     138.158 127.975 116.403  1.00  0.00     0.238 A 
ATOM      4  O   UNL     1     139.055 127.141 116.109  1.00  0.00    -0.285 OA
ATOM      5  C   UNL     1     138.465 129.337 116.639  1.00  0.00     0.111 A 
ATOM      6  C   UNL     1     139.766 129.913 116.506  1.00  0.00     0.134 A 
ATOM      7  C   UNL     1     139.970 131.250 116.869  1.00  0.00     0.093 A 
ATOM      8  C   UNL     1     138.912 132.049 117.299  1.00  0.00     0.123 A 
ATOM      9  C   UNL     1     137.626 131.513 117.381  1.00  0.00     0.094 A 
ATOM     10  C   UNL     1     137.397 130.172 117.063  1.00  0.00     0.146 A 
ATOM     11  O   UNL     1     136.164 129.696 117.175  1.00  0.00    -0.452 OA
ENDROOT
BRANCH   1  12
ATOM     12  C   UNL     1     134.424 128.030 117.090  1.00  0.00     0.025 A 
ATOM     13  C   UNL     1     133.600 127.792 115.977  1.00  0.00     0.016 A 
ATOM     14  C   UNL     1     132.274 127.390 116.153  1.00  0.00     0.051 A 
ATOM     15  C   UNL     1     131.755 127.206 117.442  1.00  0.00     0.157 A 
ATOM     16  C   UNL     1     133.907 127.824 118.379  1.00  0.00     0.062 A 
ATOM     17  C   UNL     1     132.579 127.420 118.560  1.00  0.00     0.158 A 
BRANCH  15  18
ATOM     18  O   UNL     1     130.432 126.806 117.616  1.00  0.00    -0.504 OA
ATOM     19  H   UNL     1     130.100 125.908 117.280  1.00  0.00     0.293 HD
ENDBRANCH  15  18
BRANCH  17  20
ATOM     20  O   UNL     1     132.096 127.239 119.855  1.00  0.00    -0.504 OA
ATOM     21  H   UNL     1     132.677 127.388 120.671  1.00  0.00     0.293 HD
ENDBRANCH  17  20
ENDBRANCH   1  12
BRANCH   2  22
ATOM     22  O   UNL     1     136.498 126.203 116.217  1.00  0.00    -0.502 OA
ATOM     23  H   UNL     1     135.539 125.883 116.167  1.00  0.00     0.293 HD
ENDBRANCH   2  22
BRANCH   6  24
ATOM     24  O   UNL     1     140.876 129.229 116.001  1.00  0.00    -0.507 OA
ATOM     25  H   UNL     1     141.690 129.666 115.600  1.00  0.00     0.293 HD
ENDBRANCH   6  24
BRANCH   8  26
ATOM     26  O   UNL     1     139.148 133.380 117.637  1.00  0.00    -0.508 OA
ATOM     27  H   UNL     1     138.429 133.958 118.055  1.00  0.00     0.293 HD
ENDBRANCH   8  26
TORSDOF 6
ENDMDL
MODEL 4
REMARK VINA RESULT:    -5.140      1.736      2.430
REMARK INTER + INTRA:          -6.424
REMARK INTER:                  -6.333
REMARK INTRA:                  -0.091
REMARK UNBOUND:                -0.232
REMARK SMILES O=c1c(O)c(-c2ccc(O)c(O)c2)oc2cc(O)cc(O)c12
REMARK SMILES IDX 5 1 3 2 2 3 1 4 22 5 20 6 19 7 17 8 16 9 15 10 14 11 6 12
REMARK SMILES IDX 7 13 8 14 9 15 13 16 11 17 10 18 12 20 4 22 21 24 18 26
REMARK H PARENT 10 19 12 21 4 23 21 25 18 27
REMARK Flexibility Score: inf
ROOT
ATOM      1  C   UNL     1     136.015 129.608 119.262  1.00  0.00     0.180 A 
ATOM      2  C   UNL     1     134.610 129.639 119.291  1.00  0.00     0.208 A 
ATOM      3  C   UNL     1     133.892 128.817 118.408  1.00  0.00     0.238 A 
ATOM      4  O   UNL     1     132.636 128.795 118.490  1.00  0.00    -0.285 OA
ATOM      5  C   UNL     1     134.586 128.016 117.468  1.00  0.00     0.111 A 
ATOM      6  C   UNL     1     133.960 127.178 116.496  1.00  0.00     0.134 A 
ATOM      7  C   UNL     1     134.748 126.349 115.688  1.00  0.00     0.093 A 
ATOM      8  C   UNL     1     136.139 126.373 115.772  1.00  0.00     0.123 A 
ATOM      9  C   UNL     1     136.764 127.228 116.681  1.00  0.00     0.094 A 
ATOM     10  C   UNL     1     136.004 128.039 117.527  1.00  0.00     0.146 A 
ATOM     11  O   UNL     1     136.638 128.822 118.392  1.00  0.00    -0.452 OA
ENDROOT
BRANCH   1  12
ATOM     12  C   UNL     1     136.841 130.435 120.170  1.00  0.00     0.025 A 
ATOM     13  C   UNL     1     137.724 131.409 119.674  1.00  0.00     0.016 A 
ATOM     14  C   UNL     1     138.475 132.195 120.552  1.00  0.00     0.051 A 
ATOM     15  C   UNL     1     138.346 132.029 121.938  1.00  0.00     0.157 A 
ATOM     16  C   UNL     1     136.699 130.287 121.560  1.00  0.00     0.062 A 
ATOM     17  C   UNL     1     137.449 131.072 122.443  1.00  0.00     0.158 A 
BRANCH  15  18
ATOM     18  O   UNL     1     139.097 132.812 122.812  1.00  0.00    -0.504 OA
ATOM     19  H   UNL     1     139.417 132.453 123.705  1.00  0.00     0.293 HD
ENDBRANCH  15  18
BRANCH  17  20
ATOM     20  O   UNL     1     137.292 130.886 123.816  1.00  0.00    -0.504 OA
ATOM     21  H   UNL     1     136.647 131.442 124.363  1.00  0.00     0.293 HD
ENDBRANCH  17  20
ENDBRANCH   1  12
BRANCH   2  22
ATOM     22  O   UNL     1     133.943 130.494 120.173  1.00  0.00    -0.502 OA
ATOM     23  H   UNL     1     133.883 130.311 121.167  1.00  0.00     0.293 HD
ENDBRANCH   2  22
BRANCH   6  24
ATOM     24  O   UNL     1     132.581 127.141 116.266  1.00  0.00    -0.507 OA
ATOM     25  H   UNL     1     131.900 126.747 116.895  1.00  0.00     0.293 HD
ENDBRANCH   6  24
BRANCH   8  26
ATOM     26  O   UNL     1     136.893 125.547 114.941  1.00  0.00    -0.508 OA
ATOM     27  H   UNL     1     137.468 125.925 114.197  1.00  0.00     0.293 HD
ENDBRANCH   8  26
TORSDOF 6
ENDMDL
MODEL 5
REMARK VINA RESULT:    -5.140      1.712      6.546
REMARK INTER + INTRA:          -6.423
REMARK INTER:                  -6.866
REMARK INTRA:                   0.443
REMARK UNBOUND:                -0.232
REMARK SMILES O=c1c(O)c(-c2ccc(O)c(O)c2)oc2cc(O)cc(O)c12
REMARK SMILES IDX 5 1 3 2 2 3 1 4 22 5 20 6 19 7 17 8 16 9 15 10 14 11 6 12
REMARK SMILES IDX 7 13 8 14 9 15 13 16 11 17 10 18 12 20 4 22 21 24 18 26
REMARK H PARENT 10 19 12 21 4 23 21 25 18 27
REMARK Flexibility Score: inf
ROOT
ATOM      1  C   UNL     1     137.148 129.680 119.442  1.00  0.00     0.180 A 
ATOM      2  C   UNL     1     135.969 130.065 120.103  1.00  0.00     0.208 A 
ATOM      3  C   UNL     1     136.048 131.002 121.146  1.00  0.00     0.238 A 
ATOM      4  O   UNL     1     134.980 131.398 121.683  1.00  0.00    -0.285 OA
ATOM      5  C   UNL     1     137.309 131.499 121.554  1.00  0.00     0.111 A 
ATOM      6  C   UNL     1     137.512 132.418 122.629  1.00  0.00     0.134 A 
ATOM      7  C   UNL     1     138.795 132.922 122.873  1.00  0.00     0.093 A 
ATOM      8  C   UNL     1     139.892 132.496 122.126  1.00  0.00     0.123 A 
ATOM      9  C   UNL     1     139.714 131.557 121.108  1.00  0.00     0.094 A 
ATOM     10  C   UNL     1     138.441 131.063 120.815  1.00  0.00     0.146 A 
ATOM     11  O   UNL     1     138.313 130.188 119.825  1.00  0.00    -0.452 OA
ENDROOT
BRANCH   1  12
ATOM     12  C   UNL     1     137.144 128.709 118.325  1.00  0.00     0.025 A 
ATOM     13  C   UNL     1     135.944 128.277 117.735  1.00  0.00     0.016 A 
ATOM     14  C   UNL     1     135.967 127.378 116.665  1.00  0.00     0.051 A 
ATOM     15  C   UNL     1     137.187 126.910 116.159  1.00  0.00     0.157 A 
ATOM     16  C   UNL     1     138.366 128.254 117.800  1.00  0.00     0.062 A 
ATOM     17  C   UNL     1     138.392 127.354 116.729  1.00  0.00     0.158 A 
BRANCH  15  18
ATOM     18  O   UNL     1     137.207 126.013 115.093  1.00  0.00    -0.504 OA
ATOM     19  H   UNL     1     138.078 125.667 114.707  1.00  0.00     0.293 HD
ENDBRANCH  15  18
BRANCH  17  20
ATOM     20  O   UNL     1     139.623 126.913 116.245  1.00  0.00    -0.504 OA
ATOM     21  H   UNL     1     140.448 126.875 116.830  1.00  0.00     0.293 HD
ENDBRANCH  17  20
ENDBRANCH   1  12
BRANCH   2  22
ATOM     22  O   UNL     1     134.742 129.505 119.737  1.00  0.00    -0.502 OA
ATOM     23  H   UNL     1     134.280 129.729 118.865  1.00  0.00     0.293 HD
ENDBRANCH   2  22
BRANCH   6  24
ATOM     24  O   UNL     1     136.501 132.843 123.496  1.00  0.00    -0.507 OA
ATOM     25  H   UNL     1     135.609 133.213 123.207  1.00  0.00     0.293 HD
ENDBRANCH   6  24
BRANCH   8  26
ATOM     26  O   UNL     1     141.157 133.006 122.407  1.00  0.00    -0.508 OA
ATOM     27  H   UNL     1     141.855 133.125 121.683  1.00  0.00     0.293 HD
ENDBRANCH   8  26
TORSDOF 6
ENDMDL
MODEL 6
REMARK VINA RESULT:    -4.938      2.481      6.853
REMARK INTER + INTRA:          -6.180
REMARK INTER:                  -5.866
REMARK INTRA:                  -0.314
REMARK UNBOUND:                -0.232
REMARK SMILES O=c1c(O)c(-c2ccc(O)c(O)c2)oc2cc(O)cc(O)c12
REMARK SMILES IDX 5 1 3 2 2 3 1 4 22 5 20 6 19 7 17 8 16 9 15 10 14 11 6 12
REMARK SMILES IDX 7 13 8 14 9 15 13 16 11 17 10 18 12 20 4 22 21 24 18 26
REMARK H PARENT 10 19 12 21 4 23 21 25 18 27
REMARK Flexibility Score: inf
ROOT
ATOM      1  C   UNL     1     137.482 130.465 119.191  1.00  0.00     0.180 A 
ATOM      2  C   UNL     1     137.745 131.761 118.713  1.00  0.00     0.208 A 
ATOM      3  C   UNL     1     137.872 132.813 119.634  1.00  0.00     0.238 A 
ATOM      4  O   UNL     1     138.181 133.956 119.205  1.00  0.00    -0.285 OA
ATOM      5  C   UNL     1     137.680 132.570 121.015  1.00  0.00     0.111 A 
ATOM      6  C   UNL     1     137.741 133.570 122.033  1.00  0.00     0.134 A 
ATOM      7  C   UNL     1     137.640 133.193 123.378  1.00  0.00     0.093 A 
ATOM      8  C   UNL     1     137.416 131.866 123.740  1.00  0.00     0.123 A 
ATOM      9  C   UNL     1     137.300 130.888 122.751  1.00  0.00     0.094 A 
ATOM     10  C   UNL     1     137.434 131.226 121.402  1.00  0.00     0.146 A 
ATOM     11  O   UNL     1     137.339 130.262 120.495  1.00  0.00    -0.452 OA
ENDROOT
BRANCH   1  12
ATOM     12  C   UNL     1     137.348 129.303 118.284  1.00  0.00     0.025 A 
ATOM     13  C   UNL     1     136.093 128.890 117.804  1.00  0.00     0.016 A 
ATOM     14  C   UNL     1     135.994 127.805 116.930  1.00  0.00     0.051 A 
ATOM     15  C   UNL     1     137.146 127.126 116.511  1.00  0.00     0.157 A 
ATOM     16  C   UNL     1     138.502 128.633 117.844  1.00  0.00     0.062 A 
ATOM     17  C   UNL     1     138.406 127.546 116.968  1.00  0.00     0.158 A 
BRANCH  15  18
ATOM     18  O   UNL     1     137.044 126.043 115.639  1.00  0.00    -0.504 OA
ATOM     19  H   UNL     1     137.444 125.139 115.867  1.00  0.00     0.293 HD
ENDBRANCH  15  18
BRANCH  17  20
ATOM     20  O   UNL     1     139.572 126.897 116.565  1.00  0.00    -0.504 OA
ATOM     21  H   UNL     1     139.909 126.061 117.026  1.00  0.00     0.293 HD
ENDBRANCH  17  20
ENDBRANCH   1  12
BRANCH   2  22
ATOM     22  O   UNL     1     137.855 131.996 117.340  1.00  0.00    -0.502 OA
ATOM     23  H   UNL     1     137.050 132.177 116.753  1.00  0.00     0.293 HD
ENDBRANCH   2  22
BRANCH   6  24
ATOM     24  O   UNL     1     137.873 134.938 121.779  1.00  0.00    -0.507 OA
ATOM     25  H   UNL     1     137.176 135.635 121.989  1.00  0.00     0.293 HD
ENDBRANCH   6  24
BRANCH   8  26
ATOM     26  O   UNL     1     137.303 131.529 125.087  1.00  0.00    -0.508 OA
ATOM     27  H   UNL     1     136.491 131.790 125.634  1.00  0.00     0.293 HD
ENDBRANCH   8  26
TORSDOF 6
ENDMDL
MODEL 7
REMARK VINA RESULT:    -4.922      2.523      3.826
REMARK INTER + INTRA:          -6.161
REMARK INTER:                  -5.847
REMARK INTRA:                  -0.314
REMARK UNBOUND:                -0.232
REMARK SMILES O=c1c(O)c(-c2ccc(O)c(O)c2)oc2cc(O)cc(O)c12
REMARK SMILES IDX 5 1 3 2 2 3 1 4 22 5 20 6 19 7 17 8 16 9 15 10 14 11 6 12
REMARK SMILES IDX 7 13 8 14 9 15 13 16 11 17 10 18 12 20 4 22 21 24 18 26
REMARK H PARENT 10 19 12 21 4 23 21 25 18 27
REMARK Flexibility Score: inf
ROOT
ATOM      1  C   UNL     1     136.318 129.275 118.251  1.00  0.00     0.180 A 
ATOM      2  C   UNL     1     137.463 128.641 117.738  1.00  0.00     0.208 A 
ATOM      3  C   UNL     1     137.309 127.624 116.782  1.00  0.00     0.238 A 
ATOM      4  O   UNL     1     138.340 127.113 116.272  1.00  0.00    -0.285 OA
ATOM      5  C   UNL     1     136.010 127.214 116.393  1.00  0.00     0.111 A 
ATOM      6  C   UNL     1     135.734 126.163 115.465  1.00  0.00     0.134 A 
ATOM      7  C   UNL     1     134.412 125.916 115.076  1.00  0.00     0.093 A 
ATOM      8  C   UNL     1     133.352 126.636 115.625  1.00  0.00     0.123 A 
ATOM      9  C   UNL     1     133.606 127.628 116.573  1.00  0.00     0.094 A 
ATOM     10  C   UNL     1     134.916 127.924 116.954  1.00  0.00     0.146 A 
ATOM     11  O   UNL     1     135.115 128.890 117.842  1.00  0.00    -0.452 OA
ENDROOT
BRANCH   1  12
ATOM     12  C   UNL     1     136.401 130.364 119.250  1.00  0.00     0.025 A 
ATOM     13  C   UNL     1     136.321 131.714 118.870  1.00  0.00     0.016 A 
ATOM     14  C   UNL     1     136.377 132.724 119.833  1.00  0.00     0.051 A 
ATOM     15  C   UNL     1     136.499 132.401 121.191  1.00  0.00     0.157 A 
ATOM     16  C   UNL     1     136.502 130.044 120.615  1.00  0.00     0.062 A 
ATOM     17  C   UNL     1     136.558 131.053 121.583  1.00  0.00     0.158 A 
BRANCH  15  18
ATOM     18  O   UNL     1     136.556 133.410 122.151  1.00  0.00    -0.504 OA
ATOM     19  H   UNL     1     137.124 133.316 122.986  1.00  0.00     0.293 HD
ENDBRANCH  15  18
BRANCH  17  20
ATOM     20  O   UNL     1     136.672 130.697 122.926  1.00  0.00    -0.504 OA
ATOM     21  H   UNL     1     136.595 129.736 123.236  1.00  0.00     0.293 HD
ENDBRANCH  17  20
ENDBRANCH   1  12
BRANCH   2  22
ATOM     22  O   UNL     1     138.734 129.007 118.192  1.00  0.00    -0.502 OA
ATOM     23  H   UNL     1     139.583 128.723 117.720  1.00  0.00     0.293 HD
ENDBRANCH   2  22
BRANCH   6  24
ATOM     24  O   UNL     1     136.710 125.322 114.922  1.00  0.00    -0.507 OA
ATOM     25  H   UNL     1     136.615 124.326 114.805  1.00  0.00     0.293 HD
ENDBRANCH   6  24
BRANCH   8  26
ATOM     26  O   UNL     1     132.048 126.352 115.227  1.00  0.00    -0.508 OA
ATOM     27  H   UNL     1     131.326 126.120 115.899  1.00  0.00     0.293 HD
ENDBRANCH   8  26
TORSDOF 6
ENDMDL
MODEL 8
REMARK VINA RESULT:    -4.886      1.705      7.080
REMARK INTER + INTRA:          -6.118
REMARK INTER:                  -5.992
REMARK INTRA:                  -0.126
REMARK UNBOUND:                -0.232
REMARK SMILES O=c1c(O)c(-c2ccc(O)c(O)c2)oc2cc(O)cc(O)c12
REMARK SMILES IDX 5 1 3 2 2 3 1 4 22 5 20 6 19 7 17 8 16 9 15 10 14 11 6 12
REMARK SMILES IDX 7 13 8 14 9 15 13 16 11 17 10 18 12 20 4 22 21 24 18 26
REMARK H PARENT 10 19 12 21 4 23 21 25 18 27
REMARK Flexibility Score: inf
ROOT
ATOM      1  C   UNL     1     138.313 129.930 118.452  1.00  0.00     0.180 A 
ATOM      2  C   UNL     1     139.129 130.969 117.973  1.00  0.00     0.208 A 
ATOM      3  C   UNL     1     139.511 131.995 118.852  1.00  0.00     0.238 A 
ATOM      4  O   UNL     1     140.302 132.883 118.437  1.00  0.00    -0.285 OA
ATOM      5  C   UNL     1     139.029 132.000 120.183  1.00  0.00     0.111 A 
ATOM      6  C   UNL     1     139.316 133.013 121.148  1.00  0.00     0.134 A 
ATOM      7  C   UNL     1     138.869 132.858 122.466  1.00  0.00     0.093 A 
ATOM      8  C   UNL     1     138.095 131.761 122.840  1.00  0.00     0.123 A 
ATOM      9  C   UNL     1     137.762 130.792 121.893  1.00  0.00     0.094 A 
ATOM     10  C   UNL     1     138.224 130.899 120.579  1.00  0.00     0.146 A 
ATOM     11  O   UNL     1     137.903 129.944 119.715  1.00  0.00    -0.452 OA
ENDROOT
BRANCH   1  12
ATOM     12  C   UNL     1     137.880 128.807 117.590  1.00  0.00     0.025 A 
ATOM     13  C   UNL     1     138.813 127.964 116.962  1.00  0.00     0.016 A 
ATOM     14  C   UNL     1     138.380 126.896 116.172  1.00  0.00     0.051 A 
ATOM     15  C   UNL     1     137.011 126.644 116.011  1.00  0.00     0.157 A 
ATOM     16  C   UNL     1     136.509 128.537 117.443  1.00  0.00     0.062 A 
ATOM     17  C   UNL     1     136.072 127.468 116.654  1.00  0.00     0.158 A 
BRANCH  15  18
ATOM     18  O   UNL     1     136.581 125.578 115.222  1.00  0.00    -0.504 OA
ATOM     19  H   UNL     1     136.542 125.648 114.212  1.00  0.00     0.293 HD
ENDBRANCH  15  18
BRANCH  17  20
ATOM     20  O   UNL     1     134.703 127.240 116.520  1.00  0.00    -0.504 OA
ATOM     21  H   UNL     1     134.305 126.311 116.569  1.00  0.00     0.293 HD
ENDBRANCH  17  20
ENDBRANCH   1  12
BRANCH   2  22
ATOM     22  O   UNL     1     139.532 130.988 116.635  1.00  0.00    -0.502 OA
ATOM     23  H   UNL     1     140.450 130.678 116.339  1.00  0.00     0.293 HD
ENDBRANCH   2  22
BRANCH   6  24
ATOM     24  O   UNL     1     140.006 134.195 120.861  1.00  0.00    -0.507 OA
ATOM     25  H   UNL     1     140.683 134.631 121.467  1.00  0.00     0.293 HD
ENDBRANCH   6  24
BRANCH   8  26
ATOM     26  O   UNL     1     137.654 131.647 124.157  1.00  0.00    -0.508 OA
ATOM     27  H   UNL     1     136.946 132.265 124.535  1.00  0.00     0.293 HD
ENDBRANCH   8  26
TORSDOF 6
ENDMDL
MODEL 9
REMARK VINA RESULT:    -4.872      2.443      4.163
REMARK INTER + INTRA:          -6.101
REMARK INTER:                  -5.955
REMARK INTRA:                  -0.146
REMARK UNBOUND:                -0.232
REMARK SMILES O=c1c(O)c(-c2ccc(O)c(O)c2)oc2cc(O)cc(O)c12
REMARK SMILES IDX 5 1 3 2 2 3 1 4 22 5 20 6 19 7 17 8 16 9 15 10 14 11 6 12
REMARK SMILES IDX 7 13 8 14 9 15 13 16 11 17 10 18 12 20 4 22 21 24 18 26
REMARK H PARENT 10 19 12 21 4 23 21 25 18 27
REMARK Flexibility Score: inf
ROOT
ATOM      1  C   UNL     1     136.795 130.028 119.496  1.00  0.00     0.180 A 
ATOM      2  C   UNL     1     137.959 130.547 118.902  1.00  0.00     0.208 A 
ATOM      3  C   UNL     1     138.454 129.945 117.734  1.00  0.00     0.238 A 
ATOM      4  O   UNL     1     139.453 130.460 117.166  1.00  0.00    -0.285 OA
ATOM      5  C   UNL     1     137.813 128.798 117.205  1.00  0.00     0.111 A 
ATOM      6  C   UNL     1     138.254 128.080 116.052  1.00  0.00     0.134 A 
ATOM      7  C   UNL     1     137.480 127.023 115.559  1.00  0.00     0.093 A 
ATOM      8  C   UNL     1     136.317 126.616 116.211  1.00  0.00     0.123 A 
ATOM      9  C   UNL     1     135.906 127.275 117.371  1.00  0.00     0.094 A 
ATOM     10  C   UNL     1     136.636 128.358 117.866  1.00  0.00     0.146 A 
ATOM     11  O   UNL     1     136.198 128.971 118.958  1.00  0.00    -0.452 OA
ENDROOT
BRANCH   1  12
ATOM     12  C   UNL     1     136.206 130.616 120.719  1.00  0.00     0.025 A 
ATOM     13  C   UNL     1     134.911 131.164 120.718  1.00  0.00     0.016 A 
ATOM     14  C   UNL     1     134.366 131.691 121.891  1.00  0.00     0.051 A 
ATOM     15  C   UNL     1     135.099 131.667 123.085  1.00  0.00     0.157 A 
ATOM     16  C   UNL     1     136.928 130.574 121.924  1.00  0.00     0.062 A 
ATOM     17  C   UNL     1     136.385 131.101 123.101  1.00  0.00     0.158 A 
BRANCH  15  18
ATOM     18  O   UNL     1     134.553 132.195 124.254  1.00  0.00    -0.504 OA
ATOM     19  H   UNL     1     133.798 132.871 124.229  1.00  0.00     0.293 HD
ENDBRANCH  15  18
BRANCH  17  20
ATOM     20  O   UNL     1     137.137 131.055 124.274  1.00  0.00    -0.504 OA
ATOM     21  H   UNL     1     137.954 131.636 124.412  1.00  0.00     0.293 HD
ENDBRANCH  17  20
ENDBRANCH   1  12
BRANCH   2  22
ATOM     22  O   UNL     1     138.622 131.633 119.482  1.00  0.00    -0.502 OA
ATOM     23  H   UNL     1     139.599 131.596 119.744  1.00  0.00     0.293 HD
ENDBRANCH   2  22
BRANCH   6  24
ATOM     24  O   UNL     1     139.448 128.345 115.374  1.00  0.00    -0.507 OA
ATOM     25  H   UNL     1     139.700 129.234 114.973  1.00  0.00     0.293 HD
ENDBRANCH   6  24
BRANCH   8  26
ATOM     26  O   UNL     1     135.580 125.549 115.703  1.00  0.00    -0.508 OA
ATOM     27  H   UNL     1     135.185 125.573 114.770  1.00  0.00     0.293 HD
ENDBRANCH   8  26
TORSDOF 6
ENDMDL
