MODEL 1
REMARK VINA RESULT:    -4.662      0.000      0.000
REMARK INTER + INTRA:         -10.204
REMARK INTER:                  -8.478
REMARK INTRA:                  -1.727
REMARK UNBOUND:                -1.727
REMARK SMILES CCCCCCCCCCCCCC[C@H](C)C(=O)[O-]
REMARK SMILES IDX 9 1 10 2 11 3 12 4 13 5 14 6 15 7 16 8 17 9 18 10 19 11 8 12
REMARK SMILES IDX 7 13 6 14 5 15 4 16 3 17 2 18 1 19
REMARK H PARENT
REMARK Flexibility Score: inf
ROOT
ATOM      1  C   UNL     1      31.605   9.936  48.621  1.00  0.00     0.000 C 
ENDROOT
BRANCH   1   2
ATOM      2  C   UNL     1      31.284   8.671  49.436  1.00  0.00     0.000 C 
BRANCH   2   3
ATOM      3  C   UNL     1      29.989   7.939  49.025  1.00  0.00     0.000 C 
BRANCH   3   4
ATOM      4  C   UNL     1      30.170   6.482  48.550  1.00  0.00     0.000 C 
BRANCH   4   5
ATOM      5  C   UNL     1      31.256   6.283  47.475  1.00  0.00     0.001 C 
BRANCH   5   6
ATOM      6  C   UNL     1      32.501   5.521  47.984  1.00  0.00     0.009 C 
BRANCH   6   7
ATOM      7  C   UNL     1      33.833   6.089  47.446  1.00  0.00     0.032 C 
ATOM      8  C   UNL     1      33.662   6.787  46.090  1.00  0.00     0.014 C 
BRANCH   7   9
ATOM      9  C   UNL     1      34.844   4.982  47.318  1.00  0.00     0.044 C 
ATOM     10  O   UNL     1      35.040   4.431  46.202  1.00  0.00    -0.550 OA
ATOM     11  O   UNL     1      35.567   4.560  48.427  1.00  0.00    -0.550 OA
ENDBRANCH   7   9
ENDBRANCH   6   7
ENDBRANCH   5   6
ENDBRANCH   4   5
ENDBRANCH   3   4
ENDBRANCH   2   3
ENDBRANCH   1   2
BRANCH   1  12
ATOM     12  C   UNL     1      33.017   9.914  48.019  1.00  0.00     0.000 C 
BRANCH  12  13
ATOM     13  C   UNL     1      34.059  10.379  49.047  1.00  0.00    -0.000 C 
BRANCH  13  14
ATOM     14  C   UNL     1      35.402  10.767  48.404  1.00  0.00    -0.000 C 
BRANCH  14  15
ATOM     15  C   UNL     1      35.491  12.221  47.901  1.00  0.00    -0.000 C 
BRANCH  15  16
ATOM     16  C   UNL     1      35.578  12.385  46.373  1.00  0.00    -0.000 C 
BRANCH  16  17
ATOM     17  C   UNL     1      35.454  11.048  45.621  1.00  0.00    -0.000 C 
BRANCH  17  18
ATOM     18  C   UNL     1      34.469  11.123  44.445  1.00  0.00    -0.003 C 
ATOM     19  C   UNL     1      34.294   9.785  43.729  1.00  0.00     0.004 C 
ENDBRANCH  17  18
ENDBRANCH  16  17
ENDBRANCH  15  16
ENDBRANCH  14  15
ENDBRANCH  13  14
ENDBRANCH  12  13
ENDBRANCH   1  12
TORSDOF 14
ENDMDL
MODEL 2
REMARK VINA RESULT:    -4.580      2.498      5.756
REMARK INTER + INTRA:         -10.055
REMARK INTER:                  -8.381
REMARK INTRA:                  -1.674
REMARK UNBOUND:                -1.727
REMARK SMILES CCCCCCCCCCCCCC[C@H](C)C(=O)[O-]
REMARK SMILES IDX 9 1 10 2 11 3 12 4 13 5 14 6 15 7 16 8 17 9 18 10 19 11 8 12
REMARK SMILES IDX 7 13 6 14 5 15 4 16 3 17 2 18 1 19
REMARK H PARENT
REMARK Flexibility Score: inf
ROOT
ATOM      1  C   UNL     1      30.121   8.347  49.035  1.00  0.00     0.000 C 
ENDROOT
BRANCH   1   2
ATOM      2  C   UNL     1      31.370   9.082  49.553  1.00  0.00     0.000 C 
BRANCH   2   3
ATOM      3  C   UNL     1      32.056  10.007  48.526  1.00  0.00     0.000 C 
BRANCH   3   4
ATOM      4  C   UNL     1      33.261  10.812  49.056  1.00  0.00     0.000 C 
BRANCH   4   5
ATOM      5  C   UNL     1      34.526  10.736  48.177  1.00  0.00     0.001 C 
BRANCH   5   6
ATOM      6  C   UNL     1      34.244  10.303  46.720  1.00  0.00     0.009 C 
BRANCH   6   7
ATOM      7  C   UNL     1      35.193  10.954  45.691  1.00  0.00     0.032 C 
ATOM      8  C   UNL     1      35.715  12.318  46.161  1.00  0.00     0.014 C 
BRANCH   7   9
ATOM      9  C   UNL     1      34.483  11.114  44.373  1.00  0.00     0.044 C 
ATOM     10  O   UNL     1      34.251  12.264  43.915  1.00  0.00    -0.550 OA
ATOM     11  O   UNL     1      34.080   9.996  43.653  1.00  0.00    -0.550 OA
ENDBRANCH   7   9
ENDBRANCH   6   7
ENDBRANCH   5   6
ENDBRANCH   4   5
ENDBRANCH   3   4
ENDBRANCH   2   3
ENDBRANCH   1   2
BRANCH   1  12
ATOM     12  C   UNL     1      29.743   7.135  49.899  1.00  0.00     0.000 C 
BRANCH  12  13
ATOM     13  C   UNL     1      29.649   5.861  49.047  1.00  0.00    -0.000 C 
BRANCH  13  14
ATOM     14  C   UNL     1      30.623   5.867  47.854  1.00  0.00    -0.000 C 
BRANCH  14  15
ATOM     15  C   UNL     1      31.941   5.101  48.083  1.00  0.00    -0.000 C 
BRANCH  15  16
ATOM     16  C   UNL     1      33.214   5.966  48.072  1.00  0.00    -0.000 C 
BRANCH  16  17
ATOM     17  C   UNL     1      33.275   6.923  46.869  1.00  0.00    -0.000 C 
BRANCH  17  18
ATOM     18  C   UNL     1      33.951   6.287  45.644  1.00  0.00    -0.003 C 
ATOM     19  C   UNL     1      34.969   5.210  46.019  1.00  0.00     0.004 C 
ENDBRANCH  17  18
ENDBRANCH  16  17
ENDBRANCH  15  16
ENDBRANCH  14  15
ENDBRANCH  13  14
ENDBRANCH  12  13
ENDBRANCH   1  12
TORSDOF 14
ENDMDL
MODEL 3
REMARK VINA RESULT:    -4.471     17.704     20.006
REMARK INTER + INTRA:          -9.857
REMARK INTER:                  -8.406
REMARK INTRA:                  -1.452
REMARK UNBOUND:                -1.727
REMARK SMILES CCCCCCCCCCCCCC[C@H](C)C(=O)[O-]
REMARK SMILES IDX 9 1 10 2 11 3 12 4 13 5 14 6 15 7 16 8 17 9 18 10 19 11 8 12
REMARK SMILES IDX 7 13 6 14 5 15 4 16 3 17 2 18 1 19
REMARK H PARENT
REMARK Flexibility Score: inf
ROOT
ATOM      1  C   UNL     1      19.925  13.825  35.549  1.00  0.00     0.000 C 
ENDROOT
BRANCH   1   2
ATOM      2  C   UNL     1      19.710  13.804  34.026  1.00  0.00     0.000 C 
BRANCH   2   3
ATOM      3  C   UNL     1      20.831  14.465  33.198  1.00  0.00     0.000 C 
BRANCH   3   4
ATOM      4  C   UNL     1      21.344  13.644  31.996  1.00  0.00     0.000 C 
BRANCH   4   5
ATOM      5  C   UNL     1      22.382  14.368  31.115  1.00  0.00     0.001 C 
BRANCH   5   6
ATOM      6  C   UNL     1      22.228  15.906  31.112  1.00  0.00     0.009 C 
BRANCH   6   7
ATOM      7  C   UNL     1      23.365  16.636  30.364  1.00  0.00     0.032 C 
ATOM      8  C   UNL     1      24.653  15.803  30.306  1.00  0.00     0.014 C 
BRANCH   7   9
ATOM      9  C   UNL     1      23.649  17.955  31.031  1.00  0.00     0.044 C 
ATOM     10  O   UNL     1      24.825  18.253  31.368  1.00  0.00    -0.550 OA
ATOM     11  O   UNL     1      22.617  18.852  31.279  1.00  0.00    -0.550 OA
ENDBRANCH   7   9
ENDBRANCH   6   7
ENDBRANCH   5   6
ENDBRANCH   4   5
ENDBRANCH   3   4
ENDBRANCH   2   3
ENDBRANCH   1   2
BRANCH   1  12
ATOM     12  C   UNL     1      19.158  12.711  36.275  1.00  0.00     0.000 C 
BRANCH  12  13
ATOM     13  C   UNL     1      19.162  11.415  35.452  1.00  0.00    -0.000 C 
BRANCH  13  14
ATOM     14  C   UNL     1      19.831  10.241  36.189  1.00  0.00    -0.000 C 
BRANCH  14  15
ATOM     15  C   UNL     1      20.941   9.520  35.399  1.00  0.00    -0.000 C 
BRANCH  15  16
ATOM     16  C   UNL     1      21.394  10.226  34.108  1.00  0.00    -0.000 C 
BRANCH  16  17
ATOM     17  C   UNL     1      22.467  11.300  34.359  1.00  0.00    -0.000 C 
BRANCH  17  18
ATOM     18  C   UNL     1      23.068  11.211  35.770  1.00  0.00    -0.003 C 
ATOM     19  C   UNL     1      24.542  10.808  35.764  1.00  0.00     0.004 C 
ENDBRANCH  17  18
ENDBRANCH  16  17
ENDBRANCH  15  16
ENDBRANCH  14  15
ENDBRANCH  13  14
ENDBRANCH  12  13
ENDBRANCH   1  12
TORSDOF 14
ENDMDL
MODEL 4
REMARK VINA RESULT:    -4.360      1.111      4.864
REMARK INTER + INTRA:          -9.655
REMARK INTER:                  -8.260
REMARK INTRA:                  -1.395
REMARK UNBOUND:                -1.727
REMARK SMILES CCCCCCCCCCCCCC[C@H](C)C(=O)[O-]
REMARK SMILES IDX 9 1 10 2 11 3 12 4 13 5 14 6 15 7 16 8 17 9 18 10 19 11 8 12
REMARK SMILES IDX 7 13 6 14 5 15 4 16 3 17 2 18 1 19
REMARK H PARENT
REMARK Flexibility Score: inf
ROOT
ATOM      1  C   UNL     1      35.038  11.296  45.541  1.00  0.00     0.000 C 
ENDROOT
BRANCH   1   2
ATOM      2  C   UNL     1      34.257  10.508  44.473  1.00  0.00     0.000 C 
BRANCH   2   3
ATOM      3  C   UNL     1      34.843   9.125  44.123  1.00  0.00     0.000 C 
BRANCH   3   4
ATOM      4  C   UNL     1      33.846   7.948  44.169  1.00  0.00     0.000 C 
BRANCH   4   5
ATOM      5  C   UNL     1      34.265   6.781  45.085  1.00  0.00     0.001 C 
BRANCH   5   6
ATOM      6  C   UNL     1      33.551   6.781  46.456  1.00  0.00     0.009 C 
BRANCH   6   7
ATOM      7  C   UNL     1      33.705   5.453  47.230  1.00  0.00     0.032 C 
ATOM      8  C   UNL     1      32.449   5.100  48.037  1.00  0.00     0.014 C 
BRANCH   7   9
ATOM      9  C   UNL     1      34.890   5.537  48.154  1.00  0.00     0.044 C 
ATOM     10  O   UNL     1      35.896   4.804  47.960  1.00  0.00    -0.550 OA
ATOM     11  O   UNL     1      34.883   6.421  49.226  1.00  0.00    -0.550 OA
ENDBRANCH   7   9
ENDBRANCH   6   7
ENDBRANCH   5   6
ENDBRANCH   4   5
ENDBRANCH   3   4
ENDBRANCH   2   3
ENDBRANCH   1   2
BRANCH   1  12
ATOM     12  C   UNL     1      34.902  10.690  46.945  1.00  0.00     0.000 C 
BRANCH  12  13
ATOM     13  C   UNL     1      33.509  10.078  47.147  1.00  0.00    -0.000 C 
BRANCH  13  14
ATOM     14  C   UNL     1      33.155   9.873  48.631  1.00  0.00    -0.000 C 
BRANCH  14  15
ATOM     15  C   UNL     1      31.647   9.785  48.937  1.00  0.00    -0.000 C 
BRANCH  15  16
ATOM     16  C   UNL     1      30.991   8.427  48.628  1.00  0.00    -0.000 C 
BRANCH  16  17
ATOM     17  C   UNL     1      29.940   8.020  49.676  1.00  0.00    -0.000 C 
BRANCH  17  18
ATOM     18  C   UNL     1      29.565   6.533  49.586  1.00  0.00    -0.003 C 
ATOM     19  C   UNL     1      29.017   6.140  48.214  1.00  0.00     0.004 C 
ENDBRANCH  17  18
ENDBRANCH  16  17
ENDBRANCH  15  16
ENDBRANCH  14  15
ENDBRANCH  13  14
ENDBRANCH  12  13
ENDBRANCH   1  12
TORSDOF 14
ENDMDL
MODEL 5
REMARK VINA RESULT:    -4.358      1.341      2.265
REMARK INTER + INTRA:          -9.651
REMARK INTER:                  -8.266
REMARK INTRA:                  -1.385
REMARK UNBOUND:                -1.727
REMARK SMILES CCCCCCCCCCCCCC[C@H](C)C(=O)[O-]
REMARK SMILES IDX 9 1 10 2 11 3 12 4 13 5 14 6 15 7 16 8 17 9 18 10 19 11 8 12
REMARK SMILES IDX 7 13 6 14 5 15 4 16 3 17 2 18 1 19
REMARK H PARENT
REMARK Flexibility Score: inf
ROOT
ATOM      1  C   UNL     1      31.250   8.933  48.641  1.00  0.00     0.000 C 
ENDROOT
BRANCH   1   2
ATOM      2  C   UNL     1      30.140   8.025  49.199  1.00  0.00     0.000 C 
BRANCH   2   3
ATOM      3  C   UNL     1      29.862   6.751  48.375  1.00  0.00     0.000 C 
BRANCH   3   4
ATOM      4  C   UNL     1      30.998   6.309  47.429  1.00  0.00     0.000 C 
BRANCH   4   5
ATOM      5  C   UNL     1      32.013   5.329  48.050  1.00  0.00     0.001 C 
BRANCH   5   6
ATOM      6  C   UNL     1      33.468   5.850  48.034  1.00  0.00     0.009 C 
BRANCH   6   7
ATOM      7  C   UNL     1      34.490   4.803  47.538  1.00  0.00     0.032 C 
ATOM      8  C   UNL     1      35.772   4.795  48.381  1.00  0.00     0.014 C 
BRANCH   7   9
ATOM      9  C   UNL     1      34.837   5.073  46.098  1.00  0.00     0.044 C 
ATOM     10  O   UNL     1      35.550   4.258  45.456  1.00  0.00    -0.550 OA
ATOM     11  O   UNL     1      34.375   6.223  45.469  1.00  0.00    -0.550 OA
ENDBRANCH   7   9
ENDBRANCH   6   7
ENDBRANCH   5   6
ENDBRANCH   4   5
ENDBRANCH   3   4
ENDBRANCH   2   3
ENDBRANCH   1   2
BRANCH   1  12
ATOM     12  C   UNL     1      32.186   9.470  49.734  1.00  0.00     0.000 C 
BRANCH  12  13
ATOM     13  C   UNL     1      33.657   9.288  49.335  1.00  0.00    -0.000 C 
BRANCH  13  14
ATOM     14  C   UNL     1      33.888   9.434  47.820  1.00  0.00    -0.000 C 
BRANCH  14  15
ATOM     15  C   UNL     1      34.544  10.758  47.382  1.00  0.00    -0.000 C 
BRANCH  15  16
ATOM     16  C   UNL     1      35.006  10.810  45.914  1.00  0.00    -0.000 C 
BRANCH  16  17
ATOM     17  C   UNL     1      35.416  12.224  45.467  1.00  0.00    -0.000 C 
BRANCH  17  18
ATOM     18  C   UNL     1      36.103  13.019  46.588  1.00  0.00    -0.003 C 
ATOM     19  C   UNL     1      37.616  12.808  46.626  1.00  0.00     0.004 C 
ENDBRANCH  17  18
ENDBRANCH  16  17
ENDBRANCH  15  16
ENDBRANCH  14  15
ENDBRANCH  13  14
ENDBRANCH  12  13
ENDBRANCH   1  12
TORSDOF 14
ENDMDL
MODEL 6
REMARK VINA RESULT:    -4.251      1.153      4.401
REMARK INTER + INTRA:          -9.456
REMARK INTER:                  -7.870
REMARK INTRA:                  -1.586
REMARK UNBOUND:                -1.727
REMARK SMILES CCCCCCCCCCCCCC[C@H](C)C(=O)[O-]
REMARK SMILES IDX 9 1 10 2 11 3 12 4 13 5 14 6 15 7 16 8 17 9 18 10 19 11 8 12
REMARK SMILES IDX 7 13 6 14 5 15 4 16 3 17 2 18 1 19
REMARK H PARENT
REMARK Flexibility Score: inf
ROOT
ATOM      1  C   UNL     1      34.807  11.947  45.020  1.00  0.00     0.000 C 
ENDROOT
BRANCH   1   2
ATOM      2  C   UNL     1      34.340  10.937  43.958  1.00  0.00     0.000 C 
BRANCH   2   3
ATOM      3  C   UNL     1      35.007   9.548  44.040  1.00  0.00     0.000 C 
BRANCH   3   4
ATOM      4  C   UNL     1      34.040   8.345  44.050  1.00  0.00     0.000 C 
BRANCH   4   5
ATOM      5  C   UNL     1      33.940   7.609  45.401  1.00  0.00     0.001 C 
BRANCH   5   6
ATOM      6  C   UNL     1      33.945   6.068  45.270  1.00  0.00     0.009 C 
BRANCH   6   7
ATOM      7  C   UNL     1      34.999   5.379  46.164  1.00  0.00     0.032 C 
ATOM      8  C   UNL     1      35.425   4.012  45.613  1.00  0.00     0.014 C 
BRANCH   7   9
ATOM      9  C   UNL     1      34.454   5.212  47.557  1.00  0.00     0.044 C 
ATOM     10  O   UNL     1      33.328   4.675  47.735  1.00  0.00    -0.550 OA
ATOM     11  O   UNL     1      35.187   5.646  48.654  1.00  0.00    -0.550 OA
ENDBRANCH   7   9
ENDBRANCH   6   7
ENDBRANCH   5   6
ENDBRANCH   4   5
ENDBRANCH   3   4
ENDBRANCH   2   3
ENDBRANCH   1   2
BRANCH   1  12
ATOM     12  C   UNL     1      35.578  11.287  46.172  1.00  0.00     0.000 C 
BRANCH  12  13
ATOM     13  C   UNL     1      34.817  11.432  47.497  1.00  0.00    -0.000 C 
BRANCH  13  14
ATOM     14  C   UNL     1      35.055  10.252  48.456  1.00  0.00    -0.000 C 
BRANCH  14  15
ATOM     15  C   UNL     1      34.003   9.127  48.383  1.00  0.00    -0.000 C 
BRANCH  15  16
ATOM     16  C   UNL     1      32.553   9.595  48.164  1.00  0.00    -0.000 C 
BRANCH  16  17
ATOM     17  C   UNL     1      31.607   9.154  49.295  1.00  0.00    -0.000 C 
BRANCH  17  18
ATOM     18  C   UNL     1      30.453   8.276  48.787  1.00  0.00    -0.003 C 
ATOM     19  C   UNL     1      30.935   7.055  48.005  1.00  0.00     0.004 C 
ENDBRANCH  17  18
ENDBRANCH  16  17
ENDBRANCH  15  16
ENDBRANCH  14  15
ENDBRANCH  13  14
ENDBRANCH  12  13
ENDBRANCH   1  12
TORSDOF 14
ENDMDL
MODEL 7
REMARK VINA RESULT:    -4.189      3.686      7.587
REMARK INTER + INTRA:          -9.344
REMARK INTER:                  -8.201
REMARK INTRA:                  -1.144
REMARK UNBOUND:                -1.727
REMARK SMILES CCCCCCCCCCCCCC[C@H](C)C(=O)[O-]
REMARK SMILES IDX 9 1 10 2 11 3 12 4 13 5 14 6 15 7 16 8 17 9 18 10 19 11 8 12
REMARK SMILES IDX 7 13 6 14 5 15 4 16 3 17 2 18 1 19
REMARK H PARENT
REMARK Flexibility Score: inf
ROOT
ATOM      1  C   UNL     1      34.182   8.099  44.122  1.00  0.00     0.000 C 
ENDROOT
BRANCH   1   2
ATOM      2  C   UNL     1      35.035   9.380  44.140  1.00  0.00     0.000 C 
BRANCH   2   3
ATOM      3  C   UNL     1      34.255  10.687  43.890  1.00  0.00     0.000 C 
BRANCH   3   4
ATOM      4  C   UNL     1      34.725  11.909  44.707  1.00  0.00     0.000 C 
BRANCH   4   5
ATOM      5  C   UNL     1      35.326  11.572  46.086  1.00  0.00     0.001 C 
BRANCH   5   6
ATOM      6  C   UNL     1      36.557  12.434  46.453  1.00  0.00     0.009 C 
BRANCH   6   7
ATOM      7  C   UNL     1      36.418  13.914  46.035  1.00  0.00     0.032 C 
ATOM      8  C   UNL     1      37.771  14.551  45.691  1.00  0.00     0.014 C 
BRANCH   7   9
ATOM      9  C   UNL     1      35.761  14.695  47.141  1.00  0.00     0.044 C 
ATOM     10  O   UNL     1      35.763  14.248  48.319  1.00  0.00    -0.550 OA
ATOM     11  O   UNL     1      35.149  15.914  46.872  1.00  0.00    -0.550 OA
ENDBRANCH   7   9
ENDBRANCH   6   7
ENDBRANCH   5   6
ENDBRANCH   4   5
ENDBRANCH   3   4
ENDBRANCH   2   3
ENDBRANCH   1   2
BRANCH   1  12
ATOM     12  C   UNL     1      33.898   7.552  45.528  1.00  0.00     0.000 C 
BRANCH  12  13
ATOM     13  C   UNL     1      34.218   6.053  45.609  1.00  0.00    -0.000 C 
BRANCH  13  14
ATOM     14  C   UNL     1      34.443   5.566  47.052  1.00  0.00    -0.000 C 
BRANCH  14  15
ATOM     15  C   UNL     1      33.369   6.005  48.066  1.00  0.00    -0.000 C 
BRANCH  15  16
ATOM     16  C   UNL     1      32.021   5.268  47.957  1.00  0.00    -0.000 C 
BRANCH  16  17
ATOM     17  C   UNL     1      30.813   6.215  48.058  1.00  0.00    -0.000 C 
BRANCH  17  18
ATOM     18  C   UNL     1      31.229   7.692  48.142  1.00  0.00    -0.003 C 
ATOM     19  C   UNL     1      30.527   8.444  49.273  1.00  0.00     0.004 C 
ENDBRANCH  17  18
ENDBRANCH  16  17
ENDBRANCH  15  16
ENDBRANCH  14  15
ENDBRANCH  13  14
ENDBRANCH  12  13
ENDBRANCH   1  12
TORSDOF 14
ENDMDL
MODEL 8
REMARK VINA RESULT:    -4.181      1.520      2.407
REMARK INTER + INTRA:          -9.329
REMARK INTER:                  -8.174
REMARK INTRA:                  -1.155
REMARK UNBOUND:                -1.727
REMARK SMILES CCCCCCCCCCCCCC[C@H](C)C(=O)[O-]
REMARK SMILES IDX 9 1 10 2 11 3 12 4 13 5 14 6 15 7 16 8 17 9 18 10 19 11 8 12
REMARK SMILES IDX 7 13 6 14 5 15 4 16 3 17 2 18 1 19
REMARK H PARENT
REMARK Flexibility Score: inf
ROOT
ATOM      1  C   UNL     1      31.944   9.847  48.439  1.00  0.00     0.000 C 
ENDROOT
BRANCH   1   2
ATOM      2  C   UNL     1      31.423   8.835  49.475  1.00  0.00     0.000 C 
BRANCH   2   3
ATOM      3  C   UNL     1      30.083   8.162  49.114  1.00  0.00     0.000 C 
BRANCH   3   4
ATOM      4  C   UNL     1      30.153   6.645  48.839  1.00  0.00     0.000 C 
BRANCH   4   5
ATOM      5  C   UNL     1      31.023   6.247  47.630  1.00  0.00     0.001 C 
BRANCH   5   6
ATOM      6  C   UNL     1      32.243   5.374  48.005  1.00  0.00     0.009 C 
BRANCH   6   7
ATOM      7  C   UNL     1      33.599   6.047  47.695  1.00  0.00     0.032 C 
ATOM      8  C   UNL     1      33.576   6.818  46.368  1.00  0.00     0.014 C 
BRANCH   7   9
ATOM      9  C   UNL     1      34.685   5.007  47.654  1.00  0.00     0.044 C 
ATOM     10  O   UNL     1      34.896   4.354  46.598  1.00  0.00    -0.550 OA
ATOM     11  O   UNL     1      35.464   4.760  48.778  1.00  0.00    -0.550 OA
ENDBRANCH   7   9
ENDBRANCH   6   7
ENDBRANCH   5   6
ENDBRANCH   4   5
ENDBRANCH   3   4
ENDBRANCH   2   3
ENDBRANCH   1   2
BRANCH   1  12
ATOM     12  C   UNL     1      33.387  10.294  48.716  1.00  0.00     0.000 C 
BRANCH  12  13
ATOM     13  C   UNL     1      34.241  10.210  47.443  1.00  0.00    -0.000 C 
BRANCH  13  14
ATOM     14  C   UNL     1      35.340  11.288  47.388  1.00  0.00    -0.000 C 
BRANCH  14  15
ATOM     15  C   UNL     1      35.461  12.030  46.043  1.00  0.00    -0.000 C 
BRANCH  15  16
ATOM     16  C   UNL     1      36.436  13.221  46.035  1.00  0.00    -0.000 C 
BRANCH  16  17
ATOM     17  C   UNL     1      35.776  14.529  45.564  1.00  0.00    -0.000 C 
BRANCH  17  18
ATOM     18  C   UNL     1      35.709  15.588  46.675  1.00  0.00    -0.003 C 
ATOM     19  C   UNL     1      35.813  17.016  46.142  1.00  0.00     0.004 C 
ENDBRANCH  17  18
ENDBRANCH  16  17
ENDBRANCH  15  16
ENDBRANCH  14  15
ENDBRANCH  13  14
ENDBRANCH  12  13
ENDBRANCH   1  12
TORSDOF 14
ENDMDL
MODEL 9
REMARK VINA RESULT:    -4.006     18.180     20.517
REMARK INTER + INTRA:          -9.011
REMARK INTER:                  -6.984
REMARK INTRA:                  -2.027
REMARK UNBOUND:                -1.727
REMARK SMILES CCCCCCCCCCCCCC[C@H](C)C(=O)[O-]
REMARK SMILES IDX 9 1 10 2 11 3 12 4 13 5 14 6 15 7 16 8 17 9 18 10 19 11 8 12
REMARK SMILES IDX 7 13 6 14 5 15 4 16 3 17 2 18 1 19
REMARK H PARENT
REMARK Flexibility Score: inf
ROOT
ATOM      1  C   UNL     1      20.919  12.965  35.803  1.00  0.00     0.000 C 
ENDROOT
BRANCH   1   2
ATOM      2  C   UNL     1      20.567  13.955  34.678  1.00  0.00     0.000 C 
BRANCH   2   3
ATOM      3  C   UNL     1      21.404  13.806  33.391  1.00  0.00     0.000 C 
BRANCH   3   4
ATOM      4  C   UNL     1      20.994  14.723  32.220  1.00  0.00     0.000 C 
BRANCH   4   5
ATOM      5  C   UNL     1      22.052  14.864  31.108  1.00  0.00     0.001 C 
BRANCH   5   6
ATOM      6  C   UNL     1      22.052  16.250  30.423  1.00  0.00     0.009 C 
BRANCH   6   7
ATOM      7  C   UNL     1      23.469  16.799  30.147  1.00  0.00     0.032 C 
ATOM      8  C   UNL     1      24.561  15.758  30.425  1.00  0.00     0.014 C 
BRANCH   7   9
ATOM      9  C   UNL     1      23.713  18.022  30.989  1.00  0.00     0.044 C 
ATOM     10  O   UNL     1      24.871  18.275  31.416  1.00  0.00    -0.550 OA
ATOM     11  O   UNL     1      22.666  18.881  31.301  1.00  0.00    -0.550 OA
ENDBRANCH   7   9
ENDBRANCH   6   7
ENDBRANCH   5   6
ENDBRANCH   4   5
ENDBRANCH   3   4
ENDBRANCH   2   3
ENDBRANCH   1   2
BRANCH   1  12
ATOM     12  C   UNL     1      22.115  12.067  35.454  1.00  0.00     0.000 C 
BRANCH  12  13
ATOM     13  C   UNL     1      21.869  10.623  35.912  1.00  0.00    -0.000 C 
BRANCH  13  14
ATOM     14  C   UNL     1      20.378  10.239  35.905  1.00  0.00    -0.000 C 
BRANCH  14  15
ATOM     15  C   UNL     1      19.876   9.589  34.601  1.00  0.00    -0.000 C 
BRANCH  15  16
ATOM     16  C   UNL     1      18.875  10.431  33.789  1.00  0.00    -0.000 C 
BRANCH  16  17
ATOM     17  C   UNL     1      19.410  10.819  32.399  1.00  0.00    -0.000 C 
BRANCH  17  18
ATOM     18  C   UNL     1      20.880  10.418  32.203  1.00  0.00    -0.003 C 
ATOM     19  C   UNL     1      21.487  10.991  30.922  1.00  0.00     0.004 C 
ENDBRANCH  17  18
ENDBRANCH  16  17
ENDBRANCH  15  16
ENDBRANCH  14  15
ENDBRANCH  13  14
ENDBRANCH  12  13
ENDBRANCH   1  12
TORSDOF 14
ENDMDL
