MODEL 1
REMARK VINA RESULT:    -3.035      0.000      0.000
REMARK INTER + INTRA:          -5.119
REMARK INTER:                  -4.632
REMARK INTRA:                  -0.486
REMARK UNBOUND:                -0.486
REMARK SMILES CC1=CCC[C@H](C)C(=O)C[C@H](C(C)C)C(=O)C1
REMARK SMILES IDX 8 1 9 2 6 3 7 4 5 5 4 6 3 7 2 8 1 9 10 11 11 12 15 13 16 14
REMARK SMILES IDX 17 15 12 17 13 18 14 19
REMARK H PARENT
REMARK Flexibility Score: 70.00
ROOT
ATOM      1  C   UNL     1      19.876  28.740  40.105  1.00  0.00     0.136 C 
ATOM      2  O   UNL     1      19.989  29.845  39.594  1.00  0.00    -0.299 OA
ENDROOT
BRANCH   1   3
ATOM      3  C   UNL     1      19.660  27.523  39.229  1.00  0.00     0.053 C 
ATOM      4  C   UNL     1      18.493  27.788  38.272  1.00  0.00     0.016 C 
BRANCH   3   5
ATOM      5  C   UNL     1      20.929  27.141  38.433  1.00  0.00     0.015 C 
BRANCH   5   6
ATOM      6  C   UNL     1      21.630  25.889  38.975  1.00  0.00     0.028 C 
BRANCH   6   7
ATOM      7  C   UNL     1      22.718  26.252  39.957  1.00  0.00    -0.028 C 
ATOM      8  C   UNL     1      22.672  26.084  41.299  1.00  0.00    -0.070 CG0
ATOM      9  C   UNL     1      23.884  26.492  42.099  1.00  0.00     0.039 C 
ATOM     10  G   UNL     1      21.486  25.492  42.039  1.00  0.00     0.000 G0
ENDBRANCH   6   7
ENDBRANCH   5   6
ENDBRANCH   3   5
ENDBRANCH   1   3
BRANCH   1  11
ATOM     11  C   UNL     1      19.839  28.618  41.608  1.00  0.00     0.087 C 
BRANCH  11  12
ATOM     12  C   UNL     1      19.421  27.214  42.117  1.00  0.00     0.066 C 
BRANCH  12  13
ATOM     13  C   UNL     1      20.634  26.511  42.728  1.00  0.00     0.140 C 
ATOM     14  O   UNL     1      20.959  26.831  43.863  1.00  0.00    -0.299 OA
BRANCH  13  15
ATOM     15  C   UNL     1      21.480  25.473  42.019  1.00  0.00     0.106 CG0
ATOM     16  G   UNL     1      22.664  26.107  41.313  1.00  0.00     0.000 G0
ENDBRANCH  13  15
ENDBRANCH  12  13
BRANCH  12  17
ATOM     17  C   UNL     1      18.113  27.191  42.976  1.00  0.00    -0.006 C 
ATOM     18  C   UNL     1      16.912  26.687  42.150  1.00  0.00     0.008 C 
ATOM     19  C   UNL     1      17.756  28.586  43.524  1.00  0.00     0.008 C 
ENDBRANCH  12  17
ENDBRANCH  11  12
ENDBRANCH   1  11
TORSDOF 1
ENDMDL
MODEL 2
REMARK VINA RESULT:    -2.948      1.859      3.922
REMARK INTER + INTRA:          -4.986
REMARK INTER:                  -4.587
REMARK INTRA:                  -0.399
REMARK UNBOUND:                -0.486
REMARK SMILES CC1=CCC[C@H](C)C(=O)C[C@H](C(C)C)C(=O)C1
REMARK SMILES IDX 8 1 9 2 6 3 7 4 5 5 4 6 3 7 2 8 1 9 10 11 11 12 15 13 16 14
REMARK SMILES IDX 17 15 12 17 13 18 14 19
REMARK H PARENT
REMARK Flexibility Score: 70.00
ROOT
ATOM      1  C   UNL     1      19.418  26.449  41.822  1.00  0.00     0.136 C 
ATOM      2  O   UNL     1      18.219  26.301  42.004  1.00  0.00    -0.299 OA
ENDROOT
BRANCH   1   3
ATOM      3  C   UNL     1      20.256  27.160  42.865  1.00  0.00     0.053 C 
ATOM      4  C   UNL     1      19.411  28.240  43.547  1.00  0.00     0.016 C 
BRANCH   3   5
ATOM      5  C   UNL     1      20.829  26.185  43.920  1.00  0.00     0.015 C 
BRANCH   5   6
ATOM      6  C   UNL     1      22.160  25.550  43.500  1.00  0.00     0.028 C 
BRANCH   6   7
ATOM      7  C   UNL     1      23.127  26.591  42.991  1.00  0.00    -0.028 C 
ATOM      8  C   UNL     1      23.626  26.673  41.735  1.00  0.00    -0.070 CG0
ATOM      9  C   UNL     1      24.565  27.814  41.427  1.00  0.00     0.039 C 
ATOM     10  G   UNL     1      23.283  25.702  40.621  1.00  0.00     0.000 G0
ENDBRANCH   6   7
ENDBRANCH   5   6
ENDBRANCH   3   5
ENDBRANCH   1   3
BRANCH   1  11
ATOM     11  C   UNL     1      20.029  26.025  40.509  1.00  0.00     0.087 C 
BRANCH  11  12
ATOM     12  C   UNL     1      21.048  27.038  39.931  1.00  0.00     0.066 C 
BRANCH  12  13
ATOM     13  C   UNL     1      22.352  26.315  39.592  1.00  0.00     0.140 C 
ATOM     14  O   UNL     1      22.648  26.209  38.410  1.00  0.00    -0.299 OA
BRANCH  13  15
ATOM     15  C   UNL     1      23.285  25.691  40.611  1.00  0.00     0.106 CG0
ATOM     16  G   UNL     1      23.635  26.668  41.718  1.00  0.00     0.000 G0
ENDBRANCH  13  15
ENDBRANCH  12  13
BRANCH  12  17
ATOM     17  C   UNL     1      20.479  27.978  38.816  1.00  0.00    -0.006 C 
ATOM     18  C   UNL     1      20.062  29.344  39.396  1.00  0.00     0.008 C 
ATOM     19  C   UNL     1      19.248  27.366  38.118  1.00  0.00     0.008 C 
ENDBRANCH  12  17
ENDBRANCH  11  12
ENDBRANCH   1  11
TORSDOF 1
ENDMDL
MODEL 3
REMARK VINA RESULT:    -2.927      1.827      3.841
REMARK INTER + INTRA:          -4.953
REMARK INTER:                  -4.429
REMARK INTRA:                  -0.524
REMARK UNBOUND:                -0.486
REMARK SMILES CC1=CCC[C@H](C)C(=O)C[C@H](C(C)C)C(=O)C1
REMARK SMILES IDX 8 1 9 2 6 3 7 4 5 5 4 6 3 7 2 8 1 9 10 11 11 12 15 13 16 14
REMARK SMILES IDX 17 15 12 17 13 18 14 19
REMARK H PARENT
REMARK Flexibility Score: 70.00
ROOT
ATOM      1  C   UNL     1      18.006  26.819  42.144  1.00  0.00     0.136 C 
ATOM      2  O   UNL     1      17.163  26.346  42.893  1.00  0.00    -0.299 OA
ENDROOT
BRANCH   1   3
ATOM      3  C   UNL     1      18.761  28.068  42.553  1.00  0.00     0.053 C 
ATOM      4  C   UNL     1      17.770  29.222  42.739  1.00  0.00     0.016 C 
BRANCH   3   5
ATOM      5  C   UNL     1      19.585  27.858  43.844  1.00  0.00     0.015 C 
BRANCH   5   6
ATOM      6  C   UNL     1      20.824  26.978  43.635  1.00  0.00     0.028 C 
BRANCH   6   7
ATOM      7  C   UNL     1      21.790  27.612  42.664  1.00  0.00    -0.028 C 
ATOM      8  C   UNL     1      22.025  27.210  41.393  1.00  0.00    -0.070 CG0
ATOM      9  C   UNL     1      23.017  28.003  40.578  1.00  0.00     0.039 C 
ATOM     10  G   UNL     1      21.337  26.026  40.737  1.00  0.00     0.000 G0
ENDBRANCH   6   7
ENDBRANCH   5   6
ENDBRANCH   3   5
ENDBRANCH   1   3
BRANCH   1  11
ATOM     11  C   UNL     1      18.203  26.220  40.774  1.00  0.00     0.087 C 
BRANCH  11  12
ATOM     12  C   UNL     1      19.045  27.100  39.816  1.00  0.00     0.066 C 
BRANCH  12  13
ATOM     13  C   UNL     1      20.419  26.462  39.612  1.00  0.00     0.140 C 
ATOM     14  O   UNL     1      20.789  26.273  38.461  1.00  0.00    -0.299 OA
BRANCH  13  15
ATOM     15  C   UNL     1      21.341  26.016  40.729  1.00  0.00     0.106 CG0
ATOM     16  G   UNL     1      22.043  27.195  41.377  1.00  0.00     0.000 G0
ENDBRANCH  13  15
ENDBRANCH  12  13
BRANCH  12  17
ATOM     17  C   UNL     1      18.300  27.550  38.514  1.00  0.00    -0.006 C 
ATOM     18  C   UNL     1      17.589  28.903  38.717  1.00  0.00     0.008 C 
ATOM     19  C   UNL     1      17.241  26.522  38.070  1.00  0.00     0.008 C 
ENDBRANCH  12  17
ENDBRANCH  11  12
ENDBRANCH   1  11
TORSDOF 1
ENDMDL
MODEL 4
REMARK VINA RESULT:    -2.869      2.021      4.300
REMARK INTER + INTRA:          -4.865
REMARK INTER:                  -4.466
REMARK INTRA:                  -0.398
REMARK UNBOUND:                -0.486
REMARK SMILES CC1=CCC[C@H](C)C(=O)C[C@H](C(C)C)C(=O)C1
REMARK SMILES IDX 8 1 9 2 6 3 7 4 5 5 4 6 3 7 2 8 1 9 10 11 11 12 15 13 16 14
REMARK SMILES IDX 17 15 12 17 13 18 14 19
REMARK H PARENT
REMARK Flexibility Score: 70.00
ROOT
ATOM      1  C   UNL     1      22.101  25.452  40.443  1.00  0.00     0.136 C 
ATOM      2  O   UNL     1      21.993  24.265  40.172  1.00  0.00    -0.299 OA
ENDROOT
BRANCH   1   3
ATOM      3  C   UNL     1      21.900  26.492  39.360  1.00  0.00     0.053 C 
ATOM      4  C   UNL     1      22.824  26.181  38.178  1.00  0.00     0.016 C 
BRANCH   3   5
ATOM      5  C   UNL     1      20.431  26.568  38.885  1.00  0.00     0.015 C 
BRANCH   5   6
ATOM      6  C   UNL     1      19.614  27.645  39.609  1.00  0.00     0.028 C 
BRANCH   6   7
ATOM      7  C   UNL     1      18.571  27.030  40.509  1.00  0.00    -0.028 C 
ATOM      8  C   UNL     1      18.501  27.156  41.855  1.00  0.00    -0.070 CG0
ATOM      9  C   UNL     1      17.355  26.476  42.564  1.00  0.00     0.039 C 
ATOM     10  G   UNL     1      19.491  27.953  42.685  1.00  0.00     0.000 G0
ENDBRANCH   6   7
ENDBRANCH   5   6
ENDBRANCH   3   5
ENDBRANCH   1   3
BRANCH   1  11
ATOM     11  C   UNL     1      22.547  25.861  41.824  1.00  0.00     0.087 C 
BRANCH  11  12
ATOM     12  C   UNL     1      22.065  27.271  42.251  1.00  0.00     0.066 C 
BRANCH  12  13
ATOM     13  C   UNL     1      20.747  27.151  43.016  1.00  0.00     0.140 C 
ATOM     14  O   UNL     1      20.690  26.326  43.917  1.00  0.00    -0.299 OA
BRANCH  13  15
ATOM     15  C   UNL     1      19.497  27.955  42.717  1.00  0.00     0.106 CG0
ATOM     16  G   UNL     1      18.518  27.167  41.866  1.00  0.00     0.000 G0
ENDBRANCH  13  15
ENDBRANCH  12  13
BRANCH  12  17
ATOM     17  C   UNL     1      23.164  28.166  42.918  1.00  0.00    -0.006 C 
ATOM     18  C   UNL     1      23.124  29.604  42.364  1.00  0.00     0.008 C 
ATOM     19  C   UNL     1      24.581  27.609  42.685  1.00  0.00     0.008 C 
ENDBRANCH  12  17
ENDBRANCH  11  12
ENDBRANCH   1  11
TORSDOF 1
ENDMDL
MODEL 5
REMARK VINA RESULT:    -2.834      2.442      5.476
REMARK INTER + INTRA:          -4.811
REMARK INTER:                  -4.369
REMARK INTRA:                  -0.443
REMARK UNBOUND:                -0.486
REMARK SMILES CC1=CCC[C@H](C)C(=O)C[C@H](C(C)C)C(=O)C1
REMARK SMILES IDX 8 1 9 2 6 3 7 4 5 5 4 6 3 7 2 8 1 9 10 11 11 12 15 13 16 14
REMARK SMILES IDX 17 15 12 17 13 18 14 19
REMARK H PARENT
REMARK Flexibility Score: 70.00
ROOT
ATOM      1  C   UNL     1      20.939  28.727  42.535  1.00  0.00     0.136 C 
ATOM      2  O   UNL     1      22.026  29.025  43.009  1.00  0.00    -0.299 OA
ENDROOT
BRANCH   1   3
ATOM      3  C   UNL     1      20.038  27.754  43.269  1.00  0.00     0.053 C 
ATOM      4  C   UNL     1      20.896  26.689  43.959  1.00  0.00     0.016 C 
BRANCH   3   5
ATOM      5  C   UNL     1      19.131  28.462  44.302  1.00  0.00     0.015 C 
BRANCH   5   6
ATOM      6  C   UNL     1      17.944  29.195  43.665  1.00  0.00     0.028 C 
BRANCH   6   7
ATOM      7  C   UNL     1      17.068  28.246  42.884  1.00  0.00    -0.028 C 
ATOM      8  C   UNL     1      16.916  28.220  41.540  1.00  0.00    -0.070 CG0
ATOM      9  C   UNL     1      16.006  27.167  40.957  1.00  0.00     0.039 C 
ATOM     10  G   UNL     1      17.620  29.170  40.588  1.00  0.00     0.000 G0
ENDBRANCH   6   7
ENDBRANCH   5   6
ENDBRANCH   3   5
ENDBRANCH   1   3
BRANCH   1  11
ATOM     11  C   UNL     1      20.558  29.241  41.169  1.00  0.00     0.087 C 
BRANCH  11  12
ATOM     12  C   UNL     1      20.068  28.141  40.194  1.00  0.00     0.066 C 
BRANCH  12  13
ATOM     13  C   UNL     1      18.648  28.464  39.730  1.00  0.00     0.140 C 
ATOM     14  O   UNL     1      18.341  28.146  38.590  1.00  0.00    -0.299 OA
BRANCH  13  15
ATOM     15  C   UNL     1      17.606  29.178  40.567  1.00  0.00     0.106 CG0
ATOM     16  G   UNL     1      16.913  28.227  41.526  1.00  0.00     0.000 G0
ENDBRANCH  13  15
ENDBRANCH  12  13
BRANCH  12  17
ATOM     17  C   UNL     1      21.087  27.764  39.066  1.00  0.00    -0.006 C 
ATOM     18  C   UNL     1      22.133  26.752  39.574  1.00  0.00     0.008 C 
ATOM     19  C   UNL     1      21.842  28.998  38.535  1.00  0.00     0.008 C 
ENDBRANCH  12  17
ENDBRANCH  11  12
ENDBRANCH   1  11
TORSDOF 1
ENDMDL
MODEL 6
REMARK VINA RESULT:    -2.809      1.837      2.896
REMARK INTER + INTRA:          -4.774
REMARK INTER:                  -4.397
REMARK INTRA:                  -0.377
REMARK UNBOUND:                -0.486
REMARK SMILES CC1=CCC[C@H](C)C(=O)C[C@H](C(C)C)C(=O)C1
REMARK SMILES IDX 8 1 9 2 6 3 7 4 5 5 4 6 3 7 2 8 1 9 10 11 11 12 15 13 16 14
REMARK SMILES IDX 17 15 12 17 13 18 14 19
REMARK H PARENT
REMARK Flexibility Score: 70.00
ROOT
ATOM      1  C   UNL     1      20.299  28.572  42.482  1.00  0.00     0.136 C 
ATOM      2  O   UNL     1      19.304  29.281  42.428  1.00  0.00    -0.299 OA
ENDROOT
BRANCH   1   3
ATOM      3  C   UNL     1      21.663  29.166  42.193  1.00  0.00     0.053 C 
ATOM      4  C   UNL     1      22.711  28.487  43.080  1.00  0.00     0.016 C 
BRANCH   3   5
ATOM      5  C   UNL     1      22.055  29.031  40.703  1.00  0.00     0.015 C 
BRANCH   5   6
ATOM      6  C   UNL     1      23.400  28.324  40.492  1.00  0.00     0.028 C 
BRANCH   6   7
ATOM      7  C   UNL     1      23.271  27.181  39.516  1.00  0.00    -0.028 C 
ATOM      8  C   UNL     1      22.867  25.922  39.807  1.00  0.00    -0.070 CG0
ATOM      9  C   UNL     1      22.782  24.932  38.671  1.00  0.00     0.039 C 
ATOM     10  G   UNL     1      22.476  25.458  41.198  1.00  0.00     0.000 G0
ENDBRANCH   6   7
ENDBRANCH   5   6
ENDBRANCH   3   5
ENDBRANCH   1   3
BRANCH   1  11
ATOM     11  C   UNL     1      20.144  27.091  42.722  1.00  0.00     0.087 C 
BRANCH  11  12
ATOM     12  C   UNL     1      19.920  26.263  41.432  1.00  0.00     0.066 C 
BRANCH  12  13
ATOM     13  C   UNL     1      20.994  25.180  41.327  1.00  0.00     0.140 C 
ATOM     14  O   UNL     1      20.627  24.014  41.374  1.00  0.00    -0.299 OA
BRANCH  13  15
ATOM     15  C   UNL     1      22.481  25.447  41.202  1.00  0.00     0.106 CG0
ATOM     16  G   UNL     1      22.845  25.938  39.813  1.00  0.00     0.000 G0
ENDBRANCH  13  15
ENDBRANCH  12  13
BRANCH  12  17
ATOM     17  C   UNL     1      18.445  25.786  41.208  1.00  0.00    -0.006 C 
ATOM     18  C   UNL     1      17.869  26.353  39.895  1.00  0.00     0.008 C 
ATOM     19  C   UNL     1      17.516  26.220  42.358  1.00  0.00     0.008 C 
ENDBRANCH  12  17
ENDBRANCH  11  12
ENDBRANCH   1  11
TORSDOF 1
ENDMDL
MODEL 7
REMARK VINA RESULT:    -2.787      2.195      4.054
REMARK INTER + INTRA:          -4.740
REMARK INTER:                  -4.428
REMARK INTRA:                  -0.312
REMARK UNBOUND:                -0.486
REMARK SMILES CC1=CCC[C@H](C)C(=O)C[C@H](C(C)C)C(=O)C1
REMARK SMILES IDX 8 1 9 2 6 3 7 4 5 5 4 6 3 7 2 8 1 9 10 11 11 12 15 13 16 14
REMARK SMILES IDX 17 15 12 17 13 18 14 19
REMARK H PARENT
REMARK Flexibility Score: 70.00
ROOT
ATOM      1  C   UNL     1      20.957  25.973  41.737  1.00  0.00     0.136 C 
ATOM      2  O   UNL     1      21.701  25.452  40.919  1.00  0.00    -0.299 OA
ENDROOT
BRANCH   1   3
ATOM      3  C   UNL     1      21.532  26.576  43.003  1.00  0.00     0.053 C 
ATOM      4  C   UNL     1      21.974  25.452  43.945  1.00  0.00     0.016 C 
BRANCH   3   5
ATOM      5  C   UNL     1      22.716  27.527  42.712  1.00  0.00     0.015 C 
BRANCH   5   6
ATOM      6  C   UNL     1      22.274  28.934  42.291  1.00  0.00     0.028 C 
BRANCH   6   7
ATOM      7  C   UNL     1      22.272  29.081  40.789  1.00  0.00    -0.028 C 
ATOM      8  C   UNL     1      21.191  29.324  40.011  1.00  0.00    -0.070 CG0
ATOM      9  C   UNL     1      21.414  29.461  38.525  1.00  0.00     0.039 C 
ATOM     10  G   UNL     1      19.780  29.486  40.545  1.00  0.00     0.000 G0
ENDBRANCH   6   7
ENDBRANCH   5   6
ENDBRANCH   3   5
ENDBRANCH   1   3
BRANCH   1  11
ATOM     11  C   UNL     1      19.464  25.907  41.531  1.00  0.00     0.087 C 
BRANCH  11  12
ATOM     12  C   UNL     1      18.741  27.265  41.717  1.00  0.00     0.066 C 
BRANCH  12  13
ATOM     13  C   UNL     1      19.006  28.155  40.502  1.00  0.00     0.140 C 
ATOM     14  O   UNL     1      18.595  27.767  39.417  1.00  0.00    -0.299 OA
BRANCH  13  15
ATOM     15  C   UNL     1      19.769  29.464  40.539  1.00  0.00     0.106 CG0
ATOM     16  G   UNL     1      21.179  29.302  40.001  1.00  0.00     0.000 G0
ENDBRANCH  13  15
ENDBRANCH  12  13
BRANCH  12  17
ATOM     17  C   UNL     1      17.246  27.155  42.170  1.00  0.00    -0.006 C 
ATOM     18  C   UNL     1      16.911  28.206  43.248  1.00  0.00     0.008 C 
ATOM     19  C   UNL     1      16.918  25.765  42.748  1.00  0.00     0.008 C 
ENDBRANCH  12  17
ENDBRANCH  11  12
ENDBRANCH   1  11
TORSDOF 1
ENDMDL
MODEL 8
REMARK VINA RESULT:    -2.775      1.584      2.019
REMARK INTER + INTRA:          -4.721
REMARK INTER:                  -4.196
REMARK INTRA:                  -0.525
REMARK UNBOUND:                -0.486
REMARK SMILES CC1=CCC[C@H](C)C(=O)C[C@H](C(C)C)C(=O)C1
REMARK SMILES IDX 8 1 9 2 6 3 7 4 5 5 4 6 3 7 2 8 1 9 10 11 11 12 15 13 16 14
REMARK SMILES IDX 17 15 12 17 13 18 14 19
REMARK H PARENT
REMARK Flexibility Score: 70.00
ROOT
ATOM      1  C   UNL     1      17.601  28.567  39.721  1.00  0.00     0.136 C 
ATOM      2  O   UNL     1      16.852  29.359  39.168  1.00  0.00    -0.299 OA
ENDROOT
BRANCH   1   3
ATOM      3  C   UNL     1      17.708  27.145  39.207  1.00  0.00     0.053 C 
ATOM      4  C   UNL     1      16.306  26.611  38.895  1.00  0.00     0.016 C 
BRANCH   3   5
ATOM      5  C   UNL     1      18.609  27.042  37.955  1.00  0.00     0.015 C 
BRANCH   5   6
ATOM      6  C   UNL     1      20.084  27.354  38.242  1.00  0.00     0.028 C 
BRANCH   6   7
ATOM      7  C   UNL     1      20.717  26.277  39.090  1.00  0.00    -0.028 C 
ATOM      8  C   UNL     1      21.156  26.416  40.362  1.00  0.00    -0.070 CG0
ATOM      9  C   UNL     1      21.737  25.200  41.040  1.00  0.00     0.039 C 
ATOM     10  G   UNL     1      21.080  27.712  41.149  1.00  0.00     0.000 G0
ENDBRANCH   6   7
ENDBRANCH   5   6
ENDBRANCH   3   5
ENDBRANCH   1   3
BRANCH   1  11
ATOM     11  C   UNL     1      18.324  28.981  40.979  1.00  0.00     0.087 C 
BRANCH  11  12
ATOM     12  C   UNL     1      18.516  27.835  42.003  1.00  0.00     0.066 C 
BRANCH  12  13
ATOM     13  C   UNL     1      20.009  27.607  42.242  1.00  0.00     0.140 C 
ATOM     14  O   UNL     1      20.366  27.358  43.385  1.00  0.00    -0.299 OA
BRANCH  13  15
ATOM     15  C   UNL     1      21.080  27.702  41.174  1.00  0.00     0.106 CG0
ATOM     16  G   UNL     1      21.173  26.422  40.364  1.00  0.00     0.000 G0
ENDBRANCH  13  15
ENDBRANCH  12  13
BRANCH  12  17
ATOM     17  C   UNL     1      17.628  27.948  43.288  1.00  0.00    -0.006 C 
ATOM     18  C   UNL     1      16.197  27.436  43.024  1.00  0.00     0.008 C 
ATOM     19  C   UNL     1      17.525  29.400  43.793  1.00  0.00     0.008 C 
ENDBRANCH  12  17
ENDBRANCH  11  12
ENDBRANCH   1  11
TORSDOF 1
ENDMDL
MODEL 9
REMARK VINA RESULT:    -2.708      1.945      4.015
REMARK INTER + INTRA:          -4.619
REMARK INTER:                  -4.482
REMARK INTRA:                  -0.137
REMARK UNBOUND:                -0.486
REMARK SMILES CC1=CCC[C@H](C)C(=O)C[C@H](C(C)C)C(=O)C1
REMARK SMILES IDX 8 1 9 2 6 3 7 4 5 5 4 6 3 7 2 8 1 9 10 11 11 12 15 13 16 14
REMARK SMILES IDX 17 15 12 17 13 18 14 19
REMARK H PARENT
REMARK Flexibility Score: 70.00
ROOT
ATOM      1  C   UNL     1      21.853  26.200  42.584  1.00  0.00     0.136 C 
ATOM      2  O   UNL     1      22.332  25.464  43.434  1.00  0.00    -0.299 OA
ENDROOT
BRANCH   1   3
ATOM      3  C   UNL     1      22.704  27.288  41.962  1.00  0.00     0.053 C 
ATOM      4  C   UNL     1      23.938  27.531  42.838  1.00  0.00     0.016 C 
BRANCH   3   5
ATOM      5  C   UNL     1      23.134  26.942  40.518  1.00  0.00     0.015 C 
BRANCH   5   6
ATOM      6  C   UNL     1      22.816  28.052  39.508  1.00  0.00     0.028 C 
BRANCH   6   7
ATOM      7  C   UNL     1      22.042  27.515  38.329  1.00  0.00    -0.028 C 
ATOM      8  C   UNL     1      20.699  27.565  38.165  1.00  0.00    -0.070 CG0
ATOM      9  C   UNL     1      20.127  26.988  36.893  1.00  0.00     0.039 C 
ATOM     10  G   UNL     1      19.744  28.182  39.170  1.00  0.00     0.000 G0
ENDBRANCH   6   7
ENDBRANCH   5   6
ENDBRANCH   3   5
ENDBRANCH   1   3
BRANCH   1  11
ATOM     11  C   UNL     1      20.386  26.090  42.247  1.00  0.00     0.087 C 
BRANCH  11  12
ATOM     12  C   UNL     1      19.754  27.412  41.742  1.00  0.00     0.066 C 
BRANCH  12  13
ATOM     13  C   UNL     1      19.345  27.256  40.277  1.00  0.00     0.140 C 
ATOM     14  O   UNL     1      18.672  26.279  39.980  1.00  0.00    -0.299 OA
BRANCH  13  15
ATOM     15  C   UNL     1      19.741  28.204  39.163  1.00  0.00     0.106 CG0
ATOM     16  G   UNL     1      20.705  27.550  38.191  1.00  0.00     0.000 G0
ENDBRANCH  13  15
ENDBRANCH  12  13
BRANCH  12  17
ATOM     17  C   UNL     1      18.671  28.026  42.693  1.00  0.00    -0.006 C 
ATOM     18  C   UNL     1      19.298  28.502  44.018  1.00  0.00     0.008 C 
ATOM     19  C   UNL     1      17.560  27.013  43.032  1.00  0.00     0.008 C 
ENDBRANCH  12  17
ENDBRANCH  11  12
ENDBRANCH   1  11
TORSDOF 1
ENDMDL
