MODEL 1
REMARK VINA RESULT:     2.809      0.000      0.000
REMARK INTER + INTRA:           4.360
REMARK INTER:                   5.271
REMARK INTRA:                  -0.911
REMARK UNBOUND:                -0.911
REMARK SMILES O=C([O-])CCCCCCCCCCCCCCC(=O)[O-]
REMARK SMILES IDX 10 1 9 2 8 3 7 4 6 5 5 6 4 7 2 8 1 9 3 10 11 11 12 12 13 13
REMARK SMILES IDX 14 14 15 15 16 16 17 17 18 18 19 19 20 20
REMARK H PARENT
REMARK Flexibility Score: inf
ROOT
ATOM      1  C   UNL     1      17.536   1.282  25.176  1.00  0.00     0.000 C 
ENDROOT
BRANCH   1   2
ATOM      2  C   UNL     1      17.189   2.773  25.006  1.00  0.00     0.000 C 
BRANCH   2   3
ATOM      3  C   UNL     1      16.454   3.412  26.199  1.00  0.00     0.000 C 
BRANCH   3   4
ATOM      4  C   UNL     1      14.969   3.680  25.914  1.00  0.00     0.000 C 
BRANCH   4   5
ATOM      5  C   UNL     1      14.230   2.380  25.578  1.00  0.00     0.000 C 
BRANCH   5   6
ATOM      6  C   UNL     1      13.303   2.571  24.368  1.00  0.00     0.006 C 
BRANCH   6   7
ATOM      7  C   UNL     1      13.941   3.445  23.280  1.00  0.00     0.053 C 
BRANCH   7   8
ATOM      8  C   UNL     1      13.016   4.532  22.827  1.00  0.00     0.041 C 
ATOM      9  O   UNL     1      11.919   4.244  22.278  1.00  0.00    -0.550 OA
ATOM     10  O   UNL     1      13.350   5.864  23.039  1.00  0.00    -0.550 OA
ENDBRANCH   7   8
ENDBRANCH   6   7
ENDBRANCH   5   6
ENDBRANCH   4   5
ENDBRANCH   3   4
ENDBRANCH   2   3
ENDBRANCH   1   2
BRANCH   1  11
ATOM     11  C   UNL     1      18.910   0.916  24.588  1.00  0.00     0.000 C 
BRANCH  11  12
ATOM     12  C   UNL     1      20.043   1.787  25.158  1.00  0.00     0.000 C 
BRANCH  12  13
ATOM     13  C   UNL     1      21.126   0.954  25.864  1.00  0.00     0.000 C 
BRANCH  13  14
ATOM     14  C   UNL     1      20.741   0.566  27.303  1.00  0.00     0.000 C 
BRANCH  14  15
ATOM     15  C   UNL     1      19.404   1.146  27.801  1.00  0.00     0.000 C 
BRANCH  15  16
ATOM     16  C   UNL     1      19.540   1.907  29.131  1.00  0.00     0.006 C 
BRANCH  16  17
ATOM     17  C   UNL     1      18.668   3.170  29.166  1.00  0.00     0.053 C 
BRANCH  17  18
ATOM     18  C   UNL     1      18.579   3.746  30.545  1.00  0.00     0.041 C 
ATOM     19  O   UNL     1      19.480   3.510  31.393  1.00  0.00    -0.550 OA
ATOM     20  O   UNL     1      17.513   4.571  30.887  1.00  0.00    -0.550 OA
ENDBRANCH  17  18
ENDBRANCH  16  17
ENDBRANCH  15  16
ENDBRANCH  14  15
ENDBRANCH  13  14
ENDBRANCH  12  13
ENDBRANCH  11  12
ENDBRANCH   1  11
TORSDOF 15
ENDMDL
MODEL 2
REMARK VINA RESULT:     2.891      0.831      7.200
REMARK INTER + INTRA:           4.514
REMARK INTER:                   5.678
REMARK INTRA:                  -1.164
REMARK UNBOUND:                -0.911
REMARK SMILES O=C([O-])CCCCCCCCCCCCCCC(=O)[O-]
REMARK SMILES IDX 10 1 9 2 8 3 7 4 6 5 5 6 4 7 2 8 1 9 3 10 11 11 12 12 13 13
REMARK SMILES IDX 14 14 15 15 16 16 17 17 18 18 19 19 20 20
REMARK H PARENT
REMARK Flexibility Score: inf
ROOT
ATOM      1  C   UNL     1      19.521   1.483  24.988  1.00  0.00     0.000 C 
ENDROOT
BRANCH   1   2
ATOM      2  C   UNL     1      20.289   0.941  26.208  1.00  0.00     0.000 C 
BRANCH   2   3
ATOM      3  C   UNL     1      19.443   0.755  27.481  1.00  0.00     0.000 C 
BRANCH   3   4
ATOM      4  C   UNL     1      19.183   2.072  28.226  1.00  0.00     0.000 C 
BRANCH   4   5
ATOM      5  C   UNL     1      19.674   1.989  29.676  1.00  0.00     0.000 C 
BRANCH   5   6
ATOM      6  C   UNL     1      19.489   3.333  30.397  1.00  0.00     0.006 C 
BRANCH   6   7
ATOM      7  C   UNL     1      18.556   4.280  29.630  1.00  0.00     0.053 C 
BRANCH   7   8
ATOM      8  C   UNL     1      17.243   4.455  30.329  1.00  0.00     0.041 C 
ATOM      9  O   UNL     1      17.161   4.288  31.575  1.00  0.00    -0.550 OA
ATOM     10  O   UNL     1      16.116   4.833  29.610  1.00  0.00    -0.550 OA
ENDBRANCH   7   8
ENDBRANCH   6   7
ENDBRANCH   5   6
ENDBRANCH   4   5
ENDBRANCH   3   4
ENDBRANCH   2   3
ENDBRANCH   1   2
BRANCH   1  11
ATOM     11  C   UNL     1      17.995   1.340  25.130  1.00  0.00     0.000 C 
BRANCH  11  12
ATOM     12  C   UNL     1      17.253   2.655  24.836  1.00  0.00     0.000 C 
BRANCH  12  13
ATOM     13  C   UNL     1      16.488   3.185  26.062  1.00  0.00     0.000 C 
BRANCH  13  14
ATOM     14  C   UNL     1      15.044   3.604  25.732  1.00  0.00     0.000 C 
BRANCH  14  15
ATOM     15  C   UNL     1      14.041   2.443  25.593  1.00  0.00     0.000 C 
BRANCH  15  16
ATOM     16  C   UNL     1      13.239   2.498  24.281  1.00  0.00     0.006 C 
BRANCH  16  17
ATOM     17  C   UNL     1      13.908   3.395  23.231  1.00  0.00     0.053 C 
BRANCH  17  18
ATOM     18  C   UNL     1      13.009   4.511  22.798  1.00  0.00     0.041 C 
ATOM     19  O   UNL     1      11.920   4.261  22.216  1.00  0.00    -0.550 OA
ATOM     20  O   UNL     1      13.360   5.830  23.062  1.00  0.00    -0.550 OA
ENDBRANCH  17  18
ENDBRANCH  16  17
ENDBRANCH  15  16
ENDBRANCH  14  15
ENDBRANCH  13  14
ENDBRANCH  12  13
ENDBRANCH  11  12
ENDBRANCH   1  11
TORSDOF 15
ENDMDL
MODEL 3
REMARK VINA RESULT:     2.951      0.530      7.542
REMARK INTER + INTRA:           4.628
REMARK INTER:                   5.442
REMARK INTRA:                  -0.814
REMARK UNBOUND:                -0.911
REMARK SMILES O=C([O-])CCCCCCCCCCCCCCC(=O)[O-]
REMARK SMILES IDX 10 1 9 2 8 3 7 4 6 5 5 6 4 7 2 8 1 9 3 10 11 11 12 12 13 13
REMARK SMILES IDX 14 14 15 15 16 16 17 17 18 18 19 19 20 20
REMARK H PARENT
REMARK Flexibility Score: inf
ROOT
ATOM      1  C   UNL     1      17.846   1.371  25.309  1.00  0.00     0.000 C 
ENDROOT
BRANCH   1   2
ATOM      2  C   UNL     1      19.245   1.135  24.711  1.00  0.00     0.000 C 
BRANCH   2   3
ATOM      3  C   UNL     1      20.347   0.813  25.739  1.00  0.00     0.000 C 
BRANCH   3   4
ATOM      4  C   UNL     1      20.276   1.697  26.991  1.00  0.00     0.000 C 
BRANCH   4   5
ATOM      5  C   UNL     1      19.475   1.011  28.104  1.00  0.00     0.000 C 
BRANCH   5   6
ATOM      6  C   UNL     1      19.497   1.846  29.393  1.00  0.00     0.006 C 
BRANCH   6   7
ATOM      7  C   UNL     1      18.804   3.204  29.216  1.00  0.00     0.053 C 
BRANCH   7   8
ATOM      8  C   UNL     1      18.598   3.898  30.527  1.00  0.00     0.041 C 
ATOM      9  O   UNL     1      19.558   4.034  31.331  1.00  0.00    -0.550 OA
ATOM     10  O   UNL     1      17.352   4.425  30.849  1.00  0.00    -0.550 OA
ENDBRANCH   7   8
ENDBRANCH   6   7
ENDBRANCH   5   6
ENDBRANCH   4   5
ENDBRANCH   3   4
ENDBRANCH   2   3
ENDBRANCH   1   2
BRANCH   1  11
ATOM     11  C   UNL     1      17.243   2.727  24.904  1.00  0.00     0.000 C 
BRANCH  11  12
ATOM     12  C   UNL     1      16.694   3.510  26.109  1.00  0.00     0.000 C 
BRANCH  12  13
ATOM     13  C   UNL     1      15.157   3.519  26.154  1.00  0.00     0.000 C 
BRANCH  13  14
ATOM     14  C   UNL     1      14.536   2.178  25.721  1.00  0.00     0.000 C 
BRANCH  14  15
ATOM     15  C   UNL     1      13.109   2.272  25.150  1.00  0.00     0.000 C 
BRANCH  15  16
ATOM     16  C   UNL     1      13.084   2.403  23.617  1.00  0.00     0.006 C 
BRANCH  16  17
ATOM     17  C   UNL     1      13.887   3.615  23.127  1.00  0.00     0.053 C 
BRANCH  17  18
ATOM     18  C   UNL     1      12.993   4.747  22.723  1.00  0.00     0.041 C 
ATOM     19  O   UNL     1      11.850   4.516  22.248  1.00  0.00    -0.550 OA
ATOM     20  O   UNL     1      13.414   6.061  22.897  1.00  0.00    -0.550 OA
ENDBRANCH  17  18
ENDBRANCH  16  17
ENDBRANCH  15  16
ENDBRANCH  14  15
ENDBRANCH  13  14
ENDBRANCH  12  13
ENDBRANCH  11  12
ENDBRANCH   1  11
TORSDOF 15
ENDMDL
MODEL 4
REMARK VINA RESULT:     4.202      2.508      4.164
REMARK INTER + INTRA:           6.975
REMARK INTER:                   8.119
REMARK INTRA:                  -1.143
REMARK UNBOUND:                -0.911
REMARK SMILES O=C([O-])CCCCCCCCCCCCCCC(=O)[O-]
REMARK SMILES IDX 10 1 9 2 8 3 7 4 6 5 5 6 4 7 2 8 1 9 3 10 11 11 12 12 13 13
REMARK SMILES IDX 14 14 15 15 16 16 17 17 18 18 19 19 20 20
REMARK H PARENT
REMARK Flexibility Score: inf
ROOT
ATOM      1  C   UNL     1      16.000   4.604  29.444  1.00  0.00     0.000 C 
ENDROOT
BRANCH   1   2
ATOM      2  C   UNL     1      16.050   5.276  28.059  1.00  0.00     0.000 C 
BRANCH   2   3
ATOM      3  C   UNL     1      15.365   4.487  26.927  1.00  0.00     0.000 C 
BRANCH   3   4
ATOM      4  C   UNL     1      16.353   3.670  26.082  1.00  0.00     0.000 C 
BRANCH   4   5
ATOM      5  C   UNL     1      15.613   2.670  25.187  1.00  0.00     0.000 C 
BRANCH   5   6
ATOM      6  C   UNL     1      14.169   2.463  25.669  1.00  0.00     0.006 C 
BRANCH   6   7
ATOM      7  C   UNL     1      13.174   2.379  24.504  1.00  0.00     0.053 C 
BRANCH   7   8
ATOM      8  C   UNL     1      13.490   3.375  23.431  1.00  0.00     0.041 C 
ATOM      9  O   UNL     1      13.904   2.986  22.306  1.00  0.00    -0.550 OA
ATOM     10  O   UNL     1      13.296   4.732  23.661  1.00  0.00    -0.550 OA
ENDBRANCH   7   8
ENDBRANCH   6   7
ENDBRANCH   5   6
ENDBRANCH   4   5
ENDBRANCH   3   4
ENDBRANCH   2   3
ENDBRANCH   1   2
BRANCH   1  11
ATOM     11  C   UNL     1      17.204   4.967  30.330  1.00  0.00     0.000 C 
BRANCH  11  12
ATOM     12  C   UNL     1      18.065   3.742  30.682  1.00  0.00     0.000 C 
BRANCH  12  13
ATOM     13  C   UNL     1      19.123   3.438  29.608  1.00  0.00     0.000 C 
BRANCH  13  14
ATOM     14  C   UNL     1      19.629   1.984  29.658  1.00  0.00     0.000 C 
BRANCH  14  15
ATOM     15  C   UNL     1      19.389   1.164  28.376  1.00  0.00     0.000 C 
BRANCH  15  16
ATOM     16  C   UNL     1      18.772   1.997  27.239  1.00  0.00     0.006 C 
BRANCH  16  17
ATOM     17  C   UNL     1      19.004   1.358  25.863  1.00  0.00     0.053 C 
BRANCH  17  18
ATOM     18  C   UNL     1      20.459   1.137  25.590  1.00  0.00     0.041 C 
ATOM     19  O   UNL     1      20.921  -0.031  25.514  1.00  0.00    -0.550 OA
ATOM     20  O   UNL     1      21.303   2.224  25.392  1.00  0.00    -0.550 OA
ENDBRANCH  17  18
ENDBRANCH  16  17
ENDBRANCH  15  16
ENDBRANCH  14  15
ENDBRANCH  13  14
ENDBRANCH  12  13
ENDBRANCH  11  12
ENDBRANCH   1  11
TORSDOF 15
ENDMDL
MODEL 5
REMARK VINA RESULT:     4.418      2.540      7.259
REMARK INTER + INTRA:           7.381
REMARK INTER:                   8.616
REMARK INTRA:                  -1.234
REMARK UNBOUND:                -0.911
REMARK SMILES O=C([O-])CCCCCCCCCCCCCCC(=O)[O-]
REMARK SMILES IDX 10 1 9 2 8 3 7 4 6 5 5 6 4 7 2 8 1 9 3 10 11 11 12 12 13 13
REMARK SMILES IDX 14 14 15 15 16 16 17 17 18 18 19 19 20 20
REMARK H PARENT
REMARK Flexibility Score: inf
ROOT
ATOM      1  C   UNL     1      17.610   4.932  30.527  1.00  0.00     0.000 C 
ENDROOT
BRANCH   1   2
ATOM      2  C   UNL     1      18.584   3.748  30.670  1.00  0.00     0.000 C 
BRANCH   2   3
ATOM      3  C   UNL     1      19.149   3.205  29.344  1.00  0.00     0.000 C 
BRANCH   3   4
ATOM      4  C   UNL     1      19.469   1.705  29.397  1.00  0.00     0.000 C 
BRANCH   4   5
ATOM      5  C   UNL     1      19.336   1.066  28.010  1.00  0.00     0.000 C 
BRANCH   5   6
ATOM      6  C   UNL     1      18.847   2.091  26.976  1.00  0.00     0.006 C 
BRANCH   6   7
ATOM      7  C   UNL     1      19.109   1.632  25.535  1.00  0.00     0.053 C 
BRANCH   7   8
ATOM      8  C   UNL     1      20.468   1.022  25.384  1.00  0.00     0.041 C 
ATOM      9  O   UNL     1      20.588  -0.174  25.010  1.00  0.00    -0.550 OA
ATOM     10  O   UNL     1      21.605   1.785  25.625  1.00  0.00    -0.550 OA
ENDBRANCH   7   8
ENDBRANCH   6   7
ENDBRANCH   5   6
ENDBRANCH   4   5
ENDBRANCH   3   4
ENDBRANCH   2   3
ENDBRANCH   1   2
BRANCH   1  11
ATOM     11  C   UNL     1      16.282   4.538  29.858  1.00  0.00     0.000 C 
BRANCH  11  12
ATOM     12  C   UNL     1      16.184   5.039  28.407  1.00  0.00     0.000 C 
BRANCH  12  13
ATOM     13  C   UNL     1      15.463   4.039  27.487  1.00  0.00     0.000 C 
BRANCH  13  14
ATOM     14  C   UNL     1      16.174   3.848  26.134  1.00  0.00     0.000 C 
BRANCH  14  15
ATOM     15  C   UNL     1      15.514   2.830  25.186  1.00  0.00     0.000 C 
BRANCH  15  16
ATOM     16  C   UNL     1      14.057   2.515  25.566  1.00  0.00     0.006 C 
BRANCH  16  17
ATOM     17  C   UNL     1      13.148   2.407  24.335  1.00  0.00     0.053 C 
BRANCH  17  18
ATOM     18  C   UNL     1      13.486   3.438  23.302  1.00  0.00     0.041 C 
ATOM     19  O   UNL     1      14.072   3.105  22.239  1.00  0.00    -0.550 OA
ATOM     20  O   UNL     1      13.127   4.766  23.502  1.00  0.00    -0.550 OA
ENDBRANCH  17  18
ENDBRANCH  16  17
ENDBRANCH  15  16
ENDBRANCH  14  15
ENDBRANCH  13  14
ENDBRANCH  12  13
ENDBRANCH  11  12
ENDBRANCH   1  11
TORSDOF 15
ENDMDL
