MODEL 1
REMARK VINA RESULT:    -2.159      0.000      0.000
REMARK INTER + INTRA:          -2.159
REMARK INTER:                  -2.159
REMARK INTRA:                   0.000
REMARK UNBOUND:                 0.000
REMARK SMILES CC(=O)[O-]
REMARK SMILES IDX 1 1 2 2 3 3 4 4
REMARK H PARENT
REMARK Flexibility Score: inf
ROOT
ATOM      1  C   UNL     1     -15.319  -6.863 -30.933  1.00  0.00     0.063 C 
ATOM      2  C   UNL     1     -14.291  -7.721 -30.279  1.00  0.00     0.038 C 
ATOM      3  O   UNL     1     -14.371  -8.975 -30.357  1.00  0.00    -0.550 OA
ATOM      4  O   UNL     1     -13.212  -7.139 -29.625  1.00  0.00    -0.550 OA
ENDROOT
TORSDOF 0
ENDMDL
MODEL 2
REMARK VINA RESULT:    -2.106      1.714      1.890
REMARK INTER + INTRA:          -2.106
REMARK INTER:                  -2.106
REMARK INTRA:                   0.000
REMARK UNBOUND:                 0.000
REMARK SMILES CC(=O)[O-]
REMARK SMILES IDX 1 1 2 2 3 3 4 4
REMARK H PARENT
REMARK Flexibility Score: inf
ROOT
ATOM      1  C   UNL     1     -13.550  -6.398 -29.957  1.00  0.00     0.063 C 
ATOM      2  C   UNL     1     -14.623  -7.189 -30.624  1.00  0.00     0.038 C 
ATOM      3  O   UNL     1     -14.646  -8.443 -30.512  1.00  0.00    -0.550 OA
ATOM      4  O   UNL     1     -15.630  -6.541 -31.328  1.00  0.00    -0.550 OA
ENDROOT
TORSDOF 0
ENDMDL
MODEL 3
REMARK VINA RESULT:    -2.103      2.347      2.882
REMARK INTER + INTRA:          -2.103
REMARK INTER:                  -2.103
REMARK INTRA:                   0.000
REMARK UNBOUND:                 0.000
REMARK SMILES CC(=O)[O-]
REMARK SMILES IDX 1 1 2 2 3 3 4 4
REMARK H PARENT
REMARK Flexibility Score: inf
ROOT
ATOM      1  C   UNL     1     -14.971  -7.634 -30.650  1.00  0.00     0.063 C 
ATOM      2  C   UNL     1     -15.073  -6.240 -31.167  1.00  0.00     0.038 C 
ATOM      3  O   UNL     1     -14.181  -5.395 -30.889  1.00  0.00    -0.550 OA
ATOM      4  O   UNL     1     -16.125  -5.882 -32.001  1.00  0.00    -0.550 OA
ENDROOT
TORSDOF 0
ENDMDL
MODEL 4
REMARK VINA RESULT:    -2.056      2.035      2.332
REMARK INTER + INTRA:          -2.056
REMARK INTER:                  -2.056
REMARK INTRA:                   0.000
REMARK UNBOUND:                 0.000
REMARK SMILES CC(=O)[O-]
REMARK SMILES IDX 1 1 2 2 3 3 4 4
REMARK H PARENT
REMARK Flexibility Score: inf
ROOT
ATOM      1  C   UNL     1     -13.944  -5.770 -30.241  1.00  0.00     0.063 C 
ATOM      2  C   UNL     1     -14.937  -6.665 -30.899  1.00  0.00     0.038 C 
ATOM      3  O   UNL     1     -15.740  -6.200 -31.750  1.00  0.00    -0.550 OA
ATOM      4  O   UNL     1     -14.944  -8.025 -30.614  1.00  0.00    -0.550 OA
ENDROOT
TORSDOF 0
ENDMDL
MODEL 5
REMARK VINA RESULT:    -2.027      5.557      5.900
REMARK INTER + INTRA:          -2.027
REMARK INTER:                  -2.027
REMARK INTRA:                   0.000
REMARK UNBOUND:                 0.000
REMARK SMILES CC(=O)[O-]
REMARK SMILES IDX 1 1 2 2 3 3 4 4
REMARK H PARENT
REMARK Flexibility Score: inf
ROOT
ATOM      1  C   UNL     1     -15.433  -1.630 -34.206  1.00  0.00     0.063 C 
ATOM      2  C   UNL     1     -15.188  -2.730 -33.230  1.00  0.00     0.038 C 
ATOM      3  O   UNL     1     -16.060  -3.620 -33.049  1.00  0.00    -0.550 OA
ATOM      4  O   UNL     1     -13.975  -2.805 -32.557  1.00  0.00    -0.550 OA
ENDROOT
TORSDOF 0
ENDMDL
MODEL 6
REMARK VINA RESULT:    -2.002     27.800     28.080
REMARK INTER + INTRA:          -2.002
REMARK INTER:                  -2.002
REMARK INTRA:                   0.000
REMARK UNBOUND:                 0.000
REMARK SMILES CC(=O)[O-]
REMARK SMILES IDX 1 1 2 2 3 3 4 4
REMARK H PARENT
REMARK Flexibility Score: inf
ROOT
ATOM      1  C   UNL     1       1.378   9.216 -14.937  1.00  0.00     0.063 C 
ATOM      2  C   UNL     1       1.745  10.274 -15.921  1.00  0.00     0.038 C 
ATOM      3  O   UNL     1       2.931  10.370 -16.333  1.00  0.00    -0.550 OA
ATOM      4  O   UNL     1       0.769  11.123 -16.426  1.00  0.00    -0.550 OA
ENDROOT
TORSDOF 0
ENDMDL
MODEL 7
REMARK VINA RESULT:    -1.972     27.489     27.881
REMARK INTER + INTRA:          -1.972
REMARK INTER:                  -1.972
REMARK INTRA:                   0.000
REMARK UNBOUND:                 0.000
REMARK SMILES CC(=O)[O-]
REMARK SMILES IDX 1 1 2 2 3 3 4 4
REMARK H PARENT
REMARK Flexibility Score: inf
ROOT
ATOM      1  C   UNL     1       3.895   9.861 -18.353  1.00  0.00     0.063 C 
ATOM      2  C   UNL     1       2.711  10.247 -17.534  1.00  0.00     0.038 C 
ATOM      3  O   UNL     1       2.792  10.271 -16.277  1.00  0.00    -0.550 OA
ATOM      4  O   UNL     1       1.530  10.633 -18.156  1.00  0.00    -0.550 OA
ENDROOT
TORSDOF 0
ENDMDL
MODEL 8
REMARK VINA RESULT:    -1.928      6.971      7.393
REMARK INTER + INTRA:          -1.928
REMARK INTER:                  -1.928
REMARK INTRA:                   0.000
REMARK UNBOUND:                 0.000
REMARK SMILES CC(=O)[O-]
REMARK SMILES IDX 1 1 2 2 3 3 4 4
REMARK H PARENT
REMARK Flexibility Score: inf
ROOT
ATOM      1  C   UNL     1     -15.522  -2.921 -33.280  1.00  0.00     0.063 C 
ATOM      2  C   UNL     1     -15.306  -1.546 -33.811  1.00  0.00     0.038 C 
ATOM      3  O   UNL     1     -15.450  -0.547 -33.057  1.00  0.00    -0.550 OA
ATOM      4  O   UNL     1     -14.893  -1.364 -35.125  1.00  0.00    -0.550 OA
ENDROOT
TORSDOF 0
ENDMDL
MODEL 9
REMARK VINA RESULT:    -1.895      7.107      7.692
REMARK INTER + INTRA:          -1.895
REMARK INTER:                  -1.895
REMARK INTRA:                   0.000
REMARK UNBOUND:                 0.000
REMARK SMILES CC(=O)[O-]
REMARK SMILES IDX 1 1 2 2 3 3 4 4
REMARK H PARENT
REMARK Flexibility Score: inf
ROOT
ATOM      1  C   UNL     1     -15.248  -1.536 -34.332  1.00  0.00     0.063 C 
ATOM      2  C   UNL     1     -15.255  -0.785 -33.045  1.00  0.00     0.038 C 
ATOM      3  O   UNL     1     -14.863   0.411 -33.008  1.00  0.00    -0.550 OA
ATOM      4  O   UNL     1     -15.745  -1.386 -31.892  1.00  0.00    -0.550 OA
ENDROOT
TORSDOF 0
ENDMDL
