MODEL 1
REMARK VINA RESULT:    -5.677      0.000      0.000
REMARK INTER + INTRA:         -14.888
REMARK INTER:                 -12.315
REMARK INTRA:                  -2.573
REMARK UNBOUND:                -2.573
REMARK SMILES CCCCCCCCCCCCCCCCCCCCCC(=O)[O-]
REMARK SMILES IDX 12 1 11 2 10 3 9 4 8 5 7 6 6 7 5 8 4 9 3 10 2 11 1 12 13 13
REMARK SMILES IDX 14 14 15 15 16 16 17 17 18 18 19 19 20 20 21 21 22 22 23 23
REMARK SMILES IDX 24 24
REMARK H PARENT
REMARK Flexibility Score: inf
ROOT
ATOM      1  C   UNL     1      58.374  38.675  38.041  1.00  0.00     0.000 C 
ENDROOT
BRANCH   1   2
ATOM      2  C   UNL     1      59.655  38.244  38.768  1.00  0.00     0.000 C 
BRANCH   2   3
ATOM      3  C   UNL     1      60.748  37.741  37.808  1.00  0.00     0.000 C 
BRANCH   3   4
ATOM      4  C   UNL     1      60.227  37.012  36.553  1.00  0.00    -0.000 C 
BRANCH   4   5
ATOM      5  C   UNL     1      61.238  36.904  35.395  1.00  0.00    -0.000 C 
BRANCH   5   6
ATOM      6  C   UNL     1      61.036  37.922  34.255  1.00  0.00    -0.000 C 
BRANCH   6   7
ATOM      7  C   UNL     1      61.559  39.341  34.544  1.00  0.00    -0.000 C 
BRANCH   7   8
ATOM      8  C   UNL     1      60.429  40.368  34.730  1.00  0.00    -0.000 C 
BRANCH   8   9
ATOM      9  C   UNL     1      59.184  40.036  33.891  1.00  0.00    -0.000 C 
BRANCH   9  10
ATOM     10  C   UNL     1      57.907  39.920  34.742  1.00  0.00    -0.000 C 
BRANCH  10  11
ATOM     11  C   UNL     1      56.895  38.926  34.154  1.00  0.00    -0.003 C 
ATOM     12  C   UNL     1      57.211  37.475  34.520  1.00  0.00     0.004 C 
ENDBRANCH  10  11
ENDBRANCH   9  10
ENDBRANCH   8   9
ENDBRANCH   7   8
ENDBRANCH   6   7
ENDBRANCH   5   6
ENDBRANCH   4   5
ENDBRANCH   3   4
ENDBRANCH   2   3
ENDBRANCH   1   2
BRANCH   1  13
ATOM     13  C   UNL     1      57.169  37.852  38.515  1.00  0.00     0.000 C 
BRANCH  13  14
ATOM     14  C   UNL     1      56.646  38.371  39.864  1.00  0.00     0.000 C 
BRANCH  14  15
ATOM     15  C   UNL     1      55.274  37.786  40.235  1.00  0.00     0.000 C 
BRANCH  15  16
ATOM     16  C   UNL     1      54.478  38.699  41.184  1.00  0.00     0.000 C 
BRANCH  16  17
ATOM     17  C   UNL     1      52.983  38.339  41.244  1.00  0.00     0.000 C 
BRANCH  17  18
ATOM     18  C   UNL     1      52.650  37.032  41.994  1.00  0.00     0.000 C 
BRANCH  18  19
ATOM     19  C   UNL     1      52.610  37.151  43.528  1.00  0.00     0.000 C 
BRANCH  19  20
ATOM     20  C   UNL     1      53.614  36.222  44.225  1.00  0.00     0.006 C 
BRANCH  20  21
ATOM     21  C   UNL     1      54.986  36.893  44.352  1.00  0.00     0.053 C 
BRANCH  21  22
ATOM     22  C   UNL     1      55.999  36.180  43.513  1.00  0.00     0.041 C 
ATOM     23  O   UNL     1      57.137  36.684  43.329  1.00  0.00    -0.550 OA
ATOM     24  O   UNL     1      55.668  34.982  42.894  1.00  0.00    -0.550 OA
ENDBRANCH  21  22
ENDBRANCH  20  21
ENDBRANCH  19  20
ENDBRANCH  18  19
ENDBRANCH  17  18
ENDBRANCH  16  17
ENDBRANCH  15  16
ENDBRANCH  14  15
ENDBRANCH  13  14
ENDBRANCH   1  13
TORSDOF 20
ENDMDL
MODEL 2
REMARK VINA RESULT:    -5.613      5.814      9.473
REMARK INTER + INTRA:         -14.749
REMARK INTER:                 -11.541
REMARK INTRA:                  -3.207
REMARK UNBOUND:                -2.573
REMARK SMILES CCCCCCCCCCCCCCCCCCCCCC(=O)[O-]
REMARK SMILES IDX 12 1 11 2 10 3 9 4 8 5 7 6 6 7 5 8 4 9 3 10 2 11 1 12 13 13
REMARK SMILES IDX 14 14 15 15 16 16 17 17 18 18 19 19 20 20 21 21 22 22 23 23
REMARK SMILES IDX 24 24
REMARK H PARENT
REMARK Flexibility Score: inf
ROOT
ATOM      1  C   UNL     1      50.781  36.545  44.678  1.00  0.00     0.000 C 
ENDROOT
BRANCH   1   2
ATOM      2  C   UNL     1      51.377  35.202  45.123  1.00  0.00     0.000 C 
BRANCH   2   3
ATOM      3  C   UNL     1      50.799  34.005  44.348  1.00  0.00     0.000 C 
BRANCH   3   4
ATOM      4  C   UNL     1      51.503  33.691  43.013  1.00  0.00    -0.000 C 
BRANCH   4   5
ATOM      5  C   UNL     1      52.982  34.118  42.940  1.00  0.00    -0.000 C 
BRANCH   5   6
ATOM      6  C   UNL     1      53.972  33.172  43.648  1.00  0.00    -0.000 C 
BRANCH   6   7
ATOM      7  C   UNL     1      55.234  32.822  42.840  1.00  0.00    -0.000 C 
BRANCH   7   8
ATOM      8  C   UNL     1      55.657  31.352  42.999  1.00  0.00    -0.000 C 
BRANCH   8   9
ATOM      9  C   UNL     1      54.508  30.455  43.486  1.00  0.00    -0.000 C 
BRANCH   9  10
ATOM     10  C   UNL     1      53.655  29.902  42.330  1.00  0.00    -0.000 C 
BRANCH  10  11
ATOM     11  C   UNL     1      52.240  29.507  42.779  1.00  0.00    -0.003 C 
ATOM     12  C   UNL     1      51.148  30.264  42.024  1.00  0.00     0.004 C 
ENDBRANCH  10  11
ENDBRANCH   9  10
ENDBRANCH   8   9
ENDBRANCH   7   8
ENDBRANCH   6   7
ENDBRANCH   5   6
ENDBRANCH   4   5
ENDBRANCH   3   4
ENDBRANCH   2   3
ENDBRANCH   1   2
BRANCH   1  13
ATOM     13  C   UNL     1      51.875  37.488  44.160  1.00  0.00     0.000 C 
BRANCH  13  14
ATOM     14  C   UNL     1      52.792  37.947  45.305  1.00  0.00     0.000 C 
BRANCH  14  15
ATOM     15  C   UNL     1      54.270  38.015  44.891  1.00  0.00     0.000 C 
BRANCH  15  16
ATOM     16  C   UNL     1      54.815  36.656  44.417  1.00  0.00     0.000 C 
BRANCH  16  17
ATOM     17  C   UNL     1      56.108  36.786  43.594  1.00  0.00     0.000 C 
BRANCH  17  18
ATOM     18  C   UNL     1      55.974  36.436  42.097  1.00  0.00     0.000 C 
BRANCH  18  19
ATOM     19  C   UNL     1      54.691  36.947  41.419  1.00  0.00     0.000 C 
BRANCH  19  20
ATOM     20  C   UNL     1      54.717  38.459  41.155  1.00  0.00     0.006 C 
BRANCH  20  21
ATOM     21  C   UNL     1      53.331  39.077  41.366  1.00  0.00     0.053 C 
BRANCH  21  22
ATOM     22  C   UNL     1      53.453  40.463  41.916  1.00  0.00     0.041 C 
ATOM     23  O   UNL     1      54.258  41.281  41.400  1.00  0.00    -0.550 OA
ATOM     24  O   UNL     1      52.713  40.836  43.031  1.00  0.00    -0.550 OA
ENDBRANCH  21  22
ENDBRANCH  20  21
ENDBRANCH  19  20
ENDBRANCH  18  19
ENDBRANCH  17  18
ENDBRANCH  16  17
ENDBRANCH  15  16
ENDBRANCH  14  15
ENDBRANCH  13  14
ENDBRANCH   1  13
TORSDOF 20
ENDMDL
MODEL 3
REMARK VINA RESULT:    -5.593      5.281      8.775
REMARK INTER + INTRA:         -14.705
REMARK INTER:                 -12.012
REMARK INTRA:                  -2.693
REMARK UNBOUND:                -2.573
REMARK SMILES CCCCCCCCCCCCCCCCCCCCCC(=O)[O-]
REMARK SMILES IDX 12 1 11 2 10 3 9 4 8 5 7 6 6 7 5 8 4 9 3 10 2 11 1 12 13 13
REMARK SMILES IDX 14 14 15 15 16 16 17 17 18 18 19 19 20 20 21 21 22 22 23 23
REMARK SMILES IDX 24 24
REMARK H PARENT
REMARK Flexibility Score: inf
ROOT
ATOM      1  C   UNL     1      55.969  36.849  41.286  1.00  0.00     0.000 C 
ENDROOT
BRANCH   1   2
ATOM      2  C   UNL     1      55.001  36.290  42.338  1.00  0.00     0.000 C 
BRANCH   2   3
ATOM      3  C   UNL     1      55.377  34.872  42.804  1.00  0.00     0.000 C 
BRANCH   3   4
ATOM      4  C   UNL     1      54.203  33.874  42.866  1.00  0.00    -0.000 C 
BRANCH   4   5
ATOM      5  C   UNL     1      54.416  32.677  43.813  1.00  0.00    -0.000 C 
BRANCH   5   6
ATOM      6  C   UNL     1      55.226  31.508  43.217  1.00  0.00    -0.000 C 
BRANCH   6   7
ATOM      7  C   UNL     1      54.583  30.118  43.374  1.00  0.00    -0.000 C 
BRANCH   7   8
ATOM      8  C   UNL     1      53.414  29.888  42.401  1.00  0.00    -0.000 C 
BRANCH   8   9
ATOM      9  C   UNL     1      52.236  29.148  43.056  1.00  0.00    -0.000 C 
BRANCH   9  10
ATOM     10  C   UNL     1      50.912  29.926  42.951  1.00  0.00    -0.000 C 
BRANCH  10  11
ATOM     11  C   UNL     1      51.025  31.158  42.041  1.00  0.00    -0.003 C 
ATOM     12  C   UNL     1      50.679  32.460  42.763  1.00  0.00     0.004 C 
ENDBRANCH  10  11
ENDBRANCH   9  10
ENDBRANCH   8   9
ENDBRANCH   7   8
ENDBRANCH   6   7
ENDBRANCH   5   6
ENDBRANCH   4   5
ENDBRANCH   3   4
ENDBRANCH   2   3
ENDBRANCH   1   2
BRANCH   1  13
ATOM     13  C   UNL     1      55.321  37.994  40.496  1.00  0.00     0.000 C 
BRANCH  13  14
ATOM     14  C   UNL     1      53.919  38.311  41.039  1.00  0.00     0.000 C 
BRANCH  14  15
ATOM     15  C   UNL     1      53.733  39.800  41.370  1.00  0.00     0.000 C 
BRANCH  15  16
ATOM     16  C   UNL     1      52.956  40.022  42.680  1.00  0.00     0.000 C 
BRANCH  16  17
ATOM     17  C   UNL     1      53.498  39.176  43.846  1.00  0.00     0.000 C 
BRANCH  17  18
ATOM     18  C   UNL     1      52.431  38.407  44.654  1.00  0.00     0.000 C 
BRANCH  18  19
ATOM     19  C   UNL     1      51.836  37.177  43.946  1.00  0.00     0.000 C 
BRANCH  19  20
ATOM     20  C   UNL     1      51.812  35.929  44.839  1.00  0.00     0.006 C 
BRANCH  20  21
ATOM     21  C   UNL     1      53.075  35.847  45.702  1.00  0.00     0.053 C 
BRANCH  21  22
ATOM     22  C   UNL     1      52.757  36.160  47.130  1.00  0.00     0.041 C 
ATOM     23  O   UNL     1      51.561  36.290  47.498  1.00  0.00    -0.550 OA
ATOM     24  O   UNL     1      53.785  36.358  48.043  1.00  0.00    -0.550 OA
ENDBRANCH  21  22
ENDBRANCH  20  21
ENDBRANCH  19  20
ENDBRANCH  18  19
ENDBRANCH  17  18
ENDBRANCH  16  17
ENDBRANCH  15  16
ENDBRANCH  14  15
ENDBRANCH  13  14
ENDBRANCH   1  13
TORSDOF 20
ENDMDL
MODEL 4
REMARK VINA RESULT:    -5.565      3.268      9.209
REMARK INTER + INTRA:         -14.644
REMARK INTER:                 -12.065
REMARK INTRA:                  -2.579
REMARK UNBOUND:                -2.573
REMARK SMILES CCCCCCCCCCCCCCCCCCCCCC(=O)[O-]
REMARK SMILES IDX 12 1 11 2 10 3 9 4 8 5 7 6 6 7 5 8 4 9 3 10 2 11 1 12 13 13
REMARK SMILES IDX 14 14 15 15 16 16 17 17 18 18 19 19 20 20 21 21 22 22 23 23
REMARK SMILES IDX 24 24
REMARK H PARENT
REMARK Flexibility Score: inf
ROOT
ATOM      1  C   UNL     1      55.640  34.558  42.026  1.00  0.00     0.000 C 
ENDROOT
BRANCH   1   2
ATOM      2  C   UNL     1      55.415  33.289  42.860  1.00  0.00     0.000 C 
BRANCH   2   3
ATOM      3  C   UNL     1      54.087  33.311  43.636  1.00  0.00     0.000 C 
BRANCH   3   4
ATOM      4  C   UNL     1      52.842  33.642  42.788  1.00  0.00    -0.000 C 
BRANCH   4   5
ATOM      5  C   UNL     1      51.859  34.637  43.434  1.00  0.00    -0.000 C 
BRANCH   5   6
ATOM      6  C   UNL     1      52.345  36.100  43.481  1.00  0.00    -0.000 C 
BRANCH   6   7
ATOM      7  C   UNL     1      52.634  36.649  44.890  1.00  0.00    -0.000 C 
BRANCH   7   8
ATOM      8  C   UNL     1      54.076  37.157  45.049  1.00  0.00    -0.000 C 
BRANCH   8   9
ATOM      9  C   UNL     1      54.213  38.657  44.743  1.00  0.00    -0.000 C 
BRANCH   9  10
ATOM     10  C   UNL     1      52.870  39.405  44.827  1.00  0.00    -0.000 C 
BRANCH  10  11
ATOM     11  C   UNL     1      52.566  40.212  43.555  1.00  0.00    -0.003 C 
ATOM     12  C   UNL     1      53.331  39.701  42.334  1.00  0.00     0.004 C 
ENDBRANCH  10  11
ENDBRANCH   9  10
ENDBRANCH   8   9
ENDBRANCH   7   8
ENDBRANCH   6   7
ENDBRANCH   5   6
ENDBRANCH   4   5
ENDBRANCH   3   4
ENDBRANCH   2   3
ENDBRANCH   1   2
BRANCH   1  13
ATOM     13  C   UNL     1      56.229  35.684  42.887  1.00  0.00     0.000 C 
BRANCH  13  14
ATOM     14  C   UNL     1      56.370  36.980  42.075  1.00  0.00     0.000 C 
BRANCH  14  15
ATOM     15  C   UNL     1      55.365  37.067  40.915  1.00  0.00     0.000 C 
BRANCH  15  16
ATOM     16  C   UNL     1      56.039  37.399  39.572  1.00  0.00     0.000 C 
BRANCH  16  17
ATOM     17  C   UNL     1      57.185  38.416  39.714  1.00  0.00     0.000 C 
BRANCH  17  18
ATOM     18  C   UNL     1      58.189  38.446  38.542  1.00  0.00     0.000 C 
BRANCH  18  19
ATOM     19  C   UNL     1      57.703  37.768  37.249  1.00  0.00     0.000 C 
BRANCH  19  20
ATOM     20  C   UNL     1      58.827  37.037  36.501  1.00  0.00     0.006 C 
BRANCH  20  21
ATOM     21  C   UNL     1      60.193  37.353  37.118  1.00  0.00     0.053 C 
BRANCH  21  22
ATOM     22  C   UNL     1      61.144  37.838  36.070  1.00  0.00     0.041 C 
ATOM     23  O   UNL     1      61.687  38.968  36.181  1.00  0.00    -0.550 OA
ATOM     24  O   UNL     1      61.391  37.064  34.944  1.00  0.00    -0.550 OA
ENDBRANCH  21  22
ENDBRANCH  20  21
ENDBRANCH  19  20
ENDBRANCH  18  19
ENDBRANCH  17  18
ENDBRANCH  16  17
ENDBRANCH  15  16
ENDBRANCH  14  15
ENDBRANCH  13  14
ENDBRANCH   1  13
TORSDOF 20
ENDMDL
MODEL 5
REMARK VINA RESULT:    -5.551      2.178      3.777
REMARK INTER + INTRA:         -14.614
REMARK INTER:                 -12.226
REMARK INTRA:                  -2.388
REMARK UNBOUND:                -2.573
REMARK SMILES CCCCCCCCCCCCCCCCCCCCCC(=O)[O-]
REMARK SMILES IDX 12 1 11 2 10 3 9 4 8 5 7 6 6 7 5 8 4 9 3 10 2 11 1 12 13 13
REMARK SMILES IDX 14 14 15 15 16 16 17 17 18 18 19 19 20 20 21 21 22 22 23 23
REMARK SMILES IDX 24 24
REMARK H PARENT
REMARK Flexibility Score: inf
ROOT
ATOM      1  C   UNL     1      55.798  36.969  40.917  1.00  0.00     0.000 C 
ENDROOT
BRANCH   1   2
ATOM      2  C   UNL     1      56.366  38.059  39.997  1.00  0.00     0.000 C 
BRANCH   2   3
ATOM      3  C   UNL     1      56.557  37.578  38.548  1.00  0.00     0.000 C 
BRANCH   3   4
ATOM      4  C   UNL     1      57.769  38.187  37.814  1.00  0.00    -0.000 C 
BRANCH   4   5
ATOM      5  C   UNL     1      59.045  38.325  38.667  1.00  0.00    -0.000 C 
BRANCH   5   6
ATOM      6  C   UNL     1      60.349  37.888  37.969  1.00  0.00    -0.000 C 
BRANCH   6   7
ATOM      7  C   UNL     1      61.129  39.018  37.273  1.00  0.00    -0.000 C 
BRANCH   7   8
ATOM      8  C   UNL     1      61.542  38.661  35.836  1.00  0.00    -0.000 C 
BRANCH   8   9
ATOM      9  C   UNL     1      61.085  37.252  35.421  1.00  0.00    -0.000 C 
BRANCH   9  10
ATOM     10  C   UNL     1      60.203  37.260  34.160  1.00  0.00    -0.000 C 
BRANCH  10  11
ATOM     11  C   UNL     1      58.707  37.144  34.487  1.00  0.00    -0.003 C 
ATOM     12  C   UNL     1      57.910  38.375  34.052  1.00  0.00     0.004 C 
ENDBRANCH  10  11
ENDBRANCH   9  10
ENDBRANCH   8   9
ENDBRANCH   7   8
ENDBRANCH   6   7
ENDBRANCH   5   6
ENDBRANCH   4   5
ENDBRANCH   3   4
ENDBRANCH   2   3
ENDBRANCH   1   2
BRANCH   1  13
ATOM     13  C   UNL     1      56.492  36.990  42.286  1.00  0.00     0.000 C 
BRANCH  13  14
ATOM     14  C   UNL     1      56.106  35.756  43.117  1.00  0.00     0.000 C 
BRANCH  14  15
ATOM     15  C   UNL     1      55.487  34.636  42.265  1.00  0.00     0.000 C 
BRANCH  15  16
ATOM     16  C   UNL     1      54.511  33.756  43.063  1.00  0.00     0.000 C 
BRANCH  16  17
ATOM     17  C   UNL     1      53.036  34.086  42.775  1.00  0.00     0.000 C 
BRANCH  17  18
ATOM     18  C   UNL     1      52.447  35.248  43.604  1.00  0.00     0.000 C 
BRANCH  18  19
ATOM     19  C   UNL     1      52.411  36.609  42.888  1.00  0.00     0.000 C 
BRANCH  19  20
ATOM     20  C   UNL     1      52.340  37.794  43.862  1.00  0.00     0.006 C 
BRANCH  20  21
ATOM     21  C   UNL     1      53.509  38.758  43.638  1.00  0.00     0.053 C 
BRANCH  21  22
ATOM     22  C   UNL     1      53.099  39.881  42.738  1.00  0.00     0.041 C 
ATOM     23  O   UNL     1      52.449  40.856  43.197  1.00  0.00    -0.550 OA
ATOM     24  O   UNL     1      53.392  39.825  41.381  1.00  0.00    -0.550 OA
ENDBRANCH  21  22
ENDBRANCH  20  21
ENDBRANCH  19  20
ENDBRANCH  18  19
ENDBRANCH  17  18
ENDBRANCH  16  17
ENDBRANCH  15  16
ENDBRANCH  14  15
ENDBRANCH  13  14
ENDBRANCH   1  13
TORSDOF 20
ENDMDL
MODEL 6
REMARK VINA RESULT:    -5.547      1.520      3.010
REMARK INTER + INTRA:         -14.605
REMARK INTER:                 -12.252
REMARK INTRA:                  -2.353
REMARK UNBOUND:                -2.573
REMARK SMILES CCCCCCCCCCCCCCCCCCCCCC(=O)[O-]
REMARK SMILES IDX 12 1 11 2 10 3 9 4 8 5 7 6 6 7 5 8 4 9 3 10 2 11 1 12 13 13
REMARK SMILES IDX 14 14 15 15 16 16 17 17 18 18 19 19 20 20 21 21 22 22 23 23
REMARK SMILES IDX 24 24
REMARK H PARENT
REMARK Flexibility Score: inf
ROOT
ATOM      1  C   UNL     1      57.114  38.130  40.107  1.00  0.00     0.000 C 
ENDROOT
BRANCH   1   2
ATOM      2  C   UNL     1      57.793  38.377  38.753  1.00  0.00     0.000 C 
BRANCH   2   3
ATOM      3  C   UNL     1      57.096  37.647  37.591  1.00  0.00     0.000 C 
BRANCH   3   4
ATOM      4  C   UNL     1      57.902  37.593  36.278  1.00  0.00    -0.000 C 
BRANCH   4   5
ATOM      5  C   UNL     1      57.185  38.186  35.049  1.00  0.00    -0.000 C 
BRANCH   5   6
ATOM      6  C   UNL     1      57.983  39.259  34.281  1.00  0.00    -0.000 C 
BRANCH   6   7
ATOM      7  C   UNL     1      58.464  40.449  35.130  1.00  0.00    -0.000 C 
BRANCH   7   8
ATOM      8  C   UNL     1      59.994  40.604  35.129  1.00  0.00    -0.000 C 
BRANCH   8   9
ATOM      9  C   UNL     1      60.617  40.337  36.510  1.00  0.00    -0.000 C 
BRANCH   9  10
ATOM     10  C   UNL     1      61.167  38.906  36.646  1.00  0.00    -0.000 C 
BRANCH  10  11
ATOM     11  C   UNL     1      61.764  38.377  35.333  1.00  0.00    -0.003 C 
ATOM     12  C   UNL     1      61.225  36.998  34.953  1.00  0.00     0.004 C 
ENDBRANCH  10  11
ENDBRANCH   9  10
ENDBRANCH   8   9
ENDBRANCH   7   8
ENDBRANCH   6   7
ENDBRANCH   5   6
ENDBRANCH   4   5
ENDBRANCH   3   4
ENDBRANCH   2   3
ENDBRANCH   1   2
BRANCH   1  13
ATOM     13  C   UNL     1      55.778  37.396  39.926  1.00  0.00     0.000 C 
BRANCH  13  14
ATOM     14  C   UNL     1      54.895  37.545  41.175  1.00  0.00     0.000 C 
BRANCH  14  15
ATOM     15  C   UNL     1      53.611  38.344  40.903  1.00  0.00     0.000 C 
BRANCH  15  16
ATOM     16  C   UNL     1      53.405  39.493  41.906  1.00  0.00     0.000 C 
BRANCH  16  17
ATOM     17  C   UNL     1      53.507  39.032  43.371  1.00  0.00     0.000 C 
BRANCH  17  18
ATOM     18  C   UNL     1      52.160  38.851  44.101  1.00  0.00     0.000 C 
BRANCH  18  19
ATOM     19  C   UNL     1      51.841  37.411  44.537  1.00  0.00     0.000 C 
BRANCH  19  20
ATOM     20  C   UNL     1      52.184  36.372  43.460  1.00  0.00     0.006 C 
BRANCH  20  21
ATOM     21  C   UNL     1      53.227  35.374  43.974  1.00  0.00     0.053 C 
BRANCH  21  22
ATOM     22  C   UNL     1      53.495  34.319  42.946  1.00  0.00     0.041 C 
ATOM     23  O   UNL     1      52.573  33.546  42.578  1.00  0.00    -0.550 OA
ATOM     24  O   UNL     1      54.775  34.158  42.433  1.00  0.00    -0.550 OA
ENDBRANCH  21  22
ENDBRANCH  20  21
ENDBRANCH  19  20
ENDBRANCH  18  19
ENDBRANCH  17  18
ENDBRANCH  16  17
ENDBRANCH  15  16
ENDBRANCH  14  15
ENDBRANCH  13  14
ENDBRANCH   1  13
TORSDOF 20
ENDMDL
MODEL 7
REMARK VINA RESULT:    -5.516      6.119      9.447
REMARK INTER + INTRA:         -14.539
REMARK INTER:                 -11.868
REMARK INTRA:                  -2.671
REMARK UNBOUND:                -2.573
REMARK SMILES CCCCCCCCCCCCCCCCCCCCCC(=O)[O-]
REMARK SMILES IDX 12 1 11 2 10 3 9 4 8 5 7 6 6 7 5 8 4 9 3 10 2 11 1 12 13 13
REMARK SMILES IDX 14 14 15 15 16 16 17 17 18 18 19 19 20 20 21 21 22 22 23 23
REMARK SMILES IDX 24 24
REMARK H PARENT
REMARK Flexibility Score: inf
ROOT
ATOM      1  C   UNL     1      51.900  35.804  43.614  1.00  0.00     0.000 C 
ENDROOT
BRANCH   1   2
ATOM      2  C   UNL     1      52.747  34.758  42.875  1.00  0.00     0.000 C 
BRANCH   2   3
ATOM      3  C   UNL     1      54.258  35.028  42.983  1.00  0.00     0.000 C 
BRANCH   3   4
ATOM      4  C   UNL     1      55.152  33.775  42.886  1.00  0.00    -0.000 C 
BRANCH   4   5
ATOM      5  C   UNL     1      54.531  32.486  43.459  1.00  0.00    -0.000 C 
BRANCH   5   6
ATOM      6  C   UNL     1      55.474  31.267  43.498  1.00  0.00    -0.000 C 
BRANCH   6   7
ATOM      7  C   UNL     1      54.900  29.976  42.886  1.00  0.00    -0.000 C 
BRANCH   7   8
ATOM      8  C   UNL     1      53.421  29.753  43.243  1.00  0.00    -0.000 C 
BRANCH   8   9
ATOM      9  C   UNL     1      52.529  29.601  42.000  1.00  0.00    -0.000 C 
BRANCH   9  10
ATOM     10  C   UNL     1      51.080  30.058  42.248  1.00  0.00    -0.000 C 
BRANCH  10  11
ATOM     11  C   UNL     1      50.944  31.588  42.282  1.00  0.00    -0.003 C 
ATOM     12  C   UNL     1      49.982  32.072  43.367  1.00  0.00     0.004 C 
ENDBRANCH  10  11
ENDBRANCH   9  10
ENDBRANCH   8   9
ENDBRANCH   7   8
ENDBRANCH   6   7
ENDBRANCH   5   6
ENDBRANCH   4   5
ENDBRANCH   3   4
ENDBRANCH   2   3
ENDBRANCH   1   2
BRANCH   1  13
ATOM     13  C   UNL     1      51.154  35.172  44.797  1.00  0.00     0.000 C 
BRANCH  13  14
ATOM     14  C   UNL     1      50.995  36.178  45.947  1.00  0.00     0.000 C 
BRANCH  14  15
ATOM     15  C   UNL     1      52.169  36.139  46.938  1.00  0.00     0.000 C 
BRANCH  15  16
ATOM     16  C   UNL     1      53.400  36.909  46.428  1.00  0.00     0.000 C 
BRANCH  16  17
ATOM     17  C   UNL     1      53.247  38.434  46.561  1.00  0.00     0.000 C 
BRANCH  17  18
ATOM     18  C   UNL     1      53.588  39.244  45.293  1.00  0.00     0.000 C 
BRANCH  18  19
ATOM     19  C   UNL     1      52.456  39.339  44.255  1.00  0.00     0.000 C 
BRANCH  19  20
ATOM     20  C   UNL     1      52.971  39.614  42.835  1.00  0.00     0.006 C 
BRANCH  20  21
ATOM     21  C   UNL     1      54.089  38.637  42.457  1.00  0.00     0.053 C 
BRANCH  21  22
ATOM     22  C   UNL     1      53.887  38.118  41.068  1.00  0.00     0.041 C 
ATOM     23  O   UNL     1      54.872  37.742  40.383  1.00  0.00    -0.550 OA
ATOM     24  O   UNL     1      52.614  38.098  40.513  1.00  0.00    -0.550 OA
ENDBRANCH  21  22
ENDBRANCH  20  21
ENDBRANCH  19  20
ENDBRANCH  18  19
ENDBRANCH  17  18
ENDBRANCH  16  17
ENDBRANCH  15  16
ENDBRANCH  14  15
ENDBRANCH  13  14
ENDBRANCH   1  13
TORSDOF 20
ENDMDL
MODEL 8
REMARK VINA RESULT:    -5.515      1.872      2.345
REMARK INTER + INTRA:         -14.537
REMARK INTER:                 -12.048
REMARK INTRA:                  -2.488
REMARK UNBOUND:                -2.573
REMARK SMILES CCCCCCCCCCCCCCCCCCCCCC(=O)[O-]
REMARK SMILES IDX 12 1 11 2 10 3 9 4 8 5 7 6 6 7 5 8 4 9 3 10 2 11 1 12 13 13
REMARK SMILES IDX 14 14 15 15 16 16 17 17 18 18 19 19 20 20 21 21 22 22 23 23
REMARK SMILES IDX 24 24
REMARK H PARENT
REMARK Flexibility Score: inf
ROOT
ATOM      1  C   UNL     1      58.950  38.869  38.005  1.00  0.00     0.000 C 
ENDROOT
BRANCH   1   2
ATOM      2  C   UNL     1      59.976  37.743  37.821  1.00  0.00     0.000 C 
BRANCH   2   3
ATOM      3  C   UNL     1      59.740  36.923  36.540  1.00  0.00     0.000 C 
BRANCH   3   4
ATOM      4  C   UNL     1      61.001  36.668  35.689  1.00  0.00    -0.000 C 
BRANCH   4   5
ATOM      5  C   UNL     1      61.247  37.694  34.566  1.00  0.00    -0.000 C 
BRANCH   5   6
ATOM      6  C   UNL     1      62.019  38.959  34.992  1.00  0.00    -0.000 C 
BRANCH   6   7
ATOM      7  C   UNL     1      61.161  40.226  35.157  1.00  0.00    -0.000 C 
BRANCH   7   8
ATOM      8  C   UNL     1      59.908  40.218  34.265  1.00  0.00    -0.000 C 
BRANCH   8   9
ATOM      9  C   UNL     1      58.651  40.702  35.007  1.00  0.00    -0.000 C 
BRANCH   9  10
ATOM     10  C   UNL     1      57.360  40.054  34.475  1.00  0.00    -0.000 C 
BRANCH  10  11
ATOM     11  C   UNL     1      57.556  38.579  34.095  1.00  0.00    -0.003 C 
ATOM     12  C   UNL     1      56.482  37.668  34.689  1.00  0.00     0.004 C 
ENDBRANCH  10  11
ENDBRANCH   9  10
ENDBRANCH   8   9
ENDBRANCH   7   8
ENDBRANCH   6   7
ENDBRANCH   5   6
ENDBRANCH   4   5
ENDBRANCH   3   4
ENDBRANCH   2   3
ENDBRANCH   1   2
BRANCH   1  13
ATOM     13  C   UNL     1      57.528  38.304  38.127  1.00  0.00     0.000 C 
BRANCH  13  14
ATOM     14  C   UNL     1      57.084  38.247  39.598  1.00  0.00     0.000 C 
BRANCH  14  15
ATOM     15  C   UNL     1      55.967  37.220  39.841  1.00  0.00     0.000 C 
BRANCH  15  16
ATOM     16  C   UNL     1      55.110  37.560  41.073  1.00  0.00     0.000 C 
BRANCH  16  17
ATOM     17  C   UNL     1      55.458  36.697  42.299  1.00  0.00     0.000 C 
BRANCH  17  18
ATOM     18  C   UNL     1      54.317  36.515  43.322  1.00  0.00     0.000 C 
BRANCH  18  19
ATOM     19  C   UNL     1      52.934  37.000  42.852  1.00  0.00     0.000 C 
BRANCH  19  20
ATOM     20  C   UNL     1      52.202  37.834  43.913  1.00  0.00     0.006 C 
BRANCH  20  21
ATOM     21  C   UNL     1      52.444  37.271  45.317  1.00  0.00     0.053 C 
BRANCH  21  22
ATOM     22  C   UNL     1      53.129  38.284  46.178  1.00  0.00     0.041 C 
ATOM     23  O   UNL     1      53.057  38.203  47.432  1.00  0.00    -0.550 OA
ATOM     24  O   UNL     1      53.805  39.348  45.595  1.00  0.00    -0.550 OA
ENDBRANCH  21  22
ENDBRANCH  20  21
ENDBRANCH  19  20
ENDBRANCH  18  19
ENDBRANCH  17  18
ENDBRANCH  16  17
ENDBRANCH  15  16
ENDBRANCH  14  15
ENDBRANCH  13  14
ENDBRANCH   1  13
TORSDOF 20
ENDMDL
MODEL 9
REMARK VINA RESULT:    -5.468      1.887      3.446
REMARK INTER + INTRA:         -14.433
REMARK INTER:                 -11.806
REMARK INTRA:                  -2.627
REMARK UNBOUND:                -2.573
REMARK SMILES CCCCCCCCCCCCCCCCCCCCCC(=O)[O-]
REMARK SMILES IDX 12 1 11 2 10 3 9 4 8 5 7 6 6 7 5 8 4 9 3 10 2 11 1 12 13 13
REMARK SMILES IDX 14 14 15 15 16 16 17 17 18 18 19 19 20 20 21 21 22 22 23 23
REMARK SMILES IDX 24 24
REMARK H PARENT
REMARK Flexibility Score: inf
ROOT
ATOM      1  C   UNL     1      56.291  37.215  39.348  1.00  0.00     0.000 C 
ENDROOT
BRANCH   1   2
ATOM      2  C   UNL     1      57.131  38.500  39.356  1.00  0.00     0.000 C 
BRANCH   2   3
ATOM      3  C   UNL     1      58.323  38.442  38.385  1.00  0.00     0.000 C 
BRANCH   3   4
ATOM      4  C   UNL     1      58.120  37.531  37.157  1.00  0.00    -0.000 C 
BRANCH   4   5
ATOM      5  C   UNL     1      57.221  38.118  36.052  1.00  0.00    -0.000 C 
BRANCH   5   6
ATOM      6  C   UNL     1      57.974  38.785  34.883  1.00  0.00    -0.000 C 
BRANCH   6   7
ATOM      7  C   UNL     1      58.351  40.261  35.104  1.00  0.00    -0.000 C 
BRANCH   7   8
ATOM      8  C   UNL     1      59.861  40.518  34.968  1.00  0.00    -0.000 C 
BRANCH   8   9
ATOM      9  C   UNL     1      60.618  40.313  36.290  1.00  0.00    -0.000 C 
BRANCH   9  10
ATOM     10  C   UNL     1      61.820  39.361  36.145  1.00  0.00    -0.000 C 
BRANCH  10  11
ATOM     11  C   UNL     1      61.689  38.430  34.931  1.00  0.00    -0.003 C 
ATOM     12  C   UNL     1      61.317  36.999  35.321  1.00  0.00     0.004 C 
ENDBRANCH  10  11
ENDBRANCH   9  10
ENDBRANCH   8   9
ENDBRANCH   7   8
ENDBRANCH   6   7
ENDBRANCH   5   6
ENDBRANCH   4   5
ENDBRANCH   3   4
ENDBRANCH   2   3
ENDBRANCH   1   2
BRANCH   1  13
ATOM     13  C   UNL     1      55.544  37.038  40.677  1.00  0.00     0.000 C 
BRANCH  13  14
ATOM     14  C   UNL     1      56.526  36.999  41.858  1.00  0.00     0.000 C 
BRANCH  14  15
ATOM     15  C   UNL     1      56.092  36.019  42.959  1.00  0.00     0.000 C 
BRANCH  15  16
ATOM     16  C   UNL     1      55.631  34.663  42.397  1.00  0.00     0.000 C 
BRANCH  16  17
ATOM     17  C   UNL     1      54.498  34.027  43.222  1.00  0.00     0.000 C 
BRANCH  17  18
ATOM     18  C   UNL     1      53.075  34.509  42.869  1.00  0.00     0.000 C 
BRANCH  18  19
ATOM     19  C   UNL     1      52.306  35.176  44.023  1.00  0.00     0.000 C 
BRANCH  19  20
ATOM     20  C   UNL     1      52.663  36.658  44.199  1.00  0.00     0.006 C 
BRANCH  20  21
ATOM     21  C   UNL     1      52.646  37.391  42.854  1.00  0.00     0.053 C 
BRANCH  21  22
ATOM     22  C   UNL     1      53.258  38.749  42.988  1.00  0.00     0.041 C 
ATOM     23  O   UNL     1      53.325  39.515  41.992  1.00  0.00    -0.550 OA
ATOM     24  O   UNL     1      53.801  39.150  44.202  1.00  0.00    -0.550 OA
ENDBRANCH  21  22
ENDBRANCH  20  21
ENDBRANCH  19  20
ENDBRANCH  18  19
ENDBRANCH  17  18
ENDBRANCH  16  17
ENDBRANCH  15  16
ENDBRANCH  14  15
ENDBRANCH  13  14
ENDBRANCH   1  13
TORSDOF 20
ENDMDL
