MODEL 1
REMARK VINA RESULT:    -1.408      0.000      0.000
REMARK INTER + INTRA:          -2.303
REMARK INTER:                  -2.314
REMARK INTRA:                   0.010
REMARK UNBOUND:                 0.010
REMARK SMILES C[C@@H]1O[C@@H](OC[C@@H]2O[C@@H](Oc3c(-c4ccc(O)c(O)c4)oc4cc(O)cc(O)c4c3=O)[C@@H](O)[C@@H](O)[C@@H]2O)[C@@H](O)[C@H](O)[C@@H]1O
REMARK SMILES IDX 7 1 36 2 34 3 32 4 9 5 8 6 6 7 5 8 4 9 1 10 2 11 42 12 3 13
REMARK SMILES IDX 40 14 38 15 43 16 41 18 39 20 37 22 35 24 10 26 11 27 12 28
REMARK SMILES IDX 30 29 21 30 29 31 31 32 22 33 27 34 23 35 26 36 24 37 13 38
REMARK SMILES IDX 20 39 14 40 18 41 15 42 16 43 19 44 17 46 28 48 25 50 33 52
REMARK H PARENT 43 17 41 19 39 21 37 23 35 25 19 45 17 47 28 49 25 51 33 53
REMARK Flexibility Score: inf
ROOT
ATOM      1  C   UNL     1     -13.163  62.471  39.510  1.00  0.00     0.180 C 
ATOM      2  C   UNL     1     -13.376  60.962  39.218  1.00  0.00     0.177 C 
ATOM      3  C   UNL     1     -12.480  60.115  40.140  1.00  0.00     0.180 C 
ATOM      4  C   UNL     1     -11.023  60.646  40.103  1.00  0.00     0.214 C 
ATOM      5  C   UNL     1     -11.000  62.171  40.349  1.00  0.00     0.339 C 
ATOM      6  O   UNL     1     -11.796  62.846  39.382  1.00  0.00    -0.332 OA
ENDROOT
BRANCH   1   7
ATOM      7  C   UNL     1     -13.997  63.350  38.582  1.00  0.00     0.198 C 
BRANCH   7   8
ATOM      8  O   UNL     1     -14.928  62.536  37.876  1.00  0.00    -0.347 OA
BRANCH   8   9
ATOM      9  C   UNL     1     -16.104  62.260  38.631  1.00  0.00     0.281 C 
ATOM     10  C   UNL     1     -17.980  60.611  40.260  1.00  0.00     0.041 C 
ATOM     11  C   UNL     1     -18.002  60.821  38.726  1.00  0.00     0.150 C 
ATOM     12  C   UNL     1     -19.006  61.894  38.225  1.00  0.00     0.174 C 
ATOM     13  O   UNL     1     -16.693  61.030  38.204  1.00  0.00    -0.344 OA
ATOM     14  C   UNL     1     -18.336  63.251  37.875  1.00  0.00     0.179 C 
ATOM     15  C   UNL     1     -17.071  63.473  38.710  1.00  0.00     0.202 C 
BRANCH  12  16
ATOM     16  O   UNL     1     -20.102  62.045  39.102  1.00  0.00    -0.388 OA
ATOM     17  H   UNL     1     -19.947  62.862  39.641  1.00  0.00     0.211 HD
ENDBRANCH  12  16
BRANCH  14  18
ATOM     18  O   UNL     1     -19.228  64.316  38.092  1.00  0.00    -0.387 OA
ATOM     19  H   UNL     1     -18.750  65.134  37.794  1.00  0.00     0.211 HD
ENDBRANCH  14  18
BRANCH  15  20
ATOM     20  O   UNL     1     -16.427  64.650  38.292  1.00  0.00    -0.385 OA
ATOM     21  H   UNL     1     -15.785  64.416  37.566  1.00  0.00     0.211 HD
ENDBRANCH  15  20
ENDBRANCH   8   9
ENDBRANCH   7   8
ENDBRANCH   1   7
BRANCH   2  22
ATOM     22  O   UNL     1     -13.065  60.686  37.878  1.00  0.00    -0.387 OA
ATOM     23  H   UNL     1     -13.704  61.204  37.318  1.00  0.00     0.211 HD
ENDBRANCH   2  22
BRANCH   3  24
ATOM     24  O   UNL     1     -12.992  60.130  41.451  1.00  0.00    -0.387 OA
ATOM     25  H   UNL     1     -13.733  59.466  41.480  1.00  0.00     0.211 HD
ENDBRANCH   3  24
BRANCH   5  26
ATOM     26  O   UNL     1     -11.450  62.443  41.684  1.00  0.00    -0.454 OA
BRANCH  26  27
ATOM     27  C   UNL     1     -10.671  62.479  42.859  1.00  0.00     0.214 A 
ATOM     28  C   UNL     1      -9.666  63.447  42.970  1.00  0.00     0.180 A 
ATOM     29  C   UNL     1     -10.909  61.639  43.966  1.00  0.00     0.239 A 
ATOM     30  O   UNL     1      -8.996  63.607  44.100  1.00  0.00    -0.452 OA
ATOM     31  C   UNL     1     -10.132  61.785  45.138  1.00  0.00     0.111 A 
ATOM     32  O   UNL     1     -11.878  60.837  43.951  1.00  0.00    -0.285 OA
ATOM     33  C   UNL     1      -9.206  62.854  45.172  1.00  0.00     0.146 A 
ATOM     34  C   UNL     1     -10.276  60.972  46.296  1.00  0.00     0.134 A 
ATOM     35  C   UNL     1      -8.521  63.166  46.354  1.00  0.00     0.094 A 
ATOM     36  C   UNL     1      -9.643  61.350  47.486  1.00  0.00     0.093 A 
ATOM     37  C   UNL     1      -8.769  62.443  47.523  1.00  0.00     0.123 A 
BRANCH  28  38
ATOM     38  C   UNL     1      -9.346  64.318  41.832  1.00  0.00     0.025 A 
ATOM     39  C   UNL     1      -8.643  63.815  40.723  1.00  0.00     0.062 A 
ATOM     40  C   UNL     1      -9.749  65.658  41.849  1.00  0.00     0.016 A 
ATOM     41  C   UNL     1      -8.355  64.646  39.636  1.00  0.00     0.158 A 
ATOM     42  C   UNL     1      -9.440  66.493  40.778  1.00  0.00     0.051 A 
ATOM     43  C   UNL     1      -8.757  65.991  39.659  1.00  0.00     0.157 A 
BRANCH  41  44
ATOM     44  O   UNL     1      -7.677  64.113  38.540  1.00  0.00    -0.504 OA
ATOM     45  H   UNL     1      -6.958  63.411  38.631  1.00  0.00     0.293 HD
ENDBRANCH  41  44
BRANCH  43  46
ATOM     46  O   UNL     1      -8.469  66.827  38.581  1.00  0.00    -0.504 OA
ATOM     47  H   UNL     1      -9.188  67.169  37.946  1.00  0.00     0.293 HD
ENDBRANCH  43  46
ENDBRANCH  28  38
BRANCH  34  48
ATOM     48  O   UNL     1     -11.007  59.781  46.313  1.00  0.00    -0.507 OA
ATOM     49  H   UNL     1     -11.377  59.384  47.162  1.00  0.00     0.293 HD
ENDBRANCH  34  48
BRANCH  37  50
ATOM     50  O   UNL     1      -8.155  62.835  48.716  1.00  0.00    -0.508 OA
ATOM     51  H   UNL     1      -7.180  63.099  48.738  1.00  0.00     0.293 HD
ENDBRANCH  37  50
ENDBRANCH  26  27
ENDBRANCH   5  26
BRANCH   4  52
ATOM     52  O   UNL     1     -10.220  60.000  41.052  1.00  0.00    -0.384 OA
ATOM     53  H   UNL     1     -10.572  59.077  41.153  1.00  0.00     0.211 HD
ENDBRANCH   4  52
TORSDOF 16
ENDMDL
MODEL 2
REMARK VINA RESULT:    -0.684      1.528      5.239
REMARK INTER + INTRA:          -1.113
REMARK INTER:                  -1.616
REMARK INTRA:                   0.503
REMARK UNBOUND:                 0.010
REMARK SMILES C[C@@H]1O[C@@H](OC[C@@H]2O[C@@H](Oc3c(-c4ccc(O)c(O)c4)oc4cc(O)cc(O)c4c3=O)[C@@H](O)[C@@H](O)[C@@H]2O)[C@@H](O)[C@H](O)[C@@H]1O
REMARK SMILES IDX 7 1 36 2 34 3 32 4 9 5 8 6 6 7 5 8 4 9 1 10 2 11 42 12 3 13
REMARK SMILES IDX 40 14 38 15 43 16 41 18 39 20 37 22 35 24 10 26 11 27 12 28
REMARK SMILES IDX 30 29 21 30 29 31 31 32 22 33 27 34 23 35 26 36 24 37 13 38
REMARK SMILES IDX 20 39 14 40 18 41 15 42 16 43 19 44 17 46 28 48 25 50 33 52
REMARK H PARENT 43 17 41 19 39 21 37 23 35 25 19 45 17 47 28 49 25 51 33 53
REMARK Flexibility Score: inf
ROOT
ATOM      1  C   UNL     1     -12.277  60.629  40.534  1.00  0.00     0.180 C 
ATOM      2  C   UNL     1     -13.441  59.956  41.309  1.00  0.00     0.177 C 
ATOM      3  C   UNL     1     -13.356  60.315  42.804  1.00  0.00     0.180 C 
ATOM      4  C   UNL     1     -11.918  60.070  43.331  1.00  0.00     0.214 C 
ATOM      5  C   UNL     1     -10.884  60.755  42.409  1.00  0.00     0.339 C 
ATOM      6  O   UNL     1     -11.009  60.277  41.075  1.00  0.00    -0.332 OA
ENDROOT
BRANCH   1   7
ATOM      7  C   UNL     1     -12.295  60.258  39.054  1.00  0.00     0.198 C 
BRANCH   7   8
ATOM      8  O   UNL     1     -13.002  61.259  38.327  1.00  0.00    -0.347 OA
BRANCH   8   9
ATOM      9  C   UNL     1     -14.326  61.460  38.812  1.00  0.00     0.281 C 
ATOM     10  C   UNL     1     -17.041  60.662  39.753  1.00  0.00     0.041 C 
ATOM     11  C   UNL     1     -16.615  61.021  38.309  1.00  0.00     0.150 C 
ATOM     12  C   UNL     1     -16.935  62.477  37.875  1.00  0.00     0.174 C 
ATOM     13  O   UNL     1     -15.255  60.677  38.059  1.00  0.00    -0.344 OA
ATOM     14  C   UNL     1     -15.701  63.420  37.915  1.00  0.00     0.179 C 
ATOM     15  C   UNL     1     -14.691  62.961  38.972  1.00  0.00     0.202 C 
BRANCH  12  16
ATOM     16  O   UNL     1     -18.041  63.008  38.575  1.00  0.00    -0.388 OA
ATOM     17  H   UNL     1     -18.802  62.385  38.453  1.00  0.00     0.211 HD
ENDBRANCH  12  16
BRANCH  14  18
ATOM     18  O   UNL     1     -16.094  64.742  38.192  1.00  0.00    -0.387 OA
ATOM     19  H   UNL     1     -16.504  64.717  39.095  1.00  0.00     0.211 HD
ENDBRANCH  14  18
BRANCH  15  20
ATOM     20  O   UNL     1     -13.538  63.762  38.906  1.00  0.00    -0.385 OA
ATOM     21  H   UNL     1     -13.141  63.668  37.997  1.00  0.00     0.211 HD
ENDBRANCH  15  20
ENDBRANCH   8   9
ENDBRANCH   7   8
ENDBRANCH   1   7
BRANCH   2  22
ATOM     22  O   UNL     1     -13.374  58.562  41.156  1.00  0.00    -0.387 OA
ATOM     23  H   UNL     1     -12.606  58.246  41.705  1.00  0.00     0.211 HD
ENDBRANCH   2  22
BRANCH   3  24
ATOM     24  O   UNL     1     -13.747  61.652  42.998  1.00  0.00    -0.387 OA
ATOM     25  H   UNL     1     -12.924  62.208  42.930  1.00  0.00     0.211 HD
ENDBRANCH   3  24
BRANCH   5  26
ATOM     26  O   UNL     1     -11.057  62.178  42.477  1.00  0.00    -0.454 OA
BRANCH  26  27
ATOM     27  C   UNL     1     -10.198  63.170  41.961  1.00  0.00     0.214 A 
ATOM     28  C   UNL     1      -9.239  63.735  42.810  1.00  0.00     0.180 A 
ATOM     29  C   UNL     1     -10.203  63.564  40.608  1.00  0.00     0.239 A 
ATOM     30  O   UNL     1      -8.326  64.572  42.342  1.00  0.00    -0.452 OA
ATOM     31  C   UNL     1      -9.261  64.513  40.149  1.00  0.00     0.111 A 
ATOM     32  O   UNL     1     -10.971  62.995  39.789  1.00  0.00    -0.285 OA
ATOM     33  C   UNL     1      -8.281  64.950  41.071  1.00  0.00     0.146 A 
ATOM     34  C   UNL     1      -9.201  64.995  38.813  1.00  0.00     0.134 A 
ATOM     35  C   UNL     1      -7.217  65.759  40.650  1.00  0.00     0.094 A 
ATOM     36  C   UNL     1      -8.088  65.734  38.397  1.00  0.00     0.093 A 
ATOM     37  C   UNL     1      -7.094  66.117  39.306  1.00  0.00     0.123 A 
BRANCH  28  38
ATOM     38  C   UNL     1      -9.217  63.394  44.237  1.00  0.00     0.025 A 
ATOM     39  C   UNL     1      -9.167  64.406  45.212  1.00  0.00     0.062 A 
ATOM     40  C   UNL     1      -9.252  62.052  44.631  1.00  0.00     0.016 A 
ATOM     41  C   UNL     1      -9.162  64.075  46.571  1.00  0.00     0.158 A 
ATOM     42  C   UNL     1      -9.221  61.720  45.983  1.00  0.00     0.051 A 
ATOM     43  C   UNL     1      -9.193  62.727  46.961  1.00  0.00     0.157 A 
BRANCH  41  44
ATOM     44  O   UNL     1      -9.136  65.100  47.515  1.00  0.00    -0.504 OA
ATOM     45  H   UNL     1      -9.141  64.927  48.510  1.00  0.00     0.293 HD
ENDBRANCH  41  44
BRANCH  43  46
ATOM     46  O   UNL     1      -9.183  62.388  48.315  1.00  0.00    -0.504 OA
ATOM     47  H   UNL     1      -9.729  61.614  48.689  1.00  0.00     0.293 HD
ENDBRANCH  43  46
ENDBRANCH  28  38
BRANCH  34  48
ATOM     48  O   UNL     1     -10.217  64.791  37.875  1.00  0.00    -0.507 OA
ATOM     49  H   UNL     1     -10.042  64.760  36.883  1.00  0.00     0.293 HD
ENDBRANCH  34  48
BRANCH  37  50
ATOM     50  O   UNL     1      -5.971  66.836  38.886  1.00  0.00    -0.508 OA
ATOM     51  H   UNL     1      -5.304  67.196  39.553  1.00  0.00     0.293 HD
ENDBRANCH  37  50
ENDBRANCH  26  27
ENDBRANCH   5  26
BRANCH   4  52
ATOM     52  O   UNL     1     -11.768  60.539  44.643  1.00  0.00    -0.384 OA
ATOM     53  H   UNL     1     -12.443  61.255  44.776  1.00  0.00     0.211 HD
ENDBRANCH   4  52
TORSDOF 16
ENDMDL
MODEL 3
REMARK VINA RESULT:    -0.389      1.513      2.193
REMARK INTER + INTRA:          -0.629
REMARK INTER:                  -1.114
REMARK INTRA:                   0.486
REMARK UNBOUND:                 0.010
REMARK SMILES C[C@@H]1O[C@@H](OC[C@@H]2O[C@@H](Oc3c(-c4ccc(O)c(O)c4)oc4cc(O)cc(O)c4c3=O)[C@@H](O)[C@@H](O)[C@@H]2O)[C@@H](O)[C@H](O)[C@@H]1O
REMARK SMILES IDX 7 1 36 2 34 3 32 4 9 5 8 6 6 7 5 8 4 9 1 10 2 11 42 12 3 13
REMARK SMILES IDX 40 14 38 15 43 16 41 18 39 20 37 22 35 24 10 26 11 27 12 28
REMARK SMILES IDX 30 29 21 30 29 31 31 32 22 33 27 34 23 35 26 36 24 37 13 38
REMARK SMILES IDX 20 39 14 40 18 41 15 42 16 43 19 44 17 46 28 48 25 50 33 52
REMARK H PARENT 43 17 41 19 39 21 37 23 35 25 19 45 17 47 28 49 25 51 33 53
REMARK Flexibility Score: inf
ROOT
ATOM      1  C   UNL     1     -11.816  60.993  40.929  1.00  0.00     0.180 C 
ATOM      2  C   UNL     1     -11.325  60.527  39.532  1.00  0.00     0.177 C 
ATOM      3  C   UNL     1      -9.944  61.136  39.228  1.00  0.00     0.180 C 
ATOM      4  C   UNL     1      -9.962  62.662  39.501  1.00  0.00     0.214 C 
ATOM      5  C   UNL     1     -10.535  62.950  40.906  1.00  0.00     0.339 C 
ATOM      6  O   UNL     1     -11.847  62.411  41.032  1.00  0.00    -0.332 OA
ENDROOT
BRANCH   1   7
ATOM      7  C   UNL     1     -13.206  60.451  41.250  1.00  0.00     0.198 C 
BRANCH   7   8
ATOM      8  O   UNL     1     -13.836  60.029  40.044  1.00  0.00    -0.347 OA
BRANCH   8   9
ATOM      9  C   UNL     1     -15.181  60.484  39.936  1.00  0.00     0.281 C 
ATOM     10  C   UNL     1     -18.154  60.254  39.978  1.00  0.00     0.041 C 
ATOM     11  C   UNL     1     -17.218  60.114  38.753  1.00  0.00     0.150 C 
ATOM     12  C   UNL     1     -17.093  61.389  37.875  1.00  0.00     0.174 C 
ATOM     13  O   UNL     1     -15.944  59.593  39.120  1.00  0.00    -0.344 OA
ATOM     14  C   UNL     1     -15.783  62.187  38.127  1.00  0.00     0.179 C 
ATOM     15  C   UNL     1     -15.284  61.988  39.561  1.00  0.00     0.202 C 
BRANCH  12  16
ATOM     16  O   UNL     1     -18.243  62.204  37.956  1.00  0.00    -0.388 OA
ATOM     17  H   UNL     1     -18.224  62.830  37.188  1.00  0.00     0.211 HD
ENDBRANCH  12  16
BRANCH  14  18
ATOM     18  O   UNL     1     -15.984  63.558  37.891  1.00  0.00    -0.387 OA
ATOM     19  H   UNL     1     -15.621  63.732  36.983  1.00  0.00     0.211 HD
ENDBRANCH  14  18
BRANCH  15  20
ATOM     20  O   UNL     1     -14.042  62.626  39.724  1.00  0.00    -0.385 OA
ATOM     21  H   UNL     1     -13.903  62.801  40.695  1.00  0.00     0.211 HD
ENDBRANCH  15  20
ENDBRANCH   8   9
ENDBRANCH   7   8
ENDBRANCH   1   7
BRANCH   2  22
ATOM     22  O   UNL     1     -12.241  60.926  38.547  1.00  0.00    -0.387 OA
ATOM     23  H   UNL     1     -13.144  60.645  38.858  1.00  0.00     0.211 HD
ENDBRANCH   2  22
BRANCH   3  24
ATOM     24  O   UNL     1      -8.958  60.493  39.999  1.00  0.00    -0.387 OA
ATOM     25  H   UNL     1      -8.608  61.167  40.643  1.00  0.00     0.211 HD
ENDBRANCH   3  24
BRANCH   5  26
ATOM     26  O   UNL     1      -9.649  62.416  41.899  1.00  0.00    -0.454 OA
BRANCH  26  27
ATOM     27  C   UNL     1      -9.356  62.960  43.167  1.00  0.00     0.214 A 
ATOM     28  C   UNL     1      -8.868  64.270  43.239  1.00  0.00     0.180 A 
ATOM     29  C   UNL     1      -9.607  62.277  44.374  1.00  0.00     0.239 A 
ATOM     30  O   UNL     1      -8.702  64.871  44.407  1.00  0.00    -0.452 OA
ATOM     31  C   UNL     1      -9.355  62.918  45.609  1.00  0.00     0.111 A 
ATOM     32  O   UNL     1     -10.154  61.144  44.355  1.00  0.00    -0.285 OA
ATOM     33  C   UNL     1      -8.949  64.272  45.565  1.00  0.00     0.146 A 
ATOM     34  C   UNL     1      -9.550  62.307  46.878  1.00  0.00     0.134 A 
ATOM     35  C   UNL     1      -8.841  65.023  46.743  1.00  0.00     0.094 A 
ATOM     36  C   UNL     1      -9.515  63.095  48.034  1.00  0.00     0.093 A 
ATOM     37  C   UNL     1      -9.165  64.449  47.975  1.00  0.00     0.123 A 
BRANCH  28  38
ATOM     38  C   UNL     1      -8.546  65.011  42.014  1.00  0.00     0.025 A 
ATOM     39  C   UNL     1      -7.296  64.853  41.390  1.00  0.00     0.062 A 
ATOM     40  C   UNL     1      -9.494  65.878  41.458  1.00  0.00     0.016 A 
ATOM     41  C   UNL     1      -7.001  65.550  40.214  1.00  0.00     0.158 A 
ATOM     42  C   UNL     1      -9.192  66.592  40.301  1.00  0.00     0.051 A 
ATOM     43  C   UNL     1      -7.954  66.422  39.663  1.00  0.00     0.157 A 
BRANCH  41  44
ATOM     44  O   UNL     1      -5.762  65.354  39.606  1.00  0.00    -0.504 OA
ATOM     45  H   UNL     1      -4.915  65.196  40.131  1.00  0.00     0.293 HD
ENDBRANCH  41  44
BRANCH  43  46
ATOM     46  O   UNL     1      -7.665  67.125  38.493  1.00  0.00    -0.504 OA
ATOM     47  H   UNL     1      -8.063  66.870  37.590  1.00  0.00     0.293 HD
ENDBRANCH  43  46
ENDBRANCH  28  38
BRANCH  34  48
ATOM     48  O   UNL     1      -9.757  60.935  47.048  1.00  0.00    -0.507 OA
ATOM     49  H   UNL     1     -10.627  60.484  46.814  1.00  0.00     0.293 HD
ENDBRANCH  34  48
BRANCH  37  50
ATOM     50  O   UNL     1      -9.151  65.242  49.126  1.00  0.00    -0.508 OA
ATOM     51  H   UNL     1      -9.199  66.249  49.066  1.00  0.00     0.293 HD
ENDBRANCH  37  50
ENDBRANCH  26  27
ENDBRANCH   5  26
BRANCH   4  52
ATOM     52  O   UNL     1      -8.679  63.216  39.389  1.00  0.00    -0.384 OA
ATOM     53  H   UNL     1      -8.146  62.872  40.153  1.00  0.00     0.211 HD
ENDBRANCH   4  52
TORSDOF 16
ENDMDL
MODEL 4
REMARK VINA RESULT:     0.575      1.484      1.823
REMARK INTER + INTRA:           0.956
REMARK INTER:                  -0.669
REMARK INTRA:                   1.624
REMARK UNBOUND:                 0.010
REMARK SMILES C[C@@H]1O[C@@H](OC[C@@H]2O[C@@H](Oc3c(-c4ccc(O)c(O)c4)oc4cc(O)cc(O)c4c3=O)[C@@H](O)[C@@H](O)[C@@H]2O)[C@@H](O)[C@H](O)[C@@H]1O
REMARK SMILES IDX 7 1 36 2 34 3 32 4 9 5 8 6 6 7 5 8 4 9 1 10 2 11 42 12 3 13
REMARK SMILES IDX 40 14 38 15 43 16 41 18 39 20 37 22 35 24 10 26 11 27 12 28
REMARK SMILES IDX 30 29 21 30 29 31 31 32 22 33 27 34 23 35 26 36 24 37 13 38
REMARK SMILES IDX 20 39 14 40 18 41 15 42 16 43 19 44 17 46 28 48 25 50 33 52
REMARK H PARENT 43 17 41 19 39 21 37 23 35 25 19 45 17 47 28 49 25 51 33 53
REMARK Flexibility Score: inf
ROOT
ATOM      1  C   UNL     1     -11.655  61.706  40.013  1.00  0.00     0.180 C 
ATOM      2  C   UNL     1     -12.447  60.489  40.560  1.00  0.00     0.177 C 
ATOM      3  C   UNL     1     -12.077  60.238  42.033  1.00  0.00     0.180 C 
ATOM      4  C   UNL     1     -10.536  60.214  42.199  1.00  0.00     0.214 C 
ATOM      5  C   UNL     1      -9.904  61.463  41.546  1.00  0.00     0.339 C 
ATOM      6  O   UNL     1     -10.251  61.535  40.167  1.00  0.00    -0.332 OA
ENDROOT
BRANCH   1   7
ATOM      7  C   UNL     1     -11.955  61.960  38.538  1.00  0.00     0.198 C 
BRANCH   7   8
ATOM      8  O   UNL     1     -13.079  62.830  38.431  1.00  0.00    -0.347 OA
BRANCH   8   9
ATOM      9  C   UNL     1     -14.261  62.275  38.998  1.00  0.00     0.281 C 
ATOM     10  C   UNL     1     -15.934  60.209  40.350  1.00  0.00     0.041 C 
ATOM     11  C   UNL     1     -15.760  60.429  38.827  1.00  0.00     0.150 C 
ATOM     12  C   UNL     1     -16.895  61.243  38.150  1.00  0.00     0.174 C 
ATOM     13  O   UNL     1     -14.471  60.947  38.513  1.00  0.00    -0.344 OA
ATOM     14  C   UNL     1     -16.515  62.725  37.878  1.00  0.00     0.179 C 
ATOM     15  C   UNL     1     -15.486  63.226  38.896  1.00  0.00     0.202 C 
BRANCH  12  16
ATOM     16  O   UNL     1     -18.121  61.121  38.840  1.00  0.00    -0.388 OA
ATOM     17  H   UNL     1     -18.820  61.565  38.295  1.00  0.00     0.211 HD
ENDBRANCH  12  16
BRANCH  14  18
ATOM     18  O   UNL     1     -17.654  63.548  37.926  1.00  0.00    -0.387 OA
ATOM     19  H   UNL     1     -17.490  64.192  38.664  1.00  0.00     0.211 HD
ENDBRANCH  14  18
BRANCH  15  20
ATOM     20  O   UNL     1     -15.076  64.527  38.557  1.00  0.00    -0.385 OA
ATOM     21  H   UNL     1     -14.729  64.972  39.378  1.00  0.00     0.211 HD
ENDBRANCH  15  20
ENDBRANCH   8   9
ENDBRANCH   7   8
ENDBRANCH   1   7
BRANCH   2  22
ATOM     22  O   UNL     1     -12.152  59.347  39.800  1.00  0.00    -0.387 OA
ATOM     23  H   UNL     1     -12.857  58.674  40.000  1.00  0.00     0.211 HD
ENDBRANCH   2  22
BRANCH   3  24
ATOM     24  O   UNL     1     -12.660  61.225  42.848  1.00  0.00    -0.387 OA
ATOM     25  H   UNL     1     -12.069  61.333  43.641  1.00  0.00     0.211 HD
ENDBRANCH   3  24
BRANCH   5  26
ATOM     26  O   UNL     1     -10.327  62.635  42.257  1.00  0.00    -0.454 OA
BRANCH  26  27
ATOM     27  C   UNL     1      -9.753  63.182  43.423  1.00  0.00     0.214 A 
ATOM     28  C   UNL     1      -9.107  64.422  43.337  1.00  0.00     0.180 A 
ATOM     29  C   UNL     1      -9.867  62.580  44.692  1.00  0.00     0.239 A 
ATOM     30  O   UNL     1      -8.668  65.037  44.423  1.00  0.00    -0.452 OA
ATOM     31  C   UNL     1      -9.328  63.227  45.828  1.00  0.00     0.111 A 
ATOM     32  O   UNL     1     -10.540  61.525  44.830  1.00  0.00    -0.285 OA
ATOM     33  C   UNL     1      -8.778  64.516  45.639  1.00  0.00     0.146 A 
ATOM     34  C   UNL     1      -9.368  62.691  47.144  1.00  0.00     0.134 A 
ATOM     35  C   UNL     1      -8.376  65.288  46.737  1.00  0.00     0.094 A 
ATOM     36  C   UNL     1      -9.036  63.508  48.231  1.00  0.00     0.093 A 
ATOM     37  C   UNL     1      -8.544  64.804  48.036  1.00  0.00     0.123 A 
BRANCH  28  38
ATOM     38  C   UNL     1      -8.920  65.072  42.034  1.00  0.00     0.025 A 
ATOM     39  C   UNL     1      -8.303  64.384  40.975  1.00  0.00     0.062 A 
ATOM     40  C   UNL     1      -9.365  66.385  41.844  1.00  0.00     0.016 A 
ATOM     41  C   UNL     1      -8.141  65.004  39.732  1.00  0.00     0.158 A 
ATOM     42  C   UNL     1      -9.182  67.012  40.614  1.00  0.00     0.051 A 
ATOM     43  C   UNL     1      -8.586  66.323  39.547  1.00  0.00     0.157 A 
BRANCH  41  44
ATOM     44  O   UNL     1      -7.547  64.289  38.693  1.00  0.00    -0.504 OA
ATOM     45  H   UNL     1      -6.555  64.317  38.508  1.00  0.00     0.293 HD
ENDBRANCH  41  44
BRANCH  43  46
ATOM     46  O   UNL     1      -8.423  66.950  38.311  1.00  0.00    -0.504 OA
ATOM     47  H   UNL     1      -8.103  67.913  38.224  1.00  0.00     0.293 HD
ENDBRANCH  43  46
ENDBRANCH  28  38
BRANCH  34  48
ATOM     48  O   UNL     1      -9.703  61.363  47.424  1.00  0.00    -0.507 OA
ATOM     49  H   UNL     1     -10.327  60.826  46.842  1.00  0.00     0.293 HD
ENDBRANCH  34  48
BRANCH  37  50
ATOM     50  O   UNL     1      -8.234  65.629  49.122  1.00  0.00    -0.508 OA
ATOM     51  H   UNL     1      -7.600  65.322  49.845  1.00  0.00     0.293 HD
ENDBRANCH  37  50
ENDBRANCH  26  27
ENDBRANCH   5  26
BRANCH   4  52
ATOM     52  O   UNL     1     -10.168  60.149  43.551  1.00  0.00    -0.384 OA
ATOM     53  H   UNL     1      -9.261  59.749  43.587  1.00  0.00     0.211 HD
ENDBRANCH   4  52
TORSDOF 16
ENDMDL
MODEL 5
REMARK VINA RESULT:     1.308      1.666      3.074
REMARK INTER + INTRA:           2.160
REMARK INTER:                   0.666
REMARK INTRA:                   1.493
REMARK UNBOUND:                 0.010
REMARK SMILES C[C@@H]1O[C@@H](OC[C@@H]2O[C@@H](Oc3c(-c4ccc(O)c(O)c4)oc4cc(O)cc(O)c4c3=O)[C@@H](O)[C@@H](O)[C@@H]2O)[C@@H](O)[C@H](O)[C@@H]1O
REMARK SMILES IDX 7 1 36 2 34 3 32 4 9 5 8 6 6 7 5 8 4 9 1 10 2 11 42 12 3 13
REMARK SMILES IDX 40 14 38 15 43 16 41 18 39 20 37 22 35 24 10 26 11 27 12 28
REMARK SMILES IDX 30 29 21 30 29 31 31 32 22 33 27 34 23 35 26 36 24 37 13 38
REMARK SMILES IDX 20 39 14 40 18 41 15 42 16 43 19 44 17 46 28 48 25 50 33 52
REMARK H PARENT 43 17 41 19 39 21 37 23 35 25 19 45 17 47 28 49 25 51 33 53
REMARK Flexibility Score: inf
ROOT
ATOM      1  C   UNL     1     -11.456  61.876  41.363  1.00  0.00     0.180 C 
ATOM      2  C   UNL     1     -12.463  60.757  41.738  1.00  0.00     0.177 C 
ATOM      3  C   UNL     1     -12.301  60.377  43.221  1.00  0.00     0.180 C 
ATOM      4  C   UNL     1     -10.807  60.126  43.548  1.00  0.00     0.214 C 
ATOM      5  C   UNL     1      -9.942  61.306  43.052  1.00  0.00     0.339 C 
ATOM      6  O   UNL     1     -10.115  61.500  41.653  1.00  0.00    -0.332 OA
ENDROOT
BRANCH   1   7
ATOM      7  C   UNL     1     -11.549  62.249  39.886  1.00  0.00     0.198 C 
BRANCH   7   8
ATOM      8  O   UNL     1     -12.255  61.228  39.187  1.00  0.00    -0.347 OA
BRANCH   8   9
ATOM      9  C   UNL     1     -13.483  61.688  38.631  1.00  0.00     0.281 C 
ATOM     10  C   UNL     1     -15.564  63.689  37.886  1.00  0.00     0.041 C 
ATOM     11  C   UNL     1     -15.497  62.840  39.178  1.00  0.00     0.150 C 
ATOM     12  C   UNL     1     -16.384  61.565  39.170  1.00  0.00     0.174 C 
ATOM     13  O   UNL     1     -14.153  62.552  39.551  1.00  0.00    -0.344 OA
ATOM     14  C   UNL     1     -15.587  60.260  38.895  1.00  0.00     0.179 C 
ATOM     15  C   UNL     1     -14.348  60.541  38.040  1.00  0.00     0.202 C 
BRANCH  12  16
ATOM     16  O   UNL     1     -17.502  61.702  38.320  1.00  0.00    -0.388 OA
ATOM     17  H   UNL     1     -17.579  62.659  38.074  1.00  0.00     0.211 HD
ENDBRANCH  12  16
BRANCH  14  18
ATOM     18  O   UNL     1     -16.396  59.312  38.243  1.00  0.00    -0.387 OA
ATOM     19  H   UNL     1     -15.859  58.477  38.211  1.00  0.00     0.211 HD
ENDBRANCH  14  18
BRANCH  15  20
ATOM     20  O   UNL     1     -13.588  59.366  37.905  1.00  0.00    -0.385 OA
ATOM     21  H   UNL     1     -13.428  58.989  38.813  1.00  0.00     0.211 HD
ENDBRANCH  15  20
ENDBRANCH   8   9
ENDBRANCH   7   8
ENDBRANCH   1   7
BRANCH   2  22
ATOM     22  O   UNL     1     -12.240  59.626  40.937  1.00  0.00    -0.387 OA
ATOM     23  H   UNL     1     -11.694  59.923  40.160  1.00  0.00     0.211 HD
ENDBRANCH   2  22
BRANCH   3  24
ATOM     24  O   UNL     1     -12.835  61.393  44.036  1.00  0.00    -0.387 OA
ATOM     25  H   UNL     1     -12.559  62.261  43.636  1.00  0.00     0.211 HD
ENDBRANCH   3  24
BRANCH   5  26
ATOM     26  O   UNL     1     -10.281  62.487  43.793  1.00  0.00    -0.454 OA
BRANCH  26  27
ATOM     27  C   UNL     1      -9.590  63.033  44.895  1.00  0.00     0.214 A 
ATOM     28  C   UNL     1      -8.970  64.280  44.748  1.00  0.00     0.180 A 
ATOM     29  C   UNL     1      -9.562  62.423  46.165  1.00  0.00     0.239 A 
ATOM     30  O   UNL     1      -8.424  64.895  45.785  1.00  0.00    -0.452 OA
ATOM     31  C   UNL     1      -8.911  63.070  47.240  1.00  0.00     0.111 A 
ATOM     32  O   UNL     1     -10.206  61.361  46.368  1.00  0.00    -0.285 OA
ATOM     33  C   UNL     1      -8.397  64.366  47.002  1.00  0.00     0.146 A 
ATOM     34  C   UNL     1      -8.804  62.527  48.550  1.00  0.00     0.134 A 
ATOM     35  C   UNL     1      -7.888  65.136  48.055  1.00  0.00     0.094 A 
ATOM     36  C   UNL     1      -8.366  63.341  49.600  1.00  0.00     0.093 A 
ATOM     37  C   UNL     1      -7.910  64.644  49.362  1.00  0.00     0.123 A 
BRANCH  28  38
ATOM     38  C   UNL     1      -8.931  64.940  43.437  1.00  0.00     0.025 A 
ATOM     39  C   UNL     1      -8.989  64.182  42.254  1.00  0.00     0.062 A 
ATOM     40  C   UNL     1      -8.839  66.334  43.364  1.00  0.00     0.016 A 
ATOM     41  C   UNL     1      -8.966  64.817  41.009  1.00  0.00     0.158 A 
ATOM     42  C   UNL     1      -8.791  66.966  42.124  1.00  0.00     0.051 A 
ATOM     43  C   UNL     1      -8.870  66.216  40.940  1.00  0.00     0.157 A 
BRANCH  41  44
ATOM     44  O   UNL     1      -9.050  64.041  39.853  1.00  0.00    -0.504 OA
ATOM     45  H   UNL     1      -8.524  64.247  39.017  1.00  0.00     0.293 HD
ENDBRANCH  41  44
BRANCH  43  46
ATOM     46  O   UNL     1      -8.841  66.857  39.701  1.00  0.00    -0.504 OA
ATOM     47  H   UNL     1      -8.721  66.349  38.826  1.00  0.00     0.293 HD
ENDBRANCH  43  46
ENDBRANCH  28  38
BRANCH  34  48
ATOM     48  O   UNL     1      -9.094  61.194  48.856  1.00  0.00    -0.507 OA
ATOM     49  H   UNL     1      -9.026  60.454  48.175  1.00  0.00     0.293 HD
ENDBRANCH  34  48
BRANCH  37  50
ATOM     50  O   UNL     1      -7.494  65.466  50.413  1.00  0.00    -0.508 OA
ATOM     51  H   UNL     1      -6.905  66.268  50.246  1.00  0.00     0.293 HD
ENDBRANCH  37  50
ENDBRANCH  26  27
ENDBRANCH   5  26
BRANCH   4  52
ATOM     52  O   UNL     1     -10.609  59.938  44.923  1.00  0.00    -0.384 OA
ATOM     53  H   UNL     1     -10.013  60.668  45.234  1.00  0.00     0.211 HD
ENDBRANCH   4  52
TORSDOF 16
ENDMDL
