MODEL 1
REMARK VINA RESULT:    -6.743      0.000      0.000
REMARK INTER + INTRA:          -6.743
REMARK INTER:                  -6.743
REMARK INTRA:                   0.000
REMARK UNBOUND:                 0.000
REMARK SMILES Cc1cc2cc3c(C)cc(=O)oc3c(C)c2o1
REMARK SMILES IDX 8 1 7 2 9 3 10 4 11 5 12 6 13 7 6 8 5 9 4 10 3 11 2 12 17 13
REMARK SMILES IDX 16 14 14 15 15 16 1 17
REMARK H PARENT
REMARK Flexibility Score: inf
ROOT
ATOM      1  C   UNL     1      -8.623  -4.852   3.610  1.00  0.00     0.045 C 
ATOM      2  C   UNL     1      -7.757  -4.333   4.729  1.00  0.00    -0.033 A 
ATOM      3  C   UNL     1      -7.953  -3.029   5.199  1.00  0.00     0.098 A 
ATOM      4  C   UNL     1      -7.156  -2.541   6.236  1.00  0.00     0.336 A 
ATOM      5  O   UNL     1      -7.329  -1.370   6.663  1.00  0.00    -0.246 OA
ATOM      6  O   UNL     1      -6.214  -3.302   6.778  1.00  0.00    -0.422 OA
ATOM      7  C   UNL     1      -5.972  -4.549   6.379  1.00  0.00     0.145 A 
ATOM      8  C   UNL     1      -6.749  -5.125   5.323  1.00  0.00     0.022 A 
ATOM      9  C   UNL     1      -6.491  -6.456   4.913  1.00  0.00     0.024 A 
ATOM     10  C   UNL     1      -5.484  -7.159   5.563  1.00  0.00     0.022 A 
ATOM     11  C   UNL     1      -5.034  -8.447   5.384  1.00  0.00     0.054 A 
ATOM     12  C   UNL     1      -4.020  -8.588   6.325  1.00  0.00     0.102 A 
ATOM     13  O   UNL     1      -3.869  -7.478   7.022  1.00  0.00    -0.461 OA
ATOM     14  C   UNL     1      -4.742  -6.607   6.572  1.00  0.00     0.140 A 
ATOM     15  C   UNL     1      -4.946  -5.295   7.007  1.00  0.00     0.036 A 
ATOM     16  C   UNL     1      -4.142  -4.717   8.137  1.00  0.00     0.052 C 
ATOM     17  C   UNL     1      -3.218  -9.824   6.546  1.00  0.00     0.087 C 
ENDROOT
TORSDOF 0
ENDMDL
MODEL 2
REMARK VINA RESULT:    -6.647      1.360      2.991
REMARK INTER + INTRA:          -6.647
REMARK INTER:                  -6.647
REMARK INTRA:                   0.000
REMARK UNBOUND:                 0.000
REMARK SMILES Cc1cc2cc3c(C)cc(=O)oc3c(C)c2o1
REMARK SMILES IDX 8 1 7 2 9 3 10 4 11 5 12 6 13 7 6 8 5 9 4 10 3 11 2 12 17 13
REMARK SMILES IDX 16 14 14 15 15 16 1 17
REMARK H PARENT
REMARK Flexibility Score: inf
ROOT
ATOM      1  C   UNL     1      -4.536  -3.361   9.641  1.00  0.00     0.045 C 
ATOM      2  C   UNL     1      -5.181  -3.500   8.286  1.00  0.00    -0.033 A 
ATOM      3  C   UNL     1      -5.950  -2.444   7.782  1.00  0.00     0.098 A 
ATOM      4  C   UNL     1      -6.550  -2.565   6.527  1.00  0.00     0.336 A 
ATOM      5  O   UNL     1      -7.241  -1.617   6.069  1.00  0.00    -0.246 OA
ATOM      6  O   UNL     1      -6.398  -3.670   5.810  1.00  0.00    -0.422 OA
ATOM      7  C   UNL     1      -5.683  -4.712   6.229  1.00  0.00     0.145 A 
ATOM      8  C   UNL     1      -5.033  -4.667   7.503  1.00  0.00     0.022 A 
ATOM      9  C   UNL     1      -4.265  -5.776   7.936  1.00  0.00     0.024 A 
ATOM     10  C   UNL     1      -4.171  -6.876   7.092  1.00  0.00     0.022 A 
ATOM     11  C   UNL     1      -3.496  -8.065   7.245  1.00  0.00     0.054 A 
ATOM     12  C   UNL     1      -3.767  -8.765   6.075  1.00  0.00     0.102 A 
ATOM     13  O   UNL     1      -4.540  -8.057   5.273  1.00  0.00    -0.461 OA
ATOM     14  C   UNL     1      -4.794  -6.919   5.873  1.00  0.00     0.140 A 
ATOM     15  C   UNL     1      -5.572  -5.857   5.404  1.00  0.00     0.036 A 
ATOM     16  C   UNL     1      -6.223  -5.910   4.051  1.00  0.00     0.052 C 
ATOM     17  C   UNL     1      -3.245 -10.121   5.744  1.00  0.00     0.087 C 
ENDROOT
TORSDOF 0
ENDMDL
MODEL 3
REMARK VINA RESULT:    -6.594      1.539      2.063
REMARK INTER + INTRA:          -6.594
REMARK INTER:                  -6.594
REMARK INTRA:                   0.000
REMARK UNBOUND:                 0.000
REMARK SMILES Cc1cc2cc3c(C)cc(=O)oc3c(C)c2o1
REMARK SMILES IDX 8 1 7 2 9 3 10 4 11 5 12 6 13 7 6 8 5 9 4 10 3 11 2 12 17 13
REMARK SMILES IDX 16 14 14 15 15 16 1 17
REMARK H PARENT
REMARK Flexibility Score: inf
ROOT
ATOM      1  C   UNL     1      -9.080  -2.711   4.801  1.00  0.00     0.045 C 
ATOM      2  C   UNL     1      -8.205  -2.536   6.016  1.00  0.00    -0.033 A 
ATOM      3  C   UNL     1      -8.510  -1.530   6.941  1.00  0.00     0.098 A 
ATOM      4  C   UNL     1      -7.705  -1.363   8.070  1.00  0.00     0.336 A 
ATOM      5  O   UNL     1      -7.976  -0.460   8.904  1.00  0.00    -0.246 OA
ATOM      6  O   UNL     1      -6.656  -2.149   8.272  1.00  0.00    -0.422 OA
ATOM      7  C   UNL     1      -6.309  -3.123   7.435  1.00  0.00     0.145 A 
ATOM      8  C   UNL     1      -7.083  -3.362   6.255  1.00  0.00     0.022 A 
ATOM      9  C   UNL     1      -6.712  -4.408   5.375  1.00  0.00     0.024 A 
ATOM     10  C   UNL     1      -5.597  -5.171   5.699  1.00  0.00     0.022 A 
ATOM     11  C   UNL     1      -5.025  -6.239   5.046  1.00  0.00     0.054 A 
ATOM     12  C   UNL     1      -3.945  -6.590   5.848  1.00  0.00     0.102 A 
ATOM     13  O   UNL     1      -3.869  -5.803   6.905  1.00  0.00    -0.461 OA
ATOM     14  C   UNL     1      -4.856  -4.942   6.827  1.00  0.00     0.140 A 
ATOM     15  C   UNL     1      -5.172  -3.916   7.722  1.00  0.00     0.036 A 
ATOM     16  C   UNL     1      -4.365  -3.699   8.970  1.00  0.00     0.052 C 
ATOM     17  C   UNL     1      -3.003  -7.714   5.579  1.00  0.00     0.087 C 
ENDROOT
TORSDOF 0
ENDMDL
MODEL 4
REMARK VINA RESULT:    -6.392      1.727      5.975
REMARK INTER + INTRA:          -6.392
REMARK INTER:                  -6.392
REMARK INTRA:                   0.000
REMARK UNBOUND:                 0.000
REMARK SMILES Cc1cc2cc3c(C)cc(=O)oc3c(C)c2o1
REMARK SMILES IDX 8 1 7 2 9 3 10 4 11 5 12 6 13 7 6 8 5 9 4 10 3 11 2 12 17 13
REMARK SMILES IDX 16 14 14 15 15 16 1 17
REMARK H PARENT
REMARK Flexibility Score: inf
ROOT
ATOM      1  C   UNL     1      -4.136  -3.734   9.242  1.00  0.00     0.045 C 
ATOM      2  C   UNL     1      -4.648  -4.613   8.130  1.00  0.00    -0.033 A 
ATOM      3  C   UNL     1      -4.138  -5.910   7.992  1.00  0.00     0.098 A 
ATOM      4  C   UNL     1      -4.609  -6.730   6.965  1.00  0.00     0.336 A 
ATOM      5  O   UNL     1      -4.154  -7.897   6.837  1.00  0.00    -0.246 OA
ATOM      6  O   UNL     1      -5.534  -6.292   6.121  1.00  0.00    -0.422 OA
ATOM      7  C   UNL     1      -6.061  -5.072   6.194  1.00  0.00     0.145 A 
ATOM      8  C   UNL     1      -5.634  -4.169   7.220  1.00  0.00     0.022 A 
ATOM      9  C   UNL     1      -6.208  -2.877   7.297  1.00  0.00     0.024 A 
ATOM     10  C   UNL     1      -7.177  -2.535   6.361  1.00  0.00     0.022 A 
ATOM     11  C   UNL     1      -7.900  -1.374   6.207  1.00  0.00     0.054 A 
ATOM     12  C   UNL     1      -8.716  -1.623   5.110  1.00  0.00     0.102 A 
ATOM     13  O   UNL     1      -8.510  -2.838   4.638  1.00  0.00    -0.461 OA
ATOM     14  C   UNL     1      -7.584  -3.398   5.380  1.00  0.00     0.140 A 
ATOM     15  C   UNL     1      -7.042  -4.679   5.253  1.00  0.00     0.036 A 
ATOM     16  C   UNL     1      -7.523  -5.624   4.188  1.00  0.00     0.052 C 
ATOM     17  C   UNL     1      -9.712  -0.669   4.544  1.00  0.00     0.087 C 
ENDROOT
TORSDOF 0
ENDMDL
MODEL 5
REMARK VINA RESULT:    -6.328      1.846      5.250
REMARK INTER + INTRA:          -6.328
REMARK INTER:                  -6.328
REMARK INTRA:                   0.000
REMARK UNBOUND:                 0.000
REMARK SMILES Cc1cc2cc3c(C)cc(=O)oc3c(C)c2o1
REMARK SMILES IDX 8 1 7 2 9 3 10 4 11 5 12 6 13 7 6 8 5 9 4 10 3 11 2 12 17 13
REMARK SMILES IDX 16 14 14 15 15 16 1 17
REMARK H PARENT
REMARK Flexibility Score: inf
ROOT
ATOM      1  C   UNL     1      -7.870  -5.509   3.750  1.00  0.00     0.045 C 
ATOM      2  C   UNL     1      -6.733  -5.465   4.738  1.00  0.00    -0.033 A 
ATOM      3  C   UNL     1      -5.662  -6.354   4.589  1.00  0.00     0.098 A 
ATOM      4  C   UNL     1      -4.604  -6.318   5.500  1.00  0.00     0.336 A 
ATOM      5  O   UNL     1      -3.637  -7.114   5.370  1.00  0.00    -0.246 OA
ATOM      6  O   UNL     1      -4.607  -5.451   6.505  1.00  0.00    -0.422 OA
ATOM      7  C   UNL     1      -5.593  -4.580   6.706  1.00  0.00     0.145 A 
ATOM      8  C   UNL     1      -6.714  -4.550   5.815  1.00  0.00     0.022 A 
ATOM      9  C   UNL     1      -7.753  -3.612   6.031  1.00  0.00     0.024 A 
ATOM     10  C   UNL     1      -7.640  -2.747   7.113  1.00  0.00     0.022 A 
ATOM     11  C   UNL     1      -8.477  -1.746   7.548  1.00  0.00     0.054 A 
ATOM     12  C   UNL     1      -7.836  -1.226   8.666  1.00  0.00     0.102 A 
ATOM     13  O   UNL     1      -6.699  -1.857   8.891  1.00  0.00    -0.461 OA
ATOM     14  C   UNL     1      -6.569  -2.778   7.965  1.00  0.00     0.140 A 
ATOM     15  C   UNL     1      -5.523  -3.690   7.804  1.00  0.00     0.036 A 
ATOM     16  C   UNL     1      -4.341  -3.688   8.731  1.00  0.00     0.052 C 
ATOM     17  C   UNL     1      -8.338  -0.095   9.498  1.00  0.00     0.087 C 
ENDROOT
TORSDOF 0
ENDMDL
MODEL 6
REMARK VINA RESULT:    -6.307      2.540      3.647
REMARK INTER + INTRA:          -6.307
REMARK INTER:                  -6.307
REMARK INTRA:                   0.000
REMARK UNBOUND:                 0.000
REMARK SMILES Cc1cc2cc3c(C)cc(=O)oc3c(C)c2o1
REMARK SMILES IDX 8 1 7 2 9 3 10 4 11 5 12 6 13 7 6 8 5 9 4 10 3 11 2 12 17 13
REMARK SMILES IDX 16 14 14 15 15 16 1 17
REMARK H PARENT
REMARK Flexibility Score: inf
ROOT
ATOM      1  C   UNL     1      -4.686  -4.267   8.675  1.00  0.00     0.045 C 
ATOM      2  C   UNL     1      -5.646  -5.148   7.916  1.00  0.00    -0.033 A 
ATOM      3  C   UNL     1      -7.024  -4.953   8.071  1.00  0.00     0.098 A 
ATOM      4  C   UNL     1      -7.918  -5.764   7.370  1.00  0.00     0.336 A 
ATOM      5  O   UNL     1      -9.158  -5.591   7.505  1.00  0.00    -0.246 OA
ATOM      6  O   UNL     1      -7.474  -6.717   6.561  1.00  0.00    -0.422 OA
ATOM      7  C   UNL     1      -6.179  -6.957   6.368  1.00  0.00     0.145 A 
ATOM      8  C   UNL     1      -5.197  -6.168   7.047  1.00  0.00     0.022 A 
ATOM      9  C   UNL     1      -3.821  -6.425   6.828  1.00  0.00     0.024 A 
ATOM     10  C   UNL     1      -3.478  -7.444   5.948  1.00  0.00     0.022 A 
ATOM     11  C   UNL     1      -2.243  -7.897   5.543  1.00  0.00     0.054 A 
ATOM     12  C   UNL     1      -2.531  -8.925   4.654  1.00  0.00     0.102 A 
ATOM     13  O   UNL     1      -3.835  -9.082   4.524  1.00  0.00    -0.461 OA
ATOM     14  C   UNL     1      -4.418  -8.199   5.300  1.00  0.00     0.140 A 
ATOM     15  C   UNL     1      -5.787  -7.995   5.490  1.00  0.00     0.036 A 
ATOM     16  C   UNL     1      -6.804  -8.814   4.746  1.00  0.00     0.052 C 
ATOM     17  C   UNL     1      -1.519  -9.736   3.918  1.00  0.00     0.087 C 
ENDROOT
TORSDOF 0
ENDMDL
MODEL 7
REMARK VINA RESULT:    -6.304      2.123      5.042
REMARK INTER + INTRA:          -6.304
REMARK INTER:                  -6.304
REMARK INTRA:                   0.000
REMARK UNBOUND:                 0.000
REMARK SMILES Cc1cc2cc3c(C)cc(=O)oc3c(C)c2o1
REMARK SMILES IDX 8 1 7 2 9 3 10 4 11 5 12 6 13 7 6 8 5 9 4 10 3 11 2 12 17 13
REMARK SMILES IDX 16 14 14 15 15 16 1 17
REMARK H PARENT
REMARK Flexibility Score: inf
ROOT
ATOM      1  C   UNL     1      -6.185  -9.293   4.332  1.00  0.00     0.045 C 
ATOM      2  C   UNL     1      -5.246  -8.388   5.086  1.00  0.00    -0.033 A 
ATOM      3  C   UNL     1      -3.864  -8.562   4.944  1.00  0.00     0.098 A 
ATOM      4  C   UNL     1      -2.988  -7.726   5.638  1.00  0.00     0.336 A 
ATOM      5  O   UNL     1      -1.744  -7.878   5.513  1.00  0.00    -0.246 OA
ATOM      6  O   UNL     1      -3.453  -6.769   6.431  1.00  0.00    -0.422 OA
ATOM      7  C   UNL     1      -4.753  -6.549   6.613  1.00  0.00     0.145 A 
ATOM      8  C   UNL     1      -5.718  -7.361   5.935  1.00  0.00     0.022 A 
ATOM      9  C   UNL     1      -7.099  -7.112   6.126  1.00  0.00     0.024 A 
ATOM     10  C   UNL     1      -7.466  -6.074   6.974  1.00  0.00     0.022 A 
ATOM     11  C   UNL     1      -8.710  -5.608   7.330  1.00  0.00     0.054 A 
ATOM     12  C   UNL     1      -8.446  -4.553   8.195  1.00  0.00     0.102 A 
ATOM     13  O   UNL     1      -7.146  -4.388   8.350  1.00  0.00    -0.461 OA
ATOM     14  C   UNL     1      -6.543  -5.299   7.623  1.00  0.00     0.140 A 
ATOM     15  C   UNL     1      -5.169  -5.509   7.479  1.00  0.00     0.036 A 
ATOM     16  C   UNL     1      -4.170  -4.629   8.175  1.00  0.00     0.052 C 
ATOM     17  C   UNL     1      -9.476  -3.698   8.851  1.00  0.00     0.087 C 
ENDROOT
TORSDOF 0
ENDMDL
MODEL 8
REMARK VINA RESULT:    -6.270      1.560      2.898
REMARK INTER + INTRA:          -6.270
REMARK INTER:                  -6.270
REMARK INTRA:                   0.000
REMARK UNBOUND:                 0.000
REMARK SMILES Cc1cc2cc3c(C)cc(=O)oc3c(C)c2o1
REMARK SMILES IDX 8 1 7 2 9 3 10 4 11 5 12 6 13 7 6 8 5 9 4 10 3 11 2 12 17 13
REMARK SMILES IDX 16 14 14 15 15 16 1 17
REMARK H PARENT
REMARK Flexibility Score: inf
ROOT
ATOM      1  C   UNL     1      -6.284  -1.514   7.635  1.00  0.00     0.045 C 
ATOM      2  C   UNL     1      -6.986  -2.410   6.648  1.00  0.00    -0.033 A 
ATOM      3  C   UNL     1      -8.098  -1.923   5.950  1.00  0.00     0.098 A 
ATOM      4  C   UNL     1      -8.752  -2.747   5.032  1.00  0.00     0.336 A 
ATOM      5  O   UNL     1      -9.752  -2.313   4.402  1.00  0.00    -0.246 OA
ATOM      6  O   UNL     1      -8.330  -3.986   4.817  1.00  0.00    -0.422 OA
ATOM      7  C   UNL     1      -7.282  -4.513   5.446  1.00  0.00     0.145 A 
ATOM      8  C   UNL     1      -6.554  -3.733   6.400  1.00  0.00     0.022 A 
ATOM      9  C   UNL     1      -5.434  -4.299   7.056  1.00  0.00     0.024 A 
ATOM     10  C   UNL     1      -5.081  -5.606   6.740  1.00  0.00     0.022 A 
ATOM     11  C   UNL     1      -4.051  -6.390   7.205  1.00  0.00     0.054 A 
ATOM     12  C   UNL     1      -4.202  -7.592   6.523  1.00  0.00     0.102 A 
ATOM     13  O   UNL     1      -5.237  -7.541   5.706  1.00  0.00    -0.461 OA
ATOM     14  C   UNL     1      -5.778  -6.352   5.829  1.00  0.00     0.140 A 
ATOM     15  C   UNL     1      -6.897  -5.846   5.162  1.00  0.00     0.036 A 
ATOM     16  C   UNL     1      -7.632  -6.669   4.142  1.00  0.00     0.052 C 
ATOM     17  C   UNL     1      -3.312  -8.779   6.664  1.00  0.00     0.087 C 
ENDROOT
TORSDOF 0
ENDMDL
MODEL 9
REMARK VINA RESULT:    -6.268      1.792      5.742
REMARK INTER + INTRA:          -6.268
REMARK INTER:                  -6.268
REMARK INTRA:                   0.000
REMARK UNBOUND:                 0.000
REMARK SMILES Cc1cc2cc3c(C)cc(=O)oc3c(C)c2o1
REMARK SMILES IDX 8 1 7 2 9 3 10 4 11 5 12 6 13 7 6 8 5 9 4 10 3 11 2 12 17 13
REMARK SMILES IDX 16 14 14 15 15 16 1 17
REMARK H PARENT
REMARK Flexibility Score: inf
ROOT
ATOM      1  C   UNL     1      -2.530  -8.270   6.659  1.00  0.00     0.045 C 
ATOM      2  C   UNL     1      -3.767  -8.182   5.802  1.00  0.00    -0.033 A 
ATOM      3  C   UNL     1      -4.084  -9.244   4.945  1.00  0.00     0.098 A 
ATOM      4  C   UNL     1      -5.228  -9.170   4.149  1.00  0.00     0.336 A 
ATOM      5  O   UNL     1      -5.518 -10.122   3.379  1.00  0.00    -0.246 OA
ATOM      6  O   UNL     1      -6.016  -8.104   4.197  1.00  0.00    -0.422 OA
ATOM      7  C   UNL     1      -5.774  -7.060   4.986  1.00  0.00     0.145 A 
ATOM      8  C   UNL     1      -4.622  -7.058   5.836  1.00  0.00     0.022 A 
ATOM      9  C   UNL     1      -4.379  -5.947   6.681  1.00  0.00     0.024 A 
ATOM     10  C   UNL     1      -5.282  -4.891   6.650  1.00  0.00     0.022 A 
ATOM     11  C   UNL     1      -5.302  -3.712   7.359  1.00  0.00     0.054 A 
ATOM     12  C   UNL     1      -6.447  -3.063   6.910  1.00  0.00     0.102 A 
ATOM     13  O   UNL     1      -7.074  -3.791   6.006  1.00  0.00    -0.461 OA
ATOM     14  C   UNL     1      -6.383  -4.893   5.837  1.00  0.00     0.140 A 
ATOM     15  C   UNL     1      -6.663  -5.958   4.977  1.00  0.00     0.036 A 
ATOM     16  C   UNL     1      -7.893  -5.957   4.113  1.00  0.00     0.052 C 
ATOM     17  C   UNL     1      -6.928  -1.737   7.390  1.00  0.00     0.087 C 
ENDROOT
TORSDOF 0
ENDMDL
