MODEL 1
REMARK VINA RESULT:    -3.968      0.000      0.000
REMARK INTER + INTRA:          -4.451
REMARK INTER:                  -4.548
REMARK INTRA:                   0.097
REMARK UNBOUND:                 0.097
REMARK SMILES CC(C)[C@H]([NH3+])C(=O)[O-]
REMARK SMILES IDX 4 1 5 2 6 6 7 7 8 8 2 9 1 10 3 11
REMARK H PARENT 5 3 5 4 5 5
REMARK Flexibility Score: inf
ROOT
ATOM      1  C   UNL     1     -33.129  47.855 -15.826  1.00  0.00     0.230 C 
ENDROOT
BRANCH   1   2
ATOM      2  N   UNL     1     -32.824  47.280 -14.506  1.00  0.00    -0.350 N 
ATOM      3  H   UNL     1     -33.197  47.877 -13.733  1.00  0.00     0.345 HD
ATOM      4  H   UNL     1     -33.222  46.318 -14.425  1.00  0.00     0.345 HD
ATOM      5  H   UNL     1     -31.786  47.203 -14.392  1.00  0.00     0.345 HD
ENDBRANCH   1   2
BRANCH   1   6
ATOM      6  C   UNL     1     -31.861  48.253 -16.542  1.00  0.00     0.099 C 
ATOM      7  O   UNL     1     -31.107  49.128 -16.043  1.00  0.00    -0.544 OA
ATOM      8  O   UNL     1     -31.490  47.629 -17.727  1.00  0.00    -0.544 OA
ENDBRANCH   1   6
BRANCH   1   9
ATOM      9  C   UNL     1     -34.125  49.052 -15.755  1.00  0.00     0.047 C 
ATOM     10  C   UNL     1     -33.889  49.920 -14.509  1.00  0.00     0.014 C 
ATOM     11  C   UNL     1     -34.125  49.928 -17.019  1.00  0.00     0.014 C 
ENDBRANCH   1   9
TORSDOF 3
ENDMDL
MODEL 2
REMARK VINA RESULT:    -3.931      2.323      3.253
REMARK INTER + INTRA:          -4.409
REMARK INTER:                  -4.348
REMARK INTRA:                  -0.061
REMARK UNBOUND:                 0.097
REMARK SMILES CC(C)[C@H]([NH3+])C(=O)[O-]
REMARK SMILES IDX 4 1 5 2 6 6 7 7 8 8 2 9 1 10 3 11
REMARK H PARENT 5 3 5 4 5 5
REMARK Flexibility Score: inf
ROOT
ATOM      1  C   UNL     1     -33.553  48.968 -15.720  1.00  0.00     0.230 C 
ENDROOT
BRANCH   1   2
ATOM      2  N   UNL     1     -34.090  49.494 -16.985  1.00  0.00    -0.350 N 
ATOM      3  H   UNL     1     -34.528  50.434 -16.853  1.00  0.00     0.345 HD
ATOM      4  H   UNL     1     -33.334  49.560 -17.703  1.00  0.00     0.345 HD
ATOM      5  H   UNL     1     -34.818  48.838 -17.352  1.00  0.00     0.345 HD
ENDBRANCH   1   2
BRANCH   1   6
ATOM      6  C   UNL     1     -33.248  50.092 -14.760  1.00  0.00     0.099 C 
ATOM      7  O   UNL     1     -34.125  50.959 -14.510  1.00  0.00    -0.544 OA
ATOM      8  O   UNL     1     -32.021  50.155 -14.109  1.00  0.00    -0.544 OA
ENDBRANCH   1   6
BRANCH   1   9
ATOM      9  C   UNL     1     -32.306  48.054 -15.919  1.00  0.00     0.047 C 
ATOM     10  C   UNL     1     -32.623  46.580 -15.624  1.00  0.00     0.014 C 
ATOM     11  C   UNL     1     -31.660  48.189 -17.308  1.00  0.00     0.014 C 
ENDBRANCH   1   9
TORSDOF 3
ENDMDL
MODEL 3
REMARK VINA RESULT:    -3.909      1.438      2.010
REMARK INTER + INTRA:          -4.383
REMARK INTER:                  -4.325
REMARK INTRA:                  -0.058
REMARK UNBOUND:                 0.097
REMARK SMILES CC(C)[C@H]([NH3+])C(=O)[O-]
REMARK SMILES IDX 4 1 5 2 6 6 7 7 8 8 2 9 1 10 3 11
REMARK H PARENT 5 3 5 4 5 5
REMARK Flexibility Score: inf
ROOT
ATOM      1  C   UNL     1     -33.680  48.528 -15.300  1.00  0.00     0.230 C 
ENDROOT
BRANCH   1   2
ATOM      2  N   UNL     1     -34.125  47.816 -14.092  1.00  0.00    -0.350 N 
ATOM      3  H   UNL     1     -35.165  47.844 -13.993  1.00  0.00     0.345 HD
ATOM      4  H   UNL     1     -33.804  46.822 -14.116  1.00  0.00     0.345 HD
ATOM      5  H   UNL     1     -33.700  48.265 -13.248  1.00  0.00     0.345 HD
ENDBRANCH   1   2
BRANCH   1   6
ATOM      6  C   UNL     1     -32.717  47.682 -16.096  1.00  0.00     0.099 C 
ATOM      7  O   UNL     1     -32.603  46.454 -15.843  1.00  0.00    -0.544 OA
ATOM      8  O   UNL     1     -31.985  48.233 -17.142  1.00  0.00    -0.544 OA
ENDBRANCH   1   6
BRANCH   1   9
ATOM      9  C   UNL     1     -33.065  49.928 -14.992  1.00  0.00     0.047 C 
ATOM     10  C   UNL     1     -34.115  50.906 -14.445  1.00  0.00     0.014 C 
ATOM     11  C   UNL     1     -31.851  49.872 -14.050  1.00  0.00     0.014 C 
ENDBRANCH   1   9
TORSDOF 3
ENDMDL
MODEL 4
REMARK VINA RESULT:    -3.866     17.111     17.686
REMARK INTER + INTRA:          -4.335
REMARK INTER:                  -4.277
REMARK INTRA:                  -0.058
REMARK UNBOUND:                 0.097
REMARK SMILES CC(C)[C@H]([NH3+])C(=O)[O-]
REMARK SMILES IDX 4 1 5 2 6 6 7 7 8 8 2 9 1 10 3 11
REMARK H PARENT 5 3 5 4 5 5
REMARK Flexibility Score: inf
ROOT
ATOM      1  C   UNL     1     -31.920  37.480  -1.889  1.00  0.00     0.230 C 
ENDROOT
BRANCH   1   2
ATOM      2  N   UNL     1     -31.320  38.266  -0.799  1.00  0.00    -0.350 N 
ATOM      3  H   UNL     1     -30.542  37.745  -0.335  1.00  0.00     0.345 HD
ATOM      4  H   UNL     1     -30.962  39.178  -1.160  1.00  0.00     0.345 HD
ATOM      5  H   UNL     1     -32.051  38.477  -0.080  1.00  0.00     0.345 HD
ENDBRANCH   1   2
BRANCH   1   6
ATOM      6  C   UNL     1     -31.498  38.022  -3.233  1.00  0.00     0.099 C 
ATOM      7  O   UNL     1     -30.329  37.817  -3.654  1.00  0.00    -0.544 OA
ATOM      8  O   UNL     1     -32.401  38.708  -4.037  1.00  0.00    -0.544 OA
ENDBRANCH   1   6
BRANCH   1   9
ATOM      9  C   UNL     1     -33.473  37.386  -1.791  1.00  0.00     0.047 C 
ATOM     10  C   UNL     1     -33.949  35.934  -1.632  1.00  0.00     0.014 C 
ATOM     11  C   UNL     1     -34.074  38.265  -0.682  1.00  0.00     0.014 C 
ENDBRANCH   1   9
TORSDOF 3
ENDMDL
MODEL 5
REMARK VINA RESULT:    -3.824     17.115     17.689
REMARK INTER + INTRA:          -4.286
REMARK INTER:                  -4.224
REMARK INTRA:                  -0.062
REMARK UNBOUND:                 0.097
REMARK SMILES CC(C)[C@H]([NH3+])C(=O)[O-]
REMARK SMILES IDX 4 1 5 2 6 6 7 7 8 8 2 9 1 10 3 11
REMARK H PARENT 5 3 5 4 5 5
REMARK Flexibility Score: inf
ROOT
ATOM      1  C   UNL     1     -31.868  37.438  -1.882  1.00  0.00     0.230 C 
ENDROOT
BRANCH   1   2
ATOM      2  N   UNL     1     -31.315  38.234  -0.775  1.00  0.00    -0.350 N 
ATOM      3  H   UNL     1     -30.645  38.957  -1.122  1.00  0.00     0.345 HD
ATOM      4  H   UNL     1     -32.082  38.699  -0.240  1.00  0.00     0.345 HD
ATOM      5  H   UNL     1     -30.806  37.602  -0.113  1.00  0.00     0.345 HD
ENDBRANCH   1   2
BRANCH   1   6
ATOM      6  C   UNL     1     -31.318  37.908  -3.206  1.00  0.00     0.099 C 
ATOM      7  O   UNL     1     -32.004  38.672  -3.935  1.00  0.00    -0.544 OA
ATOM      8  O   UNL     1     -30.039  37.546  -3.613  1.00  0.00    -0.544 OA
ENDBRANCH   1   6
BRANCH   1   9
ATOM      9  C   UNL     1     -33.427  37.422  -1.902  1.00  0.00     0.047 C 
ATOM     10  C   UNL     1     -33.986  35.992  -1.878  1.00  0.00     0.014 C 
ATOM     11  C   UNL     1     -34.065  38.260  -0.781  1.00  0.00     0.014 C 
ENDBRANCH   1   9
TORSDOF 3
ENDMDL
MODEL 6
REMARK VINA RESULT:    -3.678     17.057     17.606
REMARK INTER + INTRA:          -4.118
REMARK INTER:                  -4.245
REMARK INTRA:                   0.127
REMARK UNBOUND:                 0.097
REMARK SMILES CC(C)[C@H]([NH3+])C(=O)[O-]
REMARK SMILES IDX 4 1 5 2 6 6 7 7 8 8 2 9 1 10 3 11
REMARK H PARENT 5 3 5 4 5 5
REMARK Flexibility Score: inf
ROOT
ATOM      1  C   UNL     1     -31.637  37.246  -1.704  1.00  0.00     0.230 C 
ENDROOT
BRANCH   1   2
ATOM      2  N   UNL     1     -31.353  38.359  -0.784  1.00  0.00    -0.350 N 
ATOM      3  H   UNL     1     -31.939  38.300   0.080  1.00  0.00     0.345 HD
ATOM      4  H   UNL     1     -30.343  38.365  -0.519  1.00  0.00     0.345 HD
ATOM      5  H   UNL     1     -31.559  39.266  -1.262  1.00  0.00     0.345 HD
ENDBRANCH   1   2
BRANCH   1   6
ATOM      6  C   UNL     1     -30.650  37.230  -2.845  1.00  0.00     0.099 C 
ATOM      7  O   UNL     1     -30.615  38.190  -3.658  1.00  0.00    -0.544 OA
ATOM      8  O   UNL     1     -29.741  36.186  -2.983  1.00  0.00    -0.544 OA
ENDBRANCH   1   6
BRANCH   1   9
ATOM      9  C   UNL     1     -33.102  37.255  -2.238  1.00  0.00     0.047 C 
ATOM     10  C   UNL     1     -33.618  38.683  -2.471  1.00  0.00     0.014 C 
ATOM     11  C   UNL     1     -33.299  36.407  -3.506  1.00  0.00     0.014 C 
ENDBRANCH   1   9
TORSDOF 3
ENDMDL
MODEL 7
REMARK VINA RESULT:    -3.510     16.263     16.742
REMARK INTER + INTRA:          -3.927
REMARK INTER:                  -3.854
REMARK INTRA:                  -0.073
REMARK UNBOUND:                 0.097
REMARK SMILES CC(C)[C@H]([NH3+])C(=O)[O-]
REMARK SMILES IDX 4 1 5 2 6 6 7 7 8 8 2 9 1 10 3 11
REMARK H PARENT 5 3 5 4 5 5
REMARK Flexibility Score: inf
ROOT
ATOM      1  C   UNL     1     -32.246  38.590  -3.360  1.00  0.00     0.230 C 
ENDROOT
BRANCH   1   2
ATOM      2  N   UNL     1     -32.223  39.059  -4.754  1.00  0.00    -0.350 N 
ATOM      3  H   UNL     1     -32.459  40.076  -4.820  1.00  0.00     0.345 HD
ATOM      4  H   UNL     1     -31.284  38.892  -5.180  1.00  0.00     0.345 HD
ATOM      5  H   UNL     1     -32.924  38.521  -5.314  1.00  0.00     0.345 HD
ENDBRANCH   1   2
BRANCH   1   6
ATOM      6  C   UNL     1     -31.873  37.130  -3.281  1.00  0.00     0.099 C 
ATOM      7  O   UNL     1     -30.756  36.793  -2.807  1.00  0.00    -0.544 OA
ATOM      8  O   UNL     1     -32.768  36.145  -3.683  1.00  0.00    -0.544 OA
ENDBRANCH   1   6
BRANCH   1   9
ATOM      9  C   UNL     1     -33.609  38.854  -2.650  1.00  0.00     0.047 C 
ATOM     10  C   UNL     1     -33.559  38.484  -1.160  1.00  0.00     0.014 C 
ATOM     11  C   UNL     1     -34.125  40.292  -2.822  1.00  0.00     0.014 C 
ENDBRANCH   1   9
TORSDOF 3
ENDMDL
MODEL 8
REMARK VINA RESULT:    -3.461     16.579     17.163
REMARK INTER + INTRA:          -3.870
REMARK INTER:                  -3.936
REMARK INTRA:                   0.067
REMARK UNBOUND:                 0.097
REMARK SMILES CC(C)[C@H]([NH3+])C(=O)[O-]
REMARK SMILES IDX 4 1 5 2 6 6 7 7 8 8 2 9 1 10 3 11
REMARK H PARENT 5 3 5 4 5 5
REMARK Flexibility Score: inf
ROOT
ATOM      1  C   UNL     1     -31.325  38.269  -3.220  1.00  0.00     0.230 C 
ENDROOT
BRANCH   1   2
ATOM      2  N   UNL     1     -30.155  37.665  -3.878  1.00  0.00    -0.350 N 
ATOM      3  H   UNL     1     -29.734  38.314  -4.581  1.00  0.00     0.345 HD
ATOM      4  H   UNL     1     -29.433  37.404  -3.170  1.00  0.00     0.345 HD
ATOM      5  H   UNL     1     -30.446  36.789  -4.369  1.00  0.00     0.345 HD
ENDBRANCH   1   2
BRANCH   1   6
ATOM      6  C   UNL     1     -31.528  37.681  -1.845  1.00  0.00     0.099 C 
ATOM      7  O   UNL     1     -32.234  38.291  -1.000  1.00  0.00    -0.544 OA
ATOM      8  O   UNL     1     -30.982  36.446  -1.513  1.00  0.00    -0.544 OA
ENDBRANCH   1   6
BRANCH   1   9
ATOM      9  C   UNL     1     -32.627  38.157  -4.070  1.00  0.00     0.047 C 
ATOM     10  C   UNL     1     -33.354  36.825  -3.830  1.00  0.00     0.014 C 
ATOM     11  C   UNL     1     -33.596  39.333  -3.868  1.00  0.00     0.014 C 
ENDBRANCH   1   9
TORSDOF 3
ENDMDL
