MODEL 1
REMARK VINA RESULT:    -2.699      0.000      0.000
REMARK INTER + INTRA:          -3.029
REMARK INTER:                  -3.015
REMARK INTRA:                  -0.014
REMARK UNBOUND:                -0.014
REMARK SMILES CCCC(=O)[O-]
REMARK SMILES IDX 3 1 4 2 5 3 6 4 2 5 1 6
REMARK H PARENT
REMARK Flexibility Score: inf
ROOT
ATOM      1  C   UNL     1      28.276  20.526  15.778  1.00  0.00     0.052 C 
ENDROOT
BRANCH   1   2
ATOM      2  C   UNL     1      28.193  21.216  14.451  1.00  0.00     0.041 C 
ATOM      3  O   UNL     1      27.419  20.781  13.558  1.00  0.00    -0.550 OA
ATOM      4  O   UNL     1      28.946  22.358  14.212  1.00  0.00    -0.550 OA
ENDBRANCH   1   2
BRANCH   1   5
ATOM      5  C   UNL     1      27.214  21.047  16.755  1.00  0.00     0.003 C 
ATOM      6  C   UNL     1      25.874  20.332  16.594  1.00  0.00     0.004 C 
ENDBRANCH   1   5
TORSDOF 2
ENDMDL
MODEL 2
REMARK VINA RESULT:    -2.662      0.381      1.345
REMARK INTER + INTRA:          -2.987
REMARK INTER:                  -2.957
REMARK INTRA:                  -0.030
REMARK UNBOUND:                -0.014
REMARK SMILES CCCC(=O)[O-]
REMARK SMILES IDX 3 1 4 2 5 3 6 4 2 5 1 6
REMARK H PARENT
REMARK Flexibility Score: inf
ROOT
ATOM      1  C   UNL     1      28.336  20.508  16.075  1.00  0.00     0.052 C 
ENDROOT
BRANCH   1   2
ATOM      2  C   UNL     1      28.288  20.994  14.659  1.00  0.00     0.041 C 
ATOM      3  O   UNL     1      28.727  22.137  14.366  1.00  0.00    -0.550 OA
ATOM      4  O   UNL     1      27.788  20.172  13.658  1.00  0.00    -0.550 OA
ENDBRANCH   1   2
BRANCH   1   5
ATOM      5  C   UNL     1      27.135  21.009  16.887  1.00  0.00     0.003 C 
ATOM      6  C   UNL     1      25.833  20.315  16.490  1.00  0.00     0.004 C 
ENDBRANCH   1   5
TORSDOF 2
ENDMDL
MODEL 3
REMARK VINA RESULT:    -2.375      1.299      1.577
REMARK INTER + INTRA:          -2.666
REMARK INTER:                  -2.630
REMARK INTRA:                  -0.037
REMARK UNBOUND:                -0.014
REMARK SMILES CCCC(=O)[O-]
REMARK SMILES IDX 3 1 4 2 5 3 6 4 2 5 1 6
REMARK H PARENT
REMARK Flexibility Score: inf
ROOT
ATOM      1  C   UNL     1      28.225  21.472  14.732  1.00  0.00     0.052 C 
ENDROOT
BRANCH   1   2
ATOM      2  C   UNL     1      27.830  20.696  13.515  1.00  0.00     0.041 C 
ATOM      3  O   UNL     1      26.620  20.626  13.171  1.00  0.00    -0.550 OA
ATOM      4  O   UNL     1      28.801  20.075  12.740  1.00  0.00    -0.550 OA
ENDBRANCH   1   2
BRANCH   1   5
ATOM      5  C   UNL     1      28.227  20.593  15.990  1.00  0.00     0.003 C 
ATOM      6  C   UNL     1      27.006  20.840  16.874  1.00  0.00     0.004 C 
ENDBRANCH   1   5
TORSDOF 2
ENDMDL
MODEL 4
REMARK VINA RESULT:    -2.315      2.049      3.339
REMARK INTER + INTRA:          -2.599
REMARK INTER:                  -2.587
REMARK INTRA:                  -0.012
REMARK UNBOUND:                -0.014
REMARK SMILES CCCC(=O)[O-]
REMARK SMILES IDX 3 1 4 2 5 3 6 4 2 5 1 6
REMARK H PARENT
REMARK Flexibility Score: inf
ROOT
ATOM      1  C   UNL     1      28.078  20.907  15.777  1.00  0.00     0.052 C 
ENDROOT
BRANCH   1   2
ATOM      2  C   UNL     1      26.711  20.450  16.183  1.00  0.00     0.041 C 
ATOM      3  O   UNL     1      26.352  20.520  17.388  1.00  0.00    -0.550 OA
ATOM      4  O   UNL     1      25.822  19.978  15.226  1.00  0.00    -0.550 OA
ENDBRANCH   1   2
BRANCH   1   5
ATOM      5  C   UNL     1      28.191  21.074  14.256  1.00  0.00     0.003 C 
ATOM      6  C   UNL     1      29.071  22.260  13.864  1.00  0.00     0.004 C 
ENDBRANCH   1   5
TORSDOF 2
ENDMDL
MODEL 5
REMARK VINA RESULT:    -2.142      2.260      3.074
REMARK INTER + INTRA:          -2.406
REMARK INTER:                  -2.370
REMARK INTRA:                  -0.036
REMARK UNBOUND:                -0.014
REMARK SMILES CCCC(=O)[O-]
REMARK SMILES IDX 3 1 4 2 5 3 6 4 2 5 1 6
REMARK H PARENT
REMARK Flexibility Score: inf
ROOT
ATOM      1  C   UNL     1      29.306  22.481  13.874  1.00  0.00     0.052 C 
ENDROOT
BRANCH   1   2
ATOM      2  C   UNL     1      28.952  22.657  12.430  1.00  0.00     0.041 C 
ATOM      3  O   UNL     1      29.531  23.534  11.736  1.00  0.00    -0.550 OA
ATOM      4  O   UNL     1      28.004  21.830  11.841  1.00  0.00    -0.550 OA
ENDBRANCH   1   2
BRANCH   1   5
ATOM      5  C   UNL     1      28.377  21.477  14.568  1.00  0.00     0.003 C 
ATOM      6  C   UNL     1      29.117  20.225  15.034  1.00  0.00     0.004 C 
ENDBRANCH   1   5
TORSDOF 2
ENDMDL
MODEL 6
REMARK VINA RESULT:    -2.107      2.279      3.894
REMARK INTER + INTRA:          -2.367
REMARK INTER:                  -2.330
REMARK INTRA:                  -0.037
REMARK UNBOUND:                -0.014
REMARK SMILES CCCC(=O)[O-]
REMARK SMILES IDX 3 1 4 2 5 3 6 4 2 5 1 6
REMARK H PARENT
REMARK Flexibility Score: inf
ROOT
ATOM      1  C   UNL     1      29.247  22.474  13.659  1.00  0.00     0.052 C 
ENDROOT
BRANCH   1   2
ATOM      2  C   UNL     1      28.309  21.413  14.146  1.00  0.00     0.041 C 
ATOM      3  O   UNL     1      27.551  20.817  13.336  1.00  0.00    -0.550 OA
ATOM      4  O   UNL     1      28.295  21.058  15.489  1.00  0.00    -0.550 OA
ENDBRANCH   1   2
BRANCH   1   5
ATOM      5  C   UNL     1      28.908  22.919  12.231  1.00  0.00     0.003 C 
ATOM      6  C   UNL     1      30.020  22.586  11.238  1.00  0.00     0.004 C 
ENDBRANCH   1   5
TORSDOF 2
ENDMDL
MODEL 7
REMARK VINA RESULT:    -2.020      4.051      5.160
REMARK INTER + INTRA:          -2.270
REMARK INTER:                  -2.260
REMARK INTRA:                  -0.010
REMARK UNBOUND:                -0.014
REMARK SMILES CCCC(=O)[O-]
REMARK SMILES IDX 3 1 4 2 5 3 6 4 2 5 1 6
REMARK H PARENT
REMARK Flexibility Score: inf
ROOT
ATOM      1  C   UNL     1      28.657  21.716  11.397  1.00  0.00     0.052 C 
ENDROOT
BRANCH   1   2
ATOM      2  C   UNL     1      29.234  22.806  12.245  1.00  0.00     0.041 C 
ATOM      3  O   UNL     1      29.155  22.742  13.501  1.00  0.00    -0.550 OA
ATOM      4  O   UNL     1      29.888  23.877  11.652  1.00  0.00    -0.550 OA
ENDBRANCH   1   2
BRANCH   1   5
ATOM      5  C   UNL     1      29.523  21.440  10.161  1.00  0.00     0.003 C 
ATOM      6  C   UNL     1      28.767  20.667   9.081  1.00  0.00     0.004 C 
ENDBRANCH   1   5
TORSDOF 2
ENDMDL
MODEL 8
REMARK VINA RESULT:    -2.014     13.239     14.555
REMARK INTER + INTRA:          -2.263
REMARK INTER:                  -2.237
REMARK INTRA:                  -0.026
REMARK UNBOUND:                -0.014
REMARK SMILES CCCC(=O)[O-]
REMARK SMILES IDX 3 1 4 2 5 3 6 4 2 5 1 6
REMARK H PARENT
REMARK Flexibility Score: inf
ROOT
ATOM      1  C   UNL     1      13.425  20.658  16.758  1.00  0.00     0.052 C 
ENDROOT
BRANCH   1   2
ATOM      2  C   UNL     1      12.768  20.721  18.102  1.00  0.00     0.041 C 
ATOM      3  O   UNL     1      11.710  21.386  18.260  1.00  0.00    -0.550 OA
ATOM      4  O   UNL     1      13.305  20.020  19.173  1.00  0.00    -0.550 OA
ENDBRANCH   1   2
BRANCH   1   5
ATOM      5  C   UNL     1      14.831  20.049  16.842  1.00  0.00     0.003 C 
ATOM      6  C   UNL     1      15.917  21.032  16.407  1.00  0.00     0.004 C 
ENDBRANCH   1   5
TORSDOF 2
ENDMDL
