MODEL 1
REMARK VINA RESULT:    -5.835      0.000      0.000
REMARK INTER + INTRA:         -13.603
REMARK INTER:                 -11.293
REMARK INTRA:                  -2.310
REMARK UNBOUND:                -2.310
REMARK SMILES CCCCCC=CCC=CCCCCCCCCOC(C)=O
REMARK SMILES IDX 12 1 11 2 10 3 9 4 8 5 7 6 6 7 5 8 4 9 3 10 2 11 1 12 13 13
REMARK SMILES IDX 14 14 15 15 16 16 17 17 18 18 19 19 20 20 22 21 21 22
REMARK H PARENT
REMARK Flexibility Score: inf
ROOT
ATOM      1  C   UNL     1      35.618  -1.878  17.369  1.00  0.00     0.004 C 
ENDROOT
BRANCH   1   2
ATOM      2  C   UNL     1      34.438  -1.767  18.346  1.00  0.00     0.027 C 
BRANCH   2   3
ATOM      3  C   UNL     1      33.939  -0.351  18.474  1.00  0.00    -0.031 C 
ATOM      4  C   UNL     1      32.796   0.102  17.928  1.00  0.00    -0.027 C 
BRANCH   4   5
ATOM      5  C   UNL     1      31.833  -0.770  17.165  1.00  0.00     0.054 C 
BRANCH   5   6
ATOM      6  C   UNL     1      30.407  -0.367  17.438  1.00  0.00    -0.027 C 
ATOM      7  C   UNL     1      29.679  -0.805  18.481  1.00  0.00    -0.031 C 
BRANCH   7   8
ATOM      8  C   UNL     1      30.155  -1.814  19.493  1.00  0.00     0.027 C 
BRANCH   8   9
ATOM      9  C   UNL     1      29.020  -2.209  20.451  1.00  0.00     0.004 C 
BRANCH   9  10
ATOM     10  C   UNL     1      28.691  -3.714  20.364  1.00  0.00     0.000 C 
BRANCH  10  11
ATOM     11  C   UNL     1      29.681  -4.499  19.477  1.00  0.00    -0.003 C 
ATOM     12  C   UNL     1      29.027  -5.031  18.198  1.00  0.00     0.004 C 
ENDBRANCH  10  11
ENDBRANCH   9  10
ENDBRANCH   8   9
ENDBRANCH   7   8
ENDBRANCH   5   6
ENDBRANCH   4   5
ENDBRANCH   2   3
ENDBRANCH   1   2
BRANCH   1  13
ATOM     13  C   UNL     1      35.174  -1.763  15.905  1.00  0.00     0.000 C 
BRANCH  13  14
ATOM     14  C   UNL     1      35.972  -0.672  15.180  1.00  0.00     0.000 C 
BRANCH  14  15
ATOM     15  C   UNL     1      35.186   0.647  15.124  1.00  0.00     0.000 C 
BRANCH  15  16
ATOM     16  C   UNL     1      35.991   1.848  15.652  1.00  0.00     0.003 C 
BRANCH  16  17
ATOM     17  C   UNL     1      36.715   1.609  16.993  1.00  0.00     0.042 C 
BRANCH  17  18
ATOM     18  C   UNL     1      38.222   1.897  16.947  1.00  0.00     0.233 C 
BRANCH  18  19
ATOM     19  O   UNL     1      38.986   0.690  16.944  1.00  0.00    -0.466 OA
BRANCH  19  20
ATOM     20  C   UNL     1      39.461   0.085  15.776  1.00  0.00     0.302 C 
ATOM     21  O   UNL     1      39.871  -1.109  15.786  1.00  0.00    -0.253 OA
ATOM     22  C   UNL     1      39.453   0.857  14.499  1.00  0.00     0.139 C 
ENDBRANCH  19  20
ENDBRANCH  18  19
ENDBRANCH  17  18
ENDBRANCH  16  17
ENDBRANCH  15  16
ENDBRANCH  14  15
ENDBRANCH  13  14
ENDBRANCH   1  13
TORSDOF 16
ENDMDL
MODEL 2
REMARK VINA RESULT:    -5.830      3.960      8.477
REMARK INTER + INTRA:         -13.594
REMARK INTER:                 -10.931
REMARK INTRA:                  -2.662
REMARK UNBOUND:                -2.310
REMARK SMILES CCCCCC=CCC=CCCCCCCCCOC(C)=O
REMARK SMILES IDX 12 1 11 2 10 3 9 4 8 5 7 6 6 7 5 8 4 9 3 10 2 11 1 12 13 13
REMARK SMILES IDX 14 14 15 15 16 16 17 17 18 18 19 19 20 20 22 21 21 22
REMARK H PARENT
REMARK Flexibility Score: inf
ROOT
ATOM      1  C   UNL     1      33.664   0.153  18.839  1.00  0.00     0.004 C 
ENDROOT
BRANCH   1   2
ATOM      2  C   UNL     1      34.258   1.375  18.125  1.00  0.00     0.027 C 
BRANCH   2   3
ATOM      3  C   UNL     1      33.462   1.763  16.906  1.00  0.00    -0.031 C 
ATOM      4  C   UNL     1      33.969   1.844  15.664  1.00  0.00    -0.027 C 
BRANCH   4   5
ATOM      5  C   UNL     1      35.395   1.496  15.320  1.00  0.00     0.054 C 
BRANCH   5   6
ATOM      6  C   UNL     1      35.517   0.048  14.920  1.00  0.00    -0.027 C 
ATOM      7  C   UNL     1      36.386  -0.822  15.466  1.00  0.00    -0.031 C 
BRANCH   7   8
ATOM      8  C   UNL     1      37.413  -0.465  16.509  1.00  0.00     0.027 C 
BRANCH   8   9
ATOM      9  C   UNL     1      38.787  -0.220  15.865  1.00  0.00     0.004 C 
BRANCH   9  10
ATOM     10  C   UNL     1      39.095   1.285  15.721  1.00  0.00     0.000 C 
BRANCH  10  11
ATOM     11  C   UNL     1      38.727   2.101  16.979  1.00  0.00    -0.003 C 
ATOM     12  C   UNL     1      39.833   2.075  18.038  1.00  0.00     0.004 C 
ENDBRANCH  10  11
ENDBRANCH   9  10
ENDBRANCH   8   9
ENDBRANCH   7   8
ENDBRANCH   5   6
ENDBRANCH   4   5
ENDBRANCH   2   3
ENDBRANCH   1   2
BRANCH   1  13
ATOM     13  C   UNL     1      34.277  -1.164  18.345  1.00  0.00     0.000 C 
BRANCH  13  14
ATOM     14  C   UNL     1      33.196  -2.079  17.756  1.00  0.00     0.000 C 
BRANCH  14  15
ATOM     15  C   UNL     1      31.809  -1.423  17.837  1.00  0.00     0.000 C 
BRANCH  15  16
ATOM     16  C   UNL     1      31.233  -1.065  16.455  1.00  0.00     0.003 C 
BRANCH  16  17
ATOM     17  C   UNL     1      30.004  -1.892  16.027  1.00  0.00     0.042 C 
BRANCH  17  18
ATOM     18  C   UNL     1      28.674  -1.132  16.135  1.00  0.00     0.233 C 
BRANCH  18  19
ATOM     19  O   UNL     1      27.877  -1.623  17.214  1.00  0.00    -0.466 OA
BRANCH  19  20
ATOM     20  C   UNL     1      28.125  -1.315  18.555  1.00  0.00     0.302 C 
ATOM     21  O   UNL     1      28.097  -2.212  19.441  1.00  0.00    -0.253 OA
ATOM     22  C   UNL     1      28.454   0.091  18.931  1.00  0.00     0.139 C 
ENDBRANCH  19  20
ENDBRANCH  18  19
ENDBRANCH  17  18
ENDBRANCH  16  17
ENDBRANCH  15  16
ENDBRANCH  14  15
ENDBRANCH  13  14
ENDBRANCH   1  13
TORSDOF 16
ENDMDL
MODEL 3
REMARK VINA RESULT:    -5.751      3.665      8.518
REMARK INTER + INTRA:         -13.440
REMARK INTER:                 -10.789
REMARK INTRA:                  -2.651
REMARK UNBOUND:                -2.310
REMARK SMILES CCCCCC=CCC=CCCCCCCCCOC(C)=O
REMARK SMILES IDX 12 1 11 2 10 3 9 4 8 5 7 6 6 7 5 8 4 9 3 10 2 11 1 12 13 13
REMARK SMILES IDX 14 14 15 15 16 16 17 17 18 18 19 19 20 20 22 21 21 22
REMARK H PARENT
REMARK Flexibility Score: inf
ROOT
ATOM      1  C   UNL     1      33.678   1.825  15.879  1.00  0.00     0.004 C 
ENDROOT
BRANCH   1   2
ATOM      2  C   UNL     1      35.149   1.655  15.471  1.00  0.00     0.027 C 
BRANCH   2   3
ATOM      3  C   UNL     1      35.329   0.580  14.431  1.00  0.00    -0.031 C 
ATOM      4  C   UNL     1      35.659  -0.694  14.708  1.00  0.00    -0.027 C 
BRANCH   4   5
ATOM      5  C   UNL     1      35.832  -1.227  16.108  1.00  0.00     0.054 C 
BRANCH   5   6
ATOM      6  C   UNL     1      37.290  -1.284  16.487  1.00  0.00    -0.027 C 
ATOM      7  C   UNL     1      37.897  -0.408  17.309  1.00  0.00    -0.031 C 
BRANCH   7   8
ATOM      8  C   UNL     1      37.229   0.797  17.919  1.00  0.00     0.027 C 
BRANCH   8   9
ATOM      9  C   UNL     1      37.933   2.092  17.485  1.00  0.00     0.004 C 
BRANCH   9  10
ATOM     10  C   UNL     1      39.219   1.807  16.682  1.00  0.00     0.000 C 
BRANCH  10  11
ATOM     11  C   UNL     1      39.112   2.227  15.200  1.00  0.00    -0.003 C 
ATOM     12  C   UNL     1      39.275   1.044  14.242  1.00  0.00     0.004 C 
ENDBRANCH  10  11
ENDBRANCH   9  10
ENDBRANCH   8   9
ENDBRANCH   7   8
ENDBRANCH   5   6
ENDBRANCH   4   5
ENDBRANCH   2   3
ENDBRANCH   1   2
BRANCH   1  13
ATOM     13  C   UNL     1      33.487   1.776  17.400  1.00  0.00     0.000 C 
BRANCH  13  14
ATOM     14  C   UNL     1      33.322   0.328  17.880  1.00  0.00     0.000 C 
BRANCH  14  15
ATOM     15  C   UNL     1      32.368  -0.455  16.965  1.00  0.00     0.000 C 
BRANCH  15  16
ATOM     16  C   UNL     1      30.890  -0.310  17.374  1.00  0.00     0.003 C 
BRANCH  16  17
ATOM     17  C   UNL     1      30.470  -1.142  18.603  1.00  0.00     0.042 C 
BRANCH  17  18
ATOM     18  C   UNL     1      30.308  -2.641  18.313  1.00  0.00     0.233 C 
BRANCH  18  19
ATOM     19  O   UNL     1      29.681  -2.865  17.049  1.00  0.00    -0.466 OA
BRANCH  19  20
ATOM     20  C   UNL     1      28.314  -2.677  16.826  1.00  0.00     0.302 C 
ATOM     21  O   UNL     1      27.476  -2.855  17.752  1.00  0.00    -0.253 OA
ATOM     22  C   UNL     1      27.850  -2.230  15.480  1.00  0.00     0.139 C 
ENDBRANCH  19  20
ENDBRANCH  18  19
ENDBRANCH  17  18
ENDBRANCH  16  17
ENDBRANCH  15  16
ENDBRANCH  14  15
ENDBRANCH  13  14
ENDBRANCH   1  13
TORSDOF 16
ENDMDL
MODEL 4
REMARK VINA RESULT:    -5.729      1.332      2.409
REMARK INTER + INTRA:         -13.397
REMARK INTER:                 -10.538
REMARK INTRA:                  -2.859
REMARK UNBOUND:                -2.310
REMARK SMILES CCCCCC=CCC=CCCCCCCCCOC(C)=O
REMARK SMILES IDX 12 1 11 2 10 3 9 4 8 5 7 6 6 7 5 8 4 9 3 10 2 11 1 12 13 13
REMARK SMILES IDX 14 14 15 15 16 16 17 17 18 18 19 19 20 20 22 21 21 22
REMARK H PARENT
REMARK Flexibility Score: inf
ROOT
ATOM      1  C   UNL     1      35.605  -1.386  15.135  1.00  0.00     0.004 C 
ENDROOT
BRANCH   1   2
ATOM      2  C   UNL     1      35.443  -2.398  16.279  1.00  0.00     0.027 C 
BRANCH   2   3
ATOM      3  C   UNL     1      35.954  -1.860  17.590  1.00  0.00    -0.031 C 
ATOM      4  C   UNL     1      35.170  -1.545  18.636  1.00  0.00    -0.027 C 
BRANCH   4   5
ATOM      5  C   UNL     1      33.677  -1.748  18.652  1.00  0.00     0.054 C 
BRANCH   5   6
ATOM      6  C   UNL     1      32.952  -0.431  18.546  1.00  0.00    -0.027 C 
ATOM      7  C   UNL     1      31.929  -0.191  17.705  1.00  0.00    -0.031 C 
BRANCH   7   8
ATOM      8  C   UNL     1      31.401  -1.178  16.697  1.00  0.00     0.027 C 
BRANCH   8   9
ATOM      9  C   UNL     1      29.899  -1.426  16.908  1.00  0.00     0.004 C 
BRANCH   9  10
ATOM     10  C   UNL     1      29.618  -2.855  17.417  1.00  0.00     0.000 C 
BRANCH  10  11
ATOM     11  C   UNL     1      30.164  -3.108  18.839  1.00  0.00    -0.003 C 
ATOM     12  C   UNL     1      29.847  -4.518  19.346  1.00  0.00     0.004 C 
ENDBRANCH  10  11
ENDBRANCH   9  10
ENDBRANCH   8   9
ENDBRANCH   7   8
ENDBRANCH   5   6
ENDBRANCH   4   5
ENDBRANCH   2   3
ENDBRANCH   1   2
BRANCH   1  13
ATOM     13  C   UNL     1      34.701  -0.159  15.311  1.00  0.00     0.000 C 
BRANCH  13  14
ATOM     14  C   UNL     1      35.401   1.108  14.807  1.00  0.00     0.000 C 
BRANCH  14  15
ATOM     15  C   UNL     1      35.253   2.262  15.810  1.00  0.00     0.000 C 
BRANCH  15  16
ATOM     16  C   UNL     1      35.415   1.810  17.273  1.00  0.00     0.003 C 
BRANCH  16  17
ATOM     17  C   UNL     1      36.808   2.066  17.883  1.00  0.00     0.042 C 
BRANCH  17  18
ATOM     18  C   UNL     1      37.910   1.155  17.323  1.00  0.00     0.233 C 
BRANCH  18  19
ATOM     19  O   UNL     1      38.971   1.913  16.741  1.00  0.00    -0.466 OA
BRANCH  19  20
ATOM     20  C   UNL     1      39.092   2.135  15.366  1.00  0.00     0.302 C 
ATOM     21  O   UNL     1      39.114   3.307  14.898  1.00  0.00    -0.253 OA
ATOM     22  C   UNL     1      39.224   0.967  14.447  1.00  0.00     0.139 C 
ENDBRANCH  19  20
ENDBRANCH  18  19
ENDBRANCH  17  18
ENDBRANCH  16  17
ENDBRANCH  15  16
ENDBRANCH  14  15
ENDBRANCH  13  14
ENDBRANCH   1  13
TORSDOF 16
ENDMDL
MODEL 5
REMARK VINA RESULT:    -5.654      3.738      9.060
REMARK INTER + INTRA:         -13.253
REMARK INTER:                 -11.108
REMARK INTRA:                  -2.145
REMARK UNBOUND:                -2.310
REMARK SMILES CCCCCC=CCC=CCCCCCCCCOC(C)=O
REMARK SMILES IDX 12 1 11 2 10 3 9 4 8 5 7 6 6 7 5 8 4 9 3 10 2 11 1 12 13 13
REMARK SMILES IDX 14 14 15 15 16 16 17 17 18 18 19 19 20 20 22 21 21 22
REMARK H PARENT
REMARK Flexibility Score: inf
ROOT
ATOM      1  C   UNL     1      33.285  -1.173  16.967  1.00  0.00     0.004 C 
ENDROOT
BRANCH   1   2
ATOM      2  C   UNL     1      33.472   0.164  16.236  1.00  0.00     0.027 C 
BRANCH   2   3
ATOM      3  C   UNL     1      33.332   1.343  17.164  1.00  0.00    -0.031 C 
ATOM      4  C   UNL     1      34.361   2.089  17.602  1.00  0.00    -0.027 C 
BRANCH   4   5
ATOM      5  C   UNL     1      35.790   1.877  17.169  1.00  0.00     0.054 C 
BRANCH   5   6
ATOM      6  C   UNL     1      36.452   0.807  17.999  1.00  0.00    -0.027 C 
ATOM      7  C   UNL     1      37.364  -0.064  17.530  1.00  0.00    -0.031 C 
BRANCH   7   8
ATOM      8  C   UNL     1      37.810  -0.145  16.093  1.00  0.00     0.027 C 
BRANCH   8   9
ATOM      9  C   UNL     1      39.148   0.584  15.893  1.00  0.00     0.004 C 
BRANCH   9  10
ATOM     10  C   UNL     1      39.105   1.547  14.688  1.00  0.00     0.000 C 
BRANCH  10  11
ATOM     11  C   UNL     1      39.176   3.033  15.100  1.00  0.00    -0.003 C 
ATOM     12  C   UNL     1      39.266   3.218  16.618  1.00  0.00     0.004 C 
ENDBRANCH  10  11
ENDBRANCH   9  10
ENDBRANCH   8   9
ENDBRANCH   7   8
ENDBRANCH   5   6
ENDBRANCH   4   5
ENDBRANCH   2   3
ENDBRANCH   1   2
BRANCH   1  13
ATOM     13  C   UNL     1      32.114  -1.137  17.956  1.00  0.00     0.000 C 
BRANCH  13  14
ATOM     14  C   UNL     1      31.053  -2.179  17.579  1.00  0.00     0.000 C 
BRANCH  14  15
ATOM     15  C   UNL     1      29.775  -1.505  17.055  1.00  0.00     0.000 C 
BRANCH  15  16
ATOM     16  C   UNL     1      29.433  -0.203  17.802  1.00  0.00     0.003 C 
BRANCH  16  17
ATOM     17  C   UNL     1      27.945  -0.035  18.171  1.00  0.00     0.042 C 
BRANCH  17  18
ATOM     18  C   UNL     1      27.675  -0.025  19.682  1.00  0.00     0.233 C 
BRANCH  18  19
ATOM     19  O   UNL     1      27.488  -1.347  20.189  1.00  0.00    -0.466 OA
BRANCH  19  20
ATOM     20  C   UNL     1      28.545  -2.179  20.572  1.00  0.00     0.302 C 
ATOM     21  O   UNL     1      29.575  -1.705  21.126  1.00  0.00    -0.253 OA
ATOM     22  C   UNL     1      28.435  -3.649  20.344  1.00  0.00     0.139 C 
ENDBRANCH  19  20
ENDBRANCH  18  19
ENDBRANCH  17  18
ENDBRANCH  16  17
ENDBRANCH  15  16
ENDBRANCH  14  15
ENDBRANCH  13  14
ENDBRANCH   1  13
TORSDOF 16
ENDMDL
MODEL 6
REMARK VINA RESULT:    -5.642      1.672      3.199
REMARK INTER + INTRA:         -13.230
REMARK INTER:                 -10.187
REMARK INTRA:                  -3.042
REMARK UNBOUND:                -2.310
REMARK SMILES CCCCCC=CCC=CCCCCCCCCOC(C)=O
REMARK SMILES IDX 12 1 11 2 10 3 9 4 8 5 7 6 6 7 5 8 4 9 3 10 2 11 1 12 13 13
REMARK SMILES IDX 14 14 15 15 16 16 17 17 18 18 19 19 20 20 22 21 21 22
REMARK H PARENT
REMARK Flexibility Score: inf
ROOT
ATOM      1  C   UNL     1      31.688  -2.063  17.821  1.00  0.00     0.004 C 
ENDROOT
BRANCH   1   2
ATOM      2  C   UNL     1      30.593  -1.700  16.809  1.00  0.00     0.027 C 
BRANCH   2   3
ATOM      3  C   UNL     1      30.036  -0.319  17.044  1.00  0.00    -0.031 C 
ATOM      4  C   UNL     1      28.987  -0.051  17.840  1.00  0.00    -0.027 C 
BRANCH   4   5
ATOM      5  C   UNL     1      28.266  -1.096  18.652  1.00  0.00     0.054 C 
BRANCH   5   6
ATOM      6  C   UNL     1      28.863  -1.217  20.030  1.00  0.00    -0.027 C 
ATOM      7  C   UNL     1      28.993  -2.375  20.704  1.00  0.00    -0.031 C 
BRANCH   7   8
ATOM      8  C   UNL     1      28.502  -3.712  20.211  1.00  0.00     0.027 C 
BRANCH   8   9
ATOM      9  C   UNL     1      29.651  -4.524  19.592  1.00  0.00     0.004 C 
BRANCH   9  10
ATOM     10  C   UNL     1      29.332  -4.964  18.148  1.00  0.00     0.000 C 
BRANCH  10  11
ATOM     11  C   UNL     1      27.857  -4.730  17.757  1.00  0.00    -0.003 C 
ATOM     12  C   UNL     1      27.714  -4.037  16.399  1.00  0.00     0.004 C 
ENDBRANCH  10  11
ENDBRANCH   9  10
ENDBRANCH   8   9
ENDBRANCH   7   8
ENDBRANCH   5   6
ENDBRANCH   4   5
ENDBRANCH   2   3
ENDBRANCH   1   2
BRANCH   1  13
ATOM     13  C   UNL     1      32.990  -1.291  17.572  1.00  0.00     0.000 C 
BRANCH  13  14
ATOM     14  C   UNL     1      33.271  -0.316  18.722  1.00  0.00     0.000 C 
BRANCH  14  15
ATOM     15  C   UNL     1      33.491   1.112  18.198  1.00  0.00     0.000 C 
BRANCH  15  16
ATOM     16  C   UNL     1      33.480   1.195  16.660  1.00  0.00     0.003 C 
BRANCH  16  17
ATOM     17  C   UNL     1      34.761   1.779  16.031  1.00  0.00     0.042 C 
BRANCH  17  18
ATOM     18  C   UNL     1      35.817   2.213  17.057  1.00  0.00     0.233 C 
BRANCH  18  19
ATOM     19  O   UNL     1      37.072   1.573  16.820  1.00  0.00    -0.466 OA
BRANCH  19  20
ATOM     20  C   UNL     1      37.223   0.185  16.746  1.00  0.00     0.302 C 
ATOM     21  O   UNL     1      37.698  -0.360  15.712  1.00  0.00    -0.253 OA
ATOM     22  C   UNL     1      36.844  -0.654  17.920  1.00  0.00     0.139 C 
ENDBRANCH  19  20
ENDBRANCH  18  19
ENDBRANCH  17  18
ENDBRANCH  16  17
ENDBRANCH  15  16
ENDBRANCH  14  15
ENDBRANCH  13  14
ENDBRANCH   1  13
TORSDOF 16
ENDMDL
MODEL 7
REMARK VINA RESULT:    -5.632      3.915      8.808
REMARK INTER + INTRA:         -13.210
REMARK INTER:                 -10.827
REMARK INTRA:                  -2.383
REMARK UNBOUND:                -2.310
REMARK SMILES CCCCCC=CCC=CCCCCCCCCOC(C)=O
REMARK SMILES IDX 12 1 11 2 10 3 9 4 8 5 7 6 6 7 5 8 4 9 3 10 2 11 1 12 13 13
REMARK SMILES IDX 14 14 15 15 16 16 17 17 18 18 19 19 20 20 22 21 21 22
REMARK H PARENT
REMARK Flexibility Score: inf
ROOT
ATOM      1  C   UNL     1      33.756  -0.540  18.228  1.00  0.00     0.004 C 
ENDROOT
BRANCH   1   2
ATOM      2  C   UNL     1      34.062   0.962  18.143  1.00  0.00     0.027 C 
BRANCH   2   3
ATOM      3  C   UNL     1      33.283   1.639  17.045  1.00  0.00    -0.031 C 
ATOM      4  C   UNL     1      33.811   2.036  15.875  1.00  0.00    -0.027 C 
BRANCH   4   5
ATOM      5  C   UNL     1      35.247   1.799  15.484  1.00  0.00     0.054 C 
BRANCH   5   6
ATOM      6  C   UNL     1      35.414   0.451  14.831  1.00  0.00    -0.027 C 
ATOM      7  C   UNL     1      36.218  -0.525  15.294  1.00  0.00    -0.031 C 
BRANCH   7   8
ATOM      8  C   UNL     1      37.121  -0.392  16.493  1.00  0.00     0.027 C 
BRANCH   8   9
ATOM      9  C   UNL     1      38.583  -0.666  16.111  1.00  0.00     0.004 C 
BRANCH   9  10
ATOM     10  C   UNL     1      39.207   0.515  15.338  1.00  0.00     0.000 C 
BRANCH  10  11
ATOM     11  C   UNL     1      38.996   1.875  16.038  1.00  0.00    -0.003 C 
ATOM     12  C   UNL     1      39.031   3.051  15.058  1.00  0.00     0.004 C 
ENDBRANCH  10  11
ENDBRANCH   9  10
ENDBRANCH   8   9
ENDBRANCH   7   8
ENDBRANCH   5   6
ENDBRANCH   4   5
ENDBRANCH   2   3
ENDBRANCH   1   2
BRANCH   1  13
ATOM     13  C   UNL     1      32.637  -0.962  17.268  1.00  0.00     0.000 C 
BRANCH  13  14
ATOM     14  C   UNL     1      31.665  -1.927  17.958  1.00  0.00     0.000 C 
BRANCH  14  15
ATOM     15  C   UNL     1      30.477  -1.173  18.574  1.00  0.00     0.000 C 
BRANCH  15  16
ATOM     16  C   UNL     1      29.469  -0.677  17.521  1.00  0.00     0.003 C 
BRANCH  16  17
ATOM     17  C   UNL     1      28.007  -1.098  17.769  1.00  0.00     0.042 C 
BRANCH  17  18
ATOM     18  C   UNL     1      27.443  -2.047  16.702  1.00  0.00     0.233 C 
BRANCH  18  19
ATOM     19  O   UNL     1      28.394  -3.048  16.336  1.00  0.00    -0.466 OA
BRANCH  19  20
ATOM     20  C   UNL     1      28.326  -4.371  16.782  1.00  0.00     0.302 C 
ATOM     21  O   UNL     1      27.454  -5.163  16.329  1.00  0.00    -0.253 OA
ATOM     22  C   UNL     1      29.318  -4.856  17.785  1.00  0.00     0.139 C 
ENDBRANCH  19  20
ENDBRANCH  18  19
ENDBRANCH  17  18
ENDBRANCH  16  17
ENDBRANCH  15  16
ENDBRANCH  14  15
ENDBRANCH  13  14
ENDBRANCH   1  13
TORSDOF 16
ENDMDL
MODEL 8
REMARK VINA RESULT:    -5.630      3.778      8.346
REMARK INTER + INTRA:         -13.206
REMARK INTER:                 -10.299
REMARK INTRA:                  -2.908
REMARK UNBOUND:                -2.310
REMARK SMILES CCCCCC=CCC=CCCCCCCCCOC(C)=O
REMARK SMILES IDX 12 1 11 2 10 3 9 4 8 5 7 6 6 7 5 8 4 9 3 10 2 11 1 12 13 13
REMARK SMILES IDX 14 14 15 15 16 16 17 17 18 18 19 19 20 20 22 21 21 22
REMARK H PARENT
REMARK Flexibility Score: inf
ROOT
ATOM      1  C   UNL     1      32.855  -0.523  18.681  1.00  0.00     0.004 C 
ENDROOT
BRANCH   1   2
ATOM      2  C   UNL     1      34.219   0.170  18.556  1.00  0.00     0.027 C 
BRANCH   2   3
ATOM      3  C   UNL     1      35.363  -0.778  18.807  1.00  0.00    -0.031 C 
ATOM      4  C   UNL     1      35.740  -1.752  17.960  1.00  0.00    -0.027 C 
BRANCH   4   5
ATOM      5  C   UNL     1      35.099  -1.984  16.616  1.00  0.00     0.054 C 
BRANCH   5   6
ATOM      6  C   UNL     1      36.046  -1.631  15.498  1.00  0.00    -0.027 C 
ATOM      7  C   UNL     1      35.994  -0.488  14.789  1.00  0.00    -0.031 C 
BRANCH   7   8
ATOM      8  C   UNL     1      34.943   0.578  14.961  1.00  0.00     0.027 C 
BRANCH   8   9
ATOM      9  C   UNL     1      35.513   1.796  15.704  1.00  0.00     0.004 C 
BRANCH   9  10
ATOM     10  C   UNL     1      37.056   1.806  15.694  1.00  0.00     0.000 C 
BRANCH  10  11
ATOM     11  C   UNL     1      37.671   1.693  17.106  1.00  0.00    -0.003 C 
ATOM     12  C   UNL     1      38.674   0.541  17.218  1.00  0.00     0.004 C 
ENDBRANCH  10  11
ENDBRANCH   9  10
ENDBRANCH   8   9
ENDBRANCH   7   8
ENDBRANCH   5   6
ENDBRANCH   4   5
ENDBRANCH   2   3
ENDBRANCH   1   2
BRANCH   1  13
ATOM     13  C   UNL     1      31.850  -0.023  17.635  1.00  0.00     0.000 C 
BRANCH  13  14
ATOM     14  C   UNL     1      31.568  -1.110  16.590  1.00  0.00     0.000 C 
BRANCH  14  15
ATOM     15  C   UNL     1      30.903  -2.338  17.230  1.00  0.00     0.000 C 
BRANCH  15  16
ATOM     16  C   UNL     1      29.499  -2.621  16.666  1.00  0.00     0.003 C 
BRANCH  16  17
ATOM     17  C   UNL     1      28.623  -1.373  16.440  1.00  0.00     0.042 C 
BRANCH  17  18
ATOM     18  C   UNL     1      27.602  -1.117  17.558  1.00  0.00     0.233 C 
BRANCH  18  19
ATOM     19  O   UNL     1      28.246  -0.811  18.796  1.00  0.00    -0.466 OA
BRANCH  19  20
ATOM     20  C   UNL     1      28.330  -1.711  19.862  1.00  0.00     0.302 C 
ATOM     21  O   UNL     1      27.401  -2.535  20.088  1.00  0.00    -0.253 OA
ATOM     22  C   UNL     1      29.548  -1.712  20.723  1.00  0.00     0.139 C 
ENDBRANCH  19  20
ENDBRANCH  18  19
ENDBRANCH  17  18
ENDBRANCH  16  17
ENDBRANCH  15  16
ENDBRANCH  14  15
ENDBRANCH  13  14
ENDBRANCH   1  13
TORSDOF 16
ENDMDL
MODEL 9
REMARK VINA RESULT:    -5.562      2.020      4.024
REMARK INTER + INTRA:         -13.074
REMARK INTER:                 -10.136
REMARK INTRA:                  -2.938
REMARK UNBOUND:                -2.310
REMARK SMILES CCCCCC=CCC=CCCCCCCCCOC(C)=O
REMARK SMILES IDX 12 1 11 2 10 3 9 4 8 5 7 6 6 7 5 8 4 9 3 10 2 11 1 12 13 13
REMARK SMILES IDX 14 14 15 15 16 16 17 17 18 18 19 19 20 20 22 21 21 22
REMARK H PARENT
REMARK Flexibility Score: inf
ROOT
ATOM      1  C   UNL     1      31.119  -1.621  16.987  1.00  0.00     0.004 C 
ENDROOT
BRANCH   1   2
ATOM      2  C   UNL     1      29.743  -1.475  16.321  1.00  0.00     0.027 C 
BRANCH   2   3
ATOM      3  C   UNL     1      29.090  -0.157  16.649  1.00  0.00    -0.031 C 
ATOM      4  C   UNL     1      28.213   0.025  17.652  1.00  0.00    -0.027 C 
BRANCH   4   5
ATOM      5  C   UNL     1      27.814  -1.060  18.619  1.00  0.00     0.054 C 
BRANCH   5   6
ATOM      6  C   UNL     1      28.710  -1.059  19.831  1.00  0.00    -0.027 C 
ATOM      7  C   UNL     1      29.135  -2.168  20.464  1.00  0.00    -0.031 C 
BRANCH   7   8
ATOM      8  C   UNL     1      28.725  -3.571  20.099  1.00  0.00     0.027 C 
BRANCH   8   9
ATOM      9  C   UNL     1      29.843  -4.283  19.321  1.00  0.00     0.004 C 
BRANCH   9  10
ATOM     10  C   UNL     1      29.332  -4.871  17.989  1.00  0.00     0.000 C 
BRANCH  10  11
ATOM     11  C   UNL     1      27.799  -4.770  17.831  1.00  0.00    -0.003 C 
ATOM     12  C   UNL     1      27.385  -4.262  16.448  1.00  0.00     0.004 C 
ENDBRANCH  10  11
ENDBRANCH   9  10
ENDBRANCH   8   9
ENDBRANCH   7   8
ENDBRANCH   5   6
ENDBRANCH   4   5
ENDBRANCH   2   3
ENDBRANCH   1   2
BRANCH   1  13
ATOM     13  C   UNL     1      31.750  -0.264  17.323  1.00  0.00     0.000 C 
BRANCH  13  14
ATOM     14  C   UNL     1      33.000  -0.447  18.194  1.00  0.00     0.000 C 
BRANCH  14  15
ATOM     15  C   UNL     1      33.572  -1.866  18.052  1.00  0.00     0.000 C 
BRANCH  15  16
ATOM     16  C   UNL     1      35.067  -1.876  17.683  1.00  0.00     0.003 C 
BRANCH  16  17
ATOM     17  C   UNL     1      35.371  -2.192  16.205  1.00  0.00     0.042 C 
BRANCH  17  18
ATOM     18  C   UNL     1      35.970  -1.012  15.427  1.00  0.00     0.233 C 
BRANCH  18  19
ATOM     19  O   UNL     1      34.996   0.006  15.189  1.00  0.00    -0.466 OA
BRANCH  19  20
ATOM     20  C   UNL     1      35.210   1.356  15.480  1.00  0.00     0.302 C 
ATOM     21  O   UNL     1      36.371   1.850  15.446  1.00  0.00    -0.253 OA
ATOM     22  C   UNL     1      34.043   2.226  15.807  1.00  0.00     0.139 C 
ENDBRANCH  19  20
ENDBRANCH  18  19
ENDBRANCH  17  18
ENDBRANCH  16  17
ENDBRANCH  15  16
ENDBRANCH  14  15
ENDBRANCH  13  14
ENDBRANCH   1  13
TORSDOF 16
ENDMDL
