MODEL 1
REMARK VINA RESULT:    -3.141      0.000      0.000
REMARK INTER + INTRA:          -7.653
REMARK INTER:                  -5.529
REMARK INTRA:                  -2.124
REMARK UNBOUND:                -2.124
REMARK SMILES CCCCCCCCCCCCCCC(=O)[O-]
REMARK SMILES IDX 9 1 10 2 11 3 12 4 13 5 14 6 15 7 16 8 17 9 8 10 7 11 6 12
REMARK SMILES IDX 5 13 4 14 3 15 2 16 1 17
REMARK H PARENT
REMARK Flexibility Score: inf
ROOT
ATOM      1  C   UNL     1      71.037  14.771  77.767  1.00  0.00     0.000 C 
ENDROOT
BRANCH   1   2
ATOM      2  C   UNL     1      71.529  15.861  78.735  1.00  0.00     0.000 C 
BRANCH   2   3
ATOM      3  C   UNL     1      70.478  16.925  79.112  1.00  0.00     0.000 C 
BRANCH   3   4
ATOM      4  C   UNL     1      69.927  16.823  80.545  1.00  0.00     0.000 C 
BRANCH   4   5
ATOM      5  C   UNL     1      68.988  15.619  80.739  1.00  0.00     0.006 C 
BRANCH   5   6
ATOM      6  C   UNL     1      67.892  15.901  81.774  1.00  0.00     0.053 C 
BRANCH   6   7
ATOM      7  C   UNL     1      66.629  16.386  81.132  1.00  0.00     0.041 C 
ATOM      8  O   UNL     1      65.758  15.563  80.748  1.00  0.00    -0.550 OA
ATOM      9  O   UNL     1      66.401  17.749  80.984  1.00  0.00    -0.550 OA
ENDBRANCH   6   7
ENDBRANCH   5   6
ENDBRANCH   4   5
ENDBRANCH   3   4
ENDBRANCH   2   3
ENDBRANCH   1   2
BRANCH   1  10
ATOM     10  C   UNL     1      70.221  15.338  76.595  1.00  0.00     0.000 C 
BRANCH  10  11
ATOM     11  C   UNL     1      69.065  14.401  76.227  1.00  0.00    -0.000 C 
BRANCH  11  12
ATOM     12  C   UNL     1      67.740  15.169  76.139  1.00  0.00    -0.000 C 
BRANCH  12  13
ATOM     13  C   UNL     1      67.325  15.707  77.518  1.00  0.00    -0.000 C 
BRANCH  13  14
ATOM     14  C   UNL     1      67.097  17.227  77.519  1.00  0.00    -0.000 C 
BRANCH  14  15
ATOM     15  C   UNL     1      67.263  17.851  76.123  1.00  0.00    -0.000 C 
BRANCH  15  16
ATOM     16  C   UNL     1      68.067  19.160  76.155  1.00  0.00    -0.003 C 
ATOM     17  C   UNL     1      69.578  18.930  76.131  1.00  0.00     0.004 C 
ENDBRANCH  15  16
ENDBRANCH  14  15
ENDBRANCH  13  14
ENDBRANCH  12  13
ENDBRANCH  11  12
ENDBRANCH  10  11
ENDBRANCH   1  10
TORSDOF 13
ENDMDL
MODEL 2
REMARK VINA RESULT:    -3.084      2.810      5.195
REMARK INTER + INTRA:          -7.552
REMARK INTER:                  -5.449
REMARK INTRA:                  -2.103
REMARK UNBOUND:                -2.124
REMARK SMILES CCCCCCCCCCCCCCC(=O)[O-]
REMARK SMILES IDX 9 1 10 2 11 3 12 4 13 5 14 6 15 7 16 8 17 9 8 10 7 11 6 12
REMARK SMILES IDX 5 13 4 14 3 15 2 16 1 17
REMARK H PARENT
REMARK Flexibility Score: inf
ROOT
ATOM      1  C   UNL     1      68.787  14.492  76.383  1.00  0.00     0.000 C 
ENDROOT
BRANCH   1   2
ATOM      2  C   UNL     1      67.759  15.386  77.099  1.00  0.00     0.000 C 
BRANCH   2   3
ATOM      3  C   UNL     1      67.633  16.817  76.538  1.00  0.00     0.000 C 
BRANCH   3   4
ATOM      4  C   UNL     1      68.258  17.920  77.411  1.00  0.00     0.000 C 
BRANCH   4   5
ATOM      5  C   UNL     1      69.454  18.611  76.734  1.00  0.00     0.006 C 
BRANCH   5   6
ATOM      6  C   UNL     1      70.216  19.528  77.700  1.00  0.00     0.053 C 
BRANCH   6   7
ATOM      7  C   UNL     1      70.566  20.839  77.066  1.00  0.00     0.041 C 
ATOM      8  O   UNL     1      71.507  21.535  77.530  1.00  0.00    -0.550 OA
ATOM      9  O   UNL     1      69.873  21.278  75.945  1.00  0.00    -0.550 OA
ENDBRANCH   6   7
ENDBRANCH   5   6
ENDBRANCH   4   5
ENDBRANCH   3   4
ENDBRANCH   2   3
ENDBRANCH   1   2
BRANCH   1  10
ATOM     10  C   UNL     1      70.199  15.098  76.375  1.00  0.00     0.000 C 
BRANCH  10  11
ATOM     11  C   UNL     1      70.998  14.644  77.602  1.00  0.00    -0.000 C 
BRANCH  11  12
ATOM     12  C   UNL     1      71.431  15.845  78.452  1.00  0.00    -0.000 C 
BRANCH  12  13
ATOM     13  C   UNL     1      70.903  15.720  79.889  1.00  0.00    -0.000 C 
BRANCH  13  14
ATOM     14  C   UNL     1      70.177  16.987  80.368  1.00  0.00    -0.000 C 
BRANCH  14  15
ATOM     15  C   UNL     1      69.014  16.675  81.326  1.00  0.00    -0.000 C 
BRANCH  15  16
ATOM     16  C   UNL     1      68.100  15.558  80.797  1.00  0.00    -0.003 C 
ATOM     17  C   UNL     1      66.646  16.004  80.641  1.00  0.00     0.004 C 
ENDBRANCH  15  16
ENDBRANCH  14  15
ENDBRANCH  13  14
ENDBRANCH  12  13
ENDBRANCH  11  12
ENDBRANCH  10  11
ENDBRANCH   1  10
TORSDOF 13
ENDMDL
MODEL 3
REMARK VINA RESULT:    -3.050      2.156      4.608
REMARK INTER + INTRA:          -7.492
REMARK INTER:                  -5.334
REMARK INTRA:                  -2.158
REMARK UNBOUND:                -2.124
REMARK SMILES CCCCCCCCCCCCCCC(=O)[O-]
REMARK SMILES IDX 9 1 10 2 11 3 12 4 13 5 14 6 15 7 16 8 17 9 8 10 7 11 6 12
REMARK SMILES IDX 5 13 4 14 3 15 2 16 1 17
REMARK H PARENT
REMARK Flexibility Score: inf
ROOT
ATOM      1  C   UNL     1      67.593  17.409  77.812  1.00  0.00     0.000 C 
ENDROOT
BRANCH   1   2
ATOM      2  C   UNL     1      68.009  18.072  76.487  1.00  0.00     0.000 C 
BRANCH   2   3
ATOM      3  C   UNL     1      69.472  18.555  76.428  1.00  0.00     0.000 C 
BRANCH   3   4
ATOM      4  C   UNL     1      69.695  20.021  76.843  1.00  0.00     0.000 C 
BRANCH   4   5
ATOM      5  C   UNL     1      70.638  20.163  78.050  1.00  0.00     0.006 C 
BRANCH   5   6
ATOM      6  C   UNL     1      69.913  19.930  79.382  1.00  0.00     0.053 C 
BRANCH   6   7
ATOM      7  C   UNL     1      70.793  19.249  80.385  1.00  0.00     0.041 C 
ATOM      8  O   UNL     1      72.006  19.039  80.123  1.00  0.00    -0.550 OA
ATOM      9  O   UNL     1      70.280  18.872  81.620  1.00  0.00    -0.550 OA
ENDBRANCH   6   7
ENDBRANCH   5   6
ENDBRANCH   4   5
ENDBRANCH   3   4
ENDBRANCH   2   3
ENDBRANCH   1   2
BRANCH   1  10
ATOM     10  C   UNL     1      67.335  15.902  77.670  1.00  0.00     0.000 C 
BRANCH  10  11
ATOM     11  C   UNL     1      67.651  15.423  76.248  1.00  0.00    -0.000 C 
BRANCH  11  12
ATOM     12  C   UNL     1      68.757  14.361  76.257  1.00  0.00    -0.000 C 
BRANCH  12  13
ATOM     13  C   UNL     1      70.146  15.014  76.196  1.00  0.00    -0.000 C 
BRANCH  13  14
ATOM     14  C   UNL     1      70.985  14.747  77.456  1.00  0.00    -0.000 C 
BRANCH  14  15
ATOM     15  C   UNL     1      71.070  15.974  78.380  1.00  0.00    -0.000 C 
BRANCH  15  16
ATOM     16  C   UNL     1      71.028  15.592  79.869  1.00  0.00    -0.003 C 
ATOM     17  C   UNL     1      69.616  15.628  80.452  1.00  0.00     0.004 C 
ENDBRANCH  15  16
ENDBRANCH  14  15
ENDBRANCH  13  14
ENDBRANCH  12  13
ENDBRANCH  11  12
ENDBRANCH  10  11
ENDBRANCH   1  10
TORSDOF 13
ENDMDL
MODEL 4
REMARK VINA RESULT:    -3.020      2.378      4.067
REMARK INTER + INTRA:          -7.439
REMARK INTER:                  -5.479
REMARK INTRA:                  -1.961
REMARK UNBOUND:                -2.124
REMARK SMILES CCCCCCCCCCCCCCC(=O)[O-]
REMARK SMILES IDX 9 1 10 2 11 3 12 4 13 5 14 6 15 7 16 8 17 9 8 10 7 11 6 12
REMARK SMILES IDX 5 13 4 14 3 15 2 16 1 17
REMARK H PARENT
REMARK Flexibility Score: inf
ROOT
ATOM      1  C   UNL     1      70.988  14.778  77.537  1.00  0.00     0.000 C 
ENDROOT
BRANCH   1   2
ATOM      2  C   UNL     1      70.152  15.100  76.286  1.00  0.00     0.000 C 
BRANCH   2   3
ATOM      3  C   UNL     1      68.764  14.428  76.236  1.00  0.00     0.000 C 
BRANCH   3   4
ATOM      4  C   UNL     1      67.576  15.392  76.063  1.00  0.00     0.000 C 
BRANCH   4   5
ATOM      5  C   UNL     1      66.482  15.189  77.126  1.00  0.00     0.006 C 
BRANCH   5   6
ATOM      6  C   UNL     1      65.072  15.309  76.535  1.00  0.00     0.053 C 
BRANCH   6   7
ATOM      7  C   UNL     1      64.442  13.968  76.317  1.00  0.00     0.041 C 
ATOM      8  O   UNL     1      65.111  12.917  76.498  1.00  0.00    -0.550 OA
ATOM      9  O   UNL     1      63.107  13.878  75.940  1.00  0.00    -0.550 OA
ENDBRANCH   6   7
ENDBRANCH   5   6
ENDBRANCH   4   5
ENDBRANCH   3   4
ENDBRANCH   2   3
ENDBRANCH   1   2
BRANCH   1  10
ATOM     10  C   UNL     1      70.985  15.919  78.566  1.00  0.00     0.000 C 
BRANCH  10  11
ATOM     11  C   UNL     1      70.218  15.515  79.831  1.00  0.00    -0.000 C 
BRANCH  11  12
ATOM     12  C   UNL     1      68.851  16.207  79.891  1.00  0.00    -0.000 C 
BRANCH  12  13
ATOM     13  C   UNL     1      69.012  17.732  79.993  1.00  0.00    -0.000 C 
BRANCH  13  14
ATOM     14  C   UNL     1      67.776  18.495  79.493  1.00  0.00    -0.000 C 
BRANCH  14  15
ATOM     15  C   UNL     1      67.664  18.498  77.959  1.00  0.00    -0.000 C 
BRANCH  15  16
ATOM     16  C   UNL     1      68.721  19.395  77.294  1.00  0.00    -0.003 C 
ATOM     17  C   UNL     1      69.634  18.628  76.338  1.00  0.00     0.004 C 
ENDBRANCH  15  16
ENDBRANCH  14  15
ENDBRANCH  13  14
ENDBRANCH  12  13
ENDBRANCH  11  12
ENDBRANCH  10  11
ENDBRANCH   1  10
TORSDOF 13
ENDMDL
MODEL 5
REMARK VINA RESULT:    -3.006      1.251      2.384
REMARK INTER + INTRA:          -7.415
REMARK INTER:                  -5.190
REMARK INTRA:                  -2.225
REMARK UNBOUND:                -2.124
REMARK SMILES CCCCCCCCCCCCCCC(=O)[O-]
REMARK SMILES IDX 9 1 10 2 11 3 12 4 13 5 14 6 15 7 16 8 17 9 8 10 7 11 6 12
REMARK SMILES IDX 5 13 4 14 3 15 2 16 1 17
REMARK H PARENT
REMARK Flexibility Score: inf
ROOT
ATOM      1  C   UNL     1      70.601  16.604  79.745  1.00  0.00     0.000 C 
ENDROOT
BRANCH   1   2
ATOM      2  C   UNL     1      69.770  15.480  80.389  1.00  0.00     0.000 C 
BRANCH   2   3
ATOM      3  C   UNL     1      68.411  15.920  80.971  1.00  0.00     0.000 C 
BRANCH   3   4
ATOM      4  C   UNL     1      67.854  17.239  80.407  1.00  0.00     0.000 C 
BRANCH   4   5
ATOM      5  C   UNL     1      66.405  17.111  79.908  1.00  0.00     0.006 C 
BRANCH   5   6
ATOM      6  C   UNL     1      65.799  15.740  80.236  1.00  0.00     0.053 C 
BRANCH   6   7
ATOM      7  C   UNL     1      64.722  15.840  81.273  1.00  0.00     0.041 C 
ATOM      8  O   UNL     1      63.523  16.003  80.926  1.00  0.00    -0.550 OA
ATOM      9  O   UNL     1      65.040  15.724  82.620  1.00  0.00    -0.550 OA
ENDBRANCH   6   7
ENDBRANCH   5   6
ENDBRANCH   4   5
ENDBRANCH   3   4
ENDBRANCH   2   3
ENDBRANCH   1   2
BRANCH   1  10
ATOM     10  C   UNL     1      71.295  16.164  78.448  1.00  0.00     0.000 C 
BRANCH  10  11
ATOM     11  C   UNL     1      70.742  14.821  77.957  1.00  0.00    -0.000 C 
BRANCH  11  12
ATOM     12  C   UNL     1      70.409  14.876  76.461  1.00  0.00    -0.000 C 
BRANCH  12  13
ATOM     13  C   UNL     1      68.928  14.546  76.216  1.00  0.00    -0.000 C 
BRANCH  13  14
ATOM     14  C   UNL     1      67.978  15.427  77.042  1.00  0.00    -0.000 C 
BRANCH  14  15
ATOM     15  C   UNL     1      67.023  16.252  76.162  1.00  0.00    -0.000 C 
BRANCH  15  16
ATOM     16  C   UNL     1      67.209  17.767  76.352  1.00  0.00    -0.003 C 
ATOM     17  C   UNL     1      68.622  18.139  76.802  1.00  0.00     0.004 C 
ENDBRANCH  15  16
ENDBRANCH  14  15
ENDBRANCH  13  14
ENDBRANCH  12  13
ENDBRANCH  11  12
ENDBRANCH  10  11
ENDBRANCH   1  10
TORSDOF 13
ENDMDL
MODEL 6
REMARK VINA RESULT:    -3.001      2.056      3.547
REMARK INTER + INTRA:          -7.406
REMARK INTER:                  -5.224
REMARK INTRA:                  -2.181
REMARK UNBOUND:                -2.124
REMARK SMILES CCCCCCCCCCCCCCC(=O)[O-]
REMARK SMILES IDX 9 1 10 2 11 3 12 4 13 5 14 6 15 7 16 8 17 9 8 10 7 11 6 12
REMARK SMILES IDX 5 13 4 14 3 15 2 16 1 17
REMARK H PARENT
REMARK Flexibility Score: inf
ROOT
ATOM      1  C   UNL     1      70.317  16.417  80.762  1.00  0.00     0.000 C 
ENDROOT
BRANCH   1   2
ATOM      2  C   UNL     1      68.959  15.694  80.724  1.00  0.00     0.000 C 
BRANCH   2   3
ATOM      3  C   UNL     1      67.746  16.597  80.421  1.00  0.00     0.000 C 
BRANCH   3   4
ATOM      4  C   UNL     1      66.439  15.851  80.096  1.00  0.00     0.000 C 
BRANCH   4   5
ATOM      5  C   UNL     1      65.724  16.411  78.855  1.00  0.00     0.006 C 
BRANCH   5   6
ATOM      6  C   UNL     1      65.247  15.301  77.910  1.00  0.00     0.053 C 
BRANCH   6   7
ATOM      7  C   UNL     1      63.754  15.262  77.802  1.00  0.00     0.041 C 
ATOM      8  O   UNL     1      63.199  15.340  76.675  1.00  0.00    -0.550 OA
ATOM      9  O   UNL     1      62.977  15.112  78.944  1.00  0.00    -0.550 OA
ENDBRANCH   6   7
ENDBRANCH   5   6
ENDBRANCH   4   5
ENDBRANCH   3   4
ENDBRANCH   2   3
ENDBRANCH   1   2
BRANCH   1  10
ATOM     10  C   UNL     1      71.348  15.798  79.806  1.00  0.00     0.000 C 
BRANCH  10  11
ATOM     11  C   UNL     1      70.694  14.754  78.894  1.00  0.00    -0.000 C 
BRANCH  11  12
ATOM     12  C   UNL     1      71.342  14.752  77.504  1.00  0.00    -0.000 C 
BRANCH  12  13
ATOM     13  C   UNL     1      70.299  15.033  76.412  1.00  0.00    -0.000 C 
BRANCH  13  14
ATOM     14  C   UNL     1      68.914  15.373  76.985  1.00  0.00    -0.000 C 
BRANCH  14  15
ATOM     15  C   UNL     1      68.451  16.792  76.609  1.00  0.00    -0.000 C 
BRANCH  15  16
ATOM     16  C   UNL     1      69.603  17.810  76.624  1.00  0.00    -0.003 C 
ATOM     17  C   UNL     1      69.650  18.633  77.912  1.00  0.00     0.004 C 
ENDBRANCH  15  16
ENDBRANCH  14  15
ENDBRANCH  13  14
ENDBRANCH  12  13
ENDBRANCH  11  12
ENDBRANCH  10  11
ENDBRANCH   1  10
TORSDOF 13
ENDMDL
MODEL 7
REMARK VINA RESULT:    -3.000      1.757      2.027
REMARK INTER + INTRA:          -7.404
REMARK INTER:                  -5.298
REMARK INTRA:                  -2.107
REMARK UNBOUND:                -2.124
REMARK SMILES CCCCCCCCCCCCCCC(=O)[O-]
REMARK SMILES IDX 9 1 10 2 11 3 12 4 13 5 14 6 15 7 16 8 17 9 8 10 7 11 6 12
REMARK SMILES IDX 5 13 4 14 3 15 2 16 1 17
REMARK H PARENT
REMARK Flexibility Score: inf
ROOT
ATOM      1  C   UNL     1      71.016  14.696  77.199  1.00  0.00     0.000 C 
ENDROOT
BRANCH   1   2
ATOM      2  C   UNL     1      71.112  14.994  78.706  1.00  0.00     0.000 C 
BRANCH   2   3
ATOM      3  C   UNL     1      70.162  16.097  79.217  1.00  0.00     0.000 C 
BRANCH   3   4
ATOM      4  C   UNL     1      69.018  15.608  80.122  1.00  0.00     0.000 C 
BRANCH   4   5
ATOM      5  C   UNL     1      68.084  16.745  80.573  1.00  0.00     0.006 C 
BRANCH   5   6
ATOM      6  C   UNL     1      68.844  17.869  81.289  1.00  0.00     0.053 C 
BRANCH   6   7
ATOM      7  C   UNL     1      69.392  17.420  82.608  1.00  0.00     0.041 C 
ATOM      8  O   UNL     1      68.613  17.036  83.519  1.00  0.00    -0.550 OA
ATOM      9  O   UNL     1      70.765  17.398  82.822  1.00  0.00    -0.550 OA
ENDBRANCH   6   7
ENDBRANCH   5   6
ENDBRANCH   4   5
ENDBRANCH   3   4
ENDBRANCH   2   3
ENDBRANCH   1   2
BRANCH   1  10
ATOM     10  C   UNL     1      69.817  15.385  76.530  1.00  0.00     0.000 C 
BRANCH  10  11
ATOM     11  C   UNL     1      68.709  14.373  76.213  1.00  0.00    -0.000 C 
BRANCH  11  12
ATOM     12  C   UNL     1      67.394  15.085  75.875  1.00  0.00    -0.000 C 
BRANCH  12  13
ATOM     13  C   UNL     1      67.023  16.102  76.966  1.00  0.00    -0.000 C 
BRANCH  13  14
ATOM     14  C   UNL     1      66.562  17.450  76.390  1.00  0.00    -0.000 C 
BRANCH  14  15
ATOM     15  C   UNL     1      67.729  18.430  76.174  1.00  0.00    -0.000 C 
BRANCH  15  16
ATOM     16  C   UNL     1      68.437  18.800  77.487  1.00  0.00    -0.003 C 
ATOM     17  C   UNL     1      69.878  19.264  77.274  1.00  0.00     0.004 C 
ENDBRANCH  15  16
ENDBRANCH  14  15
ENDBRANCH  13  14
ENDBRANCH  12  13
ENDBRANCH  11  12
ENDBRANCH  10  11
ENDBRANCH   1  10
TORSDOF 13
ENDMDL
MODEL 8
REMARK VINA RESULT:    -2.991      1.600      3.547
REMARK INTER + INTRA:          -7.388
REMARK INTER:                  -5.403
REMARK INTRA:                  -1.984
REMARK UNBOUND:                -2.124
REMARK SMILES CCCCCCCCCCCCCCC(=O)[O-]
REMARK SMILES IDX 9 1 10 2 11 3 12 4 13 5 14 6 15 7 16 8 17 9 8 10 7 11 6 12
REMARK SMILES IDX 5 13 4 14 3 15 2 16 1 17
REMARK H PARENT
REMARK Flexibility Score: inf
ROOT
ATOM      1  C   UNL     1      67.369  15.129  76.234  1.00  0.00     0.000 C 
ENDROOT
BRANCH   1   2
ATOM      2  C   UNL     1      67.496  16.564  76.776  1.00  0.00     0.000 C 
BRANCH   2   3
ATOM      3  C   UNL     1      66.908  16.787  78.184  1.00  0.00     0.000 C 
BRANCH   3   4
ATOM      4  C   UNL     1      67.584  15.985  79.310  1.00  0.00     0.000 C 
BRANCH   4   5
ATOM      5  C   UNL     1      67.049  16.348  80.706  1.00  0.00     0.006 C 
BRANCH   5   6
ATOM      6  C   UNL     1      68.021  15.946  81.822  1.00  0.00     0.053 C 
BRANCH   6   7
ATOM      7  C   UNL     1      68.222  17.051  82.813  1.00  0.00     0.041 C 
ATOM      8  O   UNL     1      67.230  17.597  83.362  1.00  0.00    -0.550 OA
ATOM      9  O   UNL     1      69.507  17.459  83.150  1.00  0.00    -0.550 OA
ENDBRANCH   6   7
ENDBRANCH   5   6
ENDBRANCH   4   5
ENDBRANCH   3   4
ENDBRANCH   2   3
ENDBRANCH   1   2
BRANCH   1  10
ATOM     10  C   UNL     1      68.710  14.380  76.210  1.00  0.00     0.000 C 
BRANCH  10  11
ATOM     11  C   UNL     1      69.888  15.360  76.284  1.00  0.00    -0.000 C 
BRANCH  11  12
ATOM     12  C   UNL     1      71.108  14.707  76.944  1.00  0.00    -0.000 C 
BRANCH  12  13
ATOM     13  C   UNL     1      71.030  14.820  78.474  1.00  0.00    -0.000 C 
BRANCH  13  14
ATOM     14  C   UNL     1      71.898  15.959  79.032  1.00  0.00    -0.000 C 
BRANCH  14  15
ATOM     15  C   UNL     1      71.143  16.836  80.046  1.00  0.00    -0.000 C 
BRANCH  15  16
ATOM     16  C   UNL     1      71.075  18.310  79.614  1.00  0.00    -0.003 C 
ATOM     17  C   UNL     1      70.211  18.525  78.372  1.00  0.00     0.004 C 
ENDBRANCH  15  16
ENDBRANCH  14  15
ENDBRANCH  13  14
ENDBRANCH  12  13
ENDBRANCH  11  12
ENDBRANCH  10  11
ENDBRANCH   1  10
TORSDOF 13
ENDMDL
MODEL 9
REMARK VINA RESULT:    -2.960      2.651      4.718
REMARK INTER + INTRA:          -7.333
REMARK INTER:                  -5.315
REMARK INTRA:                  -2.018
REMARK UNBOUND:                -2.124
REMARK SMILES CCCCCCCCCCCCCCC(=O)[O-]
REMARK SMILES IDX 9 1 10 2 11 3 12 4 13 5 14 6 15 7 16 8 17 9 8 10 7 11 6 12
REMARK SMILES IDX 5 13 4 14 3 15 2 16 1 17
REMARK H PARENT
REMARK Flexibility Score: inf
ROOT
ATOM      1  C   UNL     1      70.339  15.585  80.307  1.00  0.00     0.000 C 
ENDROOT
BRANCH   1   2
ATOM      2  C   UNL     1      71.012  15.532  78.924  1.00  0.00     0.000 C 
BRANCH   2   3
ATOM      3  C   UNL     1      70.113  15.028  77.777  1.00  0.00     0.000 C 
BRANCH   3   4
ATOM      4  C   UNL     1      69.838  16.053  76.662  1.00  0.00     0.000 C 
BRANCH   4   5
ATOM      5  C   UNL     1      69.993  17.508  77.137  1.00  0.00     0.006 C 
BRANCH   5   6
ATOM      6  C   UNL     1      69.097  18.472  76.349  1.00  0.00     0.053 C 
BRANCH   6   7
ATOM      7  C   UNL     1      69.386  19.903  76.684  1.00  0.00     0.041 C 
ATOM      8  O   UNL     1      70.457  20.212  77.269  1.00  0.00    -0.550 OA
ATOM      9  O   UNL     1      68.485  20.899  76.326  1.00  0.00    -0.550 OA
ENDBRANCH   6   7
ENDBRANCH   5   6
ENDBRANCH   4   5
ENDBRANCH   3   4
ENDBRANCH   2   3
ENDBRANCH   1   2
BRANCH   1  10
ATOM     10  C   UNL     1      68.805  15.574  80.224  1.00  0.00     0.000 C 
BRANCH  10  11
ATOM     11  C   UNL     1      68.237  16.990  80.379  1.00  0.00    -0.000 C 
BRANCH  11  12
ATOM     12  C   UNL     1      67.130  17.255  79.352  1.00  0.00    -0.000 C 
BRANCH  12  13
ATOM     13  C   UNL     1      66.644  15.942  78.717  1.00  0.00    -0.000 C 
BRANCH  13  14
ATOM     14  C   UNL     1      66.225  16.111  77.248  1.00  0.00    -0.000 C 
BRANCH  14  15
ATOM     15  C   UNL     1      66.376  14.812  76.438  1.00  0.00    -0.000 C 
BRANCH  15  16
ATOM     16  C   UNL     1      65.027  14.275  75.931  1.00  0.00    -0.003 C 
ATOM     17  C   UNL     1      64.653  12.929  76.553  1.00  0.00     0.004 C 
ENDBRANCH  15  16
ENDBRANCH  14  15
ENDBRANCH  13  14
ENDBRANCH  12  13
ENDBRANCH  11  12
ENDBRANCH  10  11
ENDBRANCH   1  10
TORSDOF 13
ENDMDL
