MODEL 1
REMARK VINA RESULT:    -3.308      0.000      0.000
REMARK INTER + INTRA:          -5.091
REMARK INTER:                  -4.662
REMARK INTRA:                  -0.429
REMARK UNBOUND:                -0.429
REMARK SMILES CCCCCCCCC(=O)[O-]
REMARK SMILES IDX 6 1 7 2 8 3 9 4 10 5 11 6 5 7 4 8 3 9 2 10 1 11
REMARK H PARENT
REMARK Flexibility Score: inf
ROOT
ATOM      1  C   UNL     1       8.946 -33.313  15.027  1.00  0.00     0.000 C 
ENDROOT
BRANCH   1   2
ATOM      2  C   UNL     1       8.285 -32.268  15.938  1.00  0.00     0.006 C 
BRANCH   2   3
ATOM      3  C   UNL     1       8.524 -32.560  17.426  1.00  0.00     0.053 C 
BRANCH   3   4
ATOM      4  C   UNL     1       9.291 -31.459  18.092  1.00  0.00     0.041 C 
ATOM      5  O   UNL     1       9.064 -31.168  19.296  1.00  0.00    -0.550 OA
ATOM      6  O   UNL     1      10.232 -30.733  17.373  1.00  0.00    -0.550 OA
ENDBRANCH   3   4
ENDBRANCH   2   3
ENDBRANCH   1   2
BRANCH   1   7
ATOM      7  C   UNL     1       8.851 -32.896  13.555  1.00  0.00     0.000 C 
BRANCH   7   8
ATOM      8  C   UNL     1       9.948 -31.887  13.196  1.00  0.00    -0.000 C 
BRANCH   8   9
ATOM      9  C   UNL     1      11.308 -32.333  13.745  1.00  0.00    -0.000 C 
BRANCH   9  10
ATOM     10  C   UNL     1      12.045 -31.162  14.404  1.00  0.00    -0.003 C 
ATOM     11  C   UNL     1      13.535 -31.192  14.076  1.00  0.00     0.004 C 
ENDBRANCH   9  10
ENDBRANCH   8   9
ENDBRANCH   7   8
ENDBRANCH   1   7
TORSDOF 7
ENDMDL
MODEL 2
REMARK VINA RESULT:    -3.266      1.270      1.762
REMARK INTER + INTRA:          -5.031
REMARK INTER:                  -4.306
REMARK INTRA:                  -0.725
REMARK UNBOUND:                -0.429
REMARK SMILES CCCCCCCCC(=O)[O-]
REMARK SMILES IDX 6 1 7 2 8 3 9 4 10 5 11 6 5 7 4 8 3 9 2 10 1 11
REMARK H PARENT
REMARK Flexibility Score: inf
ROOT
ATOM      1  C   UNL     1       7.152 -33.248  15.109  1.00  0.00     0.000 C 
ENDROOT
BRANCH   1   2
ATOM      2  C   UNL     1       7.617 -32.184  16.114  1.00  0.00     0.006 C 
BRANCH   2   3
ATOM      3  C   UNL     1       8.521 -32.771  17.207  1.00  0.00     0.053 C 
BRANCH   3   4
ATOM      4  C   UNL     1       9.213 -31.699  17.992  1.00  0.00     0.041 C 
ATOM      5  O   UNL     1       8.988 -31.572  19.224  1.00  0.00    -0.550 OA
ATOM      6  O   UNL     1      10.080 -30.821  17.355  1.00  0.00    -0.550 OA
ENDBRANCH   3   4
ENDBRANCH   2   3
ENDBRANCH   1   2
BRANCH   1   7
ATOM      7  C   UNL     1       6.945 -32.637  13.718  1.00  0.00     0.000 C 
BRANCH   7   8
ATOM      8  C   UNL     1       8.287 -32.302  13.059  1.00  0.00    -0.000 C 
BRANCH   8   9
ATOM      9  C   UNL     1       9.145 -33.560  12.885  1.00  0.00    -0.000 C 
BRANCH   9  10
ATOM     10  C   UNL     1      10.513 -33.390  13.556  1.00  0.00    -0.003 C 
ATOM     11  C   UNL     1      10.734 -31.947  14.001  1.00  0.00     0.004 C 
ENDBRANCH   9  10
ENDBRANCH   8   9
ENDBRANCH   7   8
ENDBRANCH   1   7
TORSDOF 7
ENDMDL
MODEL 3
REMARK VINA RESULT:    -3.257      2.977      4.905
REMARK INTER + INTRA:          -5.019
REMARK INTER:                  -4.622
REMARK INTRA:                  -0.397
REMARK UNBOUND:                -0.429
REMARK SMILES CCCCCCCCC(=O)[O-]
REMARK SMILES IDX 6 1 7 2 8 3 9 4 10 5 11 6 5 7 4 8 3 9 2 10 1 11
REMARK H PARENT
REMARK Flexibility Score: inf
ROOT
ATOM      1  C   UNL     1       9.979 -31.955  14.740  1.00  0.00     0.000 C 
ENDROOT
BRANCH   1   2
ATOM      2  C   UNL     1      11.263 -31.852  13.904  1.00  0.00     0.006 C 
BRANCH   2   3
ATOM      3  C   UNL     1      12.340 -31.002  14.594  1.00  0.00     0.053 C 
BRANCH   3   4
ATOM      4  C   UNL     1      13.665 -31.117  13.905  1.00  0.00     0.041 C 
ATOM      5  O   UNL     1      14.103 -32.245  13.560  1.00  0.00    -0.550 OA
ATOM      6  O   UNL     1      14.429 -29.980  13.674  1.00  0.00    -0.550 OA
ENDBRANCH   3   4
ENDBRANCH   2   3
ENDBRANCH   1   2
BRANCH   1   7
ATOM      7  C   UNL     1       9.445 -33.392  14.751  1.00  0.00     0.000 C 
BRANCH   7   8
ATOM      8  C   UNL     1       8.487 -33.615  15.928  1.00  0.00    -0.000 C 
BRANCH   8   9
ATOM      9  C   UNL     1       8.100 -32.284  16.582  1.00  0.00    -0.000 C 
BRANCH   9  10
ATOM     10  C   UNL     1       8.478 -32.271  18.067  1.00  0.00    -0.003 C 
ATOM     11  C   UNL     1       9.468 -31.150  18.375  1.00  0.00     0.004 C 
ENDBRANCH   9  10
ENDBRANCH   8   9
ENDBRANCH   7   8
ENDBRANCH   1   7
TORSDOF 7
ENDMDL
MODEL 4
REMARK VINA RESULT:    -3.144      2.317      4.448
REMARK INTER + INTRA:          -4.860
REMARK INTER:                  -4.197
REMARK INTRA:                  -0.662
REMARK UNBOUND:                -0.429
REMARK SMILES CCCCCCCCC(=O)[O-]
REMARK SMILES IDX 6 1 7 2 8 3 9 4 10 5 11 6 5 7 4 8 3 9 2 10 1 11
REMARK H PARENT
REMARK Flexibility Score: inf
ROOT
ATOM      1  C   UNL     1       7.011 -32.643  13.296  1.00  0.00     0.000 C 
ENDROOT
BRANCH   1   2
ATOM      2  C   UNL     1       8.423 -33.077  12.875  1.00  0.00     0.006 C 
BRANCH   2   3
ATOM      3  C   UNL     1       9.426 -31.915  12.916  1.00  0.00     0.053 C 
BRANCH   3   4
ATOM      4  C   UNL     1      10.713 -32.314  13.571  1.00  0.00     0.041 C 
ATOM      5  O   UNL     1      11.276 -31.537  14.386  1.00  0.00    -0.550 OA
ATOM      6  O   UNL     1      11.306 -33.530  13.256  1.00  0.00    -0.550 OA
ENDBRANCH   3   4
ENDBRANCH   2   3
ENDBRANCH   1   2
BRANCH   1   7
ATOM      7  C   UNL     1       6.848 -32.708  14.819  1.00  0.00     0.000 C 
BRANCH   7   8
ATOM      8  C   UNL     1       7.438 -34.006  15.381  1.00  0.00    -0.000 C 
BRANCH   8   9
ATOM      9  C   UNL     1       8.464 -33.713  16.481  1.00  0.00    -0.000 C 
BRANCH   9  10
ATOM     10  C   UNL     1       8.497 -32.218  16.818  1.00  0.00    -0.003 C 
ATOM     11  C   UNL     1       8.667 -31.993  18.318  1.00  0.00     0.004 C 
ENDBRANCH   9  10
ENDBRANCH   8   9
ENDBRANCH   7   8
ENDBRANCH   1   7
TORSDOF 7
ENDMDL
MODEL 5
REMARK VINA RESULT:    -3.092     15.652     17.395
REMARK INTER + INTRA:          -4.787
REMARK INTER:                  -4.340
REMARK INTRA:                  -0.447
REMARK UNBOUND:                -0.429
REMARK SMILES CCCCCCCCC(=O)[O-]
REMARK SMILES IDX 6 1 7 2 8 3 9 4 10 5 11 6 5 7 4 8 3 9 2 10 1 11
REMARK H PARENT
REMARK Flexibility Score: inf
ROOT
ATOM      1  C   UNL     1      15.308 -36.948  31.558  1.00  0.00     0.000 C 
ENDROOT
BRANCH   1   2
ATOM      2  C   UNL     1      16.534 -36.274  30.926  1.00  0.00     0.006 C 
BRANCH   2   3
ATOM      3  C   UNL     1      17.072 -37.058  29.721  1.00  0.00     0.053 C 
BRANCH   3   4
ATOM      4  C   UNL     1      17.498 -36.147  28.610  1.00  0.00     0.041 C 
ATOM      5  O   UNL     1      17.977 -35.013  28.871  1.00  0.00    -0.550 OA
ATOM      6  O   UNL     1      17.334 -36.539  27.288  1.00  0.00    -0.550 OA
ENDBRANCH   3   4
ENDBRANCH   2   3
ENDBRANCH   1   2
BRANCH   1   7
ATOM      7  C   UNL     1      14.932 -36.274  32.882  1.00  0.00     0.000 C 
BRANCH   7   8
ATOM      8  C   UNL     1      13.507 -35.711  32.829  1.00  0.00    -0.000 C 
BRANCH   8   9
ATOM      9  C   UNL     1      13.498 -34.206  33.122  1.00  0.00    -0.000 C 
BRANCH   9  10
ATOM     10  C   UNL     1      14.144 -33.419  31.976  1.00  0.00    -0.003 C 
ATOM     11  C   UNL     1      15.376 -32.656  32.456  1.00  0.00     0.004 C 
ENDBRANCH   9  10
ENDBRANCH   8   9
ENDBRANCH   7   8
ENDBRANCH   1   7
TORSDOF 7
ENDMDL
MODEL 6
REMARK VINA RESULT:    -3.020      1.797      4.202
REMARK INTER + INTRA:          -4.685
REMARK INTER:                  -3.988
REMARK INTRA:                  -0.697
REMARK UNBOUND:                -0.429
REMARK SMILES CCCCCCCCC(=O)[O-]
REMARK SMILES IDX 6 1 7 2 8 3 9 4 10 5 11 6 5 7 4 8 3 9 2 10 1 11
REMARK H PARENT
REMARK Flexibility Score: inf
ROOT
ATOM      1  C   UNL     1       9.298 -33.967  13.176  1.00  0.00     0.000 C 
ENDROOT
BRANCH   1   2
ATOM      2  C   UNL     1      10.671 -33.339  13.459  1.00  0.00     0.006 C 
BRANCH   2   3
ATOM      3  C   UNL     1      10.564 -31.856  13.841  1.00  0.00     0.053 C 
BRANCH   3   4
ATOM      4  C   UNL     1      11.799 -31.370  14.536  1.00  0.00     0.041 C 
ATOM      5  O   UNL     1      12.925 -31.494  13.987  1.00  0.00    -0.550 OA
ATOM      6  O   UNL     1      11.709 -30.812  15.805  1.00  0.00    -0.550 OA
ENDBRANCH   3   4
ENDBRANCH   2   3
ENDBRANCH   1   2
BRANCH   1   7
ATOM      7  C   UNL     1       8.215 -32.890  13.055  1.00  0.00     0.000 C 
BRANCH   7   8
ATOM      8  C   UNL     1       6.971 -33.266  13.868  1.00  0.00    -0.000 C 
BRANCH   8   9
ATOM      9  C   UNL     1       7.336 -33.572  15.325  1.00  0.00    -0.000 C 
BRANCH   9  10
ATOM     10  C   UNL     1       7.613 -32.281  16.104  1.00  0.00    -0.003 C 
ATOM     11  C   UNL     1       8.517 -32.545  17.306  1.00  0.00     0.004 C 
ENDBRANCH   9  10
ENDBRANCH   8   9
ENDBRANCH   7   8
ENDBRANCH   1   7
TORSDOF 7
ENDMDL
MODEL 7
REMARK VINA RESULT:    -2.919      1.838      3.710
REMARK INTER + INTRA:          -4.543
REMARK INTER:                  -3.839
REMARK INTRA:                  -0.704
REMARK UNBOUND:                -0.429
REMARK SMILES CCCCCCCCC(=O)[O-]
REMARK SMILES IDX 6 1 7 2 8 3 9 4 10 5 11 6 5 7 4 8 3 9 2 10 1 11
REMARK H PARENT
REMARK Flexibility Score: inf
ROOT
ATOM      1  C   UNL     1       9.658 -32.753  14.497  1.00  0.00     0.000 C 
ENDROOT
BRANCH   1   2
ATOM      2  C   UNL     1       8.821 -31.932  15.489  1.00  0.00     0.006 C 
BRANCH   2   3
ATOM      3  C   UNL     1       8.468 -32.730  16.752  1.00  0.00     0.053 C 
BRANCH   3   4
ATOM      4  C   UNL     1       8.832 -31.986  18.000  1.00  0.00     0.041 C 
ATOM      5  O   UNL     1       8.271 -32.267  19.091  1.00  0.00    -0.550 OA
ATOM      6  O   UNL     1       9.767 -30.960  17.951  1.00  0.00    -0.550 OA
ENDBRANCH   3   4
ENDBRANCH   2   3
ENDBRANCH   1   2
BRANCH   1   7
ATOM      7  C   UNL     1       8.836 -33.118  13.256  1.00  0.00     0.000 C 
BRANCH   7   8
ATOM      8  C   UNL     1       7.564 -32.268  13.168  1.00  0.00    -0.000 C 
BRANCH   8   9
ATOM      9  C   UNL     1       6.324 -33.149  12.980  1.00  0.00    -0.000 C 
BRANCH   9  10
ATOM     10  C   UNL     1       6.557 -34.554  13.548  1.00  0.00    -0.003 C 
ATOM     11  C   UNL     1       5.875 -34.722  14.903  1.00  0.00     0.004 C 
ENDBRANCH   9  10
ENDBRANCH   8   9
ENDBRANCH   7   8
ENDBRANCH   1   7
TORSDOF 7
ENDMDL
MODEL 8
REMARK VINA RESULT:    -2.760      3.083      5.174
REMARK INTER + INTRA:          -4.318
REMARK INTER:                  -3.939
REMARK INTRA:                  -0.378
REMARK UNBOUND:                -0.429
REMARK SMILES CCCCCCCCC(=O)[O-]
REMARK SMILES IDX 6 1 7 2 8 3 9 4 10 5 11 6 5 7 4 8 3 9 2 10 1 11
REMARK H PARENT
REMARK Flexibility Score: inf
ROOT
ATOM      1  C   UNL     1       9.989 -31.753  13.198  1.00  0.00     0.000 C 
ENDROOT
BRANCH   1   2
ATOM      2  C   UNL     1      11.329 -32.299  13.713  1.00  0.00     0.006 C 
BRANCH   2   3
ATOM      3  C   UNL     1      12.193 -31.206  14.360  1.00  0.00     0.053 C 
BRANCH   3   4
ATOM      4  C   UNL     1      13.603 -31.241  13.855  1.00  0.00     0.041 C 
ATOM      5  O   UNL     1      14.148 -32.340  13.575  1.00  0.00    -0.550 OA
ATOM      6  O   UNL     1      14.324 -30.061  13.726  1.00  0.00    -0.550 OA
ENDBRANCH   3   4
ENDBRANCH   2   3
ENDBRANCH   1   2
BRANCH   1   7
ATOM      7  C   UNL     1       8.813 -32.543  13.785  1.00  0.00     0.000 C 
BRANCH   7   8
ATOM      8  C   UNL     1       8.695 -32.313  15.296  1.00  0.00    -0.000 C 
BRANCH   8   9
ATOM      9  C   UNL     1       8.034 -33.512  15.985  1.00  0.00    -0.000 C 
BRANCH   9  10
ATOM     10  C   UNL     1       7.822 -34.665  14.998  1.00  0.00    -0.003 C 
ATOM     11  C   UNL     1       6.750 -35.630  15.497  1.00  0.00     0.004 C 
ENDBRANCH   9  10
ENDBRANCH   8   9
ENDBRANCH   7   8
ENDBRANCH   1   7
TORSDOF 7
ENDMDL
