MODEL 1
REMARK VINA RESULT:    -7.710      0.000      0.000
REMARK INTER + INTRA:          -9.597
REMARK INTER:                  -9.288
REMARK INTRA:                  -0.309
REMARK UNBOUND:                -0.309
REMARK SMILES O=c1c(O)c(-c2ccc(O)c(O)c2)oc2cc(O)cc(O)c12
REMARK SMILES IDX 5 1 3 2 2 3 1 4 22 5 20 6 19 7 17 8 16 9 15 10 14 11 6 12
REMARK SMILES IDX 7 13 8 14 9 15 13 16 11 17 10 18 12 20 4 22 21 24 18 26
REMARK H PARENT 10 19 12 21 4 23 21 25 18 27
REMARK Flexibility Score: inf
ROOT
ATOM      1  C   UNL     1      57.074  48.832  23.133  1.00  0.00     0.180 A 
ATOM      2  C   UNL     1      58.230  49.042  23.905  1.00  0.00     0.208 A 
ATOM      3  C   UNL     1      59.402  49.482  23.270  1.00  0.00     0.238 A 
ATOM      4  O   UNL     1      60.449  49.618  23.957  1.00  0.00    -0.285 OA
ATOM      5  C   UNL     1      59.400  49.722  21.874  1.00  0.00     0.111 A 
ATOM      6  C   UNL     1      60.520  50.207  21.133  1.00  0.00     0.134 A 
ATOM      7  C   UNL     1      60.443  50.281  19.737  1.00  0.00     0.093 A 
ATOM      8  C   UNL     1      59.269  49.952  19.061  1.00  0.00     0.123 A 
ATOM      9  C   UNL     1      58.149  49.533  19.780  1.00  0.00     0.094 A 
ATOM     10  C   UNL     1      58.207  49.414  21.171  1.00  0.00     0.146 A 
ATOM     11  O   UNL     1      57.123  49.001  21.817  1.00  0.00    -0.452 OA
ENDROOT
BRANCH   1  12
ATOM     12  C   UNL     1      55.795  48.392  23.736  1.00  0.00     0.025 A 
ATOM     13  C   UNL     1      54.953  49.341  24.337  1.00  0.00     0.016 A 
ATOM     14  C   UNL     1      53.752  48.946  24.931  1.00  0.00     0.051 A 
ATOM     15  C   UNL     1      53.382  47.595  24.946  1.00  0.00     0.157 A 
ATOM     16  C   UNL     1      55.430  47.034  23.771  1.00  0.00     0.062 A 
ATOM     17  C   UNL     1      54.228  46.634  24.367  1.00  0.00     0.158 A 
BRANCH  15  18
ATOM     18  O   UNL     1      52.181  47.204  25.536  1.00  0.00    -0.504 OA
ATOM     19  H   UNL     1      51.424  46.810  24.989  1.00  0.00     0.293 HD
ENDBRANCH  15  18
BRANCH  17  20
ATOM     20  O   UNL     1      53.895  45.281  24.377  1.00  0.00    -0.504 OA
ATOM     21  H   UNL     1      53.780  44.749  23.522  1.00  0.00     0.293 HD
ENDBRANCH  17  20
ENDBRANCH   1  12
BRANCH   2  22
ATOM     22  O   UNL     1      58.216  48.780  25.277  1.00  0.00    -0.502 OA
ATOM     23  H   UNL     1      59.065  48.707  25.826  1.00  0.00     0.293 HD
ENDBRANCH   2  22
BRANCH   6  24
ATOM     24  O   UNL     1      61.710  50.650  21.718  1.00  0.00    -0.507 OA
ATOM     25  H   UNL     1      62.502  50.063  21.926  1.00  0.00     0.293 HD
ENDBRANCH   6  24
BRANCH   8  26
ATOM     26  O   UNL     1      59.225  50.053  17.673  1.00  0.00    -0.508 OA
ATOM     27  H   UNL     1      60.034  49.845  17.100  1.00  0.00     0.293 HD
ENDBRANCH   8  26
TORSDOF 6
ENDMDL
MODEL 2
REMARK VINA RESULT:    -7.380     11.549     15.182
REMARK INTER + INTRA:          -9.199
REMARK INTER:                  -9.063
REMARK INTRA:                  -0.136
REMARK UNBOUND:                -0.309
REMARK SMILES O=c1c(O)c(-c2ccc(O)c(O)c2)oc2cc(O)cc(O)c12
REMARK SMILES IDX 5 1 3 2 2 3 1 4 22 5 20 6 19 7 17 8 16 9 15 10 14 11 6 12
REMARK SMILES IDX 7 13 8 14 9 15 13 16 11 17 10 18 12 20 4 22 21 24 18 26
REMARK H PARENT 10 19 12 21 4 23 21 25 18 27
REMARK Flexibility Score: inf
ROOT
ATOM      1  C   UNL     1      53.225  36.552  27.816  1.00  0.00     0.180 A 
ATOM      2  C   UNL     1      53.883  35.324  28.006  1.00  0.00     0.208 A 
ATOM      3  C   UNL     1      53.376  34.176  27.376  1.00  0.00     0.238 A 
ATOM      4  O   UNL     1      53.937  33.070  27.592  1.00  0.00    -0.285 OA
ATOM      5  C   UNL     1      52.228  34.272  26.552  1.00  0.00     0.111 A 
ATOM      6  C   UNL     1      51.652  33.182  25.834  1.00  0.00     0.134 A 
ATOM      7  C   UNL     1      50.440  33.365  25.156  1.00  0.00     0.093 A 
ATOM      8  C   UNL     1      49.820  34.613  25.114  1.00  0.00     0.123 A 
ATOM      9  C   UNL     1      50.405  35.701  25.764  1.00  0.00     0.094 A 
ATOM     10  C   UNL     1      51.595  35.540  26.479  1.00  0.00     0.146 A 
ATOM     11  O   UNL     1      52.113  36.597  27.092  1.00  0.00    -0.452 OA
ENDROOT
BRANCH   1  12
ATOM     12  C   UNL     1      53.715  37.809  28.427  1.00  0.00     0.025 A 
ATOM     13  C   UNL     1      52.860  38.551  29.258  1.00  0.00     0.016 A 
ATOM     14  C   UNL     1      53.293  39.751  29.827  1.00  0.00     0.051 A 
ATOM     15  C   UNL     1      54.581  40.235  29.561  1.00  0.00     0.157 A 
ATOM     16  C   UNL     1      54.999  38.309  28.145  1.00  0.00     0.062 A 
ATOM     17  C   UNL     1      55.436  39.512  28.712  1.00  0.00     0.158 A 
BRANCH  15  18
ATOM     18  O   UNL     1      55.012  41.432  30.132  1.00  0.00    -0.504 OA
ATOM     19  H   UNL     1      55.289  41.485  31.106  1.00  0.00     0.293 HD
ENDBRANCH  15  18
BRANCH  17  20
ATOM     20  O   UNL     1      56.717  39.974  28.416  1.00  0.00    -0.504 OA
ATOM     21  H   UNL     1      57.173  39.767  27.535  1.00  0.00     0.293 HD
ENDBRANCH  17  20
ENDBRANCH   1  12
BRANCH   2  22
ATOM     22  O   UNL     1      55.001  35.247  28.840  1.00  0.00    -0.502 OA
ATOM     23  H   UNL     1      55.901  35.636  28.581  1.00  0.00     0.293 HD
ENDBRANCH   2  22
BRANCH   6  24
ATOM     24  O   UNL     1      52.238  31.916  25.734  1.00  0.00    -0.507 OA
ATOM     25  H   UNL     1      52.825  31.497  26.440  1.00  0.00     0.293 HD
ENDBRANCH   6  24
BRANCH   8  26
ATOM     26  O   UNL     1      48.624  34.762  24.416  1.00  0.00    -0.508 OA
ATOM     27  H   UNL     1      47.948  35.472  24.670  1.00  0.00     0.293 HD
ENDBRANCH   8  26
TORSDOF 6
ENDMDL
MODEL 3
REMARK VINA RESULT:    -7.361      1.740      6.664
REMARK INTER + INTRA:          -9.176
REMARK INTER:                  -8.933
REMARK INTRA:                  -0.243
REMARK UNBOUND:                -0.309
REMARK SMILES O=c1c(O)c(-c2ccc(O)c(O)c2)oc2cc(O)cc(O)c12
REMARK SMILES IDX 5 1 3 2 2 3 1 4 22 5 20 6 19 7 17 8 16 9 15 10 14 11 6 12
REMARK SMILES IDX 7 13 8 14 9 15 13 16 11 17 10 18 12 20 4 22 21 24 18 26
REMARK H PARENT 10 19 12 21 4 23 21 25 18 27
REMARK Flexibility Score: inf
ROOT
ATOM      1  C   UNL     1      59.105  48.967  22.452  1.00  0.00     0.180 A 
ATOM      2  C   UNL     1      59.835  49.671  23.425  1.00  0.00     0.208 A 
ATOM      3  C   UNL     1      59.295  49.812  24.713  1.00  0.00     0.238 A 
ATOM      4  O   UNL     1      59.928  50.489  25.564  1.00  0.00    -0.285 OA
ATOM      5  C   UNL     1      58.039  49.233  25.017  1.00  0.00     0.111 A 
ATOM      6  C   UNL     1      57.414  49.278  26.300  1.00  0.00     0.134 A 
ATOM      7  C   UNL     1      56.112  48.786  26.452  1.00  0.00     0.093 A 
ATOM      8  C   UNL     1      55.438  48.190  25.387  1.00  0.00     0.123 A 
ATOM      9  C   UNL     1      56.062  48.087  24.142  1.00  0.00     0.094 A 
ATOM     10  C   UNL     1      57.347  48.602  23.951  1.00  0.00     0.146 A 
ATOM     11  O   UNL     1      57.900  48.492  22.749  1.00  0.00    -0.452 OA
ENDROOT
BRANCH   1  12
ATOM     12  C   UNL     1      59.620  48.756  21.080  1.00  0.00     0.025 A 
ATOM     13  C   UNL     1      60.679  47.858  20.870  1.00  0.00     0.016 A 
ATOM     14  C   UNL     1      61.196  47.660  19.588  1.00  0.00     0.051 A 
ATOM     15  C   UNL     1      60.673  48.368  18.498  1.00  0.00     0.157 A 
ATOM     16  C   UNL     1      59.112  49.480  19.987  1.00  0.00     0.062 A 
ATOM     17  C   UNL     1      59.628  49.286  18.700  1.00  0.00     0.158 A 
BRANCH  15  18
ATOM     18  O   UNL     1      61.188  48.166  17.218  1.00  0.00    -0.504 OA
ATOM     19  H   UNL     1      62.076  48.564  16.935  1.00  0.00     0.293 HD
ENDBRANCH  15  18
BRANCH  17  20
ATOM     20  O   UNL     1      59.095  50.016  17.639  1.00  0.00    -0.504 OA
ATOM     21  H   UNL     1      59.044  49.640  16.699  1.00  0.00     0.293 HD
ENDBRANCH  17  20
ENDBRANCH   1  12
BRANCH   2  22
ATOM     22  O   UNL     1      61.063  50.252  23.097  1.00  0.00    -0.502 OA
ATOM     23  H   UNL     1      61.133  51.142  22.617  1.00  0.00     0.293 HD
ENDBRANCH   2  22
BRANCH   6  24
ATOM     24  O   UNL     1      58.035  49.769  27.453  1.00  0.00    -0.507 OA
ATOM     25  H   UNL     1      58.188  49.235  28.294  1.00  0.00     0.293 HD
ENDBRANCH   6  24
BRANCH   8  26
ATOM     26  O   UNL     1      54.150  47.696  25.578  1.00  0.00    -0.508 OA
ATOM     27  H   UNL     1      53.368  48.313  25.762  1.00  0.00     0.293 HD
ENDBRANCH   8  26
TORSDOF 6
ENDMDL
MODEL 4
REMARK VINA RESULT:    -7.211      1.258      2.947
REMARK INTER + INTRA:          -8.995
REMARK INTER:                  -8.767
REMARK INTRA:                  -0.228
REMARK UNBOUND:                -0.309
REMARK SMILES O=c1c(O)c(-c2ccc(O)c(O)c2)oc2cc(O)cc(O)c12
REMARK SMILES IDX 5 1 3 2 2 3 1 4 22 5 20 6 19 7 17 8 16 9 15 10 14 11 6 12
REMARK SMILES IDX 7 13 8 14 9 15 13 16 11 17 10 18 12 20 4 22 21 24 18 26
REMARK H PARENT 10 19 12 21 4 23 21 25 18 27
REMARK Flexibility Score: inf
ROOT
ATOM      1  C   UNL     1      56.194  49.050  22.018  1.00  0.00     0.180 A 
ATOM      2  C   UNL     1      55.937  49.525  20.720  1.00  0.00     0.208 A 
ATOM      3  C   UNL     1      57.013  49.951  19.925  1.00  0.00     0.238 A 
ATOM      4  O   UNL     1      56.771  50.425  18.784  1.00  0.00    -0.285 OA
ATOM      5  C   UNL     1      58.333  49.883  20.432  1.00  0.00     0.111 A 
ATOM      6  C   UNL     1      59.502  50.251  19.700  1.00  0.00     0.134 A 
ATOM      7  C   UNL     1      60.745  50.268  20.346  1.00  0.00     0.093 A 
ATOM      8  C   UNL     1      60.871  49.867  21.675  1.00  0.00     0.123 A 
ATOM      9  C   UNL     1      59.744  49.448  22.383  1.00  0.00     0.094 A 
ATOM     10  C   UNL     1      58.485  49.456  21.776  1.00  0.00     0.146 A 
ATOM     11  O   UNL     1      57.436  49.061  22.488  1.00  0.00    -0.452 OA
ENDROOT
BRANCH   1  12
ATOM     12  C   UNL     1      55.115  48.560  22.905  1.00  0.00     0.025 A 
ATOM     13  C   UNL     1      54.232  49.480  23.492  1.00  0.00     0.016 A 
ATOM     14  C   UNL     1      53.220  49.042  24.350  1.00  0.00     0.051 A 
ATOM     15  C   UNL     1      53.085  47.679  24.646  1.00  0.00     0.157 A 
ATOM     16  C   UNL     1      54.990  47.195  23.222  1.00  0.00     0.062 A 
ATOM     17  C   UNL     1      53.978  46.752  24.083  1.00  0.00     0.158 A 
BRANCH  15  18
ATOM     18  O   UNL     1      52.073  47.244  25.500  1.00  0.00    -0.504 OA
ATOM     19  H   UNL     1      52.213  47.184  26.502  1.00  0.00     0.293 HD
ENDBRANCH  15  18
BRANCH  17  20
ATOM     20  O   UNL     1      53.880  45.392  24.368  1.00  0.00    -0.504 OA
ATOM     21  H   UNL     1      53.096  44.831  24.054  1.00  0.00     0.293 HD
ENDBRANCH  17  20
ENDBRANCH   1  12
BRANCH   2  22
ATOM     22  O   UNL     1      54.624  49.603  20.248  1.00  0.00    -0.502 OA
ATOM     23  H   UNL     1      54.377  50.114  19.409  1.00  0.00     0.293 HD
ENDBRANCH   2  22
BRANCH   6  24
ATOM     24  O   UNL     1      59.500  50.580  18.341  1.00  0.00    -0.507 OA
ATOM     25  H   UNL     1      59.940  51.398  17.946  1.00  0.00     0.293 HD
ENDBRANCH   6  24
BRANCH   8  26
ATOM     26  O   UNL     1      62.125  49.881  22.280  1.00  0.00    -0.508 OA
ATOM     27  H   UNL     1      62.419  49.141  22.907  1.00  0.00     0.293 HD
ENDBRANCH   8  26
TORSDOF 6
ENDMDL
MODEL 5
REMARK VINA RESULT:    -6.979      6.026      8.550
REMARK INTER + INTRA:          -8.716
REMARK INTER:                  -8.783
REMARK INTRA:                   0.067
REMARK UNBOUND:                -0.309
REMARK SMILES O=c1c(O)c(-c2ccc(O)c(O)c2)oc2cc(O)cc(O)c12
REMARK SMILES IDX 5 1 3 2 2 3 1 4 22 5 20 6 19 7 17 8 16 9 15 10 14 11 6 12
REMARK SMILES IDX 7 13 8 14 9 15 13 16 11 17 10 18 12 20 4 22 21 24 18 26
REMARK H PARENT 10 19 12 21 4 23 21 25 18 27
REMARK Flexibility Score: inf
ROOT
ATOM      1  C   UNL     1      53.909  49.125  30.312  1.00  0.00     0.180 A 
ATOM      2  C   UNL     1      54.991  50.014  30.186  1.00  0.00     0.208 A 
ATOM      3  C   UNL     1      55.197  50.667  28.960  1.00  0.00     0.238 A 
ATOM      4  O   UNL     1      56.198  51.420  28.837  1.00  0.00    -0.285 OA
ATOM      5  C   UNL     1      54.310  50.435  27.881  1.00  0.00     0.111 A 
ATOM      6  C   UNL     1      54.400  51.072  26.606  1.00  0.00     0.134 A 
ATOM      7  C   UNL     1      53.548  50.668  25.571  1.00  0.00     0.093 A 
ATOM      8  C   UNL     1      52.567  49.700  25.781  1.00  0.00     0.123 A 
ATOM      9  C   UNL     1      52.431  49.113  27.040  1.00  0.00     0.094 A 
ATOM     10  C   UNL     1      53.291  49.469  28.083  1.00  0.00     0.146 A 
ATOM     11  O   UNL     1      53.135  48.878  29.262  1.00  0.00    -0.452 OA
ENDROOT
BRANCH   1  12
ATOM     12  C   UNL     1      53.613  48.419  31.580  1.00  0.00     0.025 A 
ATOM     13  C   UNL     1      54.644  47.742  32.250  1.00  0.00     0.016 A 
ATOM     14  C   UNL     1      54.384  47.051  33.436  1.00  0.00     0.051 A 
ATOM     15  C   UNL     1      53.085  47.014  33.962  1.00  0.00     0.157 A 
ATOM     16  C   UNL     1      52.307  48.362  32.099  1.00  0.00     0.062 A 
ATOM     17  C   UNL     1      52.042  47.670  33.286  1.00  0.00     0.158 A 
BRANCH  15  18
ATOM     18  O   UNL     1      52.828  46.327  35.147  1.00  0.00    -0.504 OA
ATOM     19  H   UNL     1      53.528  45.735  35.579  1.00  0.00     0.293 HD
ENDBRANCH  15  18
BRANCH  17  20
ATOM     20  O   UNL     1      50.737  47.640  33.775  1.00  0.00    -0.504 OA
ATOM     21  H   UNL     1      50.485  48.061  34.663  1.00  0.00     0.293 HD
ENDBRANCH  17  20
ENDBRANCH   1  12
BRANCH   2  22
ATOM     22  O   UNL     1      55.866  50.212  31.257  1.00  0.00    -0.502 OA
ATOM     23  H   UNL     1      55.757  50.974  31.915  1.00  0.00     0.293 HD
ENDBRANCH   2  22
BRANCH   6  24
ATOM     24  O   UNL     1      55.283  52.117  26.317  1.00  0.00    -0.507 OA
ATOM     25  H   UNL     1      55.443  52.496  25.397  1.00  0.00     0.293 HD
ENDBRANCH   6  24
BRANCH   8  26
ATOM     26  O   UNL     1      51.726  49.335  24.733  1.00  0.00    -0.508 OA
ATOM     27  H   UNL     1      52.092  49.102  23.817  1.00  0.00     0.293 HD
ENDBRANCH   8  26
TORSDOF 6
ENDMDL
MODEL 6
REMARK VINA RESULT:    -6.976      2.263      2.726
REMARK INTER + INTRA:          -8.712
REMARK INTER:                  -8.400
REMARK INTRA:                  -0.312
REMARK UNBOUND:                -0.309
REMARK SMILES O=c1c(O)c(-c2ccc(O)c(O)c2)oc2cc(O)cc(O)c12
REMARK SMILES IDX 5 1 3 2 2 3 1 4 22 5 20 6 19 7 17 8 16 9 15 10 14 11 6 12
REMARK SMILES IDX 7 13 8 14 9 15 13 16 11 17 10 18 12 20 4 22 21 24 18 26
REMARK H PARENT 10 19 12 21 4 23 21 25 18 27
REMARK Flexibility Score: inf
ROOT
ATOM      1  C   UNL     1      56.363  48.854  24.357  1.00  0.00     0.180 A 
ATOM      2  C   UNL     1      56.743  49.732  25.387  1.00  0.00     0.208 A 
ATOM      3  C   UNL     1      58.080  50.154  25.463  1.00  0.00     0.238 A 
ATOM      4  O   UNL     1      58.426  50.898  26.418  1.00  0.00    -0.285 OA
ATOM      5  C   UNL     1      59.017  49.706  24.500  1.00  0.00     0.111 A 
ATOM      6  C   UNL     1      60.388  50.101  24.457  1.00  0.00     0.134 A 
ATOM      7  C   UNL     1      61.253  49.493  23.540  1.00  0.00     0.093 A 
ATOM      8  C   UNL     1      60.785  48.555  22.621  1.00  0.00     0.123 A 
ATOM      9  C   UNL     1      59.434  48.205  22.614  1.00  0.00     0.094 A 
ATOM     10  C   UNL     1      58.554  48.767  23.542  1.00  0.00     0.146 A 
ATOM     11  O   UNL     1      57.279  48.399  23.509  1.00  0.00    -0.452 OA
ENDROOT
BRANCH   1  12
ATOM     12  C   UNL     1      54.968  48.385  24.197  1.00  0.00     0.025 A 
ATOM     13  C   UNL     1      54.038  49.199  23.532  1.00  0.00     0.016 A 
ATOM     14  C   UNL     1      52.710  48.786  23.389  1.00  0.00     0.051 A 
ATOM     15  C   UNL     1      52.290  47.561  23.923  1.00  0.00     0.157 A 
ATOM     16  C   UNL     1      54.537  47.165  24.751  1.00  0.00     0.062 A 
ATOM     17  C   UNL     1      53.208  46.749  24.611  1.00  0.00     0.158 A 
BRANCH  15  18
ATOM     18  O   UNL     1      50.966  47.150  23.776  1.00  0.00    -0.504 OA
ATOM     19  H   UNL     1      50.194  47.797  23.890  1.00  0.00     0.293 HD
ENDBRANCH  15  18
BRANCH  17  20
ATOM     20  O   UNL     1      52.818  45.531  25.166  1.00  0.00    -0.504 OA
ATOM     21  H   UNL     1      53.402  44.705  25.114  1.00  0.00     0.293 HD
ENDBRANCH  17  20
ENDBRANCH   1  12
BRANCH   2  22
ATOM     22  O   UNL     1      55.808  50.145  26.339  1.00  0.00    -0.502 OA
ATOM     23  H   UNL     1      55.837  51.062  26.769  1.00  0.00     0.293 HD
ENDBRANCH   2  22
BRANCH   6  24
ATOM     24  O   UNL     1      60.938  51.098  25.269  1.00  0.00    -0.507 OA
ATOM     25  H   UNL     1      60.734  51.218  26.249  1.00  0.00     0.293 HD
ENDBRANCH   6  24
BRANCH   8  26
ATOM     26  O   UNL     1      61.671  47.983  21.712  1.00  0.00    -0.508 OA
ATOM     27  H   UNL     1      61.583  47.016  21.422  1.00  0.00     0.293 HD
ENDBRANCH   8  26
TORSDOF 6
ENDMDL
MODEL 7
REMARK VINA RESULT:    -6.839      1.607      2.158
REMARK INTER + INTRA:          -8.548
REMARK INTER:                  -8.314
REMARK INTRA:                  -0.234
REMARK UNBOUND:                -0.309
REMARK SMILES O=c1c(O)c(-c2ccc(O)c(O)c2)oc2cc(O)cc(O)c12
REMARK SMILES IDX 5 1 3 2 2 3 1 4 22 5 20 6 19 7 17 8 16 9 15 10 14 11 6 12
REMARK SMILES IDX 7 13 8 14 9 15 13 16 11 17 10 18 12 20 4 22 21 24 18 26
REMARK H PARENT 10 19 12 21 4 23 21 25 18 27
REMARK Flexibility Score: inf
ROOT
ATOM      1  C   UNL     1      55.636  48.597  24.001  1.00  0.00     0.180 A 
ATOM      2  C   UNL     1      56.690  47.966  24.685  1.00  0.00     0.208 A 
ATOM      3  C   UNL     1      57.969  47.960  24.106  1.00  0.00     0.238 A 
ATOM      4  O   UNL     1      58.897  47.347  24.697  1.00  0.00    -0.285 OA
ATOM      5  C   UNL     1      58.183  48.598  22.860  1.00  0.00     0.111 A 
ATOM      6  C   UNL     1      59.446  48.688  22.201  1.00  0.00     0.134 A 
ATOM      7  C   UNL     1      59.514  49.227  20.910  1.00  0.00     0.093 A 
ATOM      8  C   UNL     1      58.379  49.740  20.283  1.00  0.00     0.123 A 
ATOM      9  C   UNL     1      57.150  49.711  20.942  1.00  0.00     0.094 A 
ATOM     10  C   UNL     1      57.043  49.146  22.216  1.00  0.00     0.146 A 
ATOM     11  O   UNL     1      55.854  49.129  22.804  1.00  0.00    -0.452 OA
ENDROOT
BRANCH   1  12
ATOM     12  C   UNL     1      54.266  48.666  24.559  1.00  0.00     0.025 A 
ATOM     13  C   UNL     1      54.011  49.494  25.664  1.00  0.00     0.016 A 
ATOM     14  C   UNL     1      52.731  49.558  26.220  1.00  0.00     0.051 A 
ATOM     15  C   UNL     1      51.691  48.783  25.690  1.00  0.00     0.157 A 
ATOM     16  C   UNL     1      53.224  47.874  24.043  1.00  0.00     0.062 A 
ATOM     17  C   UNL     1      51.941  47.934  24.599  1.00  0.00     0.158 A 
BRANCH  15  18
ATOM     18  O   UNL     1      50.414  48.851  26.245  1.00  0.00    -0.504 OA
ATOM     19  H   UNL     1      49.582  48.835  25.665  1.00  0.00     0.293 HD
ENDBRANCH  15  18
BRANCH  17  20
ATOM     20  O   UNL     1      50.931  47.140  24.057  1.00  0.00    -0.504 OA
ATOM     21  H   UNL     1      50.879  46.939  23.065  1.00  0.00     0.293 HD
ENDBRANCH  17  20
ENDBRANCH   1  12
BRANCH   2  22
ATOM     22  O   UNL     1      56.453  47.324  25.903  1.00  0.00    -0.502 OA
ATOM     23  H   UNL     1      56.530  46.319  26.012  1.00  0.00     0.293 HD
ENDBRANCH   2  22
BRANCH   6  24
ATOM     24  O   UNL     1      60.656  48.289  22.777  1.00  0.00    -0.507 OA
ATOM     25  H   UNL     1      61.557  48.363  22.330  1.00  0.00     0.293 HD
ENDBRANCH   6  24
BRANCH   8  26
ATOM     26  O   UNL     1      58.488  50.284  19.006  1.00  0.00    -0.508 OA
ATOM     27  H   UNL     1      57.674  50.609  18.498  1.00  0.00     0.293 HD
ENDBRANCH   8  26
TORSDOF 6
ENDMDL
MODEL 8
REMARK VINA RESULT:    -6.830      2.408      6.778
REMARK INTER + INTRA:          -8.536
REMARK INTER:                  -8.323
REMARK INTRA:                  -0.214
REMARK UNBOUND:                -0.309
REMARK SMILES O=c1c(O)c(-c2ccc(O)c(O)c2)oc2cc(O)cc(O)c12
REMARK SMILES IDX 5 1 3 2 2 3 1 4 22 5 20 6 19 7 17 8 16 9 15 10 14 11 6 12
REMARK SMILES IDX 7 13 8 14 9 15 13 16 11 17 10 18 12 20 4 22 21 24 18 26
REMARK H PARENT 10 19 12 21 4 23 21 25 18 27
REMARK Flexibility Score: inf
ROOT
ATOM      1  C   UNL     1      58.846  49.344  22.702  1.00  0.00     0.180 A 
ATOM      2  C   UNL     1      57.502  49.134  23.061  1.00  0.00     0.208 A 
ATOM      3  C   UNL     1      57.078  49.494  24.350  1.00  0.00     0.238 A 
ATOM      4  O   UNL     1      55.888  49.254  24.684  1.00  0.00    -0.285 OA
ATOM      5  C   UNL     1      57.997  50.073  25.259  1.00  0.00     0.111 A 
ATOM      6  C   UNL     1      57.667  50.511  26.577  1.00  0.00     0.134 A 
ATOM      7  C   UNL     1      58.685  50.947  27.434  1.00  0.00     0.093 A 
ATOM      8  C   UNL     1      60.008  51.023  27.002  1.00  0.00     0.123 A 
ATOM      9  C   UNL     1      60.333  50.653  25.696  1.00  0.00     0.094 A 
ATOM     10  C   UNL     1      59.345  50.179  24.829  1.00  0.00     0.146 A 
ATOM     11  O   UNL     1      59.698  49.827  23.599  1.00  0.00    -0.452 OA
ENDROOT
BRANCH   1  12
ATOM     12  C   UNL     1      59.361  49.014  21.354  1.00  0.00     0.025 A 
ATOM     13  C   UNL     1      60.341  48.018  21.214  1.00  0.00     0.016 A 
ATOM     14  C   UNL     1      60.858  47.705  19.954  1.00  0.00     0.051 A 
ATOM     15  C   UNL     1      60.413  48.394  18.817  1.00  0.00     0.157 A 
ATOM     16  C   UNL     1      58.933  49.717  20.213  1.00  0.00     0.062 A 
ATOM     17  C   UNL     1      59.449  49.408  18.949  1.00  0.00     0.158 A 
BRANCH  15  18
ATOM     18  O   UNL     1      60.928  48.078  17.561  1.00  0.00    -0.504 OA
ATOM     19  H   UNL     1      61.903  47.831  17.434  1.00  0.00     0.293 HD
ENDBRANCH  15  18
BRANCH  17  20
ATOM     20  O   UNL     1      58.997  50.120  17.841  1.00  0.00    -0.504 OA
ATOM     21  H   UNL     1      58.169  50.704  17.877  1.00  0.00     0.293 HD
ENDBRANCH  17  20
ENDBRANCH   1  12
BRANCH   2  22
ATOM     22  O   UNL     1      56.618  48.542  22.156  1.00  0.00    -0.502 OA
ATOM     23  H   UNL     1      55.779  49.008  21.831  1.00  0.00     0.293 HD
ENDBRANCH   2  22
BRANCH   6  24
ATOM     24  O   UNL     1      56.362  50.563  27.077  1.00  0.00    -0.507 OA
ATOM     25  H   UNL     1      55.856  49.773  27.446  1.00  0.00     0.293 HD
ENDBRANCH   6  24
BRANCH   8  26
ATOM     26  O   UNL     1      60.991  51.477  27.877  1.00  0.00    -0.508 OA
ATOM     27  H   UNL     1      61.914  51.061  27.899  1.00  0.00     0.293 HD
ENDBRANCH   8  26
TORSDOF 6
ENDMDL
MODEL 9
REMARK VINA RESULT:    -6.810     14.896     16.803
REMARK INTER + INTRA:          -8.513
REMARK INTER:                  -8.245
REMARK INTRA:                  -0.268
REMARK UNBOUND:                -0.309
REMARK SMILES O=c1c(O)c(-c2ccc(O)c(O)c2)oc2cc(O)cc(O)c12
REMARK SMILES IDX 5 1 3 2 2 3 1 4 22 5 20 6 19 7 17 8 16 9 15 10 14 11 6 12
REMARK SMILES IDX 7 13 8 14 9 15 13 16 11 17 10 18 12 20 4 22 21 24 18 26
REMARK H PARENT 10 19 12 21 4 23 21 25 18 27
REMARK Flexibility Score: inf
ROOT
ATOM      1  C   UNL     1      44.634  39.365  23.279  1.00  0.00     0.180 A 
ATOM      2  C   UNL     1      45.995  39.174  22.981  1.00  0.00     0.208 A 
ATOM      3  C   UNL     1      46.357  38.165  22.073  1.00  0.00     0.238 A 
ATOM      4  O   UNL     1      47.580  37.963  21.850  1.00  0.00    -0.285 OA
ATOM      5  C   UNL     1      45.355  37.372  21.464  1.00  0.00     0.111 A 
ATOM      6  C   UNL     1      45.606  36.349  20.500  1.00  0.00     0.134 A 
ATOM      7  C   UNL     1      44.550  35.539  20.063  1.00  0.00     0.093 A 
ATOM      8  C   UNL     1      43.245  35.756  20.503  1.00  0.00     0.123 A 
ATOM      9  C   UNL     1      42.979  36.792  21.400  1.00  0.00     0.094 A 
ATOM     10  C   UNL     1      44.017  37.593  21.882  1.00  0.00     0.146 A 
ATOM     11  O   UNL     1      43.723  38.561  22.742  1.00  0.00    -0.452 OA
ENDROOT
BRANCH   1  12
ATOM     12  C   UNL     1      44.173  40.423  24.206  1.00  0.00     0.025 A 
ATOM     13  C   UNL     1      44.164  41.760  23.778  1.00  0.00     0.016 A 
ATOM     14  C   UNL     1      43.753  42.778  24.643  1.00  0.00     0.051 A 
ATOM     15  C   UNL     1      43.361  42.475  25.954  1.00  0.00     0.157 A 
ATOM     16  C   UNL     1      43.798  40.126  25.529  1.00  0.00     0.062 A 
ATOM     17  C   UNL     1      43.388  41.143  26.399  1.00  0.00     0.158 A 
BRANCH  15  18
ATOM     18  O   UNL     1      42.949  43.492  26.814  1.00  0.00    -0.504 OA
ATOM     19  H   UNL     1      42.523  43.288  27.711  1.00  0.00     0.293 HD
ENDBRANCH  15  18
BRANCH  17  20
ATOM     20  O   UNL     1      43.017  40.811  27.701  1.00  0.00    -0.504 OA
ATOM     21  H   UNL     1      42.250  40.178  27.897  1.00  0.00     0.293 HD
ENDBRANCH  17  20
ENDBRANCH   1  12
BRANCH   2  22
ATOM     22  O   UNL     1      46.968  39.954  23.609  1.00  0.00    -0.502 OA
ATOM     23  H   UNL     1      47.278  39.777  24.557  1.00  0.00     0.293 HD
ENDBRANCH   2  22
BRANCH   6  24
ATOM     24  O   UNL     1      46.858  36.108  19.926  1.00  0.00    -0.507 OA
ATOM     25  H   UNL     1      47.535  36.821  19.703  1.00  0.00     0.293 HD
ENDBRANCH   6  24
BRANCH   8  26
ATOM     26  O   UNL     1      42.218  34.941  20.034  1.00  0.00    -0.508 OA
ATOM     27  H   UNL     1      41.615  35.233  19.274  1.00  0.00     0.293 HD
ENDBRANCH   8  26
TORSDOF 6
ENDMDL
