MODEL 1
REMARK VINA RESULT:    -7.601      0.000      0.000
REMARK INTER + INTRA:         -11.210
REMARK INTER:                 -10.268
REMARK INTRA:                  -0.942
REMARK UNBOUND:                -0.942
REMARK SMILES O=c1c(-c2ccc(O)cc2)coc2c([C@@H]3O[C@@H](CO)[C@@H](O)[C@H](O)[C@@H]3O)c(O)ccc12
REMARK SMILES IDX 3 1 11 2 12 3 13 4 30 5 2 6 1 7 29 8 28 9 26 10 14 11 4 12
REMARK SMILES IDX 5 13 6 14 7 15 10 16 9 17 8 18 15 20 24 21 16 22 22 23 17 24
REMARK SMILES IDX 20 25 25 26 23 28 18 30 19 31 21 33 27 35
REMARK H PARENT 8 19 25 27 23 29 19 32 21 34 27 36
REMARK Flexibility Score: inf
ROOT
ATOM      1  C   UNL     1     -13.334  29.420 -24.553  1.00  0.00     0.065 A 
ATOM      2  C   UNL     1     -14.165  30.397 -25.119  1.00  0.00     0.208 A 
ATOM      3  O   UNL     1     -15.302  30.750 -24.532  1.00  0.00    -0.463 OA
ATOM      4  C   UNL     1     -15.729  30.215 -23.391  1.00  0.00     0.147 A 
ATOM      5  C   UNL     1     -14.953  29.220 -22.751  1.00  0.00     0.066 A 
ATOM      6  C   UNL     1     -13.737  28.829 -23.342  1.00  0.00     0.200 A 
ATOM      7  O   UNL     1     -13.004  27.969 -22.781  1.00  0.00    -0.288 OA
ATOM      8  C   UNL     1     -15.410  28.647 -21.555  1.00  0.00     0.020 A 
ATOM      9  C   UNL     1     -16.628  29.043 -21.008  1.00  0.00     0.047 A 
ATOM     10  C   UNL     1     -17.408  30.022 -21.634  1.00  0.00     0.125 A 
ATOM     11  C   UNL     1     -16.954  30.641 -22.824  1.00  0.00     0.069 A 
ENDROOT
BRANCH   1  12
ATOM     12  C   UNL     1     -12.070  29.040 -25.231  1.00  0.00    -0.011 A 
ATOM     13  C   UNL     1     -11.849  27.710 -25.627  1.00  0.00     0.013 A 
ATOM     14  C   UNL     1     -10.655  27.347 -26.258  1.00  0.00     0.047 A 
ATOM     15  C   UNL     1      -9.666  28.305 -26.496  1.00  0.00     0.115 A 
ATOM     16  C   UNL     1     -11.066  29.998 -25.467  1.00  0.00     0.013 A 
ATOM     17  C   UNL     1      -9.873  29.632 -26.097  1.00  0.00     0.047 A 
BRANCH  15  18
ATOM     18  O   UNL     1      -8.481  27.929 -27.125  1.00  0.00    -0.508 OA
ATOM     19  H   UNL     1      -8.273  28.213 -28.076  1.00  0.00     0.293 HD
ENDBRANCH  15  18
ENDBRANCH   1  12
BRANCH  11  20
ATOM     20  C   UNL     1     -17.792  31.694 -23.540  1.00  0.00     0.188 C 
ATOM     21  C   UNL     1     -18.801  31.018 -24.491  1.00  0.00     0.179 C 
ATOM     22  O   UNL     1     -18.445  32.529 -22.591  1.00  0.00    -0.362 OA
ATOM     23  C   UNL     1     -19.602  32.103 -25.233  1.00  0.00     0.177 C 
ATOM     24  C   UNL     1     -19.160  33.599 -23.200  1.00  0.00     0.176 C 
ATOM     25  C   UNL     1     -20.218  33.081 -24.213  1.00  0.00     0.177 C 
BRANCH  21  26
ATOM     26  O   UNL     1     -19.667  30.185 -23.761  1.00  0.00    -0.387 OA
ATOM     27  H   UNL     1     -19.894  29.417 -24.348  1.00  0.00     0.211 HD
ENDBRANCH  21  26
BRANCH  23  28
ATOM     28  O   UNL     1     -20.625  31.521 -26.000  1.00  0.00    -0.387 OA
ATOM     29  H   UNL     1     -20.313  30.612 -26.250  1.00  0.00     0.211 HD
ENDBRANCH  23  28
BRANCH  24  30
ATOM     30  C   UNL     1     -18.206  34.684 -23.750  1.00  0.00     0.191 C 
BRANCH  30  31
ATOM     31  O   UNL     1     -18.845  35.932 -23.750  1.00  0.00    -0.394 OA
ATOM     32  H   UNL     1     -18.186  36.579 -23.386  1.00  0.00     0.210 HD
ENDBRANCH  30  31
ENDBRANCH  24  30
BRANCH  25  33
ATOM     33  O   UNL     1     -20.895  34.139 -24.847  1.00  0.00    -0.388 OA
ATOM     34  H   UNL     1     -21.819  33.837 -25.049  1.00  0.00     0.211 HD
ENDBRANCH  25  33
ENDBRANCH  11  20
BRANCH  10  35
ATOM     35  O   UNL     1     -18.637  30.375 -21.075  1.00  0.00    -0.507 OA
ATOM     36  H   UNL     1     -19.462  30.513 -21.646  1.00  0.00     0.293 HD
ENDBRANCH  10  35
TORSDOF 9
ENDMDL
MODEL 2
REMARK VINA RESULT:    -6.968      2.369      8.814
REMARK INTER + INTRA:         -10.354
REMARK INTER:                 -10.244
REMARK INTRA:                  -0.111
REMARK UNBOUND:                -0.942
REMARK SMILES O=c1c(-c2ccc(O)cc2)coc2c([C@@H]3O[C@@H](CO)[C@@H](O)[C@H](O)[C@@H]3O)c(O)ccc12
REMARK SMILES IDX 3 1 11 2 12 3 13 4 30 5 2 6 1 7 29 8 28 9 26 10 14 11 4 12
REMARK SMILES IDX 5 13 6 14 7 15 10 16 9 17 8 18 15 20 24 21 16 22 22 23 17 24
REMARK SMILES IDX 20 25 25 26 23 28 18 30 19 31 21 33 27 35
REMARK H PARENT 8 19 25 27 23 29 19 32 21 34 27 36
REMARK Flexibility Score: inf
ROOT
ATOM      1  C   UNL     1     -19.668  32.813 -23.770  1.00  0.00     0.065 A 
ATOM      2  C   UNL     1     -18.680  32.369 -22.880  1.00  0.00     0.208 A 
ATOM      3  O   UNL     1     -17.768  31.483 -23.258  1.00  0.00    -0.463 OA
ATOM      4  C   UNL     1     -17.723  30.963 -24.482  1.00  0.00     0.147 A 
ATOM      5  C   UNL     1     -18.682  31.354 -25.446  1.00  0.00     0.066 A 
ATOM      6  C   UNL     1     -19.659  32.298 -25.079  1.00  0.00     0.200 A 
ATOM      7  O   UNL     1     -20.509  32.695 -25.923  1.00  0.00    -0.288 OA
ATOM      8  C   UNL     1     -18.641  30.795 -26.732  1.00  0.00     0.020 A 
ATOM      9  C   UNL     1     -17.673  29.848 -27.054  1.00  0.00     0.047 A 
ATOM     10  C   UNL     1     -16.721  29.448 -26.109  1.00  0.00     0.125 A 
ATOM     11  C   UNL     1     -16.718  30.022 -24.815  1.00  0.00     0.069 A 
ENDROOT
BRANCH   1  12
ATOM     12  C   UNL     1     -20.680  33.801 -23.320  1.00  0.00    -0.011 A 
ATOM     13  C   UNL     1     -20.450  35.178 -23.484  1.00  0.00     0.013 A 
ATOM     14  C   UNL     1     -21.398  36.111 -23.053  1.00  0.00     0.047 A 
ATOM     15  C   UNL     1     -22.584  35.682 -22.450  1.00  0.00     0.115 A 
ATOM     16  C   UNL     1     -21.873  33.376 -22.706  1.00  0.00     0.013 A 
ATOM     17  C   UNL     1     -22.819  34.312 -22.276  1.00  0.00     0.047 A 
BRANCH  15  18
ATOM     18  O   UNL     1     -23.520  36.623 -22.025  1.00  0.00    -0.508 OA
ATOM     19  H   UNL     1     -24.362  36.808 -22.558  1.00  0.00     0.293 HD
ENDBRANCH  15  18
ENDBRANCH   1  12
BRANCH  11  20
ATOM     20  C   UNL     1     -15.708  29.589 -23.758  1.00  0.00     0.188 C 
ATOM     21  C   UNL     1     -16.392  29.480 -22.379  1.00  0.00     0.179 C 
ATOM     22  O   UNL     1     -15.095  28.363 -24.138  1.00  0.00    -0.362 OA
ATOM     23  C   UNL     1     -15.342  29.086 -21.324  1.00  0.00     0.177 C 
ATOM     24  C   UNL     1     -14.065  27.961 -23.241  1.00  0.00     0.176 C 
ATOM     25  C   UNL     1     -14.592  27.821 -21.787  1.00  0.00     0.177 C 
BRANCH  21  26
ATOM     26  O   UNL     1     -17.420  28.522 -22.425  1.00  0.00    -0.387 OA
ATOM     27  H   UNL     1     -17.843  28.594 -23.321  1.00  0.00     0.211 HD
ENDBRANCH  21  26
BRANCH  23  28
ATOM     28  O   UNL     1     -15.957  28.840 -20.086  1.00  0.00    -0.387 OA
ATOM     29  H   UNL     1     -15.817  27.878 -19.883  1.00  0.00     0.211 HD
ENDBRANCH  23  28
BRANCH  24  30
ATOM     30  C   UNL     1     -12.801  28.836 -23.395  1.00  0.00     0.191 C 
BRANCH  30  31
ATOM     31  O   UNL     1     -11.665  28.115 -23.000  1.00  0.00    -0.394 OA
ATOM     32  H   UNL     1     -11.824  27.175 -23.277  1.00  0.00     0.210 HD
ENDBRANCH  30  31
ENDBRANCH  24  30
BRANCH  25  33
ATOM     33  O   UNL     1     -13.566  27.465 -20.892  1.00  0.00    -0.388 OA
ATOM     34  H   UNL     1     -13.277  28.284 -20.413  1.00  0.00     0.211 HD
ENDBRANCH  25  33
ENDBRANCH  11  20
BRANCH  10  35
ATOM     35  O   UNL     1     -15.782  28.475 -26.457  1.00  0.00    -0.507 OA
ATOM     36  H   UNL     1     -16.045  27.639 -26.964  1.00  0.00     0.293 HD
ENDBRANCH  10  35
TORSDOF 9
ENDMDL
MODEL 3
REMARK VINA RESULT:    -6.878      2.141      3.710
REMARK INTER + INTRA:         -10.232
REMARK INTER:                  -9.298
REMARK INTRA:                  -0.934
REMARK UNBOUND:                -0.942
REMARK SMILES O=c1c(-c2ccc(O)cc2)coc2c([C@@H]3O[C@@H](CO)[C@@H](O)[C@H](O)[C@@H]3O)c(O)ccc12
REMARK SMILES IDX 3 1 11 2 12 3 13 4 30 5 2 6 1 7 29 8 28 9 26 10 14 11 4 12
REMARK SMILES IDX 5 13 6 14 7 15 10 16 9 17 8 18 15 20 24 21 16 22 22 23 17 24
REMARK SMILES IDX 20 25 25 26 23 28 18 30 19 31 21 33 27 35
REMARK H PARENT 8 19 25 27 23 29 19 32 21 34 27 36
REMARK Flexibility Score: inf
ROOT
ATOM      1  C   UNL     1     -14.517  29.493 -23.995  1.00  0.00     0.065 A 
ATOM      2  C   UNL     1     -15.328  30.079 -23.014  1.00  0.00     0.208 A 
ATOM      3  O   UNL     1     -16.539  30.534 -23.311  1.00  0.00    -0.463 OA
ATOM      4  C   UNL     1     -17.061  30.470 -24.533  1.00  0.00     0.147 A 
ATOM      5  C   UNL     1     -16.311  29.894 -25.585  1.00  0.00     0.066 A 
ATOM      6  C   UNL     1     -15.027  29.394 -25.303  1.00  0.00     0.200 A 
ATOM      7  O   UNL     1     -14.344  28.844 -26.210  1.00  0.00    -0.288 OA
ATOM      8  C   UNL     1     -16.858  29.838 -26.877  1.00  0.00     0.020 A 
ATOM      9  C   UNL     1     -18.124  30.361 -27.125  1.00  0.00     0.047 A 
ATOM     10  C   UNL     1     -18.875  30.938 -26.094  1.00  0.00     0.125 A 
ATOM     11  C   UNL     1     -18.361  30.976 -24.775  1.00  0.00     0.069 A 
ENDROOT
BRANCH   1  12
ATOM     12  C   UNL     1     -13.165  28.996 -23.639  1.00  0.00    -0.011 A 
ATOM     13  C   UNL     1     -13.018  27.887 -22.788  1.00  0.00     0.013 A 
ATOM     14  C   UNL     1     -11.745  27.422 -22.443  1.00  0.00     0.047 A 
ATOM     15  C   UNL     1     -10.605  28.061 -22.938  1.00  0.00     0.115 A 
ATOM     16  C   UNL     1     -12.013  29.639 -24.128  1.00  0.00     0.013 A 
ATOM     17  C   UNL     1     -10.741  29.172 -23.780  1.00  0.00     0.047 A 
BRANCH  15  18
ATOM     18  O   UNL     1      -9.343  27.587 -22.586  1.00  0.00    -0.508 OA
ATOM     19  H   UNL     1      -8.883  27.889 -21.734  1.00  0.00     0.293 HD
ENDBRANCH  15  18
ENDBRANCH   1  12
BRANCH  11  20
ATOM     20  C   UNL     1     -19.146  31.618 -23.637  1.00  0.00     0.188 C 
ATOM     21  C   UNL     1     -19.013  33.154 -23.697  1.00  0.00     0.179 C 
ATOM     22  O   UNL     1     -20.507  31.208 -23.687  1.00  0.00    -0.362 OA
ATOM     23  C   UNL     1     -19.777  33.774 -22.512  1.00  0.00     0.177 C 
ATOM     24  C   UNL     1     -21.269  31.692 -22.586  1.00  0.00     0.176 C 
ATOM     25  C   UNL     1     -21.223  33.241 -22.493  1.00  0.00     0.177 C 
BRANCH  21  26
ATOM     26  O   UNL     1     -19.527  33.635 -24.914  1.00  0.00    -0.387 OA
ATOM     27  H   UNL     1     -18.860  34.274 -25.278  1.00  0.00     0.211 HD
ENDBRANCH  21  26
BRANCH  23  28
ATOM     28  O   UNL     1     -19.795  35.175 -22.617  1.00  0.00    -0.387 OA
ATOM     29  H   UNL     1     -20.652  35.480 -22.221  1.00  0.00     0.211 HD
ENDBRANCH  23  28
BRANCH  24  30
ATOM     30  C   UNL     1     -20.917  30.948 -21.277  1.00  0.00     0.191 C 
BRANCH  30  31
ATOM     31  O   UNL     1     -21.988  31.027 -20.376  1.00  0.00    -0.394 OA
ATOM     32  H   UNL     1     -22.638  31.664 -20.773  1.00  0.00     0.210 HD
ENDBRANCH  30  31
ENDBRANCH  24  30
BRANCH  25  33
ATOM     33  O   UNL     1     -21.940  33.719 -21.380  1.00  0.00    -0.388 OA
ATOM     34  H   UNL     1     -21.308  34.205 -20.790  1.00  0.00     0.211 HD
ENDBRANCH  25  33
ENDBRANCH  11  20
BRANCH  10  35
ATOM     35  O   UNL     1     -20.129  31.478 -26.384  1.00  0.00    -0.507 OA
ATOM     36  H   UNL     1     -20.228  32.368 -26.856  1.00  0.00     0.293 HD
ENDBRANCH  10  35
TORSDOF 9
ENDMDL
MODEL 4
REMARK VINA RESULT:    -6.648      3.093      5.097
REMARK INTER + INTRA:          -9.922
REMARK INTER:                  -9.460
REMARK INTRA:                  -0.462
REMARK UNBOUND:                -0.942
REMARK SMILES O=c1c(-c2ccc(O)cc2)coc2c([C@@H]3O[C@@H](CO)[C@@H](O)[C@H](O)[C@@H]3O)c(O)ccc12
REMARK SMILES IDX 3 1 11 2 12 3 13 4 30 5 2 6 1 7 29 8 28 9 26 10 14 11 4 12
REMARK SMILES IDX 5 13 6 14 7 15 10 16 9 17 8 18 15 20 24 21 16 22 22 23 17 24
REMARK SMILES IDX 20 25 25 26 23 28 18 30 19 31 21 33 27 35
REMARK H PARENT 8 19 25 27 23 29 19 32 21 34 27 36
REMARK Flexibility Score: inf
ROOT
ATOM      1  C   UNL     1     -16.709  29.694 -22.478  1.00  0.00     0.065 A 
ATOM      2  C   UNL     1     -17.451  30.648 -21.769  1.00  0.00     0.208 A 
ATOM      3  O   UNL     1     -18.384  31.374 -22.371  1.00  0.00    -0.463 OA
ATOM      4  C   UNL     1     -18.678  31.254 -23.664  1.00  0.00     0.147 A 
ATOM      5  C   UNL     1     -17.977  30.315 -24.457  1.00  0.00     0.066 A 
ATOM      6  C   UNL     1     -16.987  29.524 -23.847  1.00  0.00     0.200 A 
ATOM      7  O   UNL     1     -16.365  28.653 -24.517  1.00  0.00    -0.288 OA
ATOM      8  C   UNL     1     -18.278  30.199 -25.822  1.00  0.00     0.020 A 
ATOM      9  C   UNL     1     -19.250  31.013 -26.398  1.00  0.00     0.047 A 
ATOM     10  C   UNL     1     -19.947  31.950 -25.626  1.00  0.00     0.125 A 
ATOM     11  C   UNL     1     -19.687  32.064 -24.239  1.00  0.00     0.069 A 
ENDROOT
BRANCH   1  12
ATOM     12  C   UNL     1     -15.668  28.898 -21.782  1.00  0.00    -0.011 A 
ATOM     13  C   UNL     1     -14.518  28.477 -22.472  1.00  0.00     0.013 A 
ATOM     14  C   UNL     1     -13.539  27.719 -21.821  1.00  0.00     0.047 A 
ATOM     15  C   UNL     1     -13.699  27.368 -20.478  1.00  0.00     0.115 A 
ATOM     16  C   UNL     1     -15.826  28.535 -20.432  1.00  0.00     0.013 A 
ATOM     17  C   UNL     1     -14.846  27.776 -19.784  1.00  0.00     0.047 A 
BRANCH  15  18
ATOM     18  O   UNL     1     -12.716  26.612 -19.842  1.00  0.00    -0.508 OA
ATOM     19  H   UNL     1     -12.089  27.025 -19.160  1.00  0.00     0.293 HD
ENDBRANCH  15  18
ENDBRANCH   1  12
BRANCH  11  20
ATOM     20  C   UNL     1     -20.415  33.090 -23.377  1.00  0.00     0.188 C 
ATOM     21  C   UNL     1     -19.793  34.489 -23.573  1.00  0.00     0.179 C 
ATOM     22  O   UNL     1     -21.805  33.087 -23.679  1.00  0.00    -0.362 OA
ATOM     23  C   UNL     1     -20.516  35.495 -22.660  1.00  0.00     0.177 C 
ATOM     24  C   UNL     1     -22.554  33.951 -22.832  1.00  0.00     0.176 C 
ATOM     25  C   UNL     1     -22.037  35.414 -22.900  1.00  0.00     0.177 C 
BRANCH  21  26
ATOM     26  O   UNL     1     -19.906  34.882 -24.919  1.00  0.00    -0.387 OA
ATOM     27  H   UNL     1     -20.774  34.531 -25.251  1.00  0.00     0.211 HD
ENDBRANCH  21  26
BRANCH  23  28
ATOM     28  O   UNL     1     -20.070  36.802 -22.919  1.00  0.00    -0.387 OA
ATOM     29  H   UNL     1     -20.308  37.004 -23.861  1.00  0.00     0.211 HD
ENDBRANCH  23  28
BRANCH  24  30
ATOM     30  C   UNL     1     -22.691  33.373 -21.405  1.00  0.00     0.191 C 
BRANCH  30  31
ATOM     31  O   UNL     1     -23.841  33.884 -20.787  1.00  0.00    -0.394 OA
ATOM     32  H   UNL     1     -24.586  33.282 -21.049  1.00  0.00     0.210 HD
ENDBRANCH  30  31
ENDBRANCH  24  30
BRANCH  25  33
ATOM     33  O   UNL     1     -22.749  36.261 -22.031  1.00  0.00    -0.388 OA
ATOM     34  H   UNL     1     -23.527  35.757 -21.678  1.00  0.00     0.211 HD
ENDBRANCH  25  33
ENDBRANCH  11  20
BRANCH  10  35
ATOM     35  O   UNL     1     -20.895  32.770 -26.241  1.00  0.00    -0.507 OA
ATOM     36  H   UNL     1     -21.803  32.939 -25.825  1.00  0.00     0.293 HD
ENDBRANCH  10  35
TORSDOF 9
ENDMDL
MODEL 5
REMARK VINA RESULT:    -6.629      1.892      8.317
REMARK INTER + INTRA:          -9.897
REMARK INTER:                  -9.083
REMARK INTRA:                  -0.813
REMARK UNBOUND:                -0.942
REMARK SMILES O=c1c(-c2ccc(O)cc2)coc2c([C@@H]3O[C@@H](CO)[C@@H](O)[C@H](O)[C@@H]3O)c(O)ccc12
REMARK SMILES IDX 3 1 11 2 12 3 13 4 30 5 2 6 1 7 29 8 28 9 26 10 14 11 4 12
REMARK SMILES IDX 5 13 6 14 7 15 10 16 9 17 8 18 15 20 24 21 16 22 22 23 17 24
REMARK SMILES IDX 20 25 25 26 23 28 18 30 19 31 21 33 27 35
REMARK H PARENT 8 19 25 27 23 29 19 32 21 34 27 36
REMARK Flexibility Score: inf
ROOT
ATOM      1  C   UNL     1     -17.647  31.815 -23.796  1.00  0.00     0.065 A 
ATOM      2  C   UNL     1     -16.250  31.807 -23.918  1.00  0.00     0.208 A 
ATOM      3  O   UNL     1     -15.586  30.671 -24.088  1.00  0.00    -0.463 OA
ATOM      4  C   UNL     1     -16.181  29.482 -24.155  1.00  0.00     0.147 A 
ATOM      5  C   UNL     1     -17.589  29.397 -24.040  1.00  0.00     0.066 A 
ATOM      6  C   UNL     1     -18.324  30.584 -23.867  1.00  0.00     0.200 A 
ATOM      7  O   UNL     1     -19.584  30.547 -23.795  1.00  0.00    -0.288 OA
ATOM      8  C   UNL     1     -18.214  28.142 -24.097  1.00  0.00     0.020 A 
ATOM      9  C   UNL     1     -17.453  26.986 -24.249  1.00  0.00     0.047 A 
ATOM     10  C   UNL     1     -16.060  27.056 -24.358  1.00  0.00     0.125 A 
ATOM     11  C   UNL     1     -15.406  28.312 -24.339  1.00  0.00     0.069 A 
ENDROOT
BRANCH   1  12
ATOM     12  C   UNL     1     -18.366  33.098 -23.602  1.00  0.00    -0.011 A 
ATOM     13  C   UNL     1     -19.431  33.450 -24.449  1.00  0.00     0.013 A 
ATOM     14  C   UNL     1     -20.105  34.663 -24.274  1.00  0.00     0.047 A 
ATOM     15  C   UNL     1     -19.721  35.540 -23.255  1.00  0.00     0.115 A 
ATOM     16  C   UNL     1     -17.981  33.989 -22.583  1.00  0.00     0.013 A 
ATOM     17  C   UNL     1     -18.657  35.201 -22.411  1.00  0.00     0.047 A 
BRANCH  15  18
ATOM     18  O   UNL     1     -20.402  36.745 -23.092  1.00  0.00    -0.508 OA
ATOM     19  H   UNL     1     -21.372  36.770 -22.801  1.00  0.00     0.293 HD
ENDBRANCH  15  18
ENDBRANCH   1  12
BRANCH  11  20
ATOM     20  C   UNL     1     -13.888  28.417 -24.432  1.00  0.00     0.188 C 
ATOM     21  C   UNL     1     -13.250  28.194 -23.045  1.00  0.00     0.179 C 
ATOM     22  O   UNL     1     -13.390  27.493 -25.392  1.00  0.00    -0.362 OA
ATOM     23  C   UNL     1     -11.723  28.351 -23.160  1.00  0.00     0.177 C 
ATOM     24  C   UNL     1     -11.988  27.618 -25.601  1.00  0.00     0.176 C 
ATOM     25  C   UNL     1     -11.192  27.435 -24.281  1.00  0.00     0.177 C 
BRANCH  21  26
ATOM     26  O   UNL     1     -13.575  26.913 -22.566  1.00  0.00    -0.387 OA
ATOM     27  H   UNL     1     -12.866  26.295 -22.887  1.00  0.00     0.211 HD
ENDBRANCH  21  26
BRANCH  23  28
ATOM     28  O   UNL     1     -11.102  28.014 -21.946  1.00  0.00    -0.387 OA
ATOM     29  H   UNL     1     -11.419  27.105 -21.705  1.00  0.00     0.211 HD
ENDBRANCH  23  28
BRANCH  24  30
ATOM     30  C   UNL     1     -11.641  28.895 -26.401  1.00  0.00     0.191 C 
BRANCH  30  31
ATOM     31  O   UNL     1     -10.353  28.788 -26.943  1.00  0.00    -0.394 OA
ATOM     32  H   UNL     1     -10.006  27.901 -26.661  1.00  0.00     0.210 HD
ENDBRANCH  30  31
ENDBRANCH  24  30
BRANCH  25  33
ATOM     33  O   UNL     1      -9.808  27.601 -24.478  1.00  0.00    -0.388 OA
ATOM     34  H   UNL     1      -9.571  28.533 -24.232  1.00  0.00     0.211 HD
ENDBRANCH  25  33
ENDBRANCH  11  20
BRANCH  10  35
ATOM     35  O   UNL     1     -15.325  25.875 -24.481  1.00  0.00    -0.507 OA
ATOM     36  H   UNL     1     -14.834  25.470 -23.693  1.00  0.00     0.293 HD
ENDBRANCH  10  35
TORSDOF 9
ENDMDL
MODEL 6
REMARK VINA RESULT:    -6.392      2.784      8.246
REMARK INTER + INTRA:          -9.576
REMARK INTER:                  -9.393
REMARK INTRA:                  -0.183
REMARK UNBOUND:                -0.942
REMARK SMILES O=c1c(-c2ccc(O)cc2)coc2c([C@@H]3O[C@@H](CO)[C@@H](O)[C@H](O)[C@@H]3O)c(O)ccc12
REMARK SMILES IDX 3 1 11 2 12 3 13 4 30 5 2 6 1 7 29 8 28 9 26 10 14 11 4 12
REMARK SMILES IDX 5 13 6 14 7 15 10 16 9 17 8 18 15 20 24 21 16 22 22 23 17 24
REMARK SMILES IDX 20 25 25 26 23 28 18 30 19 31 21 33 27 35
REMARK H PARENT 8 19 25 27 23 29 19 32 21 34 27 36
REMARK Flexibility Score: inf
ROOT
ATOM      1  C   UNL     1     -18.129  31.771 -24.026  1.00  0.00     0.065 A 
ATOM      2  C   UNL     1     -17.381  31.202 -22.986  1.00  0.00     0.208 A 
ATOM      3  O   UNL     1     -16.780  30.029 -23.139  1.00  0.00    -0.463 OA
ATOM      4  C   UNL     1     -16.842  29.321 -24.265  1.00  0.00     0.147 A 
ATOM      5  C   UNL     1     -17.577  29.820 -25.366  1.00  0.00     0.066 A 
ATOM      6  C   UNL     1     -18.220  31.065 -25.239  1.00  0.00     0.200 A 
ATOM      7  O   UNL     1     -18.856  31.555 -26.213  1.00  0.00    -0.288 OA
ATOM      8  C   UNL     1     -17.652  29.067 -26.547  1.00  0.00     0.020 A 
ATOM      9  C   UNL     1     -17.020  27.828 -26.631  1.00  0.00     0.047 A 
ATOM     10  C   UNL     1     -16.294  27.321 -25.547  1.00  0.00     0.125 A 
ATOM     11  C   UNL     1     -16.174  28.076 -24.355  1.00  0.00     0.069 A 
ENDROOT
BRANCH   1  12
ATOM     12  C   UNL     1     -18.796  33.082 -23.828  1.00  0.00    -0.011 A 
ATOM     13  C   UNL     1     -18.037  34.225 -23.524  1.00  0.00     0.013 A 
ATOM     14  C   UNL     1     -18.663  35.460 -23.328  1.00  0.00     0.047 A 
ATOM     15  C   UNL     1     -20.053  35.568 -23.427  1.00  0.00     0.115 A 
ATOM     16  C   UNL     1     -20.196  33.196 -23.919  1.00  0.00     0.013 A 
ATOM     17  C   UNL     1     -20.818  34.432 -23.721  1.00  0.00     0.047 A 
BRANCH  15  18
ATOM     18  O   UNL     1     -20.663  36.804 -23.229  1.00  0.00    -0.508 OA
ATOM     19  H   UNL     1     -20.150  37.595 -22.856  1.00  0.00     0.293 HD
ENDBRANCH  15  18
ENDBRANCH   1  12
BRANCH  11  20
ATOM     20  C   UNL     1     -15.408  27.540 -23.150  1.00  0.00     0.188 C 
ATOM     21  C   UNL     1     -13.905  27.862 -23.285  1.00  0.00     0.179 C 
ATOM     22  O   UNL     1     -15.952  28.070 -21.948  1.00  0.00    -0.362 OA
ATOM     23  C   UNL     1     -13.152  27.271 -22.081  1.00  0.00     0.177 C 
ATOM     24  C   UNL     1     -15.347  27.523 -20.782  1.00  0.00     0.176 C 
ATOM     25  C   UNL     1     -13.810  27.750 -20.771  1.00  0.00     0.177 C 
BRANCH  21  26
ATOM     26  O   UNL     1     -13.715  29.254 -23.345  1.00  0.00    -0.387 OA
ATOM     27  H   UNL     1     -12.734  29.412 -23.356  1.00  0.00     0.211 HD
ENDBRANCH  21  26
BRANCH  23  28
ATOM     28  O   UNL     1     -11.805  27.668 -22.100  1.00  0.00    -0.387 OA
ATOM     29  H   UNL     1     -11.776  28.560 -22.535  1.00  0.00     0.211 HD
ENDBRANCH  23  28
BRANCH  24  30
ATOM     30  C   UNL     1     -15.792  26.063 -20.538  1.00  0.00     0.191 C 
BRANCH  30  31
ATOM     31  O   UNL     1     -16.138  25.883 -19.192  1.00  0.00    -0.394 OA
ATOM     32  H   UNL     1     -17.125  25.983 -19.144  1.00  0.00     0.210 HD
ENDBRANCH  30  31
ENDBRANCH  24  30
BRANCH  25  33
ATOM     33  O   UNL     1     -13.205  27.172 -19.641  1.00  0.00    -0.388 OA
ATOM     34  H   UNL     1     -12.221  27.256 -19.740  1.00  0.00     0.211 HD
ENDBRANCH  25  33
ENDBRANCH  11  20
BRANCH  10  35
ATOM     35  O   UNL     1     -15.698  26.064 -25.654  1.00  0.00    -0.507 OA
ATOM     36  H   UNL     1     -14.750  25.952 -25.995  1.00  0.00     0.293 HD
ENDBRANCH  10  35
TORSDOF 9
ENDMDL
MODEL 7
REMARK VINA RESULT:    -6.237      2.755      4.194
REMARK INTER + INTRA:          -9.367
REMARK INTER:                  -9.325
REMARK INTRA:                  -0.042
REMARK UNBOUND:                -0.942
REMARK SMILES O=c1c(-c2ccc(O)cc2)coc2c([C@@H]3O[C@@H](CO)[C@@H](O)[C@H](O)[C@@H]3O)c(O)ccc12
REMARK SMILES IDX 3 1 11 2 12 3 13 4 30 5 2 6 1 7 29 8 28 9 26 10 14 11 4 12
REMARK SMILES IDX 5 13 6 14 7 15 10 16 9 17 8 18 15 20 24 21 16 22 22 23 17 24
REMARK SMILES IDX 20 25 25 26 23 28 18 30 19 31 21 33 27 35
REMARK H PARENT 8 19 25 27 23 29 19 32 21 34 27 36
REMARK Flexibility Score: inf
ROOT
ATOM      1  C   UNL     1     -15.175  28.913 -22.863  1.00  0.00     0.065 A 
ATOM      2  C   UNL     1     -15.734  30.052 -22.267  1.00  0.00     0.208 A 
ATOM      3  O   UNL     1     -16.674  30.755 -22.885  1.00  0.00    -0.463 OA
ATOM      4  C   UNL     1     -17.146  30.439 -24.089  1.00  0.00     0.147 A 
ATOM      5  C   UNL     1     -16.637  29.305 -24.765  1.00  0.00     0.066 A 
ATOM      6  C   UNL     1     -15.644  28.533 -24.133  1.00  0.00     0.200 A 
ATOM      7  O   UNL     1     -15.192  27.496 -24.692  1.00  0.00    -0.288 OA
ATOM      8  C   UNL     1     -17.125  28.980 -26.039  1.00  0.00     0.020 A 
ATOM      9  C   UNL     1     -18.093  29.778 -26.644  1.00  0.00     0.047 A 
ATOM     10  C   UNL     1     -18.601  30.905 -25.988  1.00  0.00     0.125 A 
ATOM     11  C   UNL     1     -18.151  31.236 -24.688  1.00  0.00     0.069 A 
ENDROOT
BRANCH   1  12
ATOM     12  C   UNL     1     -14.121  28.147 -22.152  1.00  0.00    -0.011 A 
ATOM     13  C   UNL     1     -14.422  27.463 -20.962  1.00  0.00     0.013 A 
ATOM     14  C   UNL     1     -13.429  26.747 -20.285  1.00  0.00     0.047 A 
ATOM     15  C   UNL     1     -12.124  26.712 -20.785  1.00  0.00     0.115 A 
ATOM     16  C   UNL     1     -12.803  28.114 -22.645  1.00  0.00     0.013 A 
ATOM     17  C   UNL     1     -11.812  27.398 -21.966  1.00  0.00     0.047 A 
BRANCH  15  18
ATOM     18  O   UNL     1     -11.144  25.995 -20.100  1.00  0.00    -0.508 OA
ATOM     19  H   UNL     1     -11.276  25.704 -19.138  1.00  0.00     0.293 HD
ENDBRANCH  15  18
ENDBRANCH   1  12
BRANCH  11  20
ATOM     20  C   UNL     1     -18.670  32.471 -23.959  1.00  0.00     0.188 C 
ATOM     21  C   UNL     1     -17.496  33.258 -23.340  1.00  0.00     0.179 C 
ATOM     22  O   UNL     1     -19.433  33.280 -24.846  1.00  0.00    -0.362 OA
ATOM     23  C   UNL     1     -18.050  34.473 -22.574  1.00  0.00     0.177 C 
ATOM     24  C   UNL     1     -20.032  34.395 -24.197  1.00  0.00     0.176 C 
ATOM     25  C   UNL     1     -18.973  35.291 -23.499  1.00  0.00     0.177 C 
BRANCH  21  26
ATOM     26  O   UNL     1     -16.613  33.680 -24.350  1.00  0.00    -0.387 OA
ATOM     27  H   UNL     1     -15.699  33.665 -23.960  1.00  0.00     0.211 HD
ENDBRANCH  21  26
BRANCH  23  28
ATOM     28  O   UNL     1     -17.001  35.288 -22.119  1.00  0.00    -0.387 OA
ATOM     29  H   UNL     1     -17.418  36.058 -21.652  1.00  0.00     0.211 HD
ENDBRANCH  23  28
BRANCH  24  30
ATOM     30  C   UNL     1     -21.216  33.966 -23.301  1.00  0.00     0.191 C 
BRANCH  30  31
ATOM     31  O   UNL     1     -22.115  35.030 -23.147  1.00  0.00    -0.394 OA
ATOM     32  H   UNL     1     -21.566  35.823 -22.909  1.00  0.00     0.210 HD
ENDBRANCH  30  31
ENDBRANCH  24  30
BRANCH  25  33
ATOM     33  O   UNL     1     -19.568  36.371 -22.820  1.00  0.00    -0.388 OA
ATOM     34  H   UNL     1     -20.549  36.222 -22.802  1.00  0.00     0.211 HD
ENDBRANCH  25  33
ENDBRANCH  11  20
BRANCH  10  35
ATOM     35  O   UNL     1     -19.550  31.699 -26.635  1.00  0.00    -0.507 OA
ATOM     36  H   UNL     1     -20.519  31.718 -26.340  1.00  0.00     0.293 HD
ENDBRANCH  10  35
TORSDOF 9
ENDMDL
MODEL 8
REMARK VINA RESULT:    -5.994      1.565      7.928
REMARK INTER + INTRA:          -9.039
REMARK INTER:                  -9.117
REMARK INTRA:                   0.079
REMARK UNBOUND:                -0.942
REMARK SMILES O=c1c(-c2ccc(O)cc2)coc2c([C@@H]3O[C@@H](CO)[C@@H](O)[C@H](O)[C@@H]3O)c(O)ccc12
REMARK SMILES IDX 3 1 11 2 12 3 13 4 30 5 2 6 1 7 29 8 28 9 26 10 14 11 4 12
REMARK SMILES IDX 5 13 6 14 7 15 10 16 9 17 8 18 15 20 24 21 16 22 22 23 17 24
REMARK SMILES IDX 20 25 25 26 23 28 18 30 19 31 21 33 27 35
REMARK H PARENT 8 19 25 27 23 29 19 32 21 34 27 36
REMARK Flexibility Score: inf
ROOT
ATOM      1  C   UNL     1     -17.053  31.097 -23.165  1.00  0.00     0.065 A 
ATOM      2  C   UNL     1     -15.905  31.059 -23.969  1.00  0.00     0.208 A 
ATOM      3  O   UNL     1     -14.937  30.182 -23.737  1.00  0.00    -0.463 OA
ATOM      4  C   UNL     1     -14.981  29.294 -22.746  1.00  0.00     0.147 A 
ATOM      5  C   UNL     1     -16.102  29.262 -21.884  1.00  0.00     0.066 A 
ATOM      6  C   UNL     1     -17.150  30.173 -22.108  1.00  0.00     0.200 A 
ATOM      7  O   UNL     1     -18.180  30.150 -21.379  1.00  0.00    -0.288 OA
ATOM      8  C   UNL     1     -16.141  28.335 -20.832  1.00  0.00     0.020 A 
ATOM      9  C   UNL     1     -15.076  27.461 -20.627  1.00  0.00     0.047 A 
ATOM     10  C   UNL     1     -13.959  27.486 -21.470  1.00  0.00     0.125 A 
ATOM     11  C   UNL     1     -13.909  28.388 -22.560  1.00  0.00     0.069 A 
ENDROOT
BRANCH   1  12
ATOM     12  C   UNL     1     -18.119  32.090 -23.442  1.00  0.00    -0.011 A 
ATOM     13  C   UNL     1     -18.213  33.264 -22.675  1.00  0.00     0.013 A 
ATOM     14  C   UNL     1     -19.222  34.198 -22.928  1.00  0.00     0.047 A 
ATOM     15  C   UNL     1     -20.153  33.969 -23.945  1.00  0.00     0.115 A 
ATOM     16  C   UNL     1     -19.064  31.863 -24.460  1.00  0.00     0.013 A 
ATOM     17  C   UNL     1     -20.073  32.799 -24.710  1.00  0.00     0.047 A 
BRANCH  15  18
ATOM     18  O   UNL     1     -21.154  34.908 -24.186  1.00  0.00    -0.508 OA
ATOM     19  H   UNL     1     -21.278  35.327 -25.101  1.00  0.00     0.293 HD
ENDBRANCH  15  18
ENDBRANCH   1  12
BRANCH  11  20
ATOM     20  C   UNL     1     -12.695  28.453 -23.480  1.00  0.00     0.188 C 
ATOM     21  C   UNL     1     -12.551  27.134 -24.268  1.00  0.00     0.179 C 
ATOM     22  O   UNL     1     -12.798  29.574 -24.350  1.00  0.00    -0.362 OA
ATOM     23  C   UNL     1     -11.294  27.210 -25.154  1.00  0.00     0.177 C 
ATOM     24  C   UNL     1     -11.642  29.749 -25.162  1.00  0.00     0.176 C 
ATOM     25  C   UNL     1     -11.344  28.487 -26.016  1.00  0.00     0.177 C 
BRANCH  21  26
ATOM     26  O   UNL     1     -13.693  26.918 -25.058  1.00  0.00    -0.387 OA
ATOM     27  H   UNL     1     -14.447  27.384 -24.611  1.00  0.00     0.211 HD
ENDBRANCH  21  26
BRANCH  23  28
ATOM     28  O   UNL     1     -11.213  26.083 -25.989  1.00  0.00    -0.387 OA
ATOM     29  H   UNL     1     -10.818  25.352 -25.445  1.00  0.00     0.211 HD
ENDBRANCH  23  28
BRANCH  24  30
ATOM     30  C   UNL     1     -10.444  30.281 -24.344  1.00  0.00     0.191 C 
BRANCH  30  31
ATOM     31  O   UNL     1      -9.622  31.076 -25.154  1.00  0.00    -0.394 OA
ATOM     32  H   UNL     1      -9.642  30.663 -26.057  1.00  0.00     0.210 HD
ENDBRANCH  30  31
ENDBRANCH  24  30
BRANCH  25  33
ATOM     33  O   UNL     1     -10.178  28.642 -26.788  1.00  0.00    -0.388 OA
ATOM     34  H   UNL     1     -10.284  28.111 -27.619  1.00  0.00     0.211 HD
ENDBRANCH  25  33
ENDBRANCH  11  20
BRANCH  10  35
ATOM     35  O   UNL     1     -12.897  26.616 -21.219  1.00  0.00    -0.507 OA
ATOM     36  H   UNL     1     -12.885  25.671 -21.583  1.00  0.00     0.293 HD
ENDBRANCH  10  35
TORSDOF 9
ENDMDL
