MODEL 1
REMARK VINA RESULT:    -4.163      0.000      0.000
REMARK INTER + INTRA:          -4.285
REMARK INTER:                  -4.285
REMARK INTRA:                   0.000
REMARK UNBOUND:                 0.000
REMARK SMILES Oc1ccc2[nH]ccc2c1
REMARK SMILES IDX 3 1 4 2 5 3 9 4 8 5 7 6 6 7 10 8 2 9 1 11
REMARK H PARENT 6 10 1 12
REMARK Flexibility Score: inf
ROOT
ATOM      1  C   UNL     1      17.039   8.977 -18.716  1.00  0.00     0.048 A 
ATOM      2  C   UNL     1      18.418   8.745 -18.561  1.00  0.00     0.030 A 
ATOM      3  C   UNL     1      18.917   7.506 -18.959  1.00  0.00     0.046 A 
ATOM      4  C   UNL     1      18.105   6.538 -19.485  1.00  0.00     0.003 A 
ATOM      5  C   UNL     1      18.896   5.447 -19.773  1.00  0.00     0.028 A 
ATOM      6  C   UNL     1      20.182   5.822 -19.396  1.00  0.00     0.083 A 
ATOM      7  N   UNL     1      20.190   7.081 -18.900  1.00  0.00    -0.361 N 
ATOM      8  C   UNL     1      16.735   6.735 -19.651  1.00  0.00     0.056 A 
ATOM      9  C   UNL     1      16.196   7.976 -19.259  1.00  0.00     0.116 A 
ATOM     10  H   UNL     1      21.018   7.609 -18.545  1.00  0.00     0.166 HD
ENDROOT
BRANCH   9  11
ATOM     11  O   UNL     1      14.832   8.207 -19.411  1.00  0.00    -0.508 OA
ATOM     12  H   UNL     1      14.262   7.629 -20.018  1.00  0.00     0.293 HD
ENDBRANCH   9  11
TORSDOF 1
ENDMDL
MODEL 2
REMARK VINA RESULT:    -4.032     14.039     14.141
REMARK INTER + INTRA:          -4.149
REMARK INTER:                  -4.149
REMARK INTRA:                   0.000
REMARK UNBOUND:                 0.000
REMARK SMILES Oc1ccc2[nH]ccc2c1
REMARK SMILES IDX 3 1 4 2 5 3 9 4 8 5 7 6 6 7 10 8 2 9 1 11
REMARK H PARENT 6 10 1 12
REMARK Flexibility Score: inf
ROOT
ATOM      1  C   UNL     1      20.278  15.424 -30.431  1.00  0.00     0.048 A 
ATOM      2  C   UNL     1      19.585  14.403 -31.107  1.00  0.00     0.030 A 
ATOM      3  C   UNL     1      20.310  13.283 -31.510  1.00  0.00     0.046 A 
ATOM      4  C   UNL     1      21.652  13.167 -31.263  1.00  0.00     0.003 A 
ATOM      5  C   UNL     1      22.064  11.959 -31.782  1.00  0.00     0.028 A 
ATOM      6  C   UNL     1      20.919  11.390 -32.332  1.00  0.00     0.083 A 
ATOM      7  N   UNL     1      19.850  12.204 -32.163  1.00  0.00    -0.361 N 
ATOM      8  C   UNL     1      22.367  14.160 -30.596  1.00  0.00     0.056 A 
ATOM      9  C   UNL     1      21.666  15.306 -30.174  1.00  0.00     0.116 A 
ATOM     10  H   UNL     1      18.871  12.024 -32.477  1.00  0.00     0.166 HD
ENDROOT
BRANCH   9  11
ATOM     11  O   UNL     1      22.349  16.318 -29.505  1.00  0.00    -0.508 OA
ATOM     12  H   UNL     1      22.718  16.179 -28.571  1.00  0.00     0.293 HD
ENDBRANCH   9  11
TORSDOF 1
ENDMDL
MODEL 3
REMARK VINA RESULT:    -3.999     13.919     14.210
REMARK INTER + INTRA:          -4.115
REMARK INTER:                  -4.115
REMARK INTRA:                   0.000
REMARK UNBOUND:                 0.000
REMARK SMILES Oc1ccc2[nH]ccc2c1
REMARK SMILES IDX 3 1 4 2 5 3 9 4 8 5 7 6 6 7 10 8 2 9 1 11
REMARK H PARENT 6 10 1 12
REMARK Flexibility Score: inf
ROOT
ATOM      1  C   UNL     1      22.058  11.877 -31.702  1.00  0.00     0.048 A 
ATOM      2  C   UNL     1      22.751  12.800 -30.898  1.00  0.00     0.030 A 
ATOM      3  C   UNL     1      22.101  13.986 -30.561  1.00  0.00     0.046 A 
ATOM      4  C   UNL     1      20.829  14.256 -30.990  1.00  0.00     0.003 A 
ATOM      5  C   UNL     1      20.480  15.492 -30.490  1.00  0.00     0.028 A 
ATOM      6  C   UNL     1      21.588  15.918 -29.764  1.00  0.00     0.083 A 
ATOM      7  N   UNL     1      22.576  14.994 -29.811  1.00  0.00    -0.361 N 
ATOM      8  C   UNL     1      20.115  13.364 -31.787  1.00  0.00     0.056 A 
ATOM      9  C   UNL     1      20.742  12.156 -32.147  1.00  0.00     0.116 A 
ATOM     10  H   UNL     1      23.513  15.056 -29.355  1.00  0.00     0.166 HD
ENDROOT
BRANCH   9  11
ATOM     11  O   UNL     1      20.057  11.241 -32.942  1.00  0.00    -0.508 OA
ATOM     12  H   UNL     1      20.369  10.282 -33.034  1.00  0.00     0.293 HD
ENDBRANCH   9  11
TORSDOF 1
ENDMDL
MODEL 4
REMARK VINA RESULT:    -3.896     13.944     14.129
REMARK INTER + INTRA:          -4.010
REMARK INTER:                  -4.010
REMARK INTRA:                   0.000
REMARK UNBOUND:                 0.000
REMARK SMILES Oc1ccc2[nH]ccc2c1
REMARK SMILES IDX 3 1 4 2 5 3 9 4 8 5 7 6 6 7 10 8 2 9 1 11
REMARK H PARENT 6 10 1 12
REMARK Flexibility Score: inf
ROOT
ATOM      1  C   UNL     1      21.557  14.796 -30.978  1.00  0.00     0.048 A 
ATOM      2  C   UNL     1      20.156  14.766 -31.096  1.00  0.00     0.030 A 
ATOM      3  C   UNL     1      19.551  13.539 -31.360  1.00  0.00     0.046 A 
ATOM      4  C   UNL     1      20.284  12.391 -31.501  1.00  0.00     0.003 A 
ATOM      5  C   UNL     1      19.399  11.365 -31.752  1.00  0.00     0.028 A 
ATOM      6  C   UNL     1      18.142  11.960 -31.749  1.00  0.00     0.083 A 
ATOM      7  N   UNL     1      18.240  13.289 -31.509  1.00  0.00    -0.361 N 
ATOM      8  C   UNL     1      21.673  12.385 -31.391  1.00  0.00     0.056 A 
ATOM      9  C   UNL     1      22.318  13.609 -31.125  1.00  0.00     0.116 A 
ATOM     10  H   UNL     1      17.455  13.974 -31.452  1.00  0.00     0.166 HD
ENDROOT
BRANCH   9  11
ATOM     11  O   UNL     1      23.704  13.640 -31.007  1.00  0.00    -0.508 OA
ATOM     12  H   UNL     1      24.157  13.774 -30.111  1.00  0.00     0.293 HD
ENDBRANCH   9  11
TORSDOF 1
ENDMDL
MODEL 5
REMARK VINA RESULT:    -3.879      1.575      2.048
REMARK INTER + INTRA:          -3.992
REMARK INTER:                  -3.992
REMARK INTRA:                   0.000
REMARK UNBOUND:                 0.000
REMARK SMILES Oc1ccc2[nH]ccc2c1
REMARK SMILES IDX 3 1 4 2 5 3 9 4 8 5 7 6 6 7 10 8 2 9 1 11
REMARK H PARENT 6 10 1 12
REMARK Flexibility Score: inf
ROOT
ATOM      1  C   UNL     1      16.481   7.370 -19.250  1.00  0.00     0.048 A 
ATOM      2  C   UNL     1      17.357   8.336 -18.720  1.00  0.00     0.030 A 
ATOM      3  C   UNL     1      18.725   8.147 -18.911  1.00  0.00     0.046 A 
ATOM      4  C   UNL     1      19.214   7.064 -19.590  1.00  0.00     0.003 A 
ATOM      5  C   UNL     1      20.588   7.172 -19.603  1.00  0.00     0.028 A 
ATOM      6  C   UNL     1      20.867   8.347 -18.913  1.00  0.00     0.083 A 
ATOM      7  N   UNL     1      19.725   8.940 -18.492  1.00  0.00    -0.361 N 
ATOM      8  C   UNL     1      18.375   6.090 -20.127  1.00  0.00     0.056 A 
ATOM      9  C   UNL     1      16.986   6.248 -19.953  1.00  0.00     0.116 A 
ATOM     10  H   UNL     1      19.643   9.830 -17.952  1.00  0.00     0.166 HD
ENDROOT
BRANCH   9  11
ATOM     11  O   UNL     1      16.119   5.294 -20.477  1.00  0.00    -0.508 OA
ATOM     12  H   UNL     1      15.901   5.263 -21.467  1.00  0.00     0.293 HD
ENDBRANCH   9  11
TORSDOF 1
ENDMDL
MODEL 6
REMARK VINA RESULT:    -3.877      2.602      4.076
REMARK INTER + INTRA:          -3.990
REMARK INTER:                  -3.990
REMARK INTRA:                   0.000
REMARK UNBOUND:                 0.000
REMARK SMILES Oc1ccc2[nH]ccc2c1
REMARK SMILES IDX 3 1 4 2 5 3 9 4 8 5 7 6 6 7 10 8 2 9 1 11
REMARK H PARENT 6 10 1 12
REMARK Flexibility Score: inf
ROOT
ATOM      1  C   UNL     1      18.772   5.685 -19.805  1.00  0.00     0.048 A 
ATOM      2  C   UNL     1      17.435   5.789 -20.230  1.00  0.00     0.030 A 
ATOM      3  C   UNL     1      16.749   6.966 -19.934  1.00  0.00     0.046 A 
ATOM      4  C   UNL     1      17.345   7.994 -19.254  1.00  0.00     0.003 A 
ATOM      5  C   UNL     1      16.411   8.999 -19.125  1.00  0.00     0.028 A 
ATOM      6  C   UNL     1      15.266   8.514 -19.751  1.00  0.00     0.083 A 
ATOM      7  N   UNL     1      15.479   7.272 -20.244  1.00  0.00    -0.361 N 
ATOM      8  C   UNL     1      18.667   7.922 -18.819  1.00  0.00     0.056 A 
ATOM      9  C   UNL     1      19.390   6.747 -19.100  1.00  0.00     0.116 A 
ATOM     10  H   UNL     1      14.793   6.677 -20.759  1.00  0.00     0.166 HD
ENDROOT
BRANCH   9  11
ATOM     11  O   UNL     1      20.713   6.642 -18.681  1.00  0.00    -0.508 OA
ATOM     12  H   UNL     1      20.951   6.273 -17.768  1.00  0.00     0.293 HD
ENDBRANCH   9  11
TORSDOF 1
ENDMDL
MODEL 7
REMARK VINA RESULT:    -3.870     13.568     13.874
REMARK INTER + INTRA:          -3.983
REMARK INTER:                  -3.983
REMARK INTRA:                   0.000
REMARK UNBOUND:                 0.000
REMARK SMILES Oc1ccc2[nH]ccc2c1
REMARK SMILES IDX 3 1 4 2 5 3 9 4 8 5 7 6 6 7 10 8 2 9 1 11
REMARK H PARENT 6 10 1 12
REMARK Flexibility Score: inf
ROOT
ATOM      1  C   UNL     1      21.087  13.263 -31.830  1.00  0.00     0.048 A 
ATOM      2  C   UNL     1      22.306  13.093 -31.148  1.00  0.00     0.030 A 
ATOM      3  C   UNL     1      22.584  13.955 -30.088  1.00  0.00     0.046 A 
ATOM      4  C   UNL     1      21.708  14.938 -29.712  1.00  0.00     0.003 A 
ATOM      5  C   UNL     1      22.272  15.606 -28.646  1.00  0.00     0.028 A 
ATOM      6  C   UNL     1      23.492  14.976 -28.426  1.00  0.00     0.083 A 
ATOM      7  N   UNL     1      23.678  13.967 -29.310  1.00  0.00    -0.361 N 
ATOM      8  C   UNL     1      20.494  15.134 -30.366  1.00  0.00     0.056 A 
ATOM      9  C   UNL     1      20.181  14.281 -31.442  1.00  0.00     0.116 A 
ATOM     10  H   UNL     1      24.504  13.332 -29.370  1.00  0.00     0.166 HD
ENDROOT
BRANCH   9  11
ATOM     11  O   UNL     1      18.975  14.447 -32.118  1.00  0.00    -0.508 OA
ATOM     12  H   UNL     1      18.822  15.230 -32.743  1.00  0.00     0.293 HD
ENDBRANCH   9  11
TORSDOF 1
ENDMDL
MODEL 8
REMARK VINA RESULT:    -3.832      2.521      3.763
REMARK INTER + INTRA:          -3.944
REMARK INTER:                  -3.944
REMARK INTRA:                   0.000
REMARK UNBOUND:                 0.000
REMARK SMILES Oc1ccc2[nH]ccc2c1
REMARK SMILES IDX 3 1 4 2 5 3 9 4 8 5 7 6 6 7 10 8 2 9 1 11
REMARK H PARENT 6 10 1 12
REMARK Flexibility Score: inf
ROOT
ATOM      1  C   UNL     1      18.357   6.573 -18.963  1.00  0.00     0.048 A 
ATOM      2  C   UNL     1      17.671   5.783 -19.903  1.00  0.00     0.030 A 
ATOM      3  C   UNL     1      16.617   6.370 -20.601  1.00  0.00     0.046 A 
ATOM      4  C   UNL     1      16.252   7.673 -20.391  1.00  0.00     0.003 A 
ATOM      5  C   UNL     1      15.192   7.944 -21.227  1.00  0.00     0.028 A 
ATOM      6  C   UNL     1      14.963   6.760 -21.920  1.00  0.00     0.083 A 
ATOM      7  N   UNL     1      15.837   5.801 -21.534  1.00  0.00    -0.361 N 
ATOM      8  C   UNL     1      16.910   8.483 -19.467  1.00  0.00     0.056 A 
ATOM      9  C   UNL     1      17.979   7.921 -18.743  1.00  0.00     0.116 A 
ATOM     10  H   UNL     1      15.891   4.822 -21.892  1.00  0.00     0.166 HD
ENDROOT
BRANCH   9  11
ATOM     11  O   UNL     1      18.659   8.702 -17.812  1.00  0.00    -0.508 OA
ATOM     12  H   UNL     1      18.353   8.765 -16.849  1.00  0.00     0.293 HD
ENDBRANCH   9  11
TORSDOF 1
ENDMDL
MODEL 9
REMARK VINA RESULT:    -3.788     13.682     13.846
REMARK INTER + INTRA:          -3.898
REMARK INTER:                  -3.898
REMARK INTRA:                   0.000
REMARK UNBOUND:                 0.000
REMARK SMILES Oc1ccc2[nH]ccc2c1
REMARK SMILES IDX 3 1 4 2 5 3 9 4 8 5 7 6 6 7 10 8 2 9 1 11
REMARK H PARENT 6 10 1 12
REMARK Flexibility Score: inf
ROOT
ATOM      1  C   UNL     1      22.327  15.317 -29.105  1.00  0.00     0.048 A 
ATOM      2  C   UNL     1      22.923  14.053 -29.264  1.00  0.00     0.030 A 
ATOM      3  C   UNL     1      22.476  13.250 -30.312  1.00  0.00     0.046 A 
ATOM      4  C   UNL     1      21.492  13.666 -31.168  1.00  0.00     0.003 A 
ATOM      5  C   UNL     1      21.285  12.655 -32.081  1.00  0.00     0.028 A 
ATOM      6  C   UNL     1      22.179  11.652 -31.722  1.00  0.00     0.083 A 
ATOM      7  N   UNL     1      22.905  12.021 -30.640  1.00  0.00    -0.361 N 
ATOM      8  C   UNL     1      20.880  14.912 -31.038  1.00  0.00     0.056 A 
ATOM      9  C   UNL     1      21.307  15.749 -29.989  1.00  0.00     0.116 A 
ATOM     10  H   UNL     1      23.646  11.461 -30.163  1.00  0.00     0.166 HD
ENDROOT
BRANCH   9  11
ATOM     11  O   UNL     1      20.718  17.000 -29.831  1.00  0.00    -0.508 OA
ATOM     12  H   UNL     1      20.509  17.374 -28.913  1.00  0.00     0.293 HD
ENDBRANCH   9  11
TORSDOF 1
ENDMDL
