MODEL 1
REMARK VINA RESULT:    -3.550      0.000      0.000
REMARK INTER + INTRA:          -6.394
REMARK INTER:                  -5.418
REMARK INTRA:                  -0.976
REMARK UNBOUND:                -0.976
REMARK SMILES O=C([O-])CCCCCCCCC(=O)[O-]
REMARK SMILES IDX 7 1 6 2 5 3 4 4 2 5 1 6 3 7 8 8 9 9 10 10 11 11 12 12 13 13
REMARK SMILES IDX 14 14
REMARK H PARENT
REMARK Flexibility Score: inf
ROOT
ATOM      1  C   UNL     1     -46.189 -51.865  38.863  1.00  0.00     0.000 C 
ENDROOT
BRANCH   1   2
ATOM      2  C   UNL     1     -46.558 -50.669  39.753  1.00  0.00     0.000 C 
BRANCH   2   3
ATOM      3  C   UNL     1     -46.739 -51.108  41.213  1.00  0.00     0.006 C 
BRANCH   3   4
ATOM      4  C   UNL     1     -48.217 -51.172  41.623  1.00  0.00     0.053 C 
BRANCH   4   5
ATOM      5  C   UNL     1     -48.711 -52.584  41.703  1.00  0.00     0.041 C 
ATOM      6  O   UNL     1     -49.679 -52.958  40.991  1.00  0.00    -0.550 OA
ATOM      7  O   UNL     1     -48.079 -53.496  42.539  1.00  0.00    -0.550 OA
ENDBRANCH   4   5
ENDBRANCH   3   4
ENDBRANCH   2   3
ENDBRANCH   1   2
BRANCH   1   8
ATOM      8  C   UNL     1     -47.303 -52.229  37.867  1.00  0.00     0.000 C 
BRANCH   8   9
ATOM      9  C   UNL     1     -47.854 -53.645  38.086  1.00  0.00     0.000 C 
BRANCH   9  10
ATOM     10  C   UNL     1     -46.947 -54.448  39.026  1.00  0.00     0.006 C 
BRANCH  10  11
ATOM     11  C   UNL     1     -47.694 -55.645  39.622  1.00  0.00     0.053 C 
BRANCH  11  12
ATOM     12  C   UNL     1     -47.470 -56.869  38.791  1.00  0.00     0.041 C 
ATOM     13  O   UNL     1     -48.446 -57.575  38.427  1.00  0.00    -0.550 OA
ATOM     14  O   UNL     1     -46.178 -57.258  38.461  1.00  0.00    -0.550 OA
ENDBRANCH  11  12
ENDBRANCH  10  11
ENDBRANCH   9  10
ENDBRANCH   8   9
ENDBRANCH   1   8
TORSDOF 9
ENDMDL
MODEL 2
REMARK VINA RESULT:    -3.524      5.389      6.728
REMARK INTER + INTRA:          -6.354
REMARK INTER:                  -5.837
REMARK INTRA:                  -0.517
REMARK UNBOUND:                -0.976
REMARK SMILES O=C([O-])CCCCCCCCC(=O)[O-]
REMARK SMILES IDX 7 1 6 2 5 3 4 4 2 5 1 6 3 7 8 8 9 9 10 10 11 11 12 12 13 13
REMARK SMILES IDX 14 14
REMARK H PARENT
REMARK Flexibility Score: inf
ROOT
ATOM      1  C   UNL     1     -43.509 -48.708  37.927  1.00  0.00     0.000 C 
ENDROOT
BRANCH   1   2
ATOM      2  C   UNL     1     -43.890 -47.973  39.220  1.00  0.00     0.000 C 
BRANCH   2   3
ATOM      3  C   UNL     1     -42.692 -47.192  39.781  1.00  0.00     0.006 C 
BRANCH   3   4
ATOM      4  C   UNL     1     -43.109 -45.847  40.392  1.00  0.00     0.053 C 
BRANCH   4   5
ATOM      5  C   UNL     1     -42.392 -45.575  41.679  1.00  0.00     0.041 C 
ATOM      6  O   UNL     1     -41.846 -44.458  41.876  1.00  0.00    -0.550 OA
ATOM      7  O   UNL     1     -42.358 -46.543  42.675  1.00  0.00    -0.550 OA
ENDBRANCH   4   5
ENDBRANCH   3   4
ENDBRANCH   2   3
ENDBRANCH   1   2
BRANCH   1   8
ATOM      8  C   UNL     1     -44.686 -48.834  36.947  1.00  0.00     0.000 C 
BRANCH   8   9
ATOM      9  C   UNL     1     -46.005 -48.311  37.535  1.00  0.00     0.000 C 
BRANCH   9  10
ATOM     10  C   UNL     1     -47.138 -49.323  37.329  1.00  0.00     0.006 C 
BRANCH  10  11
ATOM     11  C   UNL     1     -46.586 -50.745  37.186  1.00  0.00     0.053 C 
BRANCH  11  12
ATOM     12  C   UNL     1     -46.987 -51.583  38.358  1.00  0.00     0.041 C 
ATOM     13  O   UNL     1     -46.751 -51.188  39.530  1.00  0.00    -0.550 OA
ATOM     14  O   UNL     1     -47.577 -52.825  38.156  1.00  0.00    -0.550 OA
ENDBRANCH  11  12
ENDBRANCH  10  11
ENDBRANCH   9  10
ENDBRANCH   8   9
ENDBRANCH   1   8
TORSDOF 9
ENDMDL
MODEL 3
REMARK VINA RESULT:    -3.513      3.210      5.471
REMARK INTER + INTRA:          -6.336
REMARK INTER:                  -5.873
REMARK INTRA:                  -0.463
REMARK UNBOUND:                -0.976
REMARK SMILES O=C([O-])CCCCCCCCC(=O)[O-]
REMARK SMILES IDX 7 1 6 2 5 3 4 4 2 5 1 6 3 7 8 8 9 9 10 10 11 11 12 12 13 13
REMARK SMILES IDX 14 14
REMARK H PARENT
REMARK Flexibility Score: inf
ROOT
ATOM      1  C   UNL     1     -47.013 -52.199  38.592  1.00  0.00     0.000 C 
ENDROOT
BRANCH   1   2
ATOM      2  C   UNL     1     -48.071 -53.299  38.761  1.00  0.00     0.000 C 
BRANCH   2   3
ATOM      3  C   UNL     1     -48.064 -53.852  40.193  1.00  0.00     0.006 C 
BRANCH   3   4
ATOM      4  C   UNL     1     -49.168 -53.231  41.062  1.00  0.00     0.053 C 
BRANCH   4   5
ATOM      5  C   UNL     1     -48.617 -52.230  42.031  1.00  0.00     0.041 C 
ATOM      6  O   UNL     1     -48.235 -52.598  43.173  1.00  0.00    -0.550 OA
ATOM      7  O   UNL     1     -48.492 -50.898  41.659  1.00  0.00    -0.550 OA
ENDBRANCH   4   5
ENDBRANCH   3   4
ENDBRANCH   2   3
ENDBRANCH   1   2
BRANCH   1   8
ATOM      8  C   UNL     1     -46.974 -51.628  37.165  1.00  0.00     0.000 C 
BRANCH   8   9
ATOM      9  C   UNL     1     -46.977 -50.092  37.142  1.00  0.00     0.000 C 
BRANCH   9  10
ATOM     10  C   UNL     1     -45.547 -49.540  37.166  1.00  0.00     0.006 C 
BRANCH  10  11
ATOM     11  C   UNL     1     -45.492 -48.186  37.881  1.00  0.00     0.053 C 
BRANCH  11  12
ATOM     12  C   UNL     1     -44.800 -48.318  39.200  1.00  0.00     0.041 C 
ATOM     13  O   UNL     1     -44.726 -49.439  39.768  1.00  0.00    -0.550 OA
ATOM     14  O   UNL     1     -44.280 -47.193  39.828  1.00  0.00    -0.550 OA
ENDBRANCH  11  12
ENDBRANCH  10  11
ENDBRANCH   9  10
ENDBRANCH   8   9
ENDBRANCH   1   8
TORSDOF 9
ENDMDL
MODEL 4
REMARK VINA RESULT:    -3.493      3.333      5.111
REMARK INTER + INTRA:          -6.307
REMARK INTER:                  -5.745
REMARK INTRA:                  -0.562
REMARK UNBOUND:                -0.976
REMARK SMILES O=C([O-])CCCCCCCCC(=O)[O-]
REMARK SMILES IDX 7 1 6 2 5 3 4 4 2 5 1 6 3 7 8 8 9 9 10 10 11 11 12 12 13 13
REMARK SMILES IDX 14 14
REMARK H PARENT
REMARK Flexibility Score: inf
ROOT
ATOM      1  C   UNL     1     -46.657 -52.703  38.072  1.00  0.00     0.000 C 
ENDROOT
BRANCH   1   2
ATOM      2  C   UNL     1     -46.804 -51.211  38.403  1.00  0.00     0.000 C 
BRANCH   2   3
ATOM      3  C   UNL     1     -46.863 -50.368  37.122  1.00  0.00     0.006 C 
BRANCH   3   4
ATOM      4  C   UNL     1     -46.732 -48.865  37.407  1.00  0.00     0.053 C 
BRANCH   4   5
ATOM      5  C   UNL     1     -45.304 -48.462  37.620  1.00  0.00     0.041 C 
ATOM      6  O   UNL     1     -44.458 -48.620  36.701  1.00  0.00    -0.550 OA
ATOM      7  O   UNL     1     -44.917 -47.879  38.820  1.00  0.00    -0.550 OA
ENDBRANCH   4   5
ENDBRANCH   3   4
ENDBRANCH   2   3
ENDBRANCH   1   2
BRANCH   1   8
ATOM      8  C   UNL     1     -47.967 -53.484  38.258  1.00  0.00     0.000 C 
BRANCH   8   9
ATOM      9  C   UNL     1     -47.827 -54.650  39.249  1.00  0.00     0.000 C 
BRANCH   9  10
ATOM     10  C   UNL     1     -47.867 -54.147  40.697  1.00  0.00     0.006 C 
BRANCH  10  11
ATOM     11  C   UNL     1     -49.059 -53.212  40.922  1.00  0.00     0.053 C 
BRANCH  11  12
ATOM     12  C   UNL     1     -48.727 -52.177  41.950  1.00  0.00     0.041 C 
ATOM     13  O   UNL     1     -48.890 -50.955  41.694  1.00  0.00    -0.550 OA
ATOM     14  O   UNL     1     -48.189 -52.559  43.172  1.00  0.00    -0.550 OA
ENDBRANCH  11  12
ENDBRANCH  10  11
ENDBRANCH   9  10
ENDBRANCH   8   9
ENDBRANCH   1   8
TORSDOF 9
ENDMDL
MODEL 5
REMARK VINA RESULT:    -3.469      3.013      5.485
REMARK INTER + INTRA:          -6.270
REMARK INTER:                  -5.572
REMARK INTRA:                  -0.698
REMARK UNBOUND:                -0.976
REMARK SMILES O=C([O-])CCCCCCCCC(=O)[O-]
REMARK SMILES IDX 7 1 6 2 5 3 4 4 2 5 1 6 3 7 8 8 9 9 10 10 11 11 12 12 13 13
REMARK SMILES IDX 14 14
REMARK H PARENT
REMARK Flexibility Score: inf
ROOT
ATOM      1  C   UNL     1     -48.006 -50.989  41.487  1.00  0.00     0.000 C 
ENDROOT
BRANCH   1   2
ATOM      2  C   UNL     1     -48.647 -52.294  41.980  1.00  0.00     0.000 C 
BRANCH   2   3
ATOM      3  C   UNL     1     -49.058 -53.184  40.797  1.00  0.00     0.006 C 
BRANCH   3   4
ATOM      4  C   UNL     1     -47.993 -54.238  40.464  1.00  0.00     0.053 C 
BRANCH   4   5
ATOM      5  C   UNL     1     -47.768 -54.354  38.988  1.00  0.00     0.041 C 
ATOM      6  O   UNL     1     -48.368 -53.584  38.193  1.00  0.00    -0.550 OA
ATOM      7  O   UNL     1     -46.870 -55.291  38.493  1.00  0.00    -0.550 OA
ENDBRANCH   4   5
ENDBRANCH   3   4
ENDBRANCH   2   3
ENDBRANCH   1   2
BRANCH   1   8
ATOM      8  C   UNL     1     -46.471 -51.060  41.446  1.00  0.00     0.000 C 
BRANCH   8   9
ATOM      9  C   UNL     1     -45.888 -50.518  40.132  1.00  0.00     0.000 C 
BRANCH   9  10
ATOM     10  C   UNL     1     -46.868 -50.724  38.971  1.00  0.00     0.006 C 
BRANCH  10  11
ATOM     11  C   UNL     1     -46.258 -50.252  37.647  1.00  0.00     0.053 C 
BRANCH  11  12
ATOM     12  C   UNL     1     -46.483 -48.785  37.459  1.00  0.00     0.041 C 
ATOM     13  O   UNL     1     -45.546 -47.970  37.663  1.00  0.00    -0.550 OA
ATOM     14  O   UNL     1     -47.742 -48.315  37.107  1.00  0.00    -0.550 OA
ENDBRANCH  11  12
ENDBRANCH  10  11
ENDBRANCH   9  10
ENDBRANCH   8   9
ENDBRANCH   1   8
TORSDOF 9
ENDMDL
MODEL 6
REMARK VINA RESULT:    -3.467      6.984      9.680
REMARK INTER + INTRA:          -6.266
REMARK INTER:                  -5.858
REMARK INTRA:                  -0.408
REMARK UNBOUND:                -0.976
REMARK SMILES O=C([O-])CCCCCCCCC(=O)[O-]
REMARK SMILES IDX 7 1 6 2 5 3 4 4 2 5 1 6 3 7 8 8 9 9 10 10 11 11 12 12 13 13
REMARK SMILES IDX 14 14
REMARK H PARENT
REMARK Flexibility Score: inf
ROOT
ATOM      1  C   UNL     1     -43.732 -47.733  39.859  1.00  0.00     0.000 C 
ENDROOT
BRANCH   1   2
ATOM      2  C   UNL     1     -44.633 -48.789  39.202  1.00  0.00     0.000 C 
BRANCH   2   3
ATOM      3  C   UNL     1     -45.128 -48.311  37.829  1.00  0.00     0.006 C 
BRANCH   3   4
ATOM      4  C   UNL     1     -46.471 -48.945  37.441  1.00  0.00     0.053 C 
BRANCH   4   5
ATOM      5  C   UNL     1     -46.306 -50.364  36.989  1.00  0.00     0.041 C 
ATOM      6  O   UNL     1     -47.210 -51.210  37.216  1.00  0.00    -0.550 OA
ATOM      7  O   UNL     1     -45.169 -50.742  36.285  1.00  0.00    -0.550 OA
ENDBRANCH   4   5
ENDBRANCH   3   4
ENDBRANCH   2   3
ENDBRANCH   1   2
BRANCH   1   8
ATOM      8  C   UNL     1     -44.466 -46.408  40.121  1.00  0.00     0.000 C 
BRANCH   8   9
ATOM      9  C   UNL     1     -43.518 -45.282  40.561  1.00  0.00     0.000 C 
BRANCH   9  10
ATOM     10  C   UNL     1     -42.676 -45.714  41.767  1.00  0.00     0.006 C 
BRANCH  10  11
ATOM     11  C   UNL     1     -41.192 -45.407  41.541  1.00  0.00     0.053 C 
BRANCH  11  12
ATOM     12  C   UNL     1     -40.941 -43.935  41.636  1.00  0.00     0.041 C 
ATOM     13  O   UNL     1     -40.914 -43.369  42.760  1.00  0.00    -0.550 OA
ATOM     14  O   UNL     1     -40.787 -43.180  40.480  1.00  0.00    -0.550 OA
ENDBRANCH  11  12
ENDBRANCH  10  11
ENDBRANCH   9  10
ENDBRANCH   8   9
ENDBRANCH   1   8
TORSDOF 9
ENDMDL
MODEL 7
REMARK VINA RESULT:    -3.451      7.365      8.666
REMARK INTER + INTRA:          -6.242
REMARK INTER:                  -5.806
REMARK INTRA:                  -0.436
REMARK UNBOUND:                -0.976
REMARK SMILES O=C([O-])CCCCCCCCC(=O)[O-]
REMARK SMILES IDX 7 1 6 2 5 3 4 4 2 5 1 6 3 7 8 8 9 9 10 10 11 11 12 12 13 13
REMARK SMILES IDX 14 14
REMARK H PARENT
REMARK Flexibility Score: inf
ROOT
ATOM      1  C   UNL     1     -42.602 -47.350  39.598  1.00  0.00     0.000 C 
ENDROOT
BRANCH   1   2
ATOM      2  C   UNL     1     -43.554 -46.343  40.259  1.00  0.00     0.000 C 
BRANCH   2   3
ATOM      3  C   UNL     1     -42.854 -44.996  40.489  1.00  0.00     0.006 C 
BRANCH   3   4
ATOM      4  C   UNL     1     -42.013 -44.989  41.773  1.00  0.00     0.053 C 
BRANCH   4   5
ATOM      5  C   UNL     1     -41.101 -43.802  41.835  1.00  0.00     0.041 C 
ATOM      6  O   UNL     1     -40.843 -43.147  40.792  1.00  0.00    -0.550 OA
ATOM      7  O   UNL     1     -40.564 -43.400  43.052  1.00  0.00    -0.550 OA
ENDBRANCH   4   5
ENDBRANCH   3   4
ENDBRANCH   2   3
ENDBRANCH   1   2
BRANCH   1   8
ATOM      8  C   UNL     1     -43.340 -48.559  39.001  1.00  0.00     0.000 C 
BRANCH   8   9
ATOM      9  C   UNL     1     -44.804 -48.250  38.657  1.00  0.00     0.000 C 
BRANCH   9  10
ATOM     10  C   UNL     1     -45.153 -48.742  37.247  1.00  0.00     0.006 C 
BRANCH  10  11
ATOM     11  C   UNL     1     -43.903 -48.812  36.364  1.00  0.00     0.053 C 
BRANCH  11  12
ATOM     12  C   UNL     1     -43.913 -50.061  35.540  1.00  0.00     0.041 C 
ATOM     13  O   UNL     1     -43.605 -50.017  34.320  1.00  0.00    -0.550 OA
ATOM     14  O   UNL     1     -44.310 -51.265  36.108  1.00  0.00    -0.550 OA
ENDBRANCH  11  12
ENDBRANCH  10  11
ENDBRANCH   9  10
ENDBRANCH   8   9
ENDBRANCH   1   8
TORSDOF 9
ENDMDL
MODEL 8
REMARK VINA RESULT:    -3.419      4.296      6.725
REMARK INTER + INTRA:          -6.193
REMARK INTER:                  -5.668
REMARK INTRA:                  -0.526
REMARK UNBOUND:                -0.976
REMARK SMILES O=C([O-])CCCCCCCCC(=O)[O-]
REMARK SMILES IDX 7 1 6 2 5 3 4 4 2 5 1 6 3 7 8 8 9 9 10 10 11 11 12 12 13 13
REMARK SMILES IDX 14 14
REMARK H PARENT
REMARK Flexibility Score: inf
ROOT
ATOM      1  C   UNL     1     -47.149 -49.654  37.243  1.00  0.00     0.000 C 
ENDROOT
BRANCH   1   2
ATOM      2  C   UNL     1     -46.540 -51.048  37.449  1.00  0.00     0.000 C 
BRANCH   2   3
ATOM      3  C   UNL     1     -46.911 -51.610  38.829  1.00  0.00     0.006 C 
BRANCH   3   4
ATOM      4  C   UNL     1     -47.704 -52.921  38.730  1.00  0.00     0.053 C 
BRANCH   4   5
ATOM      5  C   UNL     1     -48.116 -53.426  40.079  1.00  0.00     0.041 C 
ATOM      6  O   UNL     1     -47.451 -54.332  40.646  1.00  0.00    -0.550 OA
ATOM      7  O   UNL     1     -49.213 -52.870  40.725  1.00  0.00    -0.550 OA
ENDBRANCH   4   5
ENDBRANCH   3   4
ENDBRANCH   2   3
ENDBRANCH   1   2
BRANCH   1   8
ATOM      8  C   UNL     1     -46.145 -48.522  37.518  1.00  0.00     0.000 C 
BRANCH   8   9
ATOM      9  C   UNL     1     -44.706 -48.902  37.141  1.00  0.00     0.000 C 
BRANCH   9  10
ATOM     10  C   UNL     1     -43.717 -48.447  38.221  1.00  0.00     0.006 C 
BRANCH  10  11
ATOM     11  C   UNL     1     -44.454 -47.867  39.433  1.00  0.00     0.053 C 
BRANCH  11  12
ATOM     12  C   UNL     1     -43.721 -46.682  39.975  1.00  0.00     0.041 C 
ATOM     13  O   UNL     1     -42.462 -46.676  40.008  1.00  0.00    -0.550 OA
ATOM     14  O   UNL     1     -44.428 -45.604  40.492  1.00  0.00    -0.550 OA
ENDBRANCH  11  12
ENDBRANCH  10  11
ENDBRANCH   9  10
ENDBRANCH   8   9
ENDBRANCH   1   8
TORSDOF 9
ENDMDL
MODEL 9
REMARK VINA RESULT:    -3.395      3.323      4.757
REMARK INTER + INTRA:          -6.157
REMARK INTER:                  -5.327
REMARK INTRA:                  -0.831
REMARK UNBOUND:                -0.976
REMARK SMILES O=C([O-])CCCCCCCCC(=O)[O-]
REMARK SMILES IDX 7 1 6 2 5 3 4 4 2 5 1 6 3 7 8 8 9 9 10 10 11 11 12 12 13 13
REMARK SMILES IDX 14 14
REMARK H PARENT
REMARK Flexibility Score: inf
ROOT
ATOM      1  C   UNL     1     -44.320 -50.734  40.123  1.00  0.00     0.000 C 
ENDROOT
BRANCH   1   2
ATOM      2  C   UNL     1     -45.545 -50.345  40.963  1.00  0.00     0.000 C 
BRANCH   2   3
ATOM      3  C   UNL     1     -46.762 -51.203  40.588  1.00  0.00     0.006 C 
BRANCH   3   4
ATOM      4  C   UNL     1     -47.943 -50.988  41.545  1.00  0.00     0.053 C 
BRANCH   4   5
ATOM      5  C   UNL     1     -48.592 -52.283  41.928  1.00  0.00     0.041 C 
ATOM      6  O   UNL     1     -48.289 -52.847  43.011  1.00  0.00    -0.550 OA
ATOM      7  O   UNL     1     -49.557 -52.848  41.103  1.00  0.00    -0.550 OA
ENDBRANCH   4   5
ENDBRANCH   3   4
ENDBRANCH   2   3
ENDBRANCH   1   2
BRANCH   1   8
ATOM      8  C   UNL     1     -43.687 -49.531  39.405  1.00  0.00     0.000 C 
BRANCH   8   9
ATOM      9  C   UNL     1     -44.691 -48.397  39.152  1.00  0.00     0.000 C 
BRANCH   9  10
ATOM     10  C   UNL     1     -45.125 -48.365  37.682  1.00  0.00     0.006 C 
BRANCH  10  11
ATOM     11  C   UNL     1     -46.460 -49.089  37.487  1.00  0.00     0.053 C 
BRANCH  11  12
ATOM     12  C   UNL     1     -46.235 -50.475  36.969  1.00  0.00     0.041 C 
ATOM     13  O   UNL     1     -45.176 -50.754  36.347  1.00  0.00    -0.550 OA
ATOM     14  O   UNL     1     -47.216 -51.445  37.129  1.00  0.00    -0.550 OA
ENDBRANCH  11  12
ENDBRANCH  10  11
ENDBRANCH   9  10
ENDBRANCH   8   9
ENDBRANCH   1   8
TORSDOF 9
ENDMDL
