MODEL 1
REMARK VINA RESULT:    -3.116      0.000      0.000
REMARK INTER + INTRA:          -3.705
REMARK INTER:                  -3.480
REMARK INTRA:                  -0.225
REMARK UNBOUND:                -0.225
REMARK SMILES O=C([O-])c1ccccc1C(=O)[O-]
REMARK SMILES IDX 4 1 9 2 5 3 8 4 6 5 7 6 2 7 1 8 3 9 10 10 11 11 12 12
REMARK H PARENT
REMARK Flexibility Score: inf
ROOT
ATOM      1  C   UNL     1      49.495  21.110 129.509  1.00  0.00     0.006 A 
ATOM      2  C   UNL     1      49.140  19.740 129.363  1.00  0.00     0.006 A 
ATOM      3  C   UNL     1      50.742  21.550 129.022  1.00  0.00     0.010 A 
ATOM      4  C   UNL     1      50.014  18.875 128.680  1.00  0.00     0.010 A 
ATOM      5  C   UNL     1      51.603  20.669 128.367  1.00  0.00     0.001 A 
ATOM      6  C   UNL     1      51.234  19.337 128.185  1.00  0.00     0.001 A 
ENDROOT
BRANCH   1   7
ATOM      7  C   UNL     1      48.579  22.118 130.090  1.00  0.00     0.072 C 
ATOM      8  O   UNL     1      47.796  22.766 129.347  1.00  0.00    -0.545 OA
ATOM      9  O   UNL     1      48.522  22.315 131.465  1.00  0.00    -0.545 OA
ENDBRANCH   1   7
BRANCH   2  10
ATOM     10  C   UNL     1      47.917  19.158 129.962  1.00  0.00     0.072 C 
ATOM     11  O   UNL     1      46.885  18.967 129.265  1.00  0.00    -0.545 OA
ATOM     12  O   UNL     1      47.874  18.875 131.322  1.00  0.00    -0.545 OA
ENDBRANCH   2  10
TORSDOF 2
ENDMDL
MODEL 2
REMARK VINA RESULT:    -3.115      0.187      3.132
REMARK INTER + INTRA:          -3.704
REMARK INTER:                  -3.473
REMARK INTRA:                  -0.230
REMARK UNBOUND:                -0.225
REMARK SMILES O=C([O-])c1ccccc1C(=O)[O-]
REMARK SMILES IDX 4 1 9 2 5 3 8 4 6 5 7 6 2 7 1 8 3 9 10 10 11 11 12 12
REMARK H PARENT
REMARK Flexibility Score: inf
ROOT
ATOM      1  C   UNL     1      49.084  19.783 129.377  1.00  0.00     0.006 A 
ATOM      2  C   UNL     1      49.488  21.143 129.497  1.00  0.00     0.006 A 
ATOM      3  C   UNL     1      49.927  18.875 128.708  1.00  0.00     0.010 A 
ATOM      4  C   UNL     1      50.747  21.528 129.000  1.00  0.00     0.010 A 
ATOM      5  C   UNL     1      51.161  19.285 128.203  1.00  0.00     0.001 A 
ATOM      6  C   UNL     1      51.575  20.606 128.359  1.00  0.00     0.001 A 
ENDROOT
BRANCH   1   7
ATOM      7  C   UNL     1      47.842  19.260 129.991  1.00  0.00     0.072 C 
ATOM      8  O   UNL     1      47.841  18.876 131.191  1.00  0.00    -0.545 OA
ATOM      9  O   UNL     1      46.650  19.248 129.277  1.00  0.00    -0.545 OA
ENDBRANCH   1   7
BRANCH   2  10
ATOM     10  C   UNL     1      48.613  22.196 130.060  1.00  0.00     0.072 C 
ATOM     11  O   UNL     1      48.746  22.575 131.253  1.00  0.00    -0.545 OA
ATOM     12  O   UNL     1      47.587  22.734 129.291  1.00  0.00    -0.545 OA
ENDBRANCH   2  10
TORSDOF 2
ENDMDL
MODEL 3
REMARK VINA RESULT:    -2.978      3.939      5.234
REMARK INTER + INTRA:          -3.551
REMARK INTER:                  -3.342
REMARK INTRA:                  -0.209
REMARK UNBOUND:                -0.225
REMARK SMILES O=C([O-])c1ccccc1C(=O)[O-]
REMARK SMILES IDX 4 1 9 2 5 3 8 4 6 5 7 6 2 7 1 8 3 9 10 10 11 11 12 12
REMARK H PARENT
REMARK Flexibility Score: inf
ROOT
ATOM      1  C   UNL     1      52.520  22.007 128.917  1.00  0.00     0.006 A 
ATOM      2  C   UNL     1      53.764  21.345 129.119  1.00  0.00     0.006 A 
ATOM      3  C   UNL     1      51.416  21.264 128.458  1.00  0.00     0.010 A 
ATOM      4  C   UNL     1      53.839  19.954 128.916  1.00  0.00     0.010 A 
ATOM      5  C   UNL     1      51.520  19.889 128.243  1.00  0.00     0.001 A 
ATOM      6  C   UNL     1      52.726  19.234 128.483  1.00  0.00     0.001 A 
ENDROOT
BRANCH   1   7
ATOM      7  C   UNL     1      52.314  23.437 129.238  1.00  0.00     0.072 C 
ATOM      8  O   UNL     1      52.226  24.289 128.314  1.00  0.00    -0.545 OA
ATOM      9  O   UNL     1      52.148  23.852 130.554  1.00  0.00    -0.545 OA
ENDBRANCH   1   7
BRANCH   2  10
ATOM     10  C   UNL     1      55.012  22.063 129.466  1.00  0.00     0.072 C 
ATOM     11  O   UNL     1      55.862  22.345 128.582  1.00  0.00    -0.545 OA
ATOM     12  O   UNL     1      55.288  22.377 130.792  1.00  0.00    -0.545 OA
ENDBRANCH   2  10
TORSDOF 2
ENDMDL
MODEL 4
REMARK VINA RESULT:    -2.943      3.954      5.558
REMARK INTER + INTRA:          -3.512
REMARK INTER:                  -3.318
REMARK INTRA:                  -0.195
REMARK UNBOUND:                -0.225
REMARK SMILES O=C([O-])c1ccccc1C(=O)[O-]
REMARK SMILES IDX 4 1 9 2 5 3 8 4 6 5 7 6 2 7 1 8 3 9 10 10 11 11 12 12
REMARK H PARENT
REMARK Flexibility Score: inf
ROOT
ATOM      1  C   UNL     1      53.745  21.357 129.157  1.00  0.00     0.006 A 
ATOM      2  C   UNL     1      52.509  22.031 128.947  1.00  0.00     0.006 A 
ATOM      3  C   UNL     1      53.812  19.967 128.939  1.00  0.00     0.010 A 
ATOM      4  C   UNL     1      51.406  21.302 128.467  1.00  0.00     0.010 A 
ATOM      5  C   UNL     1      52.698  19.261 128.484  1.00  0.00     0.001 A 
ATOM      6  C   UNL     1      51.501  19.930 128.237  1.00  0.00     0.001 A 
ENDROOT
BRANCH   1   7
ATOM      7  C   UNL     1      54.991  22.065 129.526  1.00  0.00     0.072 C 
ATOM      8  O   UNL     1      55.254  22.299 130.736  1.00  0.00    -0.545 OA
ATOM      9  O   UNL     1      55.919  22.423 128.554  1.00  0.00    -0.545 OA
ENDBRANCH   1   7
BRANCH   2  10
ATOM     10  C   UNL     1      52.306  23.460 129.279  1.00  0.00     0.072 C 
ATOM     11  O   UNL     1      52.071  23.820 130.463  1.00  0.00    -0.545 OA
ATOM     12  O   UNL     1      52.306  24.416 128.270  1.00  0.00    -0.545 OA
ENDBRANCH   2  10
TORSDOF 2
ENDMDL
MODEL 5
REMARK VINA RESULT:    -2.941     19.867     21.465
REMARK INTER + INTRA:          -3.509
REMARK INTER:                  -3.290
REMARK INTRA:                  -0.220
REMARK UNBOUND:                -0.225
REMARK SMILES O=C([O-])c1ccccc1C(=O)[O-]
REMARK SMILES IDX 4 1 9 2 5 3 8 4 6 5 7 6 2 7 1 8 3 9 10 10 11 11 12 12
REMARK H PARENT
REMARK Flexibility Score: inf
ROOT
ATOM      1  C   UNL     1      63.812  35.441 129.231  1.00  0.00     0.006 A 
ATOM      2  C   UNL     1      65.159  35.333 129.677  1.00  0.00     0.006 A 
ATOM      3  C   UNL     1      63.465  36.482 128.348  1.00  0.00     0.010 A 
ATOM      4  C   UNL     1      66.121  36.229 129.174  1.00  0.00     0.010 A 
ATOM      5  C   UNL     1      64.432  37.372 127.880  1.00  0.00     0.001 A 
ATOM      6  C   UNL     1      65.759  37.239 128.283  1.00  0.00     0.001 A 
ENDROOT
BRANCH   1   7
ATOM      7  C   UNL     1      62.766  34.460 129.599  1.00  0.00     0.072 C 
ATOM      8  O   UNL     1      61.870  34.769 130.429  1.00  0.00    -0.545 OA
ATOM      9  O   UNL     1      62.716  33.213 128.986  1.00  0.00    -0.545 OA
ENDBRANCH   1   7
BRANCH   2  10
ATOM     10  C   UNL     1      65.590  34.360 130.708  1.00  0.00     0.072 C 
ATOM     11  O   UNL     1      66.125  33.268 130.381  1.00  0.00    -0.545 OA
ATOM     12  O   UNL     1      65.347  34.617 132.052  1.00  0.00    -0.545 OA
ENDBRANCH   2  10
TORSDOF 2
ENDMDL
MODEL 6
REMARK VINA RESULT:    -2.921     19.886     21.462
REMARK INTER + INTRA:          -3.487
REMARK INTER:                  -3.261
REMARK INTRA:                  -0.226
REMARK UNBOUND:                -0.225
REMARK SMILES O=C([O-])c1ccccc1C(=O)[O-]
REMARK SMILES IDX 4 1 9 2 5 3 8 4 6 5 7 6 2 7 1 8 3 9 10 10 11 11 12 12
REMARK H PARENT
REMARK Flexibility Score: inf
ROOT
ATOM      1  C   UNL     1      65.144  35.376 129.723  1.00  0.00     0.006 A 
ATOM      2  C   UNL     1      63.778  35.513 129.346  1.00  0.00     0.006 A 
ATOM      3  C   UNL     1      66.105  36.218 129.132  1.00  0.00     0.010 A 
ATOM      4  C   UNL     1      63.417  36.528 128.441  1.00  0.00     0.010 A 
ATOM      5  C   UNL     1      65.726  37.204 128.220  1.00  0.00     0.001 A 
ATOM      6  C   UNL     1      64.384  37.366 127.885  1.00  0.00     0.001 A 
ENDROOT
BRANCH   1   7
ATOM      7  C   UNL     1      65.594  34.429 130.769  1.00  0.00     0.072 C 
ATOM      8  O   UNL     1      65.488  34.732 131.987  1.00  0.00    -0.545 OA
ATOM      9  O   UNL     1      66.077  33.171 130.426  1.00  0.00    -0.545 OA
ENDBRANCH   1   7
BRANCH   2  10
ATOM     10  C   UNL     1      62.719  34.587 129.808  1.00  0.00     0.072 C 
ATOM     11  O   UNL     1      61.977  34.888 130.779  1.00  0.00    -0.545 OA
ATOM     12  O   UNL     1      62.576  33.340 129.211  1.00  0.00    -0.545 OA
ENDBRANCH   2  10
TORSDOF 2
ENDMDL
MODEL 7
REMARK VINA RESULT:    -2.897     16.671     17.468
REMARK INTER + INTRA:          -3.461
REMARK INTER:                  -3.241
REMARK INTRA:                  -0.220
REMARK UNBOUND:                -0.225
REMARK SMILES O=C([O-])c1ccccc1C(=O)[O-]
REMARK SMILES IDX 4 1 9 2 5 3 8 4 6 5 7 6 2 7 1 8 3 9 10 10 11 11 12 12
REMARK H PARENT
REMARK Flexibility Score: inf
ROOT
ATOM      1  C   UNL     1      55.297  21.739 145.294  1.00  0.00     0.006 A 
ATOM      2  C   UNL     1      55.911  20.465 145.457  1.00  0.00     0.006 A 
ATOM      3  C   UNL     1      53.892  21.824 145.278  1.00  0.00     0.010 A 
ATOM      4  C   UNL     1      55.098  19.336 145.664  1.00  0.00     0.010 A 
ATOM      5  C   UNL     1      53.106  20.687 145.464  1.00  0.00     0.001 A 
ATOM      6  C   UNL     1      53.708  19.447 145.668  1.00  0.00     0.001 A 
ENDROOT
BRANCH   1   7
ATOM      7  C   UNL     1      56.074  22.997 145.209  1.00  0.00     0.072 C 
ATOM      8  O   UNL     1      56.191  23.597 144.108  1.00  0.00    -0.545 OA
ATOM      9  O   UNL     1      56.626  23.567 146.350  1.00  0.00    -0.545 OA
ENDBRANCH   1   7
BRANCH   2  10
ATOM     10  C   UNL     1      57.373  20.256 145.350  1.00  0.00     0.072 C 
ATOM     11  O   UNL     1      58.103  20.261 146.376  1.00  0.00    -0.545 OA
ATOM     12  O   UNL     1      57.967  20.118 144.100  1.00  0.00    -0.545 OA
ENDBRANCH   2  10
TORSDOF 2
ENDMDL
MODEL 8
REMARK VINA RESULT:    -2.872     16.680     17.693
REMARK INTER + INTRA:          -3.433
REMARK INTER:                  -3.244
REMARK INTRA:                  -0.189
REMARK UNBOUND:                -0.225
REMARK SMILES O=C([O-])c1ccccc1C(=O)[O-]
REMARK SMILES IDX 4 1 9 2 5 3 8 4 6 5 7 6 2 7 1 8 3 9 10 10 11 11 12 12
REMARK H PARENT
REMARK Flexibility Score: inf
ROOT
ATOM      1  C   UNL     1      55.801  20.449 145.507  1.00  0.00     0.006 A 
ATOM      2  C   UNL     1      55.367  21.788 145.294  1.00  0.00     0.006 A 
ATOM      3  C   UNL     1      54.838  19.440 145.696  1.00  0.00     0.010 A 
ATOM      4  C   UNL     1      53.988  22.055 145.213  1.00  0.00     0.010 A 
ATOM      5  C   UNL     1      53.475  19.733 145.634  1.00  0.00     0.001 A 
ATOM      6  C   UNL     1      53.051  21.036 145.381  1.00  0.00     0.001 A 
ENDROOT
BRANCH   1   7
ATOM      7  C   UNL     1      57.227  20.054 145.469  1.00  0.00     0.072 C 
ATOM      8  O   UNL     1      57.952  20.192 146.489  1.00  0.00    -0.545 OA
ATOM      9  O   UNL     1      57.769  19.466 144.331  1.00  0.00    -0.545 OA
ENDBRANCH   1   7
BRANCH   2  10
ATOM     10  C   UNL     1      56.301  22.935 145.222  1.00  0.00     0.072 C 
ATOM     11  O   UNL     1      56.611  23.580 146.258  1.00  0.00    -0.545 OA
ATOM     12  O   UNL     1      56.795  23.354 143.992  1.00  0.00    -0.545 OA
ENDBRANCH   2  10
TORSDOF 2
ENDMDL
MODEL 9
REMARK VINA RESULT:    -2.826      4.820      5.833
REMARK INTER + INTRA:          -3.381
REMARK INTER:                  -3.157
REMARK INTRA:                  -0.225
REMARK UNBOUND:                -0.225
REMARK SMILES O=C([O-])c1ccccc1C(=O)[O-]
REMARK SMILES IDX 4 1 9 2 5 3 8 4 6 5 7 6 2 7 1 8 3 9 10 10 11 11 12 12
REMARK H PARENT
REMARK Flexibility Score: inf
ROOT
ATOM      1  C   UNL     1      53.597  23.128 129.336  1.00  0.00     0.006 A 
ATOM      2  C   UNL     1      53.531  21.711 129.214  1.00  0.00     0.006 A 
ATOM      3  C   UNL     1      52.516  23.906 128.877  1.00  0.00     0.010 A 
ATOM      4  C   UNL     1      52.360  21.123 128.699  1.00  0.00     0.010 A 
ATOM      5  C   UNL     1      51.375  23.301 128.350  1.00  0.00     0.001 A 
ATOM      6  C   UNL     1      51.293  21.912 128.272  1.00  0.00     0.001 A 
ENDROOT
BRANCH   1   7
ATOM      7  C   UNL     1      54.728  23.822 129.992  1.00  0.00     0.072 C 
ATOM      8  O   UNL     1      54.728  23.997 131.239  1.00  0.00    -0.545 OA
ATOM      9  O   UNL     1      55.833  24.231 129.254  1.00  0.00    -0.545 OA
ENDBRANCH   1   7
BRANCH   2  10
ATOM     10  C   UNL     1      54.668  20.821 129.540  1.00  0.00     0.072 C 
ATOM     11  O   UNL     1      55.459  20.429 128.642  1.00  0.00    -0.545 OA
ATOM     12  O   UNL     1      54.836  20.353 130.838  1.00  0.00    -0.545 OA
ENDBRANCH   2  10
TORSDOF 2
ENDMDL
