MODEL 1
REMARK VINA RESULT:     0.452      0.000      0.000
REMARK INTER + INTRA:           0.925
REMARK INTER:                   1.073
REMARK INTRA:                  -0.148
REMARK UNBOUND:                -0.148
REMARK SMILES O=C(OC[C@@H]1O[C@@H](OC(=O)c2cc(O)c(O)c(O)c2)[C@@H](OC(=O)c2cc(O)c(O)c(O)c2)[C@H](OC(=O)c2cc(O)c(O)c(O)c2)[C@@H]1OC(=O)c1cc(O)c(O)c(O)c1)c1cc(O)c(O)c(O)c1
REMARK SMILES IDX 5 1 46 2 33 3 20 4 7 5 6 6 4 7 3 8 2 9 1 10 59 11 60 12
REMARK SMILES IDX 61 13 67 14 63 15 65 16 62 17 64 19 66 21 47 23 48 24 49 25
REMARK SMILES IDX 50 26 58 27 51 28 56 29 52 30 54 31 57 32 53 34 55 36 34 38
REMARK SMILES IDX 35 39 36 40 37 41 45 42 38 43 43 44 39 45 41 46 44 47 40 49
REMARK SMILES IDX 42 51 8 53 9 54 10 55 11 56 19 57 12 58 17 59 13 60 15 61
REMARK SMILES IDX 18 62 14 64 16 66 21 68 22 69 23 70 24 71 32 72 25 73 30 74
REMARK SMILES IDX 26 75 28 76 31 77 27 79 29 81
REMARK H PARENT 62 18 64 20 66 22 57 33 53 35 55 37 44 48 40 50 42 52 18 63
REMARK H PARENT 14 65 16 67 31 78 27 80 29 82
REMARK Flexibility Score: inf
ROOT
ATOM      1  C   UNL     1     -21.137  15.890 -31.966  1.00  0.00     0.205 C 
ATOM      2  C   UNL     1     -21.985  14.639 -31.646  1.00  0.00     0.254 C 
ATOM      3  C   UNL     1     -23.470  14.951 -31.921  1.00  0.00     0.267 C 
ATOM      4  C   UNL     1     -23.887  16.234 -31.180  1.00  0.00     0.290 C 
ATOM      5  C   UNL     1     -22.894  17.370 -31.488  1.00  0.00     0.357 C 
ATOM      6  O   UNL     1     -21.562  16.992 -31.178  1.00  0.00    -0.329 OA
ENDROOT
BRANCH   1   7
ATOM      7  C   UNL     1     -19.644  15.629 -31.705  1.00  0.00     0.269 C 
BRANCH   7   8
ATOM      8  O   UNL     1     -19.016  15.096 -32.870  1.00  0.00    -0.459 OA
BRANCH   8   9
ATOM      9  C   UNL     1     -17.807  15.567 -33.395  1.00  0.00     0.338 C 
ATOM     10  O   UNL     1     -17.802  16.519 -34.221  1.00  0.00    -0.246 OA
BRANCH   9  11
ATOM     11  C   UNL     1     -16.532  14.963 -32.949  1.00  0.00     0.067 A 
ATOM     12  C   UNL     1     -16.538  13.808 -32.156  1.00  0.00     0.066 A 
ATOM     13  C   UNL     1     -15.342  13.238 -31.714  1.00  0.00     0.162 A 
ATOM     14  C   UNL     1     -15.303  15.538 -33.306  1.00  0.00     0.066 A 
ATOM     15  C   UNL     1     -14.111  13.821 -32.063  1.00  0.00     0.200 A 
ATOM     16  C   UNL     1     -14.094  14.981 -32.876  1.00  0.00     0.162 A 
BRANCH  13  17
ATOM     17  O   UNL     1     -15.397  12.097 -30.911  1.00  0.00    -0.504 OA
ATOM     18  H   UNL     1     -15.253  11.165 -31.282  1.00  0.00     0.293 HD
ENDBRANCH  13  17
BRANCH  15  19
ATOM     19  O   UNL     1     -12.937  13.231 -31.583  1.00  0.00    -0.502 OA
ATOM     20  H   UNL     1     -12.890  12.658 -30.755  1.00  0.00     0.293 HD
ENDBRANCH  15  19
BRANCH  16  21
ATOM     21  O   UNL     1     -12.910  15.603 -33.283  1.00  0.00    -0.504 OA
ATOM     22  H   UNL     1     -12.871  16.445 -33.833  1.00  0.00     0.293 HD
ENDBRANCH  16  21
ENDBRANCH   9  11
ENDBRANCH   8   9
ENDBRANCH   7   8
ENDBRANCH   1   7
BRANCH   2  23
ATOM     23  O   UNL     1     -21.810  14.286 -30.273  1.00  0.00    -0.452 OA
BRANCH  23  24
ATOM     24  C   UNL     1     -21.182  13.109 -29.841  1.00  0.00     0.338 C 
ATOM     25  O   UNL     1     -21.808  12.014 -29.845  1.00  0.00    -0.246 OA
BRANCH  24  26
ATOM     26  C   UNL     1     -19.778  13.159 -29.384  1.00  0.00     0.067 A 
ATOM     27  C   UNL     1     -19.140  12.004 -28.901  1.00  0.00     0.066 A 
ATOM     28  C   UNL     1     -19.063  14.365 -29.437  1.00  0.00     0.066 A 
ATOM     29  C   UNL     1     -17.809  12.050 -28.478  1.00  0.00     0.162 A 
ATOM     30  C   UNL     1     -17.734  14.423 -29.010  1.00  0.00     0.162 A 
ATOM     31  C   UNL     1     -17.101  13.264 -28.526  1.00  0.00     0.200 A 
BRANCH  29  32
ATOM     32  O   UNL     1     -17.198  10.877 -28.031  1.00  0.00    -0.504 OA
ATOM     33  H   UNL     1     -16.810  10.198 -28.675  1.00  0.00     0.293 HD
ENDBRANCH  29  32
BRANCH  30  34
ATOM     34  O   UNL     1     -17.036  15.631 -29.056  1.00  0.00    -0.504 OA
ATOM     35  H   UNL     1     -16.916  16.135 -29.929  1.00  0.00     0.293 HD
ENDBRANCH  30  34
BRANCH  31  36
ATOM     36  O   UNL     1     -15.772  13.304 -28.100  1.00  0.00    -0.502 OA
ATOM     37  H   UNL     1     -15.143  14.057 -28.361  1.00  0.00     0.293 HD
ENDBRANCH  31  36
ENDBRANCH  24  26
ENDBRANCH  23  24
ENDBRANCH   2  23
BRANCH   3  38
ATOM     38  O   UNL     1     -24.302  13.874 -31.489  1.00  0.00    -0.450 OA
BRANCH  38  39
ATOM     39  C   UNL     1     -24.989  13.843 -30.271  1.00  0.00     0.338 C 
ATOM     40  O   UNL     1     -24.512  14.427 -29.260  1.00  0.00    -0.246 OA
BRANCH  39  41
ATOM     41  C   UNL     1     -26.274  13.112 -30.176  1.00  0.00     0.067 A 
ATOM     42  C   UNL     1     -26.738  12.313 -31.235  1.00  0.00     0.066 A 
ATOM     43  C   UNL     1     -27.054  13.218 -29.014  1.00  0.00     0.066 A 
ATOM     44  C   UNL     1     -27.975  11.658 -31.151  1.00  0.00     0.162 A 
ATOM     45  C   UNL     1     -28.290  12.572 -28.921  1.00  0.00     0.162 A 
ATOM     46  C   UNL     1     -28.758  11.793 -29.991  1.00  0.00     0.200 A 
BRANCH  44  47
ATOM     47  O   UNL     1     -28.432  10.875 -32.215  1.00  0.00    -0.504 OA
ATOM     48  H   UNL     1     -28.458   9.862 -32.162  1.00  0.00     0.293 HD
ENDBRANCH  44  47
BRANCH  45  49
ATOM     49  O   UNL     1     -29.040  12.709 -27.752  1.00  0.00    -0.504 OA
ATOM     50  H   UNL     1     -29.982  13.077 -27.760  1.00  0.00     0.293 HD
ENDBRANCH  45  49
BRANCH  46  51
ATOM     51  O   UNL     1     -29.996  11.158 -29.889  1.00  0.00    -0.502 OA
ATOM     52  H   UNL     1     -30.239  10.344 -30.442  1.00  0.00     0.293 HD
ENDBRANCH  46  51
ENDBRANCH  39  41
ENDBRANCH  38  39
ENDBRANCH   3  38
BRANCH   5  53
ATOM     53  O   UNL     1     -22.998  17.781 -32.853  1.00  0.00    -0.428 OA
BRANCH  53  54
ATOM     54  C   UNL     1     -23.421  19.057 -33.244  1.00  0.00     0.340 C 
ATOM     55  O   UNL     1     -23.982  19.224 -34.362  1.00  0.00    -0.246 OA
BRANCH  54  56
ATOM     56  C   UNL     1     -23.177  20.211 -32.350  1.00  0.00     0.067 A 
ATOM     57  C   UNL     1     -23.461  21.515 -32.788  1.00  0.00     0.066 A 
ATOM     58  C   UNL     1     -22.674  20.016 -31.053  1.00  0.00     0.066 A 
ATOM     59  C   UNL     1     -23.235  22.614 -31.946  1.00  0.00     0.162 A 
ATOM     60  C   UNL     1     -22.454  21.109 -30.204  1.00  0.00     0.162 A 
ATOM     61  C   UNL     1     -22.727  22.412 -30.651  1.00  0.00     0.200 A 
BRANCH  59  62
ATOM     62  O   UNL     1     -23.514  23.904 -32.389  1.00  0.00    -0.504 OA
ATOM     63  H   UNL     1     -22.869  24.414 -32.982  1.00  0.00     0.293 HD
ENDBRANCH  59  62
BRANCH  60  64
ATOM     64  O   UNL     1     -21.950  20.891 -28.922  1.00  0.00    -0.504 OA
ATOM     65  H   UNL     1     -21.128  20.319 -28.760  1.00  0.00     0.293 HD
ENDBRANCH  60  64
BRANCH  61  66
ATOM     66  O   UNL     1     -22.491  23.493 -29.798  1.00  0.00    -0.502 OA
ATOM     67  H   UNL     1     -21.681  24.100 -29.911  1.00  0.00     0.293 HD
ENDBRANCH  61  66
ENDBRANCH  54  56
ENDBRANCH  53  54
ENDBRANCH   5  53
BRANCH   4  68
ATOM     68  O   UNL     1     -25.202  16.632 -31.580  1.00  0.00    -0.448 OA
BRANCH  68  69
ATOM     69  C   UNL     1     -25.903  17.694 -30.989  1.00  0.00     0.339 C 
ATOM     70  O   UNL     1     -25.778  17.925 -29.757  1.00  0.00    -0.246 OA
BRANCH  69  71
ATOM     71  C   UNL     1     -26.759  18.568 -31.819  1.00  0.00     0.067 A 
ATOM     72  C   UNL     1     -28.053  18.917 -31.392  1.00  0.00     0.066 A 
ATOM     73  C   UNL     1     -26.288  19.067 -33.044  1.00  0.00     0.066 A 
ATOM     74  C   UNL     1     -28.850  19.776 -32.161  1.00  0.00     0.162 A 
ATOM     75  C   UNL     1     -27.080  19.914 -33.831  1.00  0.00     0.162 A 
ATOM     76  C   UNL     1     -28.369  20.288 -33.375  1.00  0.00     0.200 A 
BRANCH  74  77
ATOM     77  O   UNL     1     -30.122  20.140 -31.721  1.00  0.00    -0.504 OA
ATOM     78  H   UNL     1     -30.527  19.737 -30.889  1.00  0.00     0.293 HD
ENDBRANCH  74  77
BRANCH  75  79
ATOM     79  O   UNL     1     -26.551  20.344 -35.052  1.00  0.00    -0.504 OA
ATOM     80  H   UNL     1     -25.826  21.037 -35.140  1.00  0.00     0.293 HD
ENDBRANCH  75  79
BRANCH  76  81
ATOM     81  O   UNL     1     -29.185  21.168 -34.089  1.00  0.00    -0.502 OA
ATOM     82  H   UNL     1     -30.146  20.975 -34.313  1.00  0.00     0.293 HD
ENDBRANCH  76  81
ENDBRANCH  69  71
ENDBRANCH  68  69
ENDBRANCH   4  68
TORSDOF 31
ENDMDL
MODEL 2
REMARK VINA RESULT:     0.846      0.993      2.372
REMARK INTER + INTRA:           1.859
REMARK INTER:                   1.721
REMARK INTRA:                   0.138
REMARK UNBOUND:                -0.148
REMARK SMILES O=C(OC[C@@H]1O[C@@H](OC(=O)c2cc(O)c(O)c(O)c2)[C@@H](OC(=O)c2cc(O)c(O)c(O)c2)[C@H](OC(=O)c2cc(O)c(O)c(O)c2)[C@@H]1OC(=O)c1cc(O)c(O)c(O)c1)c1cc(O)c(O)c(O)c1
REMARK SMILES IDX 5 1 46 2 33 3 20 4 7 5 6 6 4 7 3 8 2 9 1 10 59 11 60 12
REMARK SMILES IDX 61 13 67 14 63 15 65 16 62 17 64 19 66 21 47 23 48 24 49 25
REMARK SMILES IDX 50 26 58 27 51 28 56 29 52 30 54 31 57 32 53 34 55 36 34 38
REMARK SMILES IDX 35 39 36 40 37 41 45 42 38 43 43 44 39 45 41 46 44 47 40 49
REMARK SMILES IDX 42 51 8 53 9 54 10 55 11 56 19 57 12 58 17 59 13 60 15 61
REMARK SMILES IDX 18 62 14 64 16 66 21 68 22 69 23 70 24 71 32 72 25 73 30 74
REMARK SMILES IDX 26 75 28 76 31 77 27 79 29 81
REMARK H PARENT 62 18 64 20 66 22 57 33 53 35 55 37 44 48 40 50 42 52 18 63
REMARK H PARENT 14 65 16 67 31 78 27 80 29 82
REMARK Flexibility Score: inf
ROOT
ATOM      1  C   UNL     1     -21.084  16.001 -31.949  1.00  0.00     0.205 C 
ATOM      2  C   UNL     1     -21.779  14.714 -31.455  1.00  0.00     0.254 C 
ATOM      3  C   UNL     1     -23.307  14.882 -31.586  1.00  0.00     0.267 C 
ATOM      4  C   UNL     1     -23.757  16.180 -30.892  1.00  0.00     0.290 C 
ATOM      5  C   UNL     1     -22.906  17.366 -31.382  1.00  0.00     0.357 C 
ATOM      6  O   UNL     1     -21.521  17.122 -31.195  1.00  0.00    -0.329 OA
ENDROOT
BRANCH   1   7
ATOM      7  C   UNL     1     -19.554  15.882 -31.836  1.00  0.00     0.269 C 
BRANCH   7   8
ATOM      8  O   UNL     1     -19.069  14.826 -32.665  1.00  0.00    -0.459 OA
BRANCH   8   9
ATOM      9  C   UNL     1     -18.096  13.902 -32.269  1.00  0.00     0.338 C 
ATOM     10  O   UNL     1     -18.436  12.779 -31.809  1.00  0.00    -0.246 OA
BRANCH   9  11
ATOM     11  C   UNL     1     -16.663  14.237 -32.426  1.00  0.00     0.067 A 
ATOM     12  C   UNL     1     -16.280  15.361 -33.170  1.00  0.00     0.066 A 
ATOM     13  C   UNL     1     -14.931  15.679 -33.340  1.00  0.00     0.162 A 
ATOM     14  C   UNL     1     -15.672  13.435 -31.842  1.00  0.00     0.066 A 
ATOM     15  C   UNL     1     -13.936  14.869 -32.764  1.00  0.00     0.200 A 
ATOM     16  C   UNL     1     -14.315  13.738 -31.999  1.00  0.00     0.162 A 
BRANCH  13  17
ATOM     17  O   UNL     1     -14.594  16.799 -34.103  1.00  0.00    -0.504 OA
ATOM     18  H   UNL     1     -13.866  17.446 -33.825  1.00  0.00     0.293 HD
ENDBRANCH  13  17
BRANCH  15  19
ATOM     19  O   UNL     1     -12.596  15.210 -32.976  1.00  0.00    -0.502 OA
ATOM     20  H   UNL     1     -12.272  16.149 -33.144  1.00  0.00     0.293 HD
ENDBRANCH  15  19
BRANCH  16  21
ATOM     21  O   UNL     1     -13.385  12.900 -31.376  1.00  0.00    -0.504 OA
ATOM     22  H   UNL     1     -13.365  11.899 -31.479  1.00  0.00     0.293 HD
ENDBRANCH  16  21
ENDBRANCH   9  11
ENDBRANCH   8   9
ENDBRANCH   7   8
ENDBRANCH   1   7
BRANCH   2  23
ATOM     23  O   UNL     1     -21.434  14.481 -30.090  1.00  0.00    -0.452 OA
BRANCH  23  24
ATOM     24  C   UNL     1     -20.859  13.292 -29.619  1.00  0.00     0.338 C 
ATOM     25  O   UNL     1     -21.547  12.236 -29.550  1.00  0.00    -0.246 OA
BRANCH  24  26
ATOM     26  C   UNL     1     -19.441  13.281 -29.207  1.00  0.00     0.067 A 
ATOM     27  C   UNL     1     -18.675  14.459 -29.244  1.00  0.00     0.066 A 
ATOM     28  C   UNL     1     -18.846  12.091 -28.763  1.00  0.00     0.066 A 
ATOM     29  C   UNL     1     -17.336  14.450 -28.844  1.00  0.00     0.162 A 
ATOM     30  C   UNL     1     -17.505  12.071 -28.369  1.00  0.00     0.162 A 
ATOM     31  C   UNL     1     -16.743  13.252 -28.409  1.00  0.00     0.200 A 
BRANCH  29  32
ATOM     32  O   UNL     1     -16.614  15.644 -28.867  1.00  0.00    -0.504 OA
ATOM     33  H   UNL     1     -15.798  15.765 -29.456  1.00  0.00     0.293 HD
ENDBRANCH  29  32
BRANCH  30  34
ATOM     34  O   UNL     1     -16.920  10.878 -27.940  1.00  0.00    -0.504 OA
ATOM     35  H   UNL     1     -17.349  10.313 -27.214  1.00  0.00     0.293 HD
ENDBRANCH  30  34
BRANCH  31  36
ATOM     36  O   UNL     1     -15.405  13.250 -28.013  1.00  0.00    -0.502 OA
ATOM     37  H   UNL     1     -14.803  14.060 -28.133  1.00  0.00     0.293 HD
ENDBRANCH  31  36
ENDBRANCH  24  26
ENDBRANCH  23  24
ENDBRANCH   2  23
BRANCH   3  38
ATOM     38  O   UNL     1     -23.991  13.778 -30.995  1.00  0.00    -0.450 OA
BRANCH  38  39
ATOM     39  C   UNL     1     -25.310  13.414 -31.287  1.00  0.00     0.338 C 
ATOM     40  O   UNL     1     -25.795  13.656 -32.426  1.00  0.00    -0.246 OA
BRANCH  39  41
ATOM     41  C   UNL     1     -26.133  12.754 -30.247  1.00  0.00     0.067 A 
ATOM     42  C   UNL     1     -27.535  12.721 -30.341  1.00  0.00     0.066 A 
ATOM     43  C   UNL     1     -25.513  12.155 -29.140  1.00  0.00     0.066 A 
ATOM     44  C   UNL     1     -28.308  12.130 -29.331  1.00  0.00     0.162 A 
ATOM     45  C   UNL     1     -26.273  11.564 -28.127  1.00  0.00     0.162 A 
ATOM     46  C   UNL     1     -27.675  11.554 -28.216  1.00  0.00     0.200 A 
BRANCH  44  47
ATOM     47  O   UNL     1     -29.702  12.112 -29.429  1.00  0.00    -0.504 OA
ATOM     48  H   UNL     1     -30.214  12.839 -29.918  1.00  0.00     0.293 HD
ENDBRANCH  44  47
BRANCH  45  49
ATOM     49  O   UNL     1     -25.620  10.986 -27.038  1.00  0.00    -0.504 OA
ATOM     50  H   UNL     1     -25.620  11.416 -26.123  1.00  0.00     0.293 HD
ENDBRANCH  45  49
BRANCH  46  51
ATOM     51  O   UNL     1     -28.423  10.968 -27.195  1.00  0.00    -0.502 OA
ATOM     52  H   UNL     1     -28.015  10.340 -26.511  1.00  0.00     0.293 HD
ENDBRANCH  46  51
ENDBRANCH  39  41
ENDBRANCH  38  39
ENDBRANCH   3  38
BRANCH   5  53
ATOM     53  O   UNL     1     -23.186  17.662 -32.752  1.00  0.00    -0.428 OA
BRANCH  53  54
ATOM     54  C   UNL     1     -23.423  18.958 -33.228  1.00  0.00     0.340 C 
ATOM     55  O   UNL     1     -23.815  19.135 -34.414  1.00  0.00    -0.246 OA
BRANCH  54  56
ATOM     56  C   UNL     1     -23.181  20.116 -32.339  1.00  0.00     0.067 A 
ATOM     57  C   UNL     1     -22.670  19.916 -31.046  1.00  0.00     0.066 A 
ATOM     58  C   UNL     1     -23.447  21.423 -32.779  1.00  0.00     0.066 A 
ATOM     59  C   UNL     1     -22.436  21.008 -30.197  1.00  0.00     0.162 A 
ATOM     60  C   UNL     1     -23.207  22.518 -31.939  1.00  0.00     0.162 A 
ATOM     61  C   UNL     1     -22.708  22.314 -30.643  1.00  0.00     0.200 A 
BRANCH  59  62
ATOM     62  O   UNL     1     -21.934  20.804 -28.915  1.00  0.00    -0.504 OA
ATOM     63  H   UNL     1     -22.498  20.391 -28.182  1.00  0.00     0.293 HD
ENDBRANCH  59  62
BRANCH  60  64
ATOM     64  O   UNL     1     -23.482  23.806 -32.398  1.00  0.00    -0.504 OA
ATOM     65  H   UNL     1     -23.955  23.972 -33.279  1.00  0.00     0.293 HD
ENDBRANCH  60  64
BRANCH  61  66
ATOM     66  O   UNL     1     -22.485  23.415 -29.813  1.00  0.00    -0.502 OA
ATOM     67  H   UNL     1     -23.104  24.225 -29.816  1.00  0.00     0.293 HD
ENDBRANCH  61  66
ENDBRANCH  54  56
ENDBRANCH  53  54
ENDBRANCH   5  53
BRANCH   4  68
ATOM     68  O   UNL     1     -25.136  16.439 -31.171  1.00  0.00    -0.448 OA
BRANCH  68  69
ATOM     69  C   UNL     1     -25.801  17.610 -30.776  1.00  0.00     0.339 C 
ATOM     70  O   UNL     1     -25.654  18.054 -29.605  1.00  0.00    -0.246 OA
BRANCH  69  71
ATOM     71  C   UNL     1     -26.642  18.346 -31.742  1.00  0.00     0.067 A 
ATOM     72  C   UNL     1     -26.109  19.414 -32.486  1.00  0.00     0.066 A 
ATOM     73  C   UNL     1     -27.985  17.985 -31.934  1.00  0.00     0.066 A 
ATOM     74  C   UNL     1     -26.897  20.089 -33.430  1.00  0.00     0.162 A 
ATOM     75  C   UNL     1     -28.789  18.661 -32.862  1.00  0.00     0.162 A 
ATOM     76  C   UNL     1     -28.233  19.712 -33.633  1.00  0.00     0.200 A 
BRANCH  74  77
ATOM     77  O   UNL     1     -26.356  21.130 -34.184  1.00  0.00    -0.504 OA
ATOM     78  H   UNL     1     -26.591  22.093 -33.997  1.00  0.00     0.293 HD
ENDBRANCH  74  77
BRANCH  75  79
ATOM     79  O   UNL     1     -30.124  18.261 -32.974  1.00  0.00    -0.504 OA
ATOM     80  H   UNL     1     -30.626  17.762 -32.257  1.00  0.00     0.293 HD
ENDBRANCH  75  79
BRANCH  76  81
ATOM     81  O   UNL     1     -28.967  20.390 -34.609  1.00  0.00    -0.502 OA
ATOM     82  H   UNL     1     -28.623  20.571 -35.535  1.00  0.00     0.293 HD
ENDBRANCH  76  81
ENDBRANCH  69  71
ENDBRANCH  68  69
ENDBRANCH   4  68
TORSDOF 31
ENDMDL
MODEL 3
REMARK VINA RESULT:     0.901      1.484      9.774
REMARK INTER + INTRA:           1.992
REMARK INTER:                   3.902
REMARK INTRA:                  -1.910
REMARK UNBOUND:                -0.148
REMARK SMILES O=C(OC[C@@H]1O[C@@H](OC(=O)c2cc(O)c(O)c(O)c2)[C@@H](OC(=O)c2cc(O)c(O)c(O)c2)[C@H](OC(=O)c2cc(O)c(O)c(O)c2)[C@@H]1OC(=O)c1cc(O)c(O)c(O)c1)c1cc(O)c(O)c(O)c1
REMARK SMILES IDX 5 1 46 2 33 3 20 4 7 5 6 6 4 7 3 8 2 9 1 10 59 11 60 12
REMARK SMILES IDX 61 13 67 14 63 15 65 16 62 17 64 19 66 21 47 23 48 24 49 25
REMARK SMILES IDX 50 26 58 27 51 28 56 29 52 30 54 31 57 32 53 34 55 36 34 38
REMARK SMILES IDX 35 39 36 40 37 41 45 42 38 43 43 44 39 45 41 46 44 47 40 49
REMARK SMILES IDX 42 51 8 53 9 54 10 55 11 56 19 57 12 58 17 59 13 60 15 61
REMARK SMILES IDX 18 62 14 64 16 66 21 68 22 69 23 70 24 71 32 72 25 73 30 74
REMARK SMILES IDX 26 75 28 76 31 77 27 79 29 81
REMARK H PARENT 62 18 64 20 66 22 57 33 53 35 55 37 44 48 40 50 42 52 18 63
REMARK H PARENT 14 65 16 67 31 78 27 80 29 82
REMARK Flexibility Score: inf
ROOT
ATOM      1  C   UNL     1     -23.401  14.927 -30.566  1.00  0.00     0.205 C 
ATOM      2  C   UNL     1     -22.555  14.029 -29.637  1.00  0.00     0.254 C 
ATOM      3  C   UNL     1     -21.082  14.481 -29.702  1.00  0.00     0.267 C 
ATOM      4  C   UNL     1     -20.611  14.539 -31.166  1.00  0.00     0.290 C 
ATOM      5  C   UNL     1     -21.603  15.360 -32.010  1.00  0.00     0.357 C 
ATOM      6  O   UNL     1     -22.922  14.850 -31.901  1.00  0.00    -0.329 OA
ENDROOT
BRANCH   1   7
ATOM      7  C   UNL     1     -24.882  14.514 -30.536  1.00  0.00     0.269 C 
BRANCH   7   8
ATOM      8  O   UNL     1     -25.684  15.464 -31.236  1.00  0.00    -0.459 OA
BRANCH   8   9
ATOM      9  C   UNL     1     -26.006  16.734 -30.743  1.00  0.00     0.338 C 
ATOM     10  O   UNL     1     -25.702  17.052 -29.562  1.00  0.00    -0.246 OA
BRANCH   9  11
ATOM     11  C   UNL     1     -26.673  17.713 -31.628  1.00  0.00     0.067 A 
ATOM     12  C   UNL     1     -28.052  17.628 -31.861  1.00  0.00     0.066 A 
ATOM     13  C   UNL     1     -28.692  18.535 -32.708  1.00  0.00     0.162 A 
ATOM     14  C   UNL     1     -25.939  18.734 -32.250  1.00  0.00     0.066 A 
ATOM     15  C   UNL     1     -27.954  19.552 -33.340  1.00  0.00     0.200 A 
ATOM     16  C   UNL     1     -26.561  19.655 -33.100  1.00  0.00     0.162 A 
BRANCH  13  17
ATOM     17  O   UNL     1     -30.065  18.401 -32.925  1.00  0.00    -0.504 OA
ATOM     18  H   UNL     1     -30.443  17.998 -33.774  1.00  0.00     0.293 HD
ENDBRANCH  13  17
BRANCH  15  19
ATOM     19  O   UNL     1     -28.628  20.428 -34.197  1.00  0.00    -0.502 OA
ATOM     20  H   UNL     1     -28.850  21.384 -33.967  1.00  0.00     0.293 HD
ENDBRANCH  15  19
BRANCH  16  21
ATOM     21  O   UNL     1     -25.767  20.652 -33.672  1.00  0.00    -0.504 OA
ATOM     22  H   UNL     1     -26.020  21.181 -34.491  1.00  0.00     0.293 HD
ENDBRANCH  16  21
ENDBRANCH   9  11
ENDBRANCH   8   9
ENDBRANCH   7   8
ENDBRANCH   1   7
BRANCH   2  23
ATOM     23  O   UNL     1     -22.664  12.670 -30.060  1.00  0.00    -0.452 OA
BRANCH  23  24
ATOM     24  C   UNL     1     -23.237  11.652 -29.286  1.00  0.00     0.338 C 
ATOM     25  O   UNL     1     -22.510  10.909 -28.570  1.00  0.00    -0.246 OA
BRANCH  24  26
ATOM     26  C   UNL     1     -24.701  11.456 -29.310  1.00  0.00     0.067 A 
ATOM     27  C   UNL     1     -25.396  11.388 -30.530  1.00  0.00     0.066 A 
ATOM     28  C   UNL     1     -25.414  11.324 -28.109  1.00  0.00     0.066 A 
ATOM     29  C   UNL     1     -26.779  11.192 -30.552  1.00  0.00     0.162 A 
ATOM     30  C   UNL     1     -26.798  11.136 -28.121  1.00  0.00     0.162 A 
ATOM     31  C   UNL     1     -27.488  11.071 -29.344  1.00  0.00     0.200 A 
BRANCH  29  32
ATOM     32  O   UNL     1     -27.431  11.102 -31.783  1.00  0.00    -0.504 OA
ATOM     33  H   UNL     1     -27.910  10.258 -32.074  1.00  0.00     0.293 HD
ENDBRANCH  29  32
BRANCH  30  34
ATOM     34  O   UNL     1     -27.498  11.018 -26.918  1.00  0.00    -0.504 OA
ATOM     35  H   UNL     1     -27.677  10.110 -26.501  1.00  0.00     0.293 HD
ENDBRANCH  30  34
BRANCH  31  36
ATOM     36  O   UNL     1     -28.870  10.877 -29.373  1.00  0.00    -0.502 OA
ATOM     37  H   UNL     1     -29.288  10.003 -29.680  1.00  0.00     0.293 HD
ENDBRANCH  31  36
ENDBRANCH  24  26
ENDBRANCH  23  24
ENDBRANCH   2  23
BRANCH   3  38
ATOM     38  O   UNL     1     -20.243  13.579 -28.980  1.00  0.00    -0.450 OA
BRANCH  38  39
ATOM     39  C   UNL     1     -19.558  12.503 -29.553  1.00  0.00     0.338 C 
ATOM     40  O   UNL     1     -20.128  11.775 -30.412  1.00  0.00    -0.246 OA
BRANCH  39  41
ATOM     41  C   UNL     1     -18.165  12.218 -29.137  1.00  0.00     0.067 A 
ATOM     42  C   UNL     1     -17.722  12.498 -27.833  1.00  0.00     0.066 A 
ATOM     43  C   UNL     1     -17.259  11.667 -30.057  1.00  0.00     0.066 A 
ATOM     44  C   UNL     1     -16.390  12.264 -27.462  1.00  0.00     0.162 A 
ATOM     45  C   UNL     1     -15.930  11.431 -29.698  1.00  0.00     0.162 A 
ATOM     46  C   UNL     1     -15.488  11.734 -28.400  1.00  0.00     0.200 A 
BRANCH  44  47
ATOM     47  O   UNL     1     -15.958  12.557 -26.165  1.00  0.00    -0.504 OA
ATOM     48  H   UNL     1     -16.601  12.591 -25.381  1.00  0.00     0.293 HD
ENDBRANCH  44  47
BRANCH  45  49
ATOM     49  O   UNL     1     -15.058  10.889 -30.643  1.00  0.00    -0.504 OA
ATOM     50  H   UNL     1     -14.520  11.470 -31.272  1.00  0.00     0.293 HD
ENDBRANCH  45  49
BRANCH  46  51
ATOM     51  O   UNL     1     -14.157  11.500 -28.056  1.00  0.00    -0.502 OA
ATOM     52  H   UNL     1     -13.603  10.767 -28.485  1.00  0.00     0.293 HD
ENDBRANCH  46  51
ENDBRANCH  39  41
ENDBRANCH  38  39
ENDBRANCH   3  38
BRANCH   5  53
ATOM     53  O   UNL     1     -21.563  16.741 -31.641  1.00  0.00    -0.428 OA
BRANCH  53  54
ATOM     54  C   UNL     1     -22.507  17.681 -32.072  1.00  0.00     0.340 C 
ATOM     55  O   UNL     1     -23.373  17.361 -32.932  1.00  0.00    -0.246 OA
BRANCH  54  56
ATOM     56  C   UNL     1     -22.461  19.059 -31.534  1.00  0.00     0.067 A 
ATOM     57  C   UNL     1     -22.999  20.124 -32.275  1.00  0.00     0.066 A 
ATOM     58  C   UNL     1     -21.892  19.315 -30.275  1.00  0.00     0.066 A 
ATOM     59  C   UNL     1     -22.961  21.432 -31.771  1.00  0.00     0.162 A 
ATOM     60  C   UNL     1     -21.859  20.619 -29.763  1.00  0.00     0.162 A 
ATOM     61  C   UNL     1     -22.386  21.682 -30.513  1.00  0.00     0.200 A 
BRANCH  59  62
ATOM     62  O   UNL     1     -23.492  22.484 -32.513  1.00  0.00    -0.504 OA
ATOM     63  H   UNL     1     -23.325  22.570 -33.509  1.00  0.00     0.293 HD
ENDBRANCH  59  62
BRANCH  60  64
ATOM     64  O   UNL     1     -21.285  20.849 -28.513  1.00  0.00    -0.504 OA
ATOM     65  H   UNL     1     -20.950  21.766 -28.238  1.00  0.00     0.293 HD
ENDBRANCH  60  64
BRANCH  61  66
ATOM     66  O   UNL     1     -22.335  22.979 -29.994  1.00  0.00    -0.502 OA
ATOM     67  H   UNL     1     -21.566  23.613 -30.207  1.00  0.00     0.293 HD
ENDBRANCH  61  66
ENDBRANCH  54  56
ENDBRANCH  53  54
ENDBRANCH   5  53
BRANCH   4  68
ATOM     68  O   UNL     1     -19.313  15.136 -31.246  1.00  0.00    -0.448 OA
BRANCH  68  69
ATOM     69  C   UNL     1     -18.457  14.986 -32.348  1.00  0.00     0.339 C 
ATOM     70  O   UNL     1     -18.915  15.080 -33.519  1.00  0.00    -0.246 OA
BRANCH  69  71
ATOM     71  C   UNL     1     -17.012  14.758 -32.139  1.00  0.00     0.067 A 
ATOM     72  C   UNL     1     -16.450  14.865 -30.854  1.00  0.00     0.066 A 
ATOM     73  C   UNL     1     -16.181  14.426 -33.221  1.00  0.00     0.066 A 
ATOM     74  C   UNL     1     -15.086  14.611 -30.649  1.00  0.00     0.162 A 
ATOM     75  C   UNL     1     -14.814  14.187 -33.034  1.00  0.00     0.162 A 
ATOM     76  C   UNL     1     -14.263  14.261 -31.730  1.00  0.00     0.200 A 
BRANCH  74  77
ATOM     77  O   UNL     1     -14.539  14.693 -29.369  1.00  0.00    -0.504 OA
ATOM     78  H   UNL     1     -13.838  15.380 -29.138  1.00  0.00     0.293 HD
ENDBRANCH  74  77
BRANCH  75  79
ATOM     79  O   UNL     1     -14.048  13.891 -34.166  1.00  0.00    -0.504 OA
ATOM     80  H   UNL     1     -13.701  14.584 -34.810  1.00  0.00     0.293 HD
ENDBRANCH  75  79
BRANCH  76  81
ATOM     81  O   UNL     1     -12.919  13.984 -31.471  1.00  0.00    -0.502 OA
ATOM     82  H   UNL     1     -12.218  13.919 -32.189  1.00  0.00     0.293 HD
ENDBRANCH  76  81
ENDBRANCH  69  71
ENDBRANCH  68  69
ENDBRANCH   4  68
TORSDOF 31
ENDMDL
MODEL 4
REMARK VINA RESULT:     0.981      0.975      1.833
REMARK INTER + INTRA:           2.180
REMARK INTER:                   0.852
REMARK INTRA:                   1.328
REMARK UNBOUND:                -0.148
REMARK SMILES O=C(OC[C@@H]1O[C@@H](OC(=O)c2cc(O)c(O)c(O)c2)[C@@H](OC(=O)c2cc(O)c(O)c(O)c2)[C@H](OC(=O)c2cc(O)c(O)c(O)c2)[C@@H]1OC(=O)c1cc(O)c(O)c(O)c1)c1cc(O)c(O)c(O)c1
REMARK SMILES IDX 5 1 46 2 33 3 20 4 7 5 6 6 4 7 3 8 2 9 1 10 59 11 60 12
REMARK SMILES IDX 61 13 67 14 63 15 65 16 62 17 64 19 66 21 47 23 48 24 49 25
REMARK SMILES IDX 50 26 58 27 51 28 56 29 52 30 54 31 57 32 53 34 55 36 34 38
REMARK SMILES IDX 35 39 36 40 37 41 45 42 38 43 43 44 39 45 41 46 44 47 40 49
REMARK SMILES IDX 42 51 8 53 9 54 10 55 11 56 19 57 12 58 17 59 13 60 15 61
REMARK SMILES IDX 18 62 14 64 16 66 21 68 22 69 23 70 24 71 32 72 25 73 30 74
REMARK SMILES IDX 26 75 28 76 31 77 27 79 29 81
REMARK H PARENT 62 18 64 20 66 22 57 33 53 35 55 37 44 48 40 50 42 52 18 63
REMARK H PARENT 14 65 16 67 31 78 27 80 29 82
REMARK Flexibility Score: inf
ROOT
ATOM      1  C   UNL     1     -21.002  15.880 -31.940  1.00  0.00     0.205 C 
ATOM      2  C   UNL     1     -21.743  14.608 -31.471  1.00  0.00     0.254 C 
ATOM      3  C   UNL     1     -23.262  14.823 -31.625  1.00  0.00     0.267 C 
ATOM      4  C   UNL     1     -23.686  16.127 -30.926  1.00  0.00     0.290 C 
ATOM      5  C   UNL     1     -22.793  17.292 -31.389  1.00  0.00     0.357 C 
ATOM      6  O   UNL     1     -21.419  17.005 -31.182  1.00  0.00    -0.329 OA
ENDROOT
BRANCH   1   7
ATOM      7  C   UNL     1     -19.479  15.714 -31.803  1.00  0.00     0.269 C 
BRANCH   7   8
ATOM      8  O   UNL     1     -19.026  14.587 -32.550  1.00  0.00    -0.459 OA
BRANCH   8   9
ATOM      9  C   UNL     1     -17.953  13.772 -32.170  1.00  0.00     0.338 C 
ATOM     10  O   UNL     1     -18.167  12.658 -31.619  1.00  0.00    -0.246 OA
BRANCH   9  11
ATOM     11  C   UNL     1     -16.568  14.210 -32.448  1.00  0.00     0.067 A 
ATOM     12  C   UNL     1     -15.483  13.480 -31.943  1.00  0.00     0.066 A 
ATOM     13  C   UNL     1     -14.171  13.892 -32.184  1.00  0.00     0.162 A 
ATOM     14  C   UNL     1     -16.320  15.360 -33.211  1.00  0.00     0.066 A 
ATOM     15  C   UNL     1     -13.922  15.052 -32.940  1.00  0.00     0.200 A 
ATOM     16  C   UNL     1     -15.012  15.788 -33.466  1.00  0.00     0.162 A 
BRANCH  13  17
ATOM     17  O   UNL     1     -13.121  13.144 -31.647  1.00  0.00    -0.504 OA
ATOM     18  H   UNL     1     -13.278  12.346 -31.042  1.00  0.00     0.293 HD
ENDBRANCH  13  17
BRANCH  15  19
ATOM     19  O   UNL     1     -12.594  15.442 -33.141  1.00  0.00    -0.502 OA
ATOM     20  H   UNL     1     -12.313  16.372 -33.408  1.00  0.00     0.293 HD
ENDBRANCH  15  19
BRANCH  16  21
ATOM     21  O   UNL     1     -14.844  16.936 -34.246  1.00  0.00    -0.504 OA
ATOM     22  H   UNL     1     -15.214  17.842 -34.010  1.00  0.00     0.293 HD
ENDBRANCH  16  21
ENDBRANCH   9  11
ENDBRANCH   8   9
ENDBRANCH   7   8
ENDBRANCH   1   7
BRANCH   2  23
ATOM     23  O   UNL     1     -21.427  14.352 -30.102  1.00  0.00    -0.452 OA
BRANCH  23  24
ATOM     24  C   UNL     1     -20.818  13.175 -29.646  1.00  0.00     0.338 C 
ATOM     25  O   UNL     1     -21.470  12.095 -29.604  1.00  0.00    -0.246 OA
BRANCH  24  26
ATOM     26  C   UNL     1     -19.405  13.205 -29.217  1.00  0.00     0.067 A 
ATOM     27  C   UNL     1     -18.672  14.404 -29.248  1.00  0.00     0.066 A 
ATOM     28  C   UNL     1     -18.782  12.033 -28.764  1.00  0.00     0.066 A 
ATOM     29  C   UNL     1     -17.338  14.433 -28.832  1.00  0.00     0.162 A 
ATOM     30  C   UNL     1     -17.446  12.051 -28.353  1.00  0.00     0.162 A 
ATOM     31  C   UNL     1     -16.717  13.253 -28.388  1.00  0.00     0.200 A 
BRANCH  29  32
ATOM     32  O   UNL     1     -16.649  15.647 -28.849  1.00  0.00    -0.504 OA
ATOM     33  H   UNL     1     -16.340  16.075 -29.714  1.00  0.00     0.293 HD
ENDBRANCH  29  32
BRANCH  30  34
ATOM     34  O   UNL     1     -16.833  10.875 -27.915  1.00  0.00    -0.504 OA
ATOM     35  H   UNL     1     -16.842  10.035 -28.484  1.00  0.00     0.293 HD
ENDBRANCH  30  34
BRANCH  31  36
ATOM     36  O   UNL     1     -15.384  13.289 -27.976  1.00  0.00    -0.502 OA
ATOM     37  H   UNL     1     -15.122  13.357 -26.997  1.00  0.00     0.293 HD
ENDBRANCH  31  36
ENDBRANCH  24  26
ENDBRANCH  23  24
ENDBRANCH   2  23
BRANCH   3  38
ATOM     38  O   UNL     1     -23.988  13.733 -31.057  1.00  0.00    -0.450 OA
BRANCH  38  39
ATOM     39  C   UNL     1     -25.329  13.445 -31.332  1.00  0.00     0.338 C 
ATOM     40  O   UNL     1     -25.812  13.703 -32.469  1.00  0.00    -0.246 OA
BRANCH  39  41
ATOM     41  C   UNL     1     -26.179  12.844 -30.277  1.00  0.00     0.067 A 
ATOM     42  C   UNL     1     -25.613  12.256 -29.133  1.00  0.00     0.066 A 
ATOM     43  C   UNL     1     -27.576  12.849 -30.418  1.00  0.00     0.066 A 
ATOM     44  C   UNL     1     -26.424  11.654 -28.161  1.00  0.00     0.162 A 
ATOM     45  C   UNL     1     -28.393  12.250 -29.456  1.00  0.00     0.162 A 
ATOM     46  C   UNL     1     -27.820  11.644 -28.325  1.00  0.00     0.200 A 
BRANCH  44  47
ATOM     47  O   UNL     1     -25.850  11.062 -27.032  1.00  0.00    -0.504 OA
ATOM     48  H   UNL     1     -25.909  10.064 -26.862  1.00  0.00     0.293 HD
ENDBRANCH  44  47
BRANCH  45  49
ATOM     49  O   UNL     1     -29.777  12.268 -29.635  1.00  0.00    -0.504 OA
ATOM     50  H   UNL     1     -30.376  11.548 -29.254  1.00  0.00     0.293 HD
ENDBRANCH  45  49
BRANCH  46  51
ATOM     51  O   UNL     1     -28.646  11.043 -27.376  1.00  0.00    -0.502 OA
ATOM     52  H   UNL     1     -28.479  11.123 -26.379  1.00  0.00     0.293 HD
ENDBRANCH  46  51
ENDBRANCH  39  41
ENDBRANCH  38  39
ENDBRANCH   3  38
BRANCH   5  53
ATOM     53  O   UNL     1     -23.041  17.609 -32.760  1.00  0.00    -0.428 OA
BRANCH  53  54
ATOM     54  C   UNL     1     -23.414  18.885 -33.201  1.00  0.00     0.340 C 
ATOM     55  O   UNL     1     -23.938  19.035 -34.338  1.00  0.00    -0.246 OA
BRANCH  54  56
ATOM     56  C   UNL     1     -23.159  20.058 -32.335  1.00  0.00     0.067 A 
ATOM     57  C   UNL     1     -23.422  21.354 -32.808  1.00  0.00     0.066 A 
ATOM     58  C   UNL     1     -22.665  19.889 -31.031  1.00  0.00     0.066 A 
ATOM     59  C   UNL     1     -23.187  22.471 -31.993  1.00  0.00     0.162 A 
ATOM     60  C   UNL     1     -22.435  21.001 -30.209  1.00  0.00     0.162 A 
ATOM     61  C   UNL     1     -22.688  22.295 -30.691  1.00  0.00     0.200 A 
BRANCH  59  62
ATOM     62  O   UNL     1     -23.445  23.753 -32.470  1.00  0.00    -0.504 OA
ATOM     63  H   UNL     1     -23.113  24.061 -33.377  1.00  0.00     0.293 HD
ENDBRANCH  59  62
BRANCH  60  64
ATOM     64  O   UNL     1     -21.940  20.809 -28.919  1.00  0.00    -0.504 OA
ATOM     65  H   UNL     1     -22.555  20.676 -28.124  1.00  0.00     0.293 HD
ENDBRANCH  60  64
BRANCH  61  66
ATOM     66  O   UNL     1     -22.442  23.394 -29.864  1.00  0.00    -0.502 OA
ATOM     67  H   UNL     1     -21.870  23.318 -29.024  1.00  0.00     0.293 HD
ENDBRANCH  61  66
ENDBRANCH  54  56
ENDBRANCH  53  54
ENDBRANCH   5  53
BRANCH   4  68
ATOM     68  O   UNL     1     -25.053  16.428 -31.225  1.00  0.00    -0.448 OA
BRANCH  68  69
ATOM     69  C   UNL     1     -25.685  17.620 -30.841  1.00  0.00     0.339 C 
ATOM     70  O   UNL     1     -25.474  18.107 -29.697  1.00  0.00    -0.246 OA
BRANCH  69  71
ATOM     71  C   UNL     1     -26.570  18.328 -31.790  1.00  0.00     0.067 A 
ATOM     72  C   UNL     1     -27.927  17.975 -31.903  1.00  0.00     0.066 A 
ATOM     73  C   UNL     1     -26.067  19.367 -32.589  1.00  0.00     0.066 A 
ATOM     74  C   UNL     1     -28.774  18.672 -32.776  1.00  0.00     0.162 A 
ATOM     75  C   UNL     1     -26.898  20.061 -33.478  1.00  0.00     0.162 A 
ATOM     76  C   UNL     1     -28.273  19.723 -33.558  1.00  0.00     0.200 A 
BRANCH  74  77
ATOM     77  O   UNL     1     -30.125  18.336 -32.864  1.00  0.00    -0.504 OA
ATOM     78  H   UNL     1     -30.770  18.545 -32.118  1.00  0.00     0.293 HD
ENDBRANCH  74  77
BRANCH  75  79
ATOM     79  O   UNL     1     -26.316  21.063 -34.260  1.00  0.00    -0.504 OA
ATOM     80  H   UNL     1     -26.136  20.975 -35.248  1.00  0.00     0.293 HD
ENDBRANCH  75  79
BRANCH  76  81
ATOM     81  O   UNL     1     -29.162  20.410 -34.387  1.00  0.00    -0.502 OA
ATOM     82  H   UNL     1     -29.253  20.231 -35.372  1.00  0.00     0.293 HD
ENDBRANCH  76  81
ENDBRANCH  69  71
ENDBRANCH  68  69
ENDBRANCH   4  68
TORSDOF 31
ENDMDL
MODEL 5
REMARK VINA RESULT:     2.542      1.492     11.206
REMARK INTER + INTRA:           5.887
REMARK INTER:                   7.627
REMARK INTRA:                  -1.740
REMARK UNBOUND:                -0.148
REMARK SMILES O=C(OC[C@@H]1O[C@@H](OC(=O)c2cc(O)c(O)c(O)c2)[C@@H](OC(=O)c2cc(O)c(O)c(O)c2)[C@H](OC(=O)c2cc(O)c(O)c(O)c2)[C@@H]1OC(=O)c1cc(O)c(O)c(O)c1)c1cc(O)c(O)c(O)c1
REMARK SMILES IDX 5 1 46 2 33 3 20 4 7 5 6 6 4 7 3 8 2 9 1 10 59 11 60 12
REMARK SMILES IDX 61 13 67 14 63 15 65 16 62 17 64 19 66 21 47 23 48 24 49 25
REMARK SMILES IDX 50 26 58 27 51 28 56 29 52 30 54 31 57 32 53 34 55 36 34 38
REMARK SMILES IDX 35 39 36 40 37 41 45 42 38 43 43 44 39 45 41 46 44 47 40 49
REMARK SMILES IDX 42 51 8 53 9 54 10 55 11 56 19 57 12 58 17 59 13 60 15 61
REMARK SMILES IDX 18 62 14 64 16 66 21 68 22 69 23 70 24 71 32 72 25 73 30 74
REMARK SMILES IDX 26 75 28 76 31 77 27 79 29 81
REMARK H PARENT 62 18 64 20 66 22 57 33 53 35 55 37 44 48 40 50 42 52 18 63
REMARK H PARENT 14 65 16 67 31 78 27 80 29 82
REMARK Flexibility Score: inf
ROOT
ATOM      1  C   UNL     1     -23.141  14.836 -31.457  1.00  0.00     0.205 C 
ATOM      2  C   UNL     1     -21.774  15.442 -31.839  1.00  0.00     0.254 C 
ATOM      3  C   UNL     1     -20.654  14.653 -31.131  1.00  0.00     0.267 C 
ATOM      4  C   UNL     1     -20.939  14.574 -29.620  1.00  0.00     0.290 C 
ATOM      5  C   UNL     1     -22.373  14.072 -29.376  1.00  0.00     0.357 C 
ATOM      6  O   UNL     1     -23.326  14.877 -30.050  1.00  0.00    -0.329 OA
ENDROOT
BRANCH   1   7
ATOM      7  C   UNL     1     -24.293  15.592 -32.140  1.00  0.00     0.269 C 
BRANCH   7   8
ATOM      8  O   UNL     1     -25.343  15.856 -31.212  1.00  0.00    -0.459 OA
BRANCH   8   9
ATOM      9  C   UNL     1     -25.736  17.139 -30.814  1.00  0.00     0.338 C 
ATOM     10  O   UNL     1     -25.451  17.562 -29.661  1.00  0.00    -0.246 OA
BRANCH   9  11
ATOM     11  C   UNL     1     -26.458  18.010 -31.767  1.00  0.00     0.067 A 
ATOM     12  C   UNL     1     -25.777  19.028 -32.448  1.00  0.00     0.066 A 
ATOM     13  C   UNL     1     -26.450  19.868 -33.338  1.00  0.00     0.162 A 
ATOM     14  C   UNL     1     -27.831  17.837 -31.998  1.00  0.00     0.066 A 
ATOM     15  C   UNL     1     -27.828  19.701 -33.561  1.00  0.00     0.200 A 
ATOM     16  C   UNL     1     -28.523  18.666 -32.887  1.00  0.00     0.162 A 
BRANCH  13  17
ATOM     17  O   UNL     1     -25.734  20.879 -33.981  1.00  0.00    -0.504 OA
ATOM     18  H   UNL     1     -26.178  21.718 -34.335  1.00  0.00     0.293 HD
ENDBRANCH  13  17
BRANCH  15  19
ATOM     19  O   UNL     1     -28.469  20.576 -34.443  1.00  0.00    -0.502 OA
ATOM     20  H   UNL     1     -29.167  21.249 -34.164  1.00  0.00     0.293 HD
ENDBRANCH  15  19
BRANCH  16  21
ATOM     21  O   UNL     1     -29.887  18.423 -33.075  1.00  0.00    -0.504 OA
ATOM     22  H   UNL     1     -30.593  18.578 -32.375  1.00  0.00     0.293 HD
ENDBRANCH  16  21
ENDBRANCH   9  11
ENDBRANCH   8   9
ENDBRANCH   7   8
ENDBRANCH   1   7
BRANCH   2  23
ATOM     23  O   UNL     1     -21.731  16.811 -31.436  1.00  0.00    -0.452 OA
BRANCH  23  24
ATOM     24  C   UNL     1     -22.423  17.842 -32.086  1.00  0.00     0.338 C 
ATOM     25  O   UNL     1     -23.037  17.615 -33.165  1.00  0.00    -0.246 OA
BRANCH  24  26
ATOM     26  C   UNL     1     -22.433  19.197 -31.499  1.00  0.00     0.067 A 
ATOM     27  C   UNL     1     -21.942  19.419 -30.200  1.00  0.00     0.066 A 
ATOM     28  C   UNL     1     -22.927  20.281 -32.238  1.00  0.00     0.066 A 
ATOM     29  C   UNL     1     -21.943  20.703 -29.649  1.00  0.00     0.162 A 
ATOM     30  C   UNL     1     -22.938  21.568 -31.693  1.00  0.00     0.162 A 
ATOM     31  C   UNL     1     -22.447  21.784 -30.393  1.00  0.00     0.200 A 
BRANCH  29  32
ATOM     32  O   UNL     1     -21.421  20.891 -28.368  1.00  0.00    -0.504 OA
ATOM     33  H   UNL     1     -21.191  21.812 -28.014  1.00  0.00     0.293 HD
ENDBRANCH  29  32
BRANCH  30  34
ATOM     34  O   UNL     1     -23.442  22.638 -32.434  1.00  0.00    -0.504 OA
ATOM     35  H   UNL     1     -22.849  23.163 -33.069  1.00  0.00     0.293 HD
ENDBRANCH  30  34
BRANCH  31  36
ATOM     36  O   UNL     1     -22.446  23.064 -29.836  1.00  0.00    -0.502 OA
ATOM     37  H   UNL     1     -23.304  23.576 -29.655  1.00  0.00     0.293 HD
ENDBRANCH  31  36
ENDBRANCH  24  26
ENDBRANCH  23  24
ENDBRANCH   2  23
BRANCH   3  38
ATOM     38  O   UNL     1     -19.387  15.278 -31.333  1.00  0.00    -0.450 OA
BRANCH  38  39
ATOM     39  C   UNL     1     -18.546  15.031 -32.423  1.00  0.00     0.338 C 
ATOM     40  O   UNL     1     -19.017  15.009 -33.593  1.00  0.00    -0.246 OA
BRANCH  39  41
ATOM     41  C   UNL     1     -17.103  14.786 -32.193  1.00  0.00     0.067 A 
ATOM     42  C   UNL     1     -16.554  14.832 -30.900  1.00  0.00     0.066 A 
ATOM     43  C   UNL     1     -16.259  14.508 -33.279  1.00  0.00     0.066 A 
ATOM     44  C   UNL     1     -15.180  14.639 -30.697  1.00  0.00     0.162 A 
ATOM     45  C   UNL     1     -14.888  14.316 -33.088  1.00  0.00     0.162 A 
ATOM     46  C   UNL     1     -14.341  14.387 -31.797  1.00  0.00     0.200 A 
BRANCH  44  47
ATOM     47  O   UNL     1     -14.642  14.699 -29.408  1.00  0.00    -0.504 OA
ATOM     48  H   UNL     1     -14.115  15.504 -29.085  1.00  0.00     0.293 HD
ENDBRANCH  44  47
BRANCH  45  49
ATOM     49  O   UNL     1     -14.080  14.051 -34.195  1.00  0.00    -0.504 OA
ATOM     50  H   UNL     1     -14.047  13.138 -34.628  1.00  0.00     0.293 HD
ENDBRANCH  45  49
BRANCH  46  51
ATOM     51  O   UNL     1     -12.971  14.200 -31.620  1.00  0.00    -0.502 OA
ATOM     52  H   UNL     1     -12.299  14.952 -31.733  1.00  0.00     0.293 HD
ENDBRANCH  46  51
ENDBRANCH  39  41
ENDBRANCH  38  39
ENDBRANCH   3  38
BRANCH   5  53
ATOM     53  O   UNL     1     -22.505  12.702 -29.764  1.00  0.00    -0.428 OA
BRANCH  53  54
ATOM     54  C   UNL     1     -23.224  11.756 -29.022  1.00  0.00     0.340 C 
ATOM     55  O   UNL     1     -22.613  10.875 -28.357  1.00  0.00    -0.246 OA
BRANCH  54  56
ATOM     56  C   UNL     1     -24.703  11.781 -29.048  1.00  0.00     0.067 A 
ATOM     57  C   UNL     1     -25.379  12.257 -30.184  1.00  0.00     0.066 A 
ATOM     58  C   UNL     1     -25.445  11.320 -27.949  1.00  0.00     0.066 A 
ATOM     59  C   UNL     1     -26.781  12.282 -30.218  1.00  0.00     0.162 A 
ATOM     60  C   UNL     1     -26.846  11.335 -27.981  1.00  0.00     0.162 A 
ATOM     61  C   UNL     1     -27.518  11.823 -29.113  1.00  0.00     0.200 A 
BRANCH  59  62
ATOM     62  O   UNL     1     -27.445  12.760 -31.345  1.00  0.00    -0.504 OA
ATOM     63  H   UNL     1     -27.030  13.456 -31.953  1.00  0.00     0.293 HD
ENDBRANCH  59  62
BRANCH  60  64
ATOM     64  O   UNL     1     -27.562  10.875 -26.876  1.00  0.00    -0.504 OA
ATOM     65  H   UNL     1     -27.965  11.511 -26.196  1.00  0.00     0.293 HD
ENDBRANCH  60  64
BRANCH  61  66
ATOM     66  O   UNL     1     -28.915  11.843 -29.125  1.00  0.00    -0.502 OA
ATOM     67  H   UNL     1     -29.450  11.556 -29.944  1.00  0.00     0.293 HD
ENDBRANCH  61  66
ENDBRANCH  54  56
ENDBRANCH  53  54
ENDBRANCH   5  53
BRANCH   4  68
ATOM     68  O   UNL     1     -20.011  13.687 -28.987  1.00  0.00    -0.448 OA
BRANCH  68  69
ATOM     69  C   UNL     1     -19.365  12.635 -29.654  1.00  0.00     0.339 C 
ATOM     70  O   UNL     1     -19.943  12.042 -30.605  1.00  0.00    -0.246 OA
BRANCH  69  71
ATOM     71  C   UNL     1     -17.992  12.247 -29.270  1.00  0.00     0.067 A 
ATOM     72  C   UNL     1     -17.106  11.713 -30.223  1.00  0.00     0.066 A 
ATOM     73  C   UNL     1     -17.552  12.411 -27.947  1.00  0.00     0.066 A 
ATOM     74  C   UNL     1     -15.792  11.380 -29.867  1.00  0.00     0.162 A 
ATOM     75  C   UNL     1     -16.246  12.067 -27.573  1.00  0.00     0.162 A 
ATOM     76  C   UNL     1     -15.349  11.564 -28.549  1.00  0.00     0.200 A 
BRANCH  74  77
ATOM     77  O   UNL     1     -14.909  10.875 -30.822  1.00  0.00    -0.504 OA
ATOM     78  H   UNL     1     -15.242  10.437 -31.667  1.00  0.00     0.293 HD
ENDBRANCH  74  77
BRANCH  75  79
ATOM     79  O   UNL     1     -15.892  12.232 -26.230  1.00  0.00    -0.504 OA
ATOM     80  H   UNL     1     -15.141  11.735 -25.778  1.00  0.00     0.293 HD
ENDBRANCH  75  79
BRANCH  76  81
ATOM     81  O   UNL     1     -14.022  11.250 -28.250  1.00  0.00    -0.502 OA
ATOM     82  H   UNL     1     -13.648  11.251 -27.316  1.00  0.00     0.293 HD
ENDBRANCH  76  81
ENDBRANCH  69  71
ENDBRANCH  68  69
ENDBRANCH   4  68
TORSDOF 31
ENDMDL
MODEL 6
REMARK VINA RESULT:     2.669      1.598     11.197
REMARK INTER + INTRA:           6.188
REMARK INTER:                   5.918
REMARK INTRA:                   0.270
REMARK UNBOUND:                -0.148
REMARK SMILES O=C(OC[C@@H]1O[C@@H](OC(=O)c2cc(O)c(O)c(O)c2)[C@@H](OC(=O)c2cc(O)c(O)c(O)c2)[C@H](OC(=O)c2cc(O)c(O)c(O)c2)[C@@H]1OC(=O)c1cc(O)c(O)c(O)c1)c1cc(O)c(O)c(O)c1
REMARK SMILES IDX 5 1 46 2 33 3 20 4 7 5 6 6 4 7 3 8 2 9 1 10 59 11 60 12
REMARK SMILES IDX 61 13 67 14 63 15 65 16 62 17 64 19 66 21 47 23 48 24 49 25
REMARK SMILES IDX 50 26 58 27 51 28 56 29 52 30 54 31 57 32 53 34 55 36 34 38
REMARK SMILES IDX 35 39 36 40 37 41 45 42 38 43 43 44 39 45 41 46 44 47 40 49
REMARK SMILES IDX 42 51 8 53 9 54 10 55 11 56 19 57 12 58 17 59 13 60 15 61
REMARK SMILES IDX 18 62 14 64 16 66 21 68 22 69 23 70 24 71 32 72 25 73 30 74
REMARK SMILES IDX 26 75 28 76 31 77 27 79 29 81
REMARK H PARENT 62 18 64 20 66 22 57 33 53 35 55 37 44 48 40 50 42 52 18 63
REMARK H PARENT 14 65 16 67 31 78 27 80 29 82
REMARK Flexibility Score: inf
ROOT
ATOM      1  C   UNL     1     -22.221  15.296 -31.430  1.00  0.00     0.205 C 
ATOM      2  C   UNL     1     -20.721  15.529 -31.715  1.00  0.00     0.254 C 
ATOM      3  C   UNL     1     -19.908  14.350 -31.143  1.00  0.00     0.267 C 
ATOM      4  C   UNL     1     -20.269  14.128 -29.663  1.00  0.00     0.290 C 
ATOM      5  C   UNL     1     -21.797  14.034 -29.498  1.00  0.00     0.357 C 
ATOM      6  O   UNL     1     -22.447  15.175 -30.034  1.00  0.00    -0.329 OA
ENDROOT
BRANCH   1   7
ATOM      7  C   UNL     1     -23.074  16.450 -31.982  1.00  0.00     0.269 C 
BRANCH   7   8
ATOM      8  O   UNL     1     -24.442  16.286 -31.612  1.00  0.00    -0.459 OA
BRANCH   8   9
ATOM      9  C   UNL     1     -25.227  17.293 -31.039  1.00  0.00     0.338 C 
ATOM     10  O   UNL     1     -25.219  17.471 -29.791  1.00  0.00    -0.246 OA
BRANCH   9  11
ATOM     11  C   UNL     1     -26.040  18.171 -31.909  1.00  0.00     0.067 A 
ATOM     12  C   UNL     1     -27.429  18.001 -31.981  1.00  0.00     0.066 A 
ATOM     13  C   UNL     1     -28.207  18.811 -32.811  1.00  0.00     0.162 A 
ATOM     14  C   UNL     1     -25.436  19.177 -32.677  1.00  0.00     0.066 A 
ATOM     15  C   UNL     1     -27.600  19.813 -33.590  1.00  0.00     0.200 A 
ATOM     16  C   UNL     1     -26.197  20.001 -33.513  1.00  0.00     0.162 A 
BRANCH  13  17
ATOM     17  O   UNL     1     -29.585  18.595 -32.864  1.00  0.00    -0.504 OA
ATOM     18  H   UNL     1     -30.008  17.945 -33.516  1.00  0.00     0.293 HD
ENDBRANCH  13  17
BRANCH  15  19
ATOM     19  O   UNL     1     -28.410  20.589 -34.424  1.00  0.00    -0.502 OA
ATOM     20  H   UNL     1     -28.200  21.538 -34.692  1.00  0.00     0.293 HD
ENDBRANCH  15  19
BRANCH  16  21
ATOM     21  O   UNL     1     -25.526  20.990 -34.238  1.00  0.00    -0.504 OA
ATOM     22  H   UNL     1     -25.974  21.786 -34.662  1.00  0.00     0.293 HD
ENDBRANCH  16  21
ENDBRANCH   9  11
ENDBRANCH   8   9
ENDBRANCH   7   8
ENDBRANCH   1   7
BRANCH   2  23
ATOM     23  O   UNL     1     -20.303  16.748 -31.100  1.00  0.00    -0.452 OA
BRANCH  23  24
ATOM     24  C   UNL     1     -21.130  17.540 -30.290  1.00  0.00     0.338 C 
ATOM     25  O   UNL     1     -21.387  17.188 -29.106  1.00  0.00    -0.246 OA
BRANCH  24  26
ATOM     26  C   UNL     1     -21.695  18.792 -30.831  1.00  0.00     0.067 A 
ATOM     27  C   UNL     1     -21.999  19.869 -29.980  1.00  0.00     0.066 A 
ATOM     28  C   UNL     1     -21.925  18.923 -32.209  1.00  0.00     0.066 A 
ATOM     29  C   UNL     1     -22.525  21.057 -30.494  1.00  0.00     0.162 A 
ATOM     30  C   UNL     1     -22.457  20.105 -32.732  1.00  0.00     0.162 A 
ATOM     31  C   UNL     1     -22.761  21.178 -31.875  1.00  0.00     0.200 A 
BRANCH  29  32
ATOM     32  O   UNL     1     -22.788  22.115 -29.623  1.00  0.00    -0.504 OA
ATOM     33  H   UNL     1     -23.309  22.933 -29.916  1.00  0.00     0.293 HD
ENDBRANCH  29  32
BRANCH  30  34
ATOM     34  O   UNL     1     -22.693  20.220 -34.103  1.00  0.00    -0.504 OA
ATOM     35  H   UNL     1     -22.963  19.414 -34.659  1.00  0.00     0.293 HD
ENDBRANCH  30  34
BRANCH  31  36
ATOM     36  O   UNL     1     -23.287  22.367 -32.382  1.00  0.00    -0.502 OA
ATOM     37  H   UNL     1     -22.734  23.008 -32.943  1.00  0.00     0.293 HD
ENDBRANCH  31  36
ENDBRANCH  24  26
ENDBRANCH  23  24
ENDBRANCH   2  23
BRANCH   3  38
ATOM     38  O   UNL     1     -18.507  14.602 -31.247  1.00  0.00    -0.450 OA
BRANCH  38  39
ATOM     39  C   UNL     1     -17.841  14.893 -32.442  1.00  0.00     0.338 C 
ATOM     40  O   UNL     1     -18.497  15.220 -33.469  1.00  0.00    -0.246 OA
BRANCH  39  41
ATOM     41  C   UNL     1     -16.363  14.806 -32.494  1.00  0.00     0.067 A 
ATOM     42  C   UNL     1     -15.699  14.371 -33.655  1.00  0.00     0.066 A 
ATOM     43  C   UNL     1     -15.601  15.155 -31.368  1.00  0.00     0.066 A 
ATOM     44  C   UNL     1     -14.302  14.253 -33.680  1.00  0.00     0.162 A 
ATOM     45  C   UNL     1     -14.209  15.039 -31.383  1.00  0.00     0.162 A 
ATOM     46  C   UNL     1     -13.553  14.582 -32.537  1.00  0.00     0.200 A 
BRANCH  44  47
ATOM     47  O   UNL     1     -13.654  13.808 -34.836  1.00  0.00    -0.504 OA
ATOM     48  H   UNL     1     -13.257  14.455 -35.510  1.00  0.00     0.293 HD
ENDBRANCH  44  47
BRANCH  45  49
ATOM     49  O   UNL     1     -13.487  15.388 -30.240  1.00  0.00    -0.504 OA
ATOM     50  H   UNL     1     -13.314  14.728 -29.493  1.00  0.00     0.293 HD
ENDBRANCH  45  49
BRANCH  46  51
ATOM     51  O   UNL     1     -12.164  14.464 -32.537  1.00  0.00    -0.502 OA
ATOM     52  H   UNL     1     -11.624  14.375 -31.683  1.00  0.00     0.293 HD
ENDBRANCH  46  51
ENDBRANCH  39  41
ENDBRANCH  38  39
ENDBRANCH   3  38
BRANCH   5  53
ATOM     53  O   UNL     1     -22.301  12.838 -30.098  1.00  0.00    -0.428 OA
BRANCH  53  54
ATOM     54  C   UNL     1     -23.144  11.939 -29.434  1.00  0.00     0.340 C 
ATOM     55  O   UNL     1     -22.676  10.875 -28.943  1.00  0.00    -0.246 OA
BRANCH  54  56
ATOM     56  C   UNL     1     -24.592  12.232 -29.340  1.00  0.00     0.067 A 
ATOM     57  C   UNL     1     -25.407  11.485 -28.474  1.00  0.00     0.066 A 
ATOM     58  C   UNL     1     -25.163  13.264 -30.103  1.00  0.00     0.066 A 
ATOM     59  C   UNL     1     -26.780  11.758 -28.376  1.00  0.00     0.162 A 
ATOM     60  C   UNL     1     -26.532  13.547 -30.004  1.00  0.00     0.162 A 
ATOM     61  C   UNL     1     -27.346  12.789 -29.146  1.00  0.00     0.200 A 
BRANCH  59  62
ATOM     62  O   UNL     1     -27.583  11.011 -27.519  1.00  0.00    -0.504 OA
ATOM     63  H   UNL     1     -27.187  10.357 -26.854  1.00  0.00     0.293 HD
ENDBRANCH  59  62
BRANCH  60  64
ATOM     64  O   UNL     1     -27.077  14.574 -30.774  1.00  0.00    -0.504 OA
ATOM     65  H   UNL     1     -27.075  15.537 -30.460  1.00  0.00     0.293 HD
ENDBRANCH  60  64
BRANCH  61  66
ATOM     66  O   UNL     1     -28.711  13.075 -29.067  1.00  0.00    -0.502 OA
ATOM     67  H   UNL     1     -29.258  12.862 -28.234  1.00  0.00     0.293 HD
ENDBRANCH  61  66
ENDBRANCH  54  56
ENDBRANCH  53  54
ENDBRANCH   5  53
BRANCH   4  68
ATOM     68  O   UNL     1     -19.665  12.923 -29.181  1.00  0.00    -0.448 OA
BRANCH  68  69
ATOM     69  C   UNL     1     -18.688  12.209 -29.890  1.00  0.00     0.339 C 
ATOM     70  O   UNL     1     -18.991  11.622 -30.964  1.00  0.00    -0.246 OA
BRANCH  69  71
ATOM     71  C   UNL     1     -17.294  12.176 -29.401  1.00  0.00     0.067 A 
ATOM     72  C   UNL     1     -17.004  12.422 -28.047  1.00  0.00     0.066 A 
ATOM     73  C   UNL     1     -16.238  11.893 -30.283  1.00  0.00     0.066 A 
ATOM     74  C   UNL     1     -15.685  12.354 -27.576  1.00  0.00     0.162 A 
ATOM     75  C   UNL     1     -14.914  11.838 -29.830  1.00  0.00     0.162 A 
ATOM     76  C   UNL     1     -14.636  12.052 -28.456  1.00  0.00     0.200 A 
BRANCH  74  77
ATOM     77  O   UNL     1     -15.407  12.573 -26.227  1.00  0.00    -0.504 OA
ATOM     78  H   UNL     1     -15.619  13.453 -25.781  1.00  0.00     0.293 HD
ENDBRANCH  74  77
BRANCH  75  79
ATOM     79  O   UNL     1     -13.916  11.580 -30.775  1.00  0.00    -0.504 OA
ATOM     80  H   UNL     1     -13.846  10.725 -31.303  1.00  0.00     0.293 HD
ENDBRANCH  75  79
BRANCH  76  81
ATOM     81  O   UNL     1     -13.344  11.961 -27.934  1.00  0.00    -0.502 OA
ATOM     82  H   UNL     1     -12.642  11.340 -28.297  1.00  0.00     0.293 HD
ENDBRANCH  76  81
ENDBRANCH  69  71
ENDBRANCH  68  69
ENDBRANCH   4  68
TORSDOF 31
ENDMDL
MODEL 7
REMARK VINA RESULT:     2.696      1.600     11.241
REMARK INTER + INTRA:           6.251
REMARK INTER:                   6.012
REMARK INTRA:                   0.239
REMARK UNBOUND:                -0.148
REMARK SMILES O=C(OC[C@@H]1O[C@@H](OC(=O)c2cc(O)c(O)c(O)c2)[C@@H](OC(=O)c2cc(O)c(O)c(O)c2)[C@H](OC(=O)c2cc(O)c(O)c(O)c2)[C@@H]1OC(=O)c1cc(O)c(O)c(O)c1)c1cc(O)c(O)c(O)c1
REMARK SMILES IDX 5 1 46 2 33 3 20 4 7 5 6 6 4 7 3 8 2 9 1 10 59 11 60 12
REMARK SMILES IDX 61 13 67 14 63 15 65 16 62 17 64 19 66 21 47 23 48 24 49 25
REMARK SMILES IDX 50 26 58 27 51 28 56 29 52 30 54 31 57 32 53 34 55 36 34 38
REMARK SMILES IDX 35 39 36 40 37 41 45 42 38 43 43 44 39 45 41 46 44 47 40 49
REMARK SMILES IDX 42 51 8 53 9 54 10 55 11 56 19 57 12 58 17 59 13 60 15 61
REMARK SMILES IDX 18 62 14 64 16 66 21 68 22 69 23 70 24 71 32 72 25 73 30 74
REMARK SMILES IDX 26 75 28 76 31 77 27 79 29 81
REMARK H PARENT 62 18 64 20 66 22 57 33 53 35 55 37 44 48 40 50 42 52 18 63
REMARK H PARENT 14 65 16 67 31 78 27 80 29 82
REMARK Flexibility Score: inf
ROOT
ATOM      1  C   UNL     1     -22.201  15.283 -31.444  1.00  0.00     0.205 C 
ATOM      2  C   UNL     1     -20.704  15.516 -31.743  1.00  0.00     0.254 C 
ATOM      3  C   UNL     1     -19.885  14.339 -31.174  1.00  0.00     0.267 C 
ATOM      4  C   UNL     1     -20.233  14.122 -29.690  1.00  0.00     0.290 C 
ATOM      5  C   UNL     1     -21.759  14.027 -29.511  1.00  0.00     0.357 C 
ATOM      6  O   UNL     1     -22.415  15.166 -30.045  1.00  0.00    -0.329 OA
ENDROOT
BRANCH   1   7
ATOM      7  C   UNL     1     -23.060  16.434 -31.993  1.00  0.00     0.269 C 
BRANCH   7   8
ATOM      8  O   UNL     1     -24.428  16.260 -31.627  1.00  0.00    -0.459 OA
BRANCH   8   9
ATOM      9  C   UNL     1     -25.219  17.256 -31.044  1.00  0.00     0.338 C 
ATOM     10  O   UNL     1     -25.219  17.416 -29.793  1.00  0.00    -0.246 OA
BRANCH   9  11
ATOM     11  C   UNL     1     -26.028  18.145 -31.906  1.00  0.00     0.067 A 
ATOM     12  C   UNL     1     -27.419  17.991 -31.969  1.00  0.00     0.066 A 
ATOM     13  C   UNL     1     -28.193  18.812 -32.791  1.00  0.00     0.162 A 
ATOM     14  C   UNL     1     -25.418  19.147 -32.676  1.00  0.00     0.066 A 
ATOM     15  C   UNL     1     -27.580  19.809 -33.572  1.00  0.00     0.200 A 
ATOM     16  C   UNL     1     -26.175  19.981 -33.504  1.00  0.00     0.162 A 
BRANCH  13  17
ATOM     17  O   UNL     1     -29.575  18.612 -32.835  1.00  0.00    -0.504 OA
ATOM     18  H   UNL     1     -30.120  18.773 -33.674  1.00  0.00     0.293 HD
ENDBRANCH  13  17
BRANCH  15  19
ATOM     19  O   UNL     1     -28.388  20.597 -34.398  1.00  0.00    -0.502 OA
ATOM     20  H   UNL     1     -28.948  20.233 -35.153  1.00  0.00     0.293 HD
ENDBRANCH  15  19
BRANCH  16  21
ATOM     21  O   UNL     1     -25.498  20.965 -34.231  1.00  0.00    -0.504 OA
ATOM     22  H   UNL     1     -25.946  21.636 -34.833  1.00  0.00     0.293 HD
ENDBRANCH  16  21
ENDBRANCH   9  11
ENDBRANCH   8   9
ENDBRANCH   7   8
ENDBRANCH   1   7
BRANCH   2  23
ATOM     23  O   UNL     1     -20.282  16.737 -31.135  1.00  0.00    -0.452 OA
BRANCH  23  24
ATOM     24  C   UNL     1     -21.102  17.531 -30.321  1.00  0.00     0.338 C 
ATOM     25  O   UNL     1     -21.355  17.179 -29.136  1.00  0.00    -0.246 OA
BRANCH  24  26
ATOM     26  C   UNL     1     -21.665  18.786 -30.859  1.00  0.00     0.067 A 
ATOM     27  C   UNL     1     -21.889  18.938 -32.238  1.00  0.00     0.066 A 
ATOM     28  C   UNL     1     -21.993  19.838 -29.992  1.00  0.00     0.066 A 
ATOM     29  C   UNL     1     -22.432  20.122 -32.745  1.00  0.00     0.162 A 
ATOM     30  C   UNL     1     -22.529  21.029 -30.490  1.00  0.00     0.162 A 
ATOM     31  C   UNL     1     -22.750  21.177 -31.871  1.00  0.00     0.200 A 
BRANCH  29  32
ATOM     32  O   UNL     1     -22.667  20.228 -34.116  1.00  0.00    -0.504 OA
ATOM     33  H   UNL     1     -21.912  20.216 -34.791  1.00  0.00     0.293 HD
ENDBRANCH  29  32
BRANCH  30  34
ATOM     34  O   UNL     1     -22.841  22.074 -29.618  1.00  0.00    -0.504 OA
ATOM     35  H   UNL     1     -23.804  22.304 -29.395  1.00  0.00     0.293 HD
ENDBRANCH  30  34
BRANCH  31  36
ATOM     36  O   UNL     1     -23.290  22.357 -32.383  1.00  0.00    -0.502 OA
ATOM     37  H   UNL     1     -24.259  22.621 -32.229  1.00  0.00     0.293 HD
ENDBRANCH  31  36
ENDBRANCH  24  26
ENDBRANCH  23  24
ENDBRANCH   2  23
BRANCH   3  38
ATOM     38  O   UNL     1     -18.485  14.592 -31.290  1.00  0.00    -0.450 OA
BRANCH  38  39
ATOM     39  C   UNL     1     -17.833  14.901 -32.489  1.00  0.00     0.338 C 
ATOM     40  O   UNL     1     -18.501  15.249 -33.501  1.00  0.00    -0.246 OA
BRANCH  39  41
ATOM     41  C   UNL     1     -16.356  14.807 -32.562  1.00  0.00     0.067 A 
ATOM     42  C   UNL     1     -15.546  15.212 -31.488  1.00  0.00     0.066 A 
ATOM     43  C   UNL     1     -15.744  14.313 -33.725  1.00  0.00     0.066 A 
ATOM     44  C   UNL     1     -14.148  15.158 -31.583  1.00  0.00     0.162 A 
ATOM     45  C   UNL     1     -14.352  14.256 -33.831  1.00  0.00     0.162 A 
ATOM     46  C   UNL     1     -13.548  14.684 -32.762  1.00  0.00     0.200 A 
BRANCH  44  47
ATOM     47  O   UNL     1     -13.352  15.574 -30.512  1.00  0.00    -0.504 OA
ATOM     48  H   UNL     1     -12.348  15.690 -30.605  1.00  0.00     0.293 HD
ENDBRANCH  44  47
BRANCH  45  49
ATOM     49  O   UNL     1     -13.781  13.767 -35.006  1.00  0.00    -0.504 OA
ATOM     50  H   UNL     1     -13.152  14.324 -35.569  1.00  0.00     0.293 HD
ENDBRANCH  45  49
BRANCH  46  51
ATOM     51  O   UNL     1     -12.159  14.629 -32.883  1.00  0.00    -0.502 OA
ATOM     52  H   UNL     1     -11.552  15.366 -32.541  1.00  0.00     0.293 HD
ENDBRANCH  46  51
ENDBRANCH  39  41
ENDBRANCH  38  39
ENDBRANCH   3  38
BRANCH   5  53
ATOM     53  O   UNL     1     -22.267  12.829 -30.103  1.00  0.00    -0.428 OA
BRANCH  53  54
ATOM     54  C   UNL     1     -23.108  11.934 -29.430  1.00  0.00     0.340 C 
ATOM     55  O   UNL     1     -22.637  10.875 -28.931  1.00  0.00    -0.246 OA
BRANCH  54  56
ATOM     56  C   UNL     1     -24.556  12.225 -29.335  1.00  0.00     0.067 A 
ATOM     57  C   UNL     1     -25.366  11.492 -28.452  1.00  0.00     0.066 A 
ATOM     58  C   UNL     1     -25.133  13.242 -30.114  1.00  0.00     0.066 A 
ATOM     59  C   UNL     1     -26.739  11.764 -28.354  1.00  0.00     0.162 A 
ATOM     60  C   UNL     1     -26.502  13.523 -30.015  1.00  0.00     0.162 A 
ATOM     61  C   UNL     1     -27.310  12.780 -29.140  1.00  0.00     0.200 A 
BRANCH  59  62
ATOM     62  O   UNL     1     -27.537  11.031 -27.481  1.00  0.00    -0.504 OA
ATOM     63  H   UNL     1     -28.412  11.397 -27.124  1.00  0.00     0.293 HD
ENDBRANCH  59  62
BRANCH  60  64
ATOM     64  O   UNL     1     -27.052  14.535 -30.802  1.00  0.00    -0.504 OA
ATOM     65  H   UNL     1     -28.050  14.598 -30.972  1.00  0.00     0.293 HD
ENDBRANCH  60  64
BRANCH  61  66
ATOM     66  O   UNL     1     -28.676  13.064 -29.061  1.00  0.00    -0.502 OA
ATOM     67  H   UNL     1     -29.240  13.229 -29.894  1.00  0.00     0.293 HD
ENDBRANCH  61  66
ENDBRANCH  54  56
ENDBRANCH  53  54
ENDBRANCH   5  53
BRANCH   4  68
ATOM     68  O   UNL     1     -19.624  12.920 -29.208  1.00  0.00    -0.448 OA
BRANCH  68  69
ATOM     69  C   UNL     1     -18.639  12.214 -29.915  1.00  0.00     0.339 C 
ATOM     70  O   UNL     1     -18.936  11.613 -30.983  1.00  0.00    -0.246 OA
BRANCH  69  71
ATOM     71  C   UNL     1     -17.242  12.206 -29.430  1.00  0.00     0.067 A 
ATOM     72  C   UNL     1     -16.956  12.413 -28.069  1.00  0.00     0.066 A 
ATOM     73  C   UNL     1     -16.182  11.985 -30.324  1.00  0.00     0.066 A 
ATOM     74  C   UNL     1     -15.634  12.368 -27.604  1.00  0.00     0.162 A 
ATOM     75  C   UNL     1     -14.855  11.954 -29.876  1.00  0.00     0.162 A 
ATOM     76  C   UNL     1     -14.579  12.128 -28.497  1.00  0.00     0.200 A 
BRANCH  74  77
ATOM     77  O   UNL     1     -15.358  12.548 -26.249  1.00  0.00    -0.504 OA
ATOM     78  H   UNL     1     -15.752  13.317 -25.728  1.00  0.00     0.293 HD
ENDBRANCH  74  77
BRANCH  75  79
ATOM     79  O   UNL     1     -13.854  11.759 -30.832  1.00  0.00    -0.504 OA
ATOM     80  H   UNL     1     -13.429  10.867 -31.031  1.00  0.00     0.293 HD
ENDBRANCH  75  79
BRANCH  76  81
ATOM     81  O   UNL     1     -13.284  12.058 -27.981  1.00  0.00    -0.502 OA
ATOM     82  H   UNL     1     -12.943  12.661 -27.252  1.00  0.00     0.293 HD
ENDBRANCH  76  81
ENDBRANCH  69  71
ENDBRANCH  68  69
ENDBRANCH   4  68
TORSDOF 31
ENDMDL
