MODEL 1
REMARK VINA RESULT:     0.600      0.000      0.000
REMARK INTER + INTRA:           3.624
REMARK INTER:                   0.811
REMARK INTRA:                   2.814
REMARK UNBOUND:                 2.814
REMARK SMILES O=c1c(-c2ccc(O)cc2)coc2c([C@H]3O[C@@H](CO)[C@H](O)[C@H](O)[C@H]3O)c(O)ccc12
REMARK SMILES IDX 3 1 11 2 12 3 13 4 30 5 2 6 1 7 29 8 28 9 26 10 14 11 4 12
REMARK SMILES IDX 5 13 6 14 7 15 10 16 9 17 8 18 15 20 24 21 16 22 22 23 17 24
REMARK SMILES IDX 20 25 25 26 23 28 18 30 19 31 21 33 27 35
REMARK H PARENT 8 19 25 27 23 29 19 32 21 34 27 36
REMARK Flexibility Score: inf
ROOT
ATOM      1  C   UNL     1       3.716  12.623  11.497  1.00  0.00     0.065 A 
ATOM      2  C   UNL     1       4.671  11.803  10.875  1.00  0.00     0.208 A 
ATOM      3  O   UNL     1       4.713  10.523  11.157  1.00  0.00    -0.463 OA
ATOM      4  C   UNL     1       3.965   9.912  12.047  1.00  0.00     0.147 A 
ATOM      5  C   UNL     1       3.000  10.659  12.770  1.00  0.00     0.066 A 
ATOM      6  C   UNL     1       2.856  12.025  12.447  1.00  0.00     0.200 A 
ATOM      7  O   UNL     1       1.969  12.724  12.998  1.00  0.00    -0.288 OA
ATOM      8  C   UNL     1       2.232  10.033  13.761  1.00  0.00     0.020 A 
ATOM      9  C   UNL     1       2.438   8.674  14.058  1.00  0.00     0.047 A 
ATOM     10  C   UNL     1       3.399   7.925  13.350  1.00  0.00     0.125 A 
ATOM     11  C   UNL     1       4.158   8.516  12.298  1.00  0.00     0.069 A 
ENDROOT
BRANCH   1  12
ATOM     12  C   UNL     1       3.615  14.028  11.023  1.00  0.00    -0.011 A 
ATOM     13  C   UNL     1       2.350  14.646  10.939  1.00  0.00     0.013 A 
ATOM     14  C   UNL     1       2.209  16.039  10.875  1.00  0.00     0.047 A 
ATOM     15  C   UNL     1       3.350  16.829  10.914  1.00  0.00     0.115 A 
ATOM     16  C   UNL     1       4.752  14.832  10.922  1.00  0.00     0.013 A 
ATOM     17  C   UNL     1       4.625  16.218  10.899  1.00  0.00     0.047 A 
BRANCH  15  18
ATOM     18  O   UNL     1       3.245  18.217  10.968  1.00  0.00    -0.508 OA
ATOM     19  H   UNL     1       2.335  18.654  10.841  1.00  0.00     0.293 HD
ENDBRANCH  15  18
ENDBRANCH   1  12
BRANCH  11  20
ATOM     20  C   UNL     1       5.145   7.611  11.522  1.00  0.00     0.188 C 
ATOM     21  C   UNL     1       5.182   6.067  11.730  1.00  0.00     0.179 C 
ATOM     22  O   UNL     1       6.483   8.100  11.600  1.00  0.00    -0.362 OA
ATOM     23  C   UNL     1       5.917   5.656  13.031  1.00  0.00     0.177 C 
ATOM     24  C   UNL     1       7.150   7.868  12.838  1.00  0.00     0.176 C 
ATOM     25  C   UNL     1       6.409   6.918  13.823  1.00  0.00     0.177 C 
BRANCH  21  26
ATOM     26  O   UNL     1       3.896   5.516  11.649  1.00  0.00    -0.387 OA
ATOM     27  H   UNL     1       3.876   4.721  12.234  1.00  0.00     0.211 HD
ENDBRANCH  21  26
BRANCH  23  28
ATOM     28  O   UNL     1       7.013   4.880  12.633  1.00  0.00    -0.387 OA
ATOM     29  H   UNL     1       7.804   5.451  12.636  1.00  0.00     0.211 HD
ENDBRANCH  23  28
BRANCH  24  30
ATOM     30  C   UNL     1       7.511   9.254  13.399  1.00  0.00     0.191 C 
BRANCH  30  31
ATOM     31  O   UNL     1       8.067   9.244  14.702  1.00  0.00    -0.394 OA
ATOM     32  H   UNL     1       7.980   8.291  14.970  1.00  0.00     0.210 HD
ENDBRANCH  30  31
ENDBRANCH  24  30
BRANCH  25  33
ATOM     33  O   UNL     1       7.281   6.520  14.856  1.00  0.00    -0.388 OA
ATOM     34  H   UNL     1       7.401   7.282  15.475  1.00  0.00     0.211 HD
ENDBRANCH  25  33
ENDBRANCH  11  20
BRANCH  10  35
ATOM     35  O   UNL     1       3.607   6.580  13.678  1.00  0.00    -0.507 OA
ATOM     36  H   UNL     1       2.916   5.869  13.497  1.00  0.00     0.293 HD
ENDBRANCH  10  35
TORSDOF 9
ENDMDL
