MODEL 1
REMARK VINA RESULT:    -6.750      0.000      0.000
REMARK INTER + INTRA:         -10.371
REMARK INTER:                  -9.315
REMARK INTRA:                  -1.056
REMARK UNBOUND:                -1.056
REMARK SMILES O=C([O-])[C@@H]1O[C@@H](Oc2cc3oc(-c4ccccc4)cc(=O)c3c(O)c2O)[C@H](O)[C@@H](O)[C@H]1O
REMARK SMILES IDX 7 1 6 2 4 3 31 4 5 5 29 6 27 7 2 8 1 9 3 10 32 11 30 13
REMARK SMILES IDX 28 15 8 17 25 18 9 19 23 20 10 21 22 22 11 23 20 24 12 25
REMARK SMILES IDX 19 26 21 27 26 28 24 30 13 32 14 33 18 34 15 35 17 36 16 37
REMARK H PARENT 32 12 30 14 28 16 26 29 24 31
REMARK Flexibility Score: inf
ROOT
ATOM      1  O   UNL     1      12.407 -25.379  15.229  1.00  0.00    -0.458 OA
ENDROOT
BRANCH   1   2
ATOM      2  C   UNL     1      11.744 -24.131  15.469  1.00  0.00     0.339 C 
ATOM      3  C   UNL     1      12.934 -23.053  13.753  1.00  0.00     0.199 C 
ATOM      4  C   UNL     1      13.686 -22.114  14.719  1.00  0.00     0.180 C 
ATOM      5  O   UNL     1      11.652 -23.386  14.265  1.00  0.00    -0.328 OA
ATOM      6  C   UNL     1      13.814 -22.775  16.106  1.00  0.00     0.181 C 
ATOM      7  C   UNL     1      12.452 -23.315  16.583  1.00  0.00     0.214 C 
BRANCH   3   8
ATOM      8  C   UNL     1      12.756 -22.384  12.423  1.00  0.00     0.073 C 
ATOM      9  O   UNL     1      13.548 -22.630  11.474  1.00  0.00    -0.547 OA
ATOM     10  O   UNL     1      11.689 -21.518  12.216  1.00  0.00    -0.547 OA
ENDBRANCH   3   8
BRANCH   4  11
ATOM     11  O   UNL     1      14.959 -21.819  14.201  1.00  0.00    -0.387 OA
ATOM     12  H   UNL     1      15.260 -22.625  13.707  1.00  0.00     0.211 HD
ENDBRANCH   4  11
BRANCH   6  13
ATOM     13  O   UNL     1      14.736 -23.836  16.057  1.00  0.00    -0.387 OA
ATOM     14  H   UNL     1      14.372 -24.567  16.623  1.00  0.00     0.211 HD
ENDBRANCH   6  13
BRANCH   7  15
ATOM     15  O   UNL     1      11.630 -22.269  17.043  1.00  0.00    -0.384 OA
ATOM     16  H   UNL     1      10.688 -22.578  17.011  1.00  0.00     0.211 HD
ENDBRANCH   7  15
ENDBRANCH   1   2
BRANCH   1  17
ATOM     17  C   UNL     1      11.959 -26.408  14.382  1.00  0.00     0.172 A 
ATOM     18  C   UNL     1      12.917 -27.261  13.823  1.00  0.00     0.201 A 
ATOM     19  C   UNL     1      10.603 -26.605  14.085  1.00  0.00     0.098 A 
ATOM     20  C   UNL     1      12.536 -28.318  12.972  1.00  0.00     0.176 A 
ATOM     21  C   UNL     1      10.205 -27.621  13.217  1.00  0.00     0.146 A 
ATOM     22  C   UNL     1      11.164 -28.479  12.621  1.00  0.00     0.111 A 
ATOM     23  O   UNL     1       8.910 -27.759  12.953  1.00  0.00    -0.456 OA
ATOM     24  C   UNL     1      10.681 -29.418  11.678  1.00  0.00     0.197 A 
ATOM     25  C   UNL     1       8.424 -28.674  12.120  1.00  0.00     0.138 A 
ATOM     26  C   UNL     1       9.310 -29.524  11.445  1.00  0.00     0.100 A 
ATOM     27  O   UNL     1      11.456 -30.146  11.004  1.00  0.00    -0.289 OA
BRANCH  18  28
ATOM     28  O   UNL     1      14.260 -27.053  14.143  1.00  0.00    -0.502 OA
ATOM     29  H   UNL     1      14.792 -27.702  14.711  1.00  0.00     0.293 HD
ENDBRANCH  18  28
BRANCH  20  30
ATOM     30  O   UNL     1      13.545 -29.184  12.537  1.00  0.00    -0.504 OA
ATOM     31  H   UNL     1      14.450 -29.275  12.973  1.00  0.00     0.293 HD
ENDBRANCH  20  30
BRANCH  25  32
ATOM     32  C   UNL     1       6.956 -28.744  11.913  1.00  0.00     0.017 A 
ATOM     33  C   UNL     1       6.258 -29.906  12.289  1.00  0.00     0.012 A 
ATOM     34  C   UNL     1       6.240 -27.685  11.317  1.00  0.00     0.012 A 
ATOM     35  C   UNL     1       4.876 -29.999  12.095  1.00  0.00     0.001 A 
ATOM     36  C   UNL     1       4.858 -27.785  11.125  1.00  0.00     0.001 A 
ATOM     37  C   UNL     1       4.177 -28.939  11.516  1.00  0.00     0.000 A 
ENDBRANCH  25  32
ENDBRANCH   1  17
TORSDOF 9
ENDMDL
MODEL 2
REMARK VINA RESULT:    -6.606      1.543      2.343
REMARK INTER + INTRA:         -10.173
REMARK INTER:                  -9.055
REMARK INTRA:                  -1.118
REMARK UNBOUND:                -1.056
REMARK SMILES O=C([O-])[C@@H]1O[C@@H](Oc2cc3oc(-c4ccccc4)cc(=O)c3c(O)c2O)[C@H](O)[C@@H](O)[C@H]1O
REMARK SMILES IDX 7 1 6 2 4 3 31 4 5 5 29 6 27 7 2 8 1 9 3 10 32 11 30 13
REMARK SMILES IDX 28 15 8 17 25 18 9 19 23 20 10 21 22 22 11 23 20 24 12 25
REMARK SMILES IDX 19 26 21 27 26 28 24 30 13 32 14 33 18 34 15 35 17 36 16 37
REMARK H PARENT 32 12 30 14 28 16 26 29 24 31
REMARK Flexibility Score: inf
ROOT
ATOM      1  O   UNL     1      13.704 -26.328  14.563  1.00  0.00    -0.458 OA
ENDROOT
BRANCH   1   2
ATOM      2  C   UNL     1      13.650 -26.071  15.972  1.00  0.00     0.339 C 
ATOM      3  C   UNL     1      12.837 -23.890  15.646  1.00  0.00     0.199 C 
ATOM      4  C   UNL     1      14.104 -23.218  16.215  1.00  0.00     0.180 C 
ATOM      5  O   UNL     1      12.611 -25.149  16.262  1.00  0.00    -0.328 OA
ATOM      6  C   UNL     1      15.324 -24.141  16.020  1.00  0.00     0.181 C 
ATOM      7  C   UNL     1      15.015 -25.568  16.512  1.00  0.00     0.214 C 
BRANCH   3   8
ATOM      8  C   UNL     1      11.641 -23.019  15.891  1.00  0.00     0.073 C 
ATOM      9  O   UNL     1      11.594 -22.270  16.903  1.00  0.00    -0.547 OA
ATOM     10  O   UNL     1      10.592 -23.004  14.979  1.00  0.00    -0.547 OA
ENDBRANCH   3   8
BRANCH   4  11
ATOM     11  O   UNL     1      14.318 -21.986  15.573  1.00  0.00    -0.387 OA
ATOM     12  H   UNL     1      14.560 -21.334  16.280  1.00  0.00     0.211 HD
ENDBRANCH   4  11
BRANCH   6  13
ATOM     13  O   UNL     1      15.684 -24.193  14.661  1.00  0.00    -0.387 OA
ATOM     14  H   UNL     1      14.942 -24.642  14.179  1.00  0.00     0.211 HD
ENDBRANCH   6  13
BRANCH   7  15
ATOM     15  O   UNL     1      15.058 -25.635  17.918  1.00  0.00    -0.384 OA
ATOM     16  H   UNL     1      15.188 -24.716  18.268  1.00  0.00     0.211 HD
ENDBRANCH   7  15
ENDBRANCH   1   2
BRANCH   1  17
ATOM     17  C   UNL     1      13.016 -27.344  13.877  1.00  0.00     0.172 A 
ATOM     18  C   UNL     1      13.748 -28.454  13.442  1.00  0.00     0.201 A 
ATOM     19  C   UNL     1      11.639 -27.282  13.620  1.00  0.00     0.098 A 
ATOM     20  C   UNL     1      13.119 -29.512  12.756  1.00  0.00     0.176 A 
ATOM     21  C   UNL     1      11.001 -28.300  12.911  1.00  0.00     0.146 A 
ATOM     22  C   UNL     1      11.732 -29.420  12.440  1.00  0.00     0.111 A 
ATOM     23  O   UNL     1       9.698 -28.190  12.677  1.00  0.00    -0.456 OA
ATOM     24  C   UNL     1      11.024 -30.355  11.647  1.00  0.00     0.197 A 
ATOM     25  C   UNL     1       8.997 -29.084  11.989  1.00  0.00     0.138 A 
ATOM     26  C   UNL     1       9.654 -30.193  11.440  1.00  0.00     0.100 A 
ATOM     27  O   UNL     1      11.600 -31.321  11.081  1.00  0.00    -0.289 OA
BRANCH  18  28
ATOM     28  O   UNL     1      15.115 -28.500  13.721  1.00  0.00    -0.502 OA
ATOM     29  H   UNL     1      15.771 -29.023  13.152  1.00  0.00     0.293 HD
ENDBRANCH  18  28
BRANCH  20  30
ATOM     30  O   UNL     1      13.901 -30.629  12.445  1.00  0.00    -0.504 OA
ATOM     31  H   UNL     1      13.570 -31.582  12.455  1.00  0.00     0.293 HD
ENDBRANCH  20  30
BRANCH  25  32
ATOM     32  C   UNL     1       7.540 -28.863  11.803  1.00  0.00     0.017 A 
ATOM     33  C   UNL     1       7.098 -27.739  11.082  1.00  0.00     0.012 A 
ATOM     34  C   UNL     1       6.581 -29.734  12.359  1.00  0.00     0.012 A 
ATOM     35  C   UNL     1       5.731 -27.505  10.901  1.00  0.00     0.001 A 
ATOM     36  C   UNL     1       5.216 -29.494  12.176  1.00  0.00     0.001 A 
ATOM     37  C   UNL     1       4.791 -28.382  11.445  1.00  0.00     0.000 A 
ENDBRANCH  25  32
ENDBRANCH   1  17
TORSDOF 9
ENDMDL
MODEL 3
REMARK VINA RESULT:    -6.588      4.840      6.554
REMARK INTER + INTRA:         -10.147
REMARK INTER:                 -10.703
REMARK INTRA:                   0.555
REMARK UNBOUND:                -1.056
REMARK SMILES O=C([O-])[C@@H]1O[C@@H](Oc2cc3oc(-c4ccccc4)cc(=O)c3c(O)c2O)[C@H](O)[C@@H](O)[C@H]1O
REMARK SMILES IDX 7 1 6 2 4 3 31 4 5 5 29 6 27 7 2 8 1 9 3 10 32 11 30 13
REMARK SMILES IDX 28 15 8 17 25 18 9 19 23 20 10 21 22 22 11 23 20 24 12 25
REMARK SMILES IDX 19 26 21 27 26 28 24 30 13 32 14 33 18 34 15 35 17 36 16 37
REMARK H PARENT 32 12 30 14 28 16 26 29 24 31
REMARK Flexibility Score: inf
ROOT
ATOM      1  O   UNL     1      14.359 -26.623  17.683  1.00  0.00    -0.458 OA
ENDROOT
BRANCH   1   2
ATOM      2  C   UNL     1      15.752 -26.293  17.752  1.00  0.00     0.339 C 
ATOM      3  C   UNL     1      15.542 -24.620  16.115  1.00  0.00     0.199 C 
ATOM      4  C   UNL     1      16.419 -25.365  15.088  1.00  0.00     0.180 C 
ATOM      5  O   UNL     1      15.947 -24.922  17.442  1.00  0.00    -0.328 OA
ATOM      6  C   UNL     1      16.351 -26.886  15.340  1.00  0.00     0.181 C 
ATOM      7  C   UNL     1      16.600 -27.205  16.826  1.00  0.00     0.214 C 
BRANCH   3   8
ATOM      8  C   UNL     1      15.656 -23.139  15.909  1.00  0.00     0.073 C 
ATOM      9  O   UNL     1      16.152 -22.680  14.845  1.00  0.00    -0.547 OA
ATOM     10  O   UNL     1      15.179 -22.262  16.875  1.00  0.00    -0.547 OA
ENDBRANCH   3   8
BRANCH   4  11
ATOM     11  O   UNL     1      15.983 -25.068  13.785  1.00  0.00    -0.387 OA
ATOM     12  H   UNL     1      16.689 -25.393  13.167  1.00  0.00     0.211 HD
ENDBRANCH   4  11
BRANCH   6  13
ATOM     13  O   UNL     1      15.091 -27.385  14.967  1.00  0.00    -0.387 OA
ATOM     14  H   UNL     1      15.167 -27.702  14.029  1.00  0.00     0.211 HD
ENDBRANCH   6  13
BRANCH   7  15
ATOM     15  O   UNL     1      17.969 -27.109  17.140  1.00  0.00    -0.384 OA
ATOM     16  H   UNL     1      18.130 -26.223  17.555  1.00  0.00     0.211 HD
ENDBRANCH   7  15
ENDBRANCH   1   2
BRANCH   1  17
ATOM     17  C   UNL     1      13.295 -25.713  17.551  1.00  0.00     0.172 A 
ATOM     18  C   UNL     1      12.558 -25.394  18.697  1.00  0.00     0.201 A 
ATOM     19  C   UNL     1      12.955 -25.121  16.326  1.00  0.00     0.098 A 
ATOM     20  C   UNL     1      11.485 -24.483  18.637  1.00  0.00     0.176 A 
ATOM     21  C   UNL     1      11.873 -24.245  16.235  1.00  0.00     0.146 A 
ATOM     22  C   UNL     1      11.100 -23.931  17.381  1.00  0.00     0.111 A 
ATOM     23  O   UNL     1      11.579 -23.722  15.050  1.00  0.00    -0.456 OA
ATOM     24  C   UNL     1       9.964 -23.110  17.178  1.00  0.00     0.197 A 
ATOM     25  C   UNL     1      10.556 -22.899  14.844  1.00  0.00     0.138 A 
ATOM     26  C   UNL     1       9.707 -22.582  15.913  1.00  0.00     0.100 A 
ATOM     27  O   UNL     1       9.143 -22.867  18.102  1.00  0.00    -0.289 OA
BRANCH  18  28
ATOM     28  O   UNL     1      12.924 -25.985  19.908  1.00  0.00    -0.502 OA
ATOM     29  H   UNL     1      12.645 -26.926  20.163  1.00  0.00     0.293 HD
ENDBRANCH  18  28
BRANCH  20  30
ATOM     30  O   UNL     1      10.866 -24.143  19.845  1.00  0.00    -0.504 OA
ATOM     31  H   UNL     1      11.198 -23.431  20.478  1.00  0.00     0.293 HD
ENDBRANCH  20  30
BRANCH  25  32
ATOM     32  C   UNL     1      10.331 -22.365  13.477  1.00  0.00     0.017 A 
ATOM     33  C   UNL     1      11.437 -22.008  12.683  1.00  0.00     0.012 A 
ATOM     34  C   UNL     1       9.034 -22.172  12.960  1.00  0.00     0.012 A 
ATOM     35  C   UNL     1      11.250 -21.494  11.396  1.00  0.00     0.001 A 
ATOM     36  C   UNL     1       8.854 -21.657  11.673  1.00  0.00     0.001 A 
ATOM     37  C   UNL     1       9.961 -21.320  10.890  1.00  0.00     0.000 A 
ENDBRANCH  25  32
ENDBRANCH   1  17
TORSDOF 9
ENDMDL
MODEL 4
REMARK VINA RESULT:    -6.484      2.470      4.550
REMARK INTER + INTRA:         -10.004
REMARK INTER:                  -8.645
REMARK INTRA:                  -1.359
REMARK UNBOUND:                -1.056
REMARK SMILES O=C([O-])[C@@H]1O[C@@H](Oc2cc3oc(-c4ccccc4)cc(=O)c3c(O)c2O)[C@H](O)[C@@H](O)[C@H]1O
REMARK SMILES IDX 7 1 6 2 4 3 31 4 5 5 29 6 27 7 2 8 1 9 3 10 32 11 30 13
REMARK SMILES IDX 28 15 8 17 25 18 9 19 23 20 10 21 22 22 11 23 20 24 12 25
REMARK SMILES IDX 19 26 21 27 26 28 24 30 13 32 14 33 18 34 15 35 17 36 16 37
REMARK H PARENT 32 12 30 14 28 16 26 29 24 31
REMARK Flexibility Score: inf
ROOT
ATOM      1  O   UNL     1      13.024 -26.022  15.399  1.00  0.00    -0.458 OA
ENDROOT
BRANCH   1   2
ATOM      2  C   UNL     1      14.229 -26.731  15.084  1.00  0.00     0.339 C 
ATOM      3  C   UNL     1      15.131 -26.353  17.220  1.00  0.00     0.199 C 
ATOM      4  C   UNL     1      16.272 -25.456  16.697  1.00  0.00     0.180 C 
ATOM      5  O   UNL     1      14.767 -27.327  16.253  1.00  0.00    -0.328 OA
ATOM      6  C   UNL     1      15.848 -24.776  15.379  1.00  0.00     0.181 C 
ATOM      7  C   UNL     1      15.268 -25.808  14.393  1.00  0.00     0.214 C 
BRANCH   3   8
ATOM      8  C   UNL     1      15.567 -27.061  18.468  1.00  0.00     0.073 C 
ATOM      9  O   UNL     1      16.033 -28.231  18.408  1.00  0.00    -0.547 OA
ATOM     10  O   UNL     1      15.496 -26.415  19.697  1.00  0.00    -0.547 OA
ENDBRANCH   3   8
BRANCH   4  11
ATOM     11  O   UNL     1      16.597 -24.488  17.662  1.00  0.00    -0.387 OA
ATOM     12  H   UNL     1      17.549 -24.248  17.517  1.00  0.00     0.211 HD
ENDBRANCH   4  11
BRANCH   6  13
ATOM     13  O   UNL     1      14.880 -23.788  15.631  1.00  0.00    -0.387 OA
ATOM     14  H   UNL     1      15.364 -22.966  15.906  1.00  0.00     0.211 HD
ENDBRANCH   6  13
BRANCH   7  15
ATOM     15  O   UNL     1      16.294 -26.563  13.794  1.00  0.00    -0.384 OA
ATOM     16  H   UNL     1      16.915 -25.936  13.339  1.00  0.00     0.211 HD
ENDBRANCH   7  15
ENDBRANCH   1   2
BRANCH   1  17
ATOM     17  C   UNL     1      11.910 -25.860  14.556  1.00  0.00     0.172 A 
ATOM     18  C   UNL     1      11.610 -24.569  14.107  1.00  0.00     0.201 A 
ATOM     19  C   UNL     1      11.104 -26.934  14.155  1.00  0.00     0.098 A 
ATOM     20  C   UNL     1      10.513 -24.337  13.252  1.00  0.00     0.176 A 
ATOM     21  C   UNL     1       9.992 -26.724  13.340  1.00  0.00     0.146 A 
ATOM     22  C   UNL     1       9.658 -25.420  12.896  1.00  0.00     0.111 A 
ATOM     23  O   UNL     1       9.248 -27.771  12.999  1.00  0.00    -0.456 OA
ATOM     24  C   UNL     1       8.459 -25.286  12.154  1.00  0.00     0.197 A 
ATOM     25  C   UNL     1       8.153 -27.682  12.251  1.00  0.00     0.138 A 
ATOM     26  C   UNL     1       7.721 -26.421  11.819  1.00  0.00     0.100 A 
ATOM     27  O   UNL     1       8.007 -24.161  11.814  1.00  0.00    -0.289 OA
BRANCH  18  28
ATOM     28  O   UNL     1      12.435 -23.517  14.508  1.00  0.00    -0.502 OA
ATOM     29  H   UNL     1      13.286 -23.663  15.039  1.00  0.00     0.293 HD
ENDBRANCH  18  28
BRANCH  20  30
ATOM     30  O   UNL     1      10.343 -23.035  12.769  1.00  0.00    -0.504 OA
ATOM     31  H   UNL     1       9.746 -22.340  13.192  1.00  0.00     0.293 HD
ENDBRANCH  20  30
BRANCH  25  32
ATOM     32  C   UNL     1       7.408 -28.923  11.922  1.00  0.00     0.017 A 
ATOM     33  C   UNL     1       8.053 -29.948  11.205  1.00  0.00     0.012 A 
ATOM     34  C   UNL     1       6.056 -29.094  12.281  1.00  0.00     0.012 A 
ATOM     35  C   UNL     1       7.370 -31.122  10.875  1.00  0.00     0.001 A 
ATOM     36  C   UNL     1       5.377 -30.270  11.948  1.00  0.00     0.001 A 
ATOM     37  C   UNL     1       6.034 -31.285  11.248  1.00  0.00     0.000 A 
ENDBRANCH  25  32
ENDBRANCH   1  17
TORSDOF 9
ENDMDL
MODEL 5
REMARK VINA RESULT:    -6.481      2.244      3.847
REMARK INTER + INTRA:         -10.000
REMARK INTER:                  -8.964
REMARK INTRA:                  -1.035
REMARK UNBOUND:                -1.056
REMARK SMILES O=C([O-])[C@@H]1O[C@@H](Oc2cc3oc(-c4ccccc4)cc(=O)c3c(O)c2O)[C@H](O)[C@@H](O)[C@H]1O
REMARK SMILES IDX 7 1 6 2 4 3 31 4 5 5 29 6 27 7 2 8 1 9 3 10 32 11 30 13
REMARK SMILES IDX 28 15 8 17 25 18 9 19 23 20 10 21 22 22 11 23 20 24 12 25
REMARK SMILES IDX 19 26 21 27 26 28 24 30 13 32 14 33 18 34 15 35 17 36 16 37
REMARK H PARENT 32 12 30 14 28 16 26 29 24 31
REMARK Flexibility Score: inf
ROOT
ATOM      1  O   UNL     1      12.926 -25.925  15.580  1.00  0.00    -0.458 OA
ENDROOT
BRANCH   1   2
ATOM      2  C   UNL     1      13.035 -25.371  16.898  1.00  0.00     0.339 C 
ATOM      3  C   UNL     1      15.152 -24.455  16.447  1.00  0.00     0.199 C 
ATOM      4  C   UNL     1      15.879 -25.366  17.458  1.00  0.00     0.180 C 
ATOM      5  O   UNL     1      13.822 -24.191  16.869  1.00  0.00    -0.328 OA
ATOM      6  C   UNL     1      15.098 -26.684  17.638  1.00  0.00     0.181 C 
ATOM      7  C   UNL     1      13.607 -26.404  17.905  1.00  0.00     0.214 C 
BRANCH   3   8
ATOM      8  C   UNL     1      15.878 -23.149  16.319  1.00  0.00     0.073 C 
ATOM      9  O   UNL     1      16.589 -22.719  17.266  1.00  0.00    -0.547 OA
ATOM     10  O   UNL     1      15.803 -22.424  15.135  1.00  0.00    -0.547 OA
ENDBRANCH   3   8
BRANCH   4  11
ATOM     11  O   UNL     1      17.183 -25.631  17.006  1.00  0.00    -0.387 OA
ATOM     12  H   UNL     1      17.765 -24.919  17.381  1.00  0.00     0.211 HD
ENDBRANCH   4  11
BRANCH   6  13
ATOM     13  O   UNL     1      15.216 -27.482  16.486  1.00  0.00    -0.387 OA
ATOM     14  H   UNL     1      16.131 -27.342  16.126  1.00  0.00     0.211 HD
ENDBRANCH   6  13
BRANCH   7  15
ATOM     15  O   UNL     1      13.404 -25.981  19.232  1.00  0.00    -0.384 OA
ATOM     16  H   UNL     1      12.912 -26.696  19.713  1.00  0.00     0.211 HD
ENDBRANCH   7  15
ENDBRANCH   1   2
BRANCH   1  17
ATOM     17  C   UNL     1      11.838 -25.774  14.703  1.00  0.00     0.172 A 
ATOM     18  C   UNL     1      11.545 -24.488  14.235  1.00  0.00     0.201 A 
ATOM     19  C   UNL     1      11.049 -26.855  14.285  1.00  0.00     0.098 A 
ATOM     20  C   UNL     1      10.474 -24.267  13.347  1.00  0.00     0.176 A 
ATOM     21  C   UNL     1       9.961 -26.656  13.435  1.00  0.00     0.146 A 
ATOM     22  C   UNL     1       9.634 -25.357  12.972  1.00  0.00     0.111 A 
ATOM     23  O   UNL     1       9.233 -27.709  13.079  1.00  0.00    -0.456 OA
ATOM     24  C   UNL     1       8.458 -25.234  12.193  1.00  0.00     0.197 A 
ATOM     25  C   UNL     1       8.161 -27.631  12.298  1.00  0.00     0.138 A 
ATOM     26  C   UNL     1       7.736 -26.375  11.844  1.00  0.00     0.100 A 
ATOM     27  O   UNL     1       8.012 -24.114  11.831  1.00  0.00    -0.289 OA
BRANCH  18  28
ATOM     28  O   UNL     1      12.352 -23.429  14.655  1.00  0.00    -0.502 OA
ATOM     29  H   UNL     1      13.237 -23.208  14.212  1.00  0.00     0.293 HD
ENDBRANCH  18  28
BRANCH  20  30
ATOM     30  O   UNL     1      10.312 -22.970  12.849  1.00  0.00    -0.504 OA
ATOM     31  H   UNL     1      10.592 -22.131  13.335  1.00  0.00     0.293 HD
ENDBRANCH  20  30
BRANCH  25  32
ATOM     32  C   UNL     1       7.433 -28.878  11.955  1.00  0.00     0.017 A 
ATOM     33  C   UNL     1       8.089 -29.884  11.222  1.00  0.00     0.012 A 
ATOM     34  C   UNL     1       6.084 -29.073  12.316  1.00  0.00     0.012 A 
ATOM     35  C   UNL     1       7.421 -31.064  10.879  1.00  0.00     0.001 A 
ATOM     36  C   UNL     1       5.421 -30.254  11.970  1.00  0.00     0.001 A 
ATOM     37  C   UNL     1       6.090 -31.250  11.255  1.00  0.00     0.000 A 
ENDBRANCH  25  32
ENDBRANCH   1  17
TORSDOF 9
ENDMDL
MODEL 6
REMARK VINA RESULT:    -6.477      1.694      2.638
REMARK INTER + INTRA:          -9.995
REMARK INTER:                  -8.702
REMARK INTRA:                  -1.292
REMARK UNBOUND:                -1.056
REMARK SMILES O=C([O-])[C@@H]1O[C@@H](Oc2cc3oc(-c4ccccc4)cc(=O)c3c(O)c2O)[C@H](O)[C@@H](O)[C@H]1O
REMARK SMILES IDX 7 1 6 2 4 3 31 4 5 5 29 6 27 7 2 8 1 9 3 10 32 11 30 13
REMARK SMILES IDX 28 15 8 17 25 18 9 19 23 20 10 21 22 22 11 23 20 24 12 25
REMARK SMILES IDX 19 26 21 27 26 28 24 30 13 32 14 33 18 34 15 35 17 36 16 37
REMARK H PARENT 32 12 30 14 28 16 26 29 24 31
REMARK Flexibility Score: inf
ROOT
ATOM      1  O   UNL     1      10.523 -25.298  12.491  1.00  0.00    -0.458 OA
ENDROOT
BRANCH   1   2
ATOM      2  C   UNL     1      10.079 -24.244  13.354  1.00  0.00     0.339 C 
ATOM      3  C   UNL     1      12.191 -23.215  13.354  1.00  0.00     0.199 C 
ATOM      4  C   UNL     1      12.438 -23.479  14.854  1.00  0.00     0.180 C 
ATOM      5  O   UNL     1      10.806 -23.055  13.089  1.00  0.00    -0.328 OA
ATOM      6  C   UNL     1      11.654 -24.728  15.306  1.00  0.00     0.181 C 
ATOM      7  C   UNL     1      10.185 -24.647  14.848  1.00  0.00     0.214 C 
BRANCH   3   8
ATOM      8  C   UNL     1      12.904 -21.966  12.930  1.00  0.00     0.073 C 
ATOM      9  O   UNL     1      13.702 -21.388  13.716  1.00  0.00    -0.547 OA
ATOM     10  O   UNL     1      12.719 -21.459  11.649  1.00  0.00    -0.547 OA
ENDBRANCH   3   8
BRANCH   4  11
ATOM     11  O   UNL     1      13.813 -23.657  15.086  1.00  0.00    -0.387 OA
ATOM     12  H   UNL     1      13.926 -23.761  16.066  1.00  0.00     0.211 HD
ENDBRANCH   4  11
BRANCH   6  13
ATOM     13  O   UNL     1      12.238 -25.890  14.771  1.00  0.00    -0.387 OA
ATOM     14  H   UNL     1      11.497 -26.480  14.475  1.00  0.00     0.211 HD
ENDBRANCH   6  13
BRANCH   7  15
ATOM     15  O   UNL     1       9.452 -23.764  15.663  1.00  0.00    -0.384 OA
ATOM     16  H   UNL     1       9.753 -22.839  15.467  1.00  0.00     0.211 HD
ENDBRANCH   7  15
ENDBRANCH   1   2
BRANCH   1  17
ATOM     17  C   UNL     1       9.872 -26.526  12.275  1.00  0.00     0.172 A 
ATOM     18  C   UNL     1      10.663 -27.669  12.113  1.00  0.00     0.201 A 
ATOM     19  C   UNL     1       8.476 -26.640  12.220  1.00  0.00     0.098 A 
ATOM     20  C   UNL     1      10.075 -28.932  11.901  1.00  0.00     0.176 A 
ATOM     21  C   UNL     1       7.872 -27.873  11.975  1.00  0.00     0.146 A 
ATOM     22  C   UNL     1       8.659 -29.037  11.783  1.00  0.00     0.111 A 
ATOM     23  O   UNL     1       6.546 -27.930  11.915  1.00  0.00    -0.456 OA
ATOM     24  C   UNL     1       7.967 -30.225  11.443  1.00  0.00     0.197 A 
ATOM     25  C   UNL     1       5.869 -29.044  11.660  1.00  0.00     0.138 A 
ATOM     26  C   UNL     1       6.573 -30.228  11.402  1.00  0.00     0.100 A 
ATOM     27  O   UNL     1       8.573 -31.285  11.136  1.00  0.00    -0.289 OA
BRANCH  18  28
ATOM     28  O   UNL     1      12.051 -27.532  12.185  1.00  0.00    -0.502 OA
ATOM     29  H   UNL     1      12.637 -27.474  11.361  1.00  0.00     0.293 HD
ENDBRANCH  18  28
BRANCH  20  30
ATOM     30  O   UNL     1      10.932 -30.036  11.850  1.00  0.00    -0.504 OA
ATOM     31  H   UNL     1      11.409 -30.429  12.648  1.00  0.00     0.293 HD
ENDBRANCH  20  30
BRANCH  25  32
ATOM     32  C   UNL     1       4.386 -28.990  11.632  1.00  0.00     0.017 A 
ATOM     33  C   UNL     1       3.646 -30.177  11.781  1.00  0.00     0.012 A 
ATOM     34  C   UNL     1       3.692 -27.779  11.427  1.00  0.00     0.012 A 
ATOM     35  C   UNL     1       2.248 -30.152  11.749  1.00  0.00     0.001 A 
ATOM     36  C   UNL     1       2.294 -27.761  11.395  1.00  0.00     0.001 A 
ATOM     37  C   UNL     1       1.573 -28.945  11.559  1.00  0.00     0.000 A 
ENDBRANCH  25  32
ENDBRANCH   1  17
TORSDOF 9
ENDMDL
MODEL 7
REMARK VINA RESULT:    -6.280      2.006      3.876
REMARK INTER + INTRA:          -9.722
REMARK INTER:                  -8.534
REMARK INTRA:                  -1.188
REMARK UNBOUND:                -1.056
REMARK SMILES O=C([O-])[C@@H]1O[C@@H](Oc2cc3oc(-c4ccccc4)cc(=O)c3c(O)c2O)[C@H](O)[C@@H](O)[C@H]1O
REMARK SMILES IDX 7 1 6 2 4 3 31 4 5 5 29 6 27 7 2 8 1 9 3 10 32 11 30 13
REMARK SMILES IDX 28 15 8 17 25 18 9 19 23 20 10 21 22 22 11 23 20 24 12 25
REMARK SMILES IDX 19 26 21 27 26 28 24 30 13 32 14 33 18 34 15 35 17 36 16 37
REMARK H PARENT 32 12 30 14 28 16 26 29 24 31
REMARK Flexibility Score: inf
ROOT
ATOM      1  O   UNL     1      13.791 -25.083  13.708  1.00  0.00    -0.458 OA
ENDROOT
BRANCH   1   2
ATOM      2  C   UNL     1      13.975 -25.568  15.044  1.00  0.00     0.339 C 
ATOM      3  C   UNL     1      13.367 -23.502  15.986  1.00  0.00     0.199 C 
ATOM      4  C   UNL     1      14.770 -23.234  16.568  1.00  0.00     0.180 C 
ATOM      5  O   UNL     1      13.098 -24.895  15.934  1.00  0.00    -0.328 OA
ATOM      6  C   UNL     1      15.839 -23.960  15.725  1.00  0.00     0.181 C 
ATOM      7  C   UNL     1      15.451 -25.433  15.501  1.00  0.00     0.214 C 
BRANCH   3   8
ATOM      8  C   UNL     1      12.324 -22.847  16.841  1.00  0.00     0.073 C 
ATOM      9  O   UNL     1      12.543 -22.633  18.063  1.00  0.00    -0.547 OA
ATOM     10  O   UNL     1      11.121 -22.436  16.279  1.00  0.00    -0.547 OA
ENDBRANCH   3   8
BRANCH   4  11
ATOM     11  O   UNL     1      15.021 -21.851  16.587  1.00  0.00    -0.387 OA
ATOM     12  H   UNL     1      15.978 -21.738  16.824  1.00  0.00     0.211 HD
ENDBRANCH   4  11
BRANCH   6  13
ATOM     13  O   UNL     1      15.986 -23.328  14.477  1.00  0.00    -0.387 OA
ATOM     14  H   UNL     1      16.935 -23.043  14.404  1.00  0.00     0.211 HD
ENDBRANCH   6  13
BRANCH   7  15
ATOM     15  O   UNL     1      15.693 -26.199  16.657  1.00  0.00    -0.384 OA
ATOM     16  H   UNL     1      16.624 -26.025  16.954  1.00  0.00     0.211 HD
ENDBRANCH   7  15
ENDBRANCH   1   2
BRANCH   1  17
ATOM     17  C   UNL     1      12.560 -24.867  13.064  1.00  0.00     0.172 A 
ATOM     18  C   UNL     1      12.317 -23.601  12.520  1.00  0.00     0.201 A 
ATOM     19  C   UNL     1      11.583 -25.866  12.949  1.00  0.00     0.098 A 
ATOM     20  C   UNL     1      11.107 -23.319  11.854  1.00  0.00     0.176 A 
ATOM     21  C   UNL     1      10.363 -25.600  12.326  1.00  0.00     0.146 A 
ATOM     22  C   UNL     1      10.089 -24.316  11.792  1.00  0.00     0.111 A 
ATOM     23  O   UNL     1       9.462 -26.574  12.255  1.00  0.00    -0.456 OA
ATOM     24  C   UNL     1       8.792 -24.107  11.266  1.00  0.00     0.197 A 
ATOM     25  C   UNL     1       8.259 -26.423  11.710  1.00  0.00     0.138 A 
ATOM     26  C   UNL     1       7.887 -25.168  11.210  1.00  0.00     0.100 A 
ATOM     27  O   UNL     1       8.404 -22.975  10.876  1.00  0.00    -0.289 OA
BRANCH  18  28
ATOM     28  O   UNL     1      13.310 -22.626  12.635  1.00  0.00    -0.502 OA
ATOM     29  H   UNL     1      14.217 -22.716  12.192  1.00  0.00     0.293 HD
ENDBRANCH  18  28
BRANCH  20  30
ATOM     30  O   UNL     1      10.985 -22.062  11.252  1.00  0.00    -0.504 OA
ATOM     31  H   UNL     1      11.761 -21.458  11.025  1.00  0.00     0.293 HD
ENDBRANCH  20  30
BRANCH  25  32
ATOM     32  C   UNL     1       7.339 -27.587  11.675  1.00  0.00     0.017 A 
ATOM     33  C   UNL     1       6.013 -27.409  11.237  1.00  0.00     0.012 A 
ATOM     34  C   UNL     1       7.747 -28.868  12.100  1.00  0.00     0.012 A 
ATOM     35  C   UNL     1       5.125 -28.489  11.204  1.00  0.00     0.001 A 
ATOM     36  C   UNL     1       6.854 -29.943  12.065  1.00  0.00     0.001 A 
ATOM     37  C   UNL     1       5.545 -29.755  11.615  1.00  0.00     0.000 A 
ENDBRANCH  25  32
ENDBRANCH   1  17
TORSDOF 9
ENDMDL
