MODEL 1
REMARK VINA RESULT:    -3.708      0.000      0.000
REMARK INTER + INTRA:          -4.467
REMARK INTER:                  -4.359
REMARK INTRA:                  -0.109
REMARK UNBOUND:                -0.109
REMARK SMILES O=C([O-])CCC(=O)[O-]
REMARK SMILES IDX 4 1 2 2 1 3 3 4 5 5 6 6 7 7 8 8
REMARK H PARENT
REMARK Flexibility Score: inf
ROOT
ATOM      1  C   UNL     1      27.437 -13.231  15.830  1.00  0.00     0.059 C 
ENDROOT
BRANCH   1   2
ATOM      2  C   UNL     1      28.057 -14.261  14.939  1.00  0.00     0.042 C 
ATOM      3  O   UNL     1      28.858 -15.109  15.412  1.00  0.00    -0.550 OA
ATOM      4  O   UNL     1      27.713 -14.314  13.595  1.00  0.00    -0.550 OA
ENDBRANCH   1   2
BRANCH   1   5
ATOM      5  C   UNL     1      28.322 -11.986  15.906  1.00  0.00     0.059 C 
BRANCH   5   6
ATOM      6  C   UNL     1      27.601 -10.797  15.355  1.00  0.00     0.042 C 
ATOM      7  O   UNL     1      27.616  -9.702  15.977  1.00  0.00    -0.550 OA
ATOM      8  O   UNL     1      26.952 -10.884  14.129  1.00  0.00    -0.550 OA
ENDBRANCH   5   6
ENDBRANCH   1   5
TORSDOF 3
ENDMDL
MODEL 2
REMARK VINA RESULT:    -3.702      0.043      3.820
REMARK INTER + INTRA:          -4.460
REMARK INTER:                  -4.347
REMARK INTRA:                  -0.112
REMARK UNBOUND:                -0.109
REMARK SMILES O=C([O-])CCC(=O)[O-]
REMARK SMILES IDX 4 1 2 2 1 3 3 4 5 5 6 6 7 7 8 8
REMARK H PARENT
REMARK Flexibility Score: inf
ROOT
ATOM      1  C   UNL     1      28.348 -11.944  15.905  1.00  0.00     0.059 C 
ENDROOT
BRANCH   1   2
ATOM      2  C   UNL     1      27.610 -10.770  15.344  1.00  0.00     0.042 C 
ATOM      3  O   UNL     1      27.615  -9.668  15.952  1.00  0.00    -0.550 OA
ATOM      4  O   UNL     1      26.955 -10.881  14.124  1.00  0.00    -0.550 OA
ENDBRANCH   1   2
BRANCH   1   5
ATOM      5  C   UNL     1      27.471 -13.197  15.867  1.00  0.00     0.059 C 
BRANCH   5   6
ATOM      6  C   UNL     1      28.073 -14.230  14.969  1.00  0.00     0.042 C 
ATOM      7  O   UNL     1      28.861 -15.094  15.436  1.00  0.00    -0.550 OA
ATOM      8  O   UNL     1      27.726 -14.270  13.624  1.00  0.00    -0.550 OA
ENDBRANCH   5   6
ENDBRANCH   1   5
TORSDOF 3
ENDMDL
MODEL 3
REMARK VINA RESULT:    -3.701      0.133      1.152
REMARK INTER + INTRA:          -4.459
REMARK INTER:                  -4.352
REMARK INTRA:                  -0.107
REMARK UNBOUND:                -0.109
REMARK SMILES O=C([O-])CCC(=O)[O-]
REMARK SMILES IDX 4 1 2 2 1 3 3 4 5 5 6 6 7 7 8 8
REMARK H PARENT
REMARK Flexibility Score: inf
ROOT
ATOM      1  C   UNL     1      27.264 -13.296  15.714  1.00  0.00     0.059 C 
ENDROOT
BRANCH   1   2
ATOM      2  C   UNL     1      27.956 -14.320  14.871  1.00  0.00     0.042 C 
ATOM      3  O   UNL     1      27.682 -14.423  13.646  1.00  0.00    -0.550 OA
ATOM      4  O   UNL     1      28.939 -15.128  15.427  1.00  0.00    -0.550 OA
ENDBRANCH   1   2
BRANCH   1   5
ATOM      5  C   UNL     1      28.169 -12.082  15.931  1.00  0.00     0.059 C 
BRANCH   5   6
ATOM      6  C   UNL     1      27.561 -10.860  15.318  1.00  0.00     0.042 C 
ATOM      7  O   UNL     1      27.616  -9.755  15.918  1.00  0.00    -0.550 OA
ATOM      8  O   UNL     1      26.977 -10.931  14.059  1.00  0.00    -0.550 OA
ENDBRANCH   5   6
ENDBRANCH   1   5
TORSDOF 3
ENDMDL
MODEL 4
REMARK VINA RESULT:    -3.696      0.064      3.924
REMARK INTER + INTRA:          -4.452
REMARK INTER:                  -4.337
REMARK INTRA:                  -0.115
REMARK UNBOUND:                -0.109
REMARK SMILES O=C([O-])CCC(=O)[O-]
REMARK SMILES IDX 4 1 2 2 1 3 3 4 5 5 6 6 7 7 8 8
REMARK H PARENT
REMARK Flexibility Score: inf
ROOT
ATOM      1  C   UNL     1      28.298 -11.991  15.911  1.00  0.00     0.059 C 
ENDROOT
BRANCH   1   2
ATOM      2  C   UNL     1      27.590 -10.803  15.340  1.00  0.00     0.042 C 
ATOM      3  O   UNL     1      27.615  -9.699  15.943  1.00  0.00    -0.550 OA
ATOM      4  O   UNL     1      26.944 -10.904  14.114  1.00  0.00    -0.550 OA
ENDBRANCH   1   2
BRANCH   1   5
ATOM      5  C   UNL     1      27.410 -13.234  15.831  1.00  0.00     0.059 C 
BRANCH   5   6
ATOM      6  C   UNL     1      28.027 -14.261  14.936  1.00  0.00     0.042 C 
ATOM      7  O   UNL     1      27.745 -14.287  13.709  1.00  0.00    -0.550 OA
ATOM      8  O   UNL     1      28.955 -15.161  15.448  1.00  0.00    -0.550 OA
ENDBRANCH   5   6
ENDBRANCH   1   5
TORSDOF 3
ENDMDL
MODEL 5
REMARK VINA RESULT:    -3.520      0.980      1.726
REMARK INTER + INTRA:          -4.246
REMARK INTER:                  -4.174
REMARK INTRA:                  -0.072
REMARK UNBOUND:                -0.109
REMARK SMILES O=C([O-])CCC(=O)[O-]
REMARK SMILES IDX 4 1 2 2 1 3 3 4 5 5 6 6 7 7 8 8
REMARK H PARENT
REMARK Flexibility Score: inf
ROOT
ATOM      1  C   UNL     1      27.116 -13.175  15.483  1.00  0.00     0.059 C 
ENDROOT
BRANCH   1   2
ATOM      2  C   UNL     1      27.736 -14.308  14.729  1.00  0.00     0.042 C 
ATOM      3  O   UNL     1      27.341 -14.588  13.567  1.00  0.00    -0.550 OA
ATOM      4  O   UNL     1      28.785 -15.025  15.290  1.00  0.00    -0.550 OA
ENDBRANCH   1   2
BRANCH   1   5
ATOM      5  C   UNL     1      27.401 -11.845  14.782  1.00  0.00     0.059 C 
BRANCH   5   6
ATOM      6  C   UNL     1      28.070 -10.891  15.720  1.00  0.00     0.042 C 
ATOM      7  O   UNL     1      27.569  -9.756  15.933  1.00  0.00    -0.550 OA
ATOM      8  O   UNL     1      29.221 -11.274  16.399  1.00  0.00    -0.550 OA
ENDBRANCH   5   6
ENDBRANCH   1   5
TORSDOF 3
ENDMDL
MODEL 6
REMARK VINA RESULT:    -3.348      2.219      4.339
REMARK INTER + INTRA:          -4.043
REMARK INTER:                  -3.933
REMARK INTRA:                  -0.110
REMARK UNBOUND:                -0.109
REMARK SMILES O=C([O-])CCC(=O)[O-]
REMARK SMILES IDX 4 1 2 2 1 3 3 4 5 5 6 6 7 7 8 8
REMARK H PARENT
REMARK Flexibility Score: inf
ROOT
ATOM      1  C   UNL     1      27.741  -9.818  15.807  1.00  0.00     0.059 C 
ENDROOT
BRANCH   1   2
ATOM      2  C   UNL     1      28.921  -9.052  16.313  1.00  0.00     0.042 C 
ATOM      3  O   UNL     1      29.032  -8.795  17.541  1.00  0.00    -0.550 OA
ATOM      4  O   UNL     1      29.925  -8.663  15.436  1.00  0.00    -0.550 OA
ENDBRANCH   1   2
BRANCH   1   5
ATOM      5  C   UNL     1      28.196 -11.098  15.104  1.00  0.00     0.059 C 
BRANCH   5   6
ATOM      6  C   UNL     1      28.178 -12.252  16.056  1.00  0.00     0.042 C 
ATOM      7  O   UNL     1      29.210 -12.548  16.713  1.00  0.00    -0.550 OA
ATOM      8  O   UNL     1      27.005 -12.972  16.255  1.00  0.00    -0.550 OA
ENDBRANCH   5   6
ENDBRANCH   1   5
TORSDOF 3
ENDMDL
MODEL 7
REMARK VINA RESULT:    -3.306      2.226      2.922
REMARK INTER + INTRA:          -3.995
REMARK INTER:                  -3.880
REMARK INTRA:                  -0.115
REMARK UNBOUND:                -0.109
REMARK SMILES O=C([O-])CCC(=O)[O-]
REMARK SMILES IDX 4 1 2 2 1 3 3 4 5 5 6 6 7 7 8 8
REMARK H PARENT
REMARK Flexibility Score: inf
ROOT
ATOM      1  C   UNL     1      28.026 -10.960  15.078  1.00  0.00     0.059 C 
ENDROOT
BRANCH   1   2
ATOM      2  C   UNL     1      28.143 -12.122  16.013  1.00  0.00     0.042 C 
ATOM      3  O   UNL     1      27.151 -12.867  16.226  1.00  0.00    -0.550 OA
ATOM      4  O   UNL     1      29.362 -12.411  16.613  1.00  0.00    -0.550 OA
ENDBRANCH   1   2
BRANCH   1   5
ATOM      5  C   UNL     1      27.675  -9.686  15.848  1.00  0.00     0.059 C 
BRANCH   5   6
ATOM      6  C   UNL     1      28.918  -9.004  16.326  1.00  0.00     0.042 C 
ATOM      7  O   UNL     1      29.057  -8.722  17.546  1.00  0.00    -0.550 OA
ATOM      8  O   UNL     1      29.945  -8.725  15.433  1.00  0.00    -0.550 OA
ENDBRANCH   5   6
ENDBRANCH   1   5
TORSDOF 3
ENDMDL
MODEL 8
REMARK VINA RESULT:    -3.279      1.730      2.184
REMARK INTER + INTRA:          -3.963
REMARK INTER:                  -3.829
REMARK INTRA:                  -0.134
REMARK UNBOUND:                -0.109
REMARK SMILES O=C([O-])CCC(=O)[O-]
REMARK SMILES IDX 4 1 2 2 1 3 3 4 5 5 6 6 7 7 8 8
REMARK H PARENT
REMARK Flexibility Score: inf
ROOT
ATOM      1  C   UNL     1      27.515 -13.107  16.290  1.00  0.00     0.059 C 
ENDROOT
BRANCH   1   2
ATOM      2  C   UNL     1      27.194 -13.448  14.869  1.00  0.00     0.042 C 
ATOM      3  O   UNL     1      27.169 -14.650  14.496  1.00  0.00    -0.550 OA
ATOM      4  O   UNL     1      26.875 -12.441  13.968  1.00  0.00    -0.550 OA
ENDBRANCH   1   2
BRANCH   1   5
ATOM      5  C   UNL     1      29.029 -13.052  16.498  1.00  0.00     0.059 C 
BRANCH   5   6
ATOM      6  C   UNL     1      29.556 -11.696  16.151  1.00  0.00     0.042 C 
ATOM      7  O   UNL     1      30.733 -11.563  15.723  1.00  0.00    -0.550 OA
ATOM      8  O   UNL     1      28.731 -10.582  16.253  1.00  0.00    -0.550 OA
ENDBRANCH   5   6
ENDBRANCH   1   5
TORSDOF 3
ENDMDL
MODEL 9
REMARK VINA RESULT:    -3.279     14.110     15.700
REMARK INTER + INTRA:          -3.962
REMARK INTER:                  -3.893
REMARK INTRA:                  -0.069
REMARK UNBOUND:                -0.109
REMARK SMILES O=C([O-])CCC(=O)[O-]
REMARK SMILES IDX 4 1 2 2 1 3 3 4 5 5 6 6 7 7 8 8
REMARK H PARENT
REMARK Flexibility Score: inf
ROOT
ATOM      1  C   UNL     1      41.048 -20.662  19.607  1.00  0.00     0.059 C 
ENDROOT
BRANCH   1   2
ATOM      2  C   UNL     1      41.789 -21.872  19.133  1.00  0.00     0.042 C 
ATOM      3  O   UNL     1      41.527 -22.376  18.010  1.00  0.00    -0.550 OA
ATOM      4  O   UNL     1      42.804 -22.414  19.911  1.00  0.00    -0.550 OA
ENDBRANCH   1   2
BRANCH   1   5
ATOM      5  C   UNL     1      39.558 -20.973  19.759  1.00  0.00     0.059 C 
BRANCH   5   6
ATOM      6  C   UNL     1      38.745 -20.082  18.875  1.00  0.00     0.042 C 
ATOM      7  O   UNL     1      37.858 -20.570  18.125  1.00  0.00    -0.550 OA
ATOM      8  O   UNL     1      38.932 -18.705  18.914  1.00  0.00    -0.550 OA
ENDBRANCH   5   6
ENDBRANCH   1   5
TORSDOF 3
ENDMDL
