MODEL 1
REMARK VINA RESULT:    -4.842      0.000      0.000
REMARK INTER + INTRA:          -6.446
REMARK INTER:                  -6.824
REMARK INTRA:                   0.378
REMARK UNBOUND:                 0.378
REMARK SMILES CC1=CCC(=C(C)C)C(=O)CC(C)=CCC1
REMARK SMILES IDX 12 1 14 2 13 3 15 4 16 5 2 6 1 7 3 8 11 10 9 11 10 12 5 13
REMARK SMILES IDX 6 14 7 15 8 16 4 17
REMARK H PARENT
REMARK Flexibility Score: 60.00
ROOT
ATOM      1  C   UNL     1      46.310  13.805   9.790  1.00  0.00    -0.070 C 
ATOM      2  C   UNL     1      47.530  14.307  10.094  1.00  0.00    -0.027 C 
ATOM      3  C   UNL     1      45.132  14.308  10.590  1.00  0.00     0.039 C 
ENDROOT
BRANCH   2   4
ATOM      4  C   UNL     1      48.820  14.029   9.362  1.00  0.00     0.032 C 
BRANCH   4   5
ATOM      5  C   UNL     1      49.445  12.676   9.754  1.00  0.00     0.034 C 
BRANCH   5   6
ATOM      6  C   UNL     1      49.828  11.849   8.542  1.00  0.00    -0.077 C 
ATOM      7  C   UNL     1      50.878  12.393   7.608  1.00  0.00     0.039 C 
ATOM      8  C   UNL     1      49.262  10.660   8.236  1.00  0.00    -0.023 CG0
ATOM      9  G   UNL     1      48.174   9.971   9.025  1.00  0.00     0.000 G0
ENDBRANCH   5   6
ENDBRANCH   4   5
ENDBRANCH   2   4
BRANCH   1  10
ATOM     10  C   UNL     1      46.058  12.828   8.654  1.00  0.00     0.111 C 
BRANCH  10  11
ATOM     11  C   UNL     1      46.044  11.401   9.144  1.00  0.00     0.163 C 
ATOM     12  O   UNL     1      45.399  11.141  10.196  1.00  0.00    -0.294 OA
BRANCH  11  13
ATOM     13  C   UNL     1      46.808  10.318   8.451  1.00  0.00    -0.002 C 
ATOM     14  C   UNL     1      46.339   9.723   7.311  1.00  0.00    -0.069 C 
ATOM     15  C   UNL     1      47.100   8.602   6.638  1.00  0.00     0.039 C 
ATOM     16  C   UNL     1      45.058  10.180   6.649  1.00  0.00     0.039 C 
BRANCH  13  17
ATOM     17  C   UNL     1      48.166   9.955   9.024  1.00  0.00     0.066 CG0
ATOM     18  G   UNL     1      49.255  10.643   8.235  1.00  0.00     0.000 G0
ENDBRANCH  13  17
ENDBRANCH  11  13
ENDBRANCH  10  11
ENDBRANCH   1  10
TORSDOF 0
ENDMDL
MODEL 2
REMARK VINA RESULT:    -4.721      2.123      4.290
REMARK INTER + INTRA:          -6.275
REMARK INTER:                  -7.070
REMARK INTRA:                   0.795
REMARK UNBOUND:                 0.378
REMARK SMILES CC1=CCC(=C(C)C)C(=O)CC(C)=CCC1
REMARK SMILES IDX 12 1 14 2 13 3 15 4 16 5 2 6 1 7 3 8 11 10 9 11 10 12 5 13
REMARK SMILES IDX 6 14 7 15 8 16 4 17
REMARK H PARENT
REMARK Flexibility Score: 60.00
ROOT
ATOM      1  C   UNL     1      47.443  13.178   8.996  1.00  0.00    -0.070 C 
ATOM      2  C   UNL     1      48.337  12.194   8.738  1.00  0.00    -0.027 C 
ATOM      3  C   UNL     1      47.958  14.424   9.675  1.00  0.00     0.039 C 
ENDROOT
BRANCH   2   4
ATOM      4  C   UNL     1      48.067  10.917   7.980  1.00  0.00     0.032 C 
BRANCH   4   5
ATOM      5  C   UNL     1      46.911  10.099   8.588  1.00  0.00     0.034 C 
BRANCH   5   6
ATOM      6  C   UNL     1      47.089   9.873  10.076  1.00  0.00    -0.077 C 
ATOM      7  C   UNL     1      48.310   9.124  10.545  1.00  0.00     0.039 C 
ATOM      8  C   UNL     1      46.201  10.283  11.010  1.00  0.00    -0.023 CG0
ATOM      9  G   UNL     1      44.908  11.014  10.736  1.00  0.00     0.000 G0
ENDBRANCH   5   6
ENDBRANCH   4   5
ENDBRANCH   2   4
BRANCH   1  10
ATOM     10  C   UNL     1      45.982  13.123   8.581  1.00  0.00     0.111 C 
BRANCH  10  11
ATOM     11  C   UNL     1      45.064  13.378   9.751  1.00  0.00     0.163 C 
ATOM     12  O   UNL     1      44.308  14.386   9.703  1.00  0.00    -0.294 OA
BRANCH  11  13
ATOM     13  C   UNL     1      45.068  12.506  10.966  1.00  0.00    -0.002 C 
ATOM     14  C   UNL     1      45.151  13.028  12.227  1.00  0.00    -0.069 C 
ATOM     15  C   UNL     1      45.194  12.136  13.448  1.00  0.00     0.039 C 
ATOM     16  C   UNL     1      45.169  14.522  12.466  1.00  0.00     0.039 C 
BRANCH  13  17
ATOM     17  C   UNL     1      44.901  11.012  10.744  1.00  0.00     0.066 CG0
ATOM     18  G   UNL     1      46.204  10.304  11.030  1.00  0.00     0.000 G0
ENDBRANCH  13  17
ENDBRANCH  11  13
ENDBRANCH  10  11
ENDBRANCH   1  10
TORSDOF 0
ENDMDL
MODEL 3
REMARK VINA RESULT:    -4.715      1.715      3.582
REMARK INTER + INTRA:          -6.267
REMARK INTER:                  -6.628
REMARK INTRA:                   0.361
REMARK UNBOUND:                 0.378
REMARK SMILES CC1=CCC(=C(C)C)C(=O)CC(C)=CCC1
REMARK SMILES IDX 12 1 14 2 13 3 15 4 16 5 2 6 1 7 3 8 11 10 9 11 10 12 5 13
REMARK SMILES IDX 6 14 7 15 8 16 4 17
REMARK H PARENT
REMARK Flexibility Score: 60.00
ROOT
ATOM      1  C   UNL     1      49.238  13.034   9.293  1.00  0.00    -0.070 C 
ATOM      2  C   UNL     1      48.504  13.902  10.028  1.00  0.00    -0.027 C 
ATOM      3  C   UNL     1      50.644  12.743   9.759  1.00  0.00     0.039 C 
ENDROOT
BRANCH   2   4
ATOM      4  C   UNL     1      47.053  14.255   9.810  1.00  0.00     0.032 C 
BRANCH   4   5
ATOM      5  C   UNL     1      46.092  13.236  10.451  1.00  0.00     0.034 C 
BRANCH   5   6
ATOM      6  C   UNL     1      44.997  12.803   9.496  1.00  0.00    -0.077 C 
ATOM      7  C   UNL     1      43.916  13.795   9.149  1.00  0.00     0.039 C 
ATOM      8  C   UNL     1      44.918  11.566   8.954  1.00  0.00    -0.023 CG0
ATOM      9  G   UNL     1      45.880  10.430   9.207  1.00  0.00     0.000 G0
ENDBRANCH   5   6
ENDBRANCH   4   5
ENDBRANCH   2   4
BRANCH   1  10
ATOM     10  C   UNL     1      48.703  12.294   8.078  1.00  0.00     0.111 C 
BRANCH  10  11
ATOM     11  C   UNL     1      48.281  10.887   8.428  1.00  0.00     0.163 C 
ATOM     12  O   UNL     1      49.129  10.132   8.977  1.00  0.00    -0.294 OA
BRANCH  11  13
ATOM     13  C   UNL     1      46.920  10.364   8.096  1.00  0.00    -0.002 C 
ATOM     14  C   UNL     1      46.643   9.797   6.883  1.00  0.00    -0.069 C 
ATOM     15  C   UNL     1      45.253   9.305   6.542  1.00  0.00     0.039 C 
ATOM     16  C   UNL     1      47.717   9.602   5.836  1.00  0.00     0.039 C 
BRANCH  13  17
ATOM     17  C   UNL     1      45.873  10.420   9.195  1.00  0.00     0.066 CG0
ATOM     18  G   UNL     1      44.929  11.572   8.943  1.00  0.00     0.000 G0
ENDBRANCH  13  17
ENDBRANCH  11  13
ENDBRANCH  10  11
ENDBRANCH   1  10
TORSDOF 0
ENDMDL
MODEL 4
REMARK VINA RESULT:    -4.572      2.542      4.342
REMARK INTER + INTRA:          -6.065
REMARK INTER:                  -6.800
REMARK INTRA:                   0.735
REMARK UNBOUND:                 0.378
REMARK SMILES CC1=CCC(=C(C)C)C(=O)CC(C)=CCC1
REMARK SMILES IDX 12 1 14 2 13 3 15 4 16 5 2 6 1 7 3 8 11 10 9 11 10 12 5 13
REMARK SMILES IDX 6 14 7 15 8 16 4 17
REMARK H PARENT
REMARK Flexibility Score: 60.00
ROOT
ATOM      1  C   UNL     1      48.911  13.101   9.414  1.00  0.00    -0.070 C 
ATOM      2  C   UNL     1      48.004  12.225   9.907  1.00  0.00    -0.027 C 
ATOM      3  C   UNL     1      48.522  14.559   9.377  1.00  0.00     0.039 C 
ENDROOT
BRANCH   2   4
ATOM      4  C   UNL     1      48.218  10.748  10.133  1.00  0.00     0.032 C 
BRANCH   4   5
ATOM      5  C   UNL     1      47.808   9.896   8.916  1.00  0.00     0.034 C 
BRANCH   5   6
ATOM      6  C   UNL     1      49.003   9.255   8.237  1.00  0.00    -0.077 C 
ATOM      7  C   UNL     1      49.547   7.971   8.810  1.00  0.00     0.039 C 
ATOM      8  C   UNL     1      49.627   9.783   7.160  1.00  0.00    -0.023 CG0
ATOM      9  G   UNL     1      49.254  11.073   6.469  1.00  0.00     0.000 G0
ENDBRANCH   5   6
ENDBRANCH   4   5
ENDBRANCH   2   4
BRANCH   1  10
ATOM     10  C   UNL     1      50.309  12.707   8.966  1.00  0.00     0.111 C 
BRANCH  10  11
ATOM     11  C   UNL     1      50.542  13.047   7.514  1.00  0.00     0.163 C 
ATOM     12  O   UNL     1      50.773  14.250   7.216  1.00  0.00    -0.294 OA
BRANCH  11  13
ATOM     13  C   UNL     1      50.454  12.015   6.435  1.00  0.00    -0.002 C 
ATOM     14  C   UNL     1      51.435  11.874   5.492  1.00  0.00    -0.069 C 
ATOM     15  C   UNL     1      51.320  10.853   4.382  1.00  0.00     0.039 C 
ATOM     16  C   UNL     1      52.697  12.706   5.533  1.00  0.00     0.039 C 
BRANCH  13  17
ATOM     17  C   UNL     1      49.262  11.075   6.474  1.00  0.00     0.066 CG0
ATOM     18  G   UNL     1      49.646   9.790   7.168  1.00  0.00     0.000 G0
ENDBRANCH  13  17
ENDBRANCH  11  13
ENDBRANCH  10  11
ENDBRANCH   1  10
TORSDOF 0
ENDMDL
MODEL 5
REMARK VINA RESULT:    -4.492      1.858      4.522
REMARK INTER + INTRA:          -5.952
REMARK INTER:                  -6.382
REMARK INTRA:                   0.430
REMARK UNBOUND:                 0.378
REMARK SMILES CC1=CCC(=C(C)C)C(=O)CC(C)=CCC1
REMARK SMILES IDX 12 1 14 2 13 3 15 4 16 5 2 6 1 7 3 8 11 10 9 11 10 12 5 13
REMARK SMILES IDX 6 14 7 15 8 16 4 17
REMARK H PARENT
REMARK Flexibility Score: 60.00
ROOT
ATOM      1  C   UNL     1      50.862  12.447   7.186  1.00  0.00    -0.070 C 
ATOM      2  C   UNL     1      50.747  11.281   6.508  1.00  0.00    -0.027 C 
ATOM      3  C   UNL     1      52.208  13.131   7.170  1.00  0.00     0.039 C 
ENDROOT
BRANCH   2   4
ATOM      4  C   UNL     1      49.480  10.486   6.304  1.00  0.00     0.032 C 
BRANCH   4   5
ATOM      5  C   UNL     1      49.224   9.476   7.439  1.00  0.00     0.034 C 
BRANCH   5   6
ATOM      6  C   UNL     1      47.781   9.491   7.904  1.00  0.00    -0.077 C 
ATOM      7  C   UNL     1      46.728   8.919   6.989  1.00  0.00     0.039 C 
ATOM      8  C   UNL     1      47.377  10.013   9.084  1.00  0.00    -0.023 CG0
ATOM      9  G   UNL     1      48.273  10.660  10.115  1.00  0.00     0.000 G0
ENDBRANCH   5   6
ENDBRANCH   4   5
ENDBRANCH   2   4
BRANCH   1  10
ATOM     10  C   UNL     1      49.704  13.130   7.896  1.00  0.00     0.111 C 
BRANCH  10  11
ATOM     11  C   UNL     1      49.607  12.697   9.339  1.00  0.00     0.163 C 
ATOM     12  O   UNL     1      50.648  12.757  10.048  1.00  0.00    -0.294 OA
BRANCH  11  13
ATOM     13  C   UNL     1      48.338  12.160   9.920  1.00  0.00    -0.002 C 
ATOM     14  C   UNL     1      47.269  12.970  10.186  1.00  0.00    -0.069 C 
ATOM     15  C   UNL     1      46.003  12.425  10.810  1.00  0.00     0.039 C 
ATOM     16  C   UNL     1      47.285  14.442   9.838  1.00  0.00     0.039 C 
BRANCH  13  17
ATOM     17  C   UNL     1      48.258  10.658  10.135  1.00  0.00     0.066 CG0
ATOM     18  G   UNL     1      47.371  10.038   9.081  1.00  0.00     0.000 G0
ENDBRANCH  13  17
ENDBRANCH  11  13
ENDBRANCH  10  11
ENDBRANCH   1  10
TORSDOF 0
ENDMDL
MODEL 6
REMARK VINA RESULT:    -4.442      1.478      3.855
REMARK INTER + INTRA:          -5.882
REMARK INTER:                  -6.867
REMARK INTRA:                   0.985
REMARK UNBOUND:                 0.378
REMARK SMILES CC1=CCC(=C(C)C)C(=O)CC(C)=CCC1
REMARK SMILES IDX 12 1 14 2 13 3 15 4 16 5 2 6 1 7 3 8 11 10 9 11 10 12 5 13
REMARK SMILES IDX 6 14 7 15 8 16 4 17
REMARK H PARENT
REMARK Flexibility Score: 60.00
ROOT
ATOM      1  C   UNL     1      48.844  12.384   9.106  1.00  0.00    -0.070 C 
ATOM      2  C   UNL     1      49.272  12.082   7.858  1.00  0.00    -0.027 C 
ATOM      3  C   UNL     1      48.676  13.844   9.450  1.00  0.00     0.039 C 
ENDROOT
BRANCH   2   4
ATOM      4  C   UNL     1      49.408  10.699   7.268  1.00  0.00     0.032 C 
BRANCH   4   5
ATOM      5  C   UNL     1      48.242  10.337   6.329  1.00  0.00     0.034 C 
BRANCH   5   6
ATOM      6  C   UNL     1      47.172   9.524   7.030  1.00  0.00    -0.077 C 
ATOM      7  C   UNL     1      47.247   8.021   6.947  1.00  0.00     0.039 C 
ATOM      8  C   UNL     1      46.136  10.069   7.706  1.00  0.00    -0.023 CG0
ATOM      9  G   UNL     1      45.871  11.547   7.871  1.00  0.00     0.000 G0
ENDBRANCH   5   6
ENDBRANCH   4   5
ENDBRANCH   2   4
BRANCH   1  10
ATOM     10  C   UNL     1      48.462  11.341  10.143  1.00  0.00     0.111 C 
BRANCH  10  11
ATOM     11  C   UNL     1      46.972  11.104  10.168  1.00  0.00     0.163 C 
ATOM     12  O   UNL     1      46.534  10.150  10.868  1.00  0.00    -0.294 OA
BRANCH  11  13
ATOM     13  C   UNL     1      46.026  11.929   9.356  1.00  0.00    -0.002 C 
ATOM     14  C   UNL     1      45.386  13.018   9.881  1.00  0.00    -0.069 C 
ATOM     15  C   UNL     1      44.401  13.824   9.063  1.00  0.00     0.039 C 
ATOM     16  C   UNL     1      45.657  13.491  11.292  1.00  0.00     0.039 C 
BRANCH  13  17
ATOM     17  C   UNL     1      45.860  11.551   7.894  1.00  0.00     0.066 CG0
ATOM     18  G   UNL     1      46.139  10.078   7.712  1.00  0.00     0.000 G0
ENDBRANCH  13  17
ENDBRANCH  11  13
ENDBRANCH  10  11
ENDBRANCH   1  10
TORSDOF 0
ENDMDL
MODEL 7
REMARK VINA RESULT:    -4.434      9.043     11.617
REMARK INTER + INTRA:          -5.871
REMARK INTER:                  -6.771
REMARK INTRA:                   0.899
REMARK UNBOUND:                 0.378
REMARK SMILES CC1=CCC(=C(C)C)C(=O)CC(C)=CCC1
REMARK SMILES IDX 12 1 14 2 13 3 15 4 16 5 2 6 1 7 3 8 11 10 9 11 10 12 5 13
REMARK SMILES IDX 6 14 7 15 8 16 4 17
REMARK H PARENT
REMARK Flexibility Score: 60.00
ROOT
ATOM      1  C   UNL     1      55.707  15.310   2.539  1.00  0.00    -0.070 C 
ATOM      2  C   UNL     1      54.691  15.073   3.402  1.00  0.00    -0.027 C 
ATOM      3  C   UNL     1      57.112  15.076   3.038  1.00  0.00     0.039 C 
ENDROOT
BRANCH   2   4
ATOM      4  C   UNL     1      53.217  15.139   3.087  1.00  0.00     0.032 C 
BRANCH   4   5
ATOM      5  C   UNL     1      52.880  14.560   1.699  1.00  0.00     0.034 C 
BRANCH   5   6
ATOM      6  C   UNL     1      53.084  13.059   1.639  1.00  0.00    -0.077 C 
ATOM      7  C   UNL     1      52.478  12.211   2.728  1.00  0.00     0.039 C 
ATOM      8  C   UNL     1      53.801  12.436   0.677  1.00  0.00    -0.023 CG0
ATOM      9  G   UNL     1      54.510  13.112  -0.472  1.00  0.00     0.000 G0
ENDBRANCH   5   6
ENDBRANCH   4   5
ENDBRANCH   2   4
BRANCH   1  10
ATOM     10  C   UNL     1      55.506  15.726   1.091  1.00  0.00     0.111 C 
BRANCH  10  11
ATOM     11  C   UNL     1      56.304  14.856   0.149  1.00  0.00     0.163 C 
ATOM     12  O   UNL     1      57.255  15.387  -0.486  1.00  0.00    -0.294 OA
BRANCH  11  13
ATOM     13  C   UNL     1      55.962  13.419  -0.081  1.00  0.00    -0.002 C 
ATOM     14  C   UNL     1      56.874  12.420   0.125  1.00  0.00    -0.069 C 
ATOM     15  C   UNL     1      56.532  10.972  -0.147  1.00  0.00     0.039 C 
ATOM     16  C   UNL     1      58.256  12.710   0.669  1.00  0.00     0.039 C 
BRANCH  13  17
ATOM     17  C   UNL     1      54.532  13.105  -0.484  1.00  0.00     0.066 CG0
ATOM     18  G   UNL     1      53.809  12.447   0.667  1.00  0.00     0.000 G0
ENDBRANCH  13  17
ENDBRANCH  11  13
ENDBRANCH  10  11
ENDBRANCH   1  10
TORSDOF 0
ENDMDL
MODEL 8
REMARK VINA RESULT:    -4.408      1.457      2.504
REMARK INTER + INTRA:          -5.834
REMARK INTER:                  -6.747
REMARK INTRA:                   0.913
REMARK UNBOUND:                 0.378
REMARK SMILES CC1=CCC(=C(C)C)C(=O)CC(C)=CCC1
REMARK SMILES IDX 12 1 14 2 13 3 15 4 16 5 2 6 1 7 3 8 11 10 9 11 10 12 5 13
REMARK SMILES IDX 6 14 7 15 8 16 4 17
REMARK H PARENT
REMARK Flexibility Score: 60.00
ROOT
ATOM      1  C   UNL     1      49.199  13.013   9.148  1.00  0.00    -0.070 C 
ATOM      2  C   UNL     1      50.155  13.356   8.252  1.00  0.00    -0.027 C 
ATOM      3  C   UNL     1      48.090  14.006   9.396  1.00  0.00     0.039 C 
ENDROOT
BRANCH   2   4
ATOM      4  C   UNL     1      51.289  12.483   7.775  1.00  0.00     0.032 C 
BRANCH   4   5
ATOM      5  C   UNL     1      50.845  11.033   7.498  1.00  0.00     0.034 C 
BRANCH   5   6
ATOM      6  C   UNL     1      49.892  10.940   6.323  1.00  0.00    -0.077 C 
ATOM      7  C   UNL     1      50.280  11.614   5.032  1.00  0.00     0.039 C 
ATOM      8  C   UNL     1      48.698  10.307   6.373  1.00  0.00    -0.023 CG0
ATOM      9  G   UNL     1      48.121   9.606   7.580  1.00  0.00     0.000 G0
ENDBRANCH   5   6
ENDBRANCH   4   5
ENDBRANCH   2   4
BRANCH   1  10
ATOM     10  C   UNL     1      49.149  11.669   9.855  1.00  0.00     0.111 C 
BRANCH  10  11
ATOM     11  C   UNL     1      47.793  11.020   9.714  1.00  0.00     0.163 C 
ATOM     12  O   UNL     1      47.122  10.815  10.762  1.00  0.00    -0.294 OA
BRANCH  11  13
ATOM     13  C   UNL     1      47.263  10.576   8.389  1.00  0.00    -0.002 C 
ATOM     14  C   UNL     1      46.093  11.070   7.879  1.00  0.00    -0.069 C 
ATOM     15  C   UNL     1      45.544  10.587   6.555  1.00  0.00     0.039 C 
ATOM     16  C   UNL     1      45.311  12.148   8.596  1.00  0.00     0.039 C 
BRANCH  13  17
ATOM     17  C   UNL     1      48.117   9.604   7.593  1.00  0.00     0.066 CG0
ATOM     18  G   UNL     1      48.708  10.307   6.394  1.00  0.00     0.000 G0
ENDBRANCH  13  17
ENDBRANCH  11  13
ENDBRANCH  10  11
ENDBRANCH   1  10
TORSDOF 0
ENDMDL
MODEL 9
REMARK VINA RESULT:    -4.362      1.608      3.888
REMARK INTER + INTRA:          -5.770
REMARK INTER:                  -6.371
REMARK INTRA:                   0.601
REMARK UNBOUND:                 0.378
REMARK SMILES CC1=CCC(=C(C)C)C(=O)CC(C)=CCC1
REMARK SMILES IDX 12 1 14 2 13 3 15 4 16 5 2 6 1 7 3 8 11 10 9 11 10 12 5 13
REMARK SMILES IDX 6 14 7 15 8 16 4 17
REMARK H PARENT
REMARK Flexibility Score: 60.00
ROOT
ATOM      1  C   UNL     1      48.068  10.230   7.237  1.00  0.00    -0.070 C 
ATOM      2  C   UNL     1      48.871  10.558   6.198  1.00  0.00    -0.027 C 
ATOM      3  C   UNL     1      46.578  10.354   7.029  1.00  0.00     0.039 C 
ENDROOT
BRANCH   2   4
ATOM      4  C   UNL     1      50.373  10.411   6.147  1.00  0.00     0.032 C 
BRANCH   4   5
ATOM      5  C   UNL     1      51.084  11.207   7.258  1.00  0.00     0.034 C 
BRANCH   5   6
ATOM      6  C   UNL     1      50.634  12.654   7.305  1.00  0.00    -0.077 C 
ATOM      7  C   UNL     1      50.884  13.520   6.097  1.00  0.00     0.039 C 
ATOM      8  C   UNL     1      50.042  13.222   8.380  1.00  0.00    -0.023 CG0
ATOM      9  G   UNL     1      49.741  12.531   9.689  1.00  0.00     0.000 G0
ENDBRANCH   5   6
ENDBRANCH   4   5
ENDBRANCH   2   4
BRANCH   1  10
ATOM     10  C   UNL     1      48.579   9.686   8.561  1.00  0.00     0.111 C 
BRANCH  10  11
ATOM     11  C   UNL     1      48.136  10.546   9.720  1.00  0.00     0.163 C 
ATOM     12  O   UNL     1      47.562   9.983  10.691  1.00  0.00    -0.294 OA
BRANCH  11  13
ATOM     13  C   UNL     1      48.316  12.031   9.718  1.00  0.00    -0.002 C 
ATOM     14  C   UNL     1      47.250  12.885   9.795  1.00  0.00    -0.069 C 
ATOM     15  C   UNL     1      47.438  14.385   9.754  1.00  0.00     0.039 C 
ATOM     16  C   UNL     1      45.836  12.374   9.961  1.00  0.00     0.039 C 
BRANCH  13  17
ATOM     17  C   UNL     1      49.742  12.554   9.702  1.00  0.00     0.066 CG0
ATOM     18  G   UNL     1      50.030  13.213   8.374  1.00  0.00     0.000 G0
ENDBRANCH  13  17
ENDBRANCH  11  13
ENDBRANCH  10  11
ENDBRANCH   1  10
TORSDOF 0
ENDMDL
