MODEL 1
REMARK VINA RESULT:    -3.982      0.000      0.000
REMARK INTER + INTRA:          -6.358
REMARK INTER:                  -5.844
REMARK INTRA:                  -0.514
REMARK UNBOUND:                -0.514
REMARK SMILES O=C([O-])CCCCCCCC(=O)[O-]
REMARK SMILES IDX 7 1 6 2 5 3 4 4 2 5 1 6 3 7 8 8 9 9 10 10 11 11 12 12 13 13
REMARK H PARENT
REMARK Flexibility Score: inf
ROOT
ATOM      1  C   UNL     1      -3.197  10.214 -10.603  1.00  0.00     0.000 C 
ENDROOT
BRANCH   1   2
ATOM      2  C   UNL     1      -4.263   9.719  -9.609  1.00  0.00     0.000 C 
BRANCH   2   3
ATOM      3  C   UNL     1      -5.421   8.917 -10.239  1.00  0.00     0.006 C 
BRANCH   3   4
ATOM      4  C   UNL     1      -6.380   9.752 -11.101  1.00  0.00     0.053 C 
BRANCH   4   5
ATOM      5  C   UNL     1      -7.153  10.742 -10.285  1.00  0.00     0.041 C 
ATOM      6  O   UNL     1      -8.066  10.349  -9.512  1.00  0.00    -0.550 OA
ATOM      7  O   UNL     1      -6.888  12.100 -10.404  1.00  0.00    -0.550 OA
ENDBRANCH   4   5
ENDBRANCH   3   4
ENDBRANCH   2   3
ENDBRANCH   1   2
BRANCH   1   8
ATOM      8  C   UNL     1      -1.922  10.718  -9.912  1.00  0.00     0.000 C 
BRANCH   8   9
ATOM      9  C   UNL     1      -1.497   9.769  -8.785  1.00  0.00     0.006 C 
BRANCH   9  10
ATOM     10  C   UNL     1      -0.505   8.718  -9.294  1.00  0.00     0.053 C 
BRANCH  10  11
ATOM     11  C   UNL     1      -0.870   7.362  -8.780  1.00  0.00     0.041 C 
ATOM     12  O   UNL     1      -2.079   7.030  -8.672  1.00  0.00    -0.550 OA
ATOM     13  O   UNL     1       0.125   6.481  -8.375  1.00  0.00    -0.550 OA
ENDBRANCH  10  11
ENDBRANCH   9  10
ENDBRANCH   8   9
ENDBRANCH   1   8
TORSDOF 8
ENDMDL
MODEL 2
REMARK VINA RESULT:    -3.941      1.343      2.102
REMARK INTER + INTRA:          -6.297
REMARK INTER:                  -5.856
REMARK INTRA:                  -0.441
REMARK UNBOUND:                -0.514
REMARK SMILES O=C([O-])CCCCCCCC(=O)[O-]
REMARK SMILES IDX 7 1 6 2 5 3 4 4 2 5 1 6 3 7 8 8 9 9 10 10 11 11 12 12 13 13
REMARK H PARENT
REMARK Flexibility Score: inf
ROOT
ATOM      1  C   UNL     1      -4.915   8.754  -9.947  1.00  0.00     0.000 C 
ENDROOT
BRANCH   1   2
ATOM      2  C   UNL     1      -6.319   8.706 -10.577  1.00  0.00     0.000 C 
BRANCH   2   3
ATOM      3  C   UNL     1      -6.922  10.081 -10.932  1.00  0.00     0.006 C 
BRANCH   3   4
ATOM      4  C   UNL     1      -7.805  10.693  -9.834  1.00  0.00     0.053 C 
BRANCH   4   5
ATOM      5  C   UNL     1      -7.295  12.025  -9.379  1.00  0.00     0.041 C 
ATOM      6  O   UNL     1      -6.152  12.419  -9.732  1.00  0.00    -0.550 OA
ATOM      7  O   UNL     1      -8.067  12.817  -8.538  1.00  0.00    -0.550 OA
ENDBRANCH   4   5
ENDBRANCH   3   4
ENDBRANCH   2   3
ENDBRANCH   1   2
BRANCH   1   8
ATOM      8  C   UNL     1      -4.011   9.822 -10.578  1.00  0.00     0.000 C 
BRANCH   8   9
ATOM      9  C   UNL     1      -2.567   9.683 -10.084  1.00  0.00     0.006 C 
BRANCH   9  10
ATOM     10  C   UNL     1      -2.436   8.526  -9.087  1.00  0.00     0.053 C 
BRANCH  10  11
ATOM     11  C   UNL     1      -1.029   8.020  -9.054  1.00  0.00     0.041 C 
ATOM     12  O   UNL     1      -0.088   8.737  -9.485  1.00  0.00    -0.550 OA
ATOM     13  O   UNL     1      -0.761   6.738  -8.592  1.00  0.00    -0.550 OA
ENDBRANCH  10  11
ENDBRANCH   9  10
ENDBRANCH   8   9
ENDBRANCH   1   8
TORSDOF 8
ENDMDL
MODEL 3
REMARK VINA RESULT:    -3.903      6.764      8.021
REMARK INTER + INTRA:          -6.242
REMARK INTER:                  -5.866
REMARK INTRA:                  -0.376
REMARK UNBOUND:                -0.514
REMARK SMILES O=C([O-])CCCCCCCC(=O)[O-]
REMARK SMILES IDX 7 1 6 2 5 3 4 4 2 5 1 6 3 7 8 8 9 9 10 10 11 11 12 12 13 13
REMARK H PARENT
REMARK Flexibility Score: inf
ROOT
ATOM      1  C   UNL     1      -7.670  16.639  -9.803  1.00  0.00     0.000 C 
ENDROOT
BRANCH   1   2
ATOM      2  C   UNL     1      -6.991  16.057 -11.054  1.00  0.00     0.000 C 
BRANCH   2   3
ATOM      3  C   UNL     1      -7.942  15.740 -12.227  1.00  0.00     0.006 C 
BRANCH   3   4
ATOM      4  C   UNL     1      -9.259  16.532 -12.212  1.00  0.00     0.053 C 
BRANCH   4   5
ATOM      5  C   UNL     1     -10.160  16.146 -13.344  1.00  0.00     0.041 C 
ATOM      6  O   UNL     1      -9.943  15.088 -13.992  1.00  0.00    -0.550 OA
ATOM      7  O   UNL     1     -11.217  16.971 -13.705  1.00  0.00    -0.550 OA
ENDBRANCH   4   5
ENDBRANCH   3   4
ENDBRANCH   2   3
ENDBRANCH   1   2
BRANCH   1   8
ATOM      8  C   UNL     1      -8.144  15.558  -8.821  1.00  0.00     0.000 C 
BRANCH   8   9
ATOM      9  C   UNL     1      -7.089  14.457  -8.665  1.00  0.00     0.006 C 
BRANCH   9  10
ATOM     10  C   UNL     1      -6.910  14.071  -7.193  1.00  0.00     0.053 C 
BRANCH  10  11
ATOM     11  C   UNL     1      -5.702  14.742  -6.619  1.00  0.00     0.041 C 
ATOM     12  O   UNL     1      -4.560  14.236  -6.780  1.00  0.00    -0.550 OA
ATOM     13  O   UNL     1      -5.841  15.900  -5.866  1.00  0.00    -0.550 OA
ENDBRANCH  10  11
ENDBRANCH   9  10
ENDBRANCH   8   9
ENDBRANCH   1   8
TORSDOF 8
ENDMDL
MODEL 4
REMARK VINA RESULT:    -3.855     16.624     17.682
REMARK INTER + INTRA:          -6.172
REMARK INTER:                  -5.620
REMARK INTRA:                  -0.552
REMARK UNBOUND:                -0.514
REMARK SMILES O=C([O-])CCCCCCCC(=O)[O-]
REMARK SMILES IDX 7 1 6 2 5 3 4 4 2 5 1 6 3 7 8 8 9 9 10 10 11 11 12 12 13 13
REMARK H PARENT
REMARK Flexibility Score: inf
ROOT
ATOM      1  C   UNL     1     -13.125  17.995 -19.307  1.00  0.00     0.000 C 
ENDROOT
BRANCH   1   2
ATOM      2  C   UNL     1     -12.933  16.699 -20.114  1.00  0.00     0.000 C 
BRANCH   2   3
ATOM      3  C   UNL     1     -14.182  15.798 -20.208  1.00  0.00     0.006 C 
BRANCH   3   4
ATOM      4  C   UNL     1     -15.104  16.107 -21.397  1.00  0.00     0.053 C 
BRANCH   4   5
ATOM      5  C   UNL     1     -16.371  16.780 -20.965  1.00  0.00     0.041 C 
ATOM      6  O   UNL     1     -16.797  16.631 -19.790  1.00  0.00    -0.550 OA
ATOM      7  O   UNL     1     -17.098  17.542 -21.871  1.00  0.00    -0.550 OA
ENDBRANCH   4   5
ENDBRANCH   3   4
ENDBRANCH   2   3
ENDBRANCH   1   2
BRANCH   1   8
ATOM      8  C   UNL     1     -13.843  17.767 -17.969  1.00  0.00     0.000 C 
BRANCH   8   9
ATOM      9  C   UNL     1     -14.945  18.811 -17.752  1.00  0.00     0.006 C 
BRANCH   9  10
ATOM     10  C   UNL     1     -14.487  19.899 -16.775  1.00  0.00     0.053 C 
BRANCH  10  11
ATOM     11  C   UNL     1     -14.598  21.251 -17.406  1.00  0.00     0.041 C 
ATOM     12  O   UNL     1     -15.724  21.701 -17.744  1.00  0.00    -0.550 OA
ATOM     13  O   UNL     1     -13.454  21.993 -17.665  1.00  0.00    -0.550 OA
ENDBRANCH  10  11
ENDBRANCH   9  10
ENDBRANCH   8   9
ENDBRANCH   1   8
TORSDOF 8
ENDMDL
MODEL 5
REMARK VINA RESULT:    -3.833     15.920     18.857
REMARK INTER + INTRA:          -6.140
REMARK INTER:                  -5.397
REMARK INTRA:                  -0.742
REMARK UNBOUND:                -0.514
REMARK SMILES O=C([O-])CCCCCCCC(=O)[O-]
REMARK SMILES IDX 7 1 6 2 5 3 4 4 2 5 1 6 3 7 8 8 9 9 10 10 11 11 12 12 13 13
REMARK H PARENT
REMARK Flexibility Score: inf
ROOT
ATOM      1  C   UNL     1     -16.863  16.040 -18.924  1.00  0.00     0.000 C 
ENDROOT
BRANCH   1   2
ATOM      2  C   UNL     1     -15.739  15.364 -18.120  1.00  0.00     0.000 C 
BRANCH   2   3
ATOM      3  C   UNL     1     -14.557  14.839 -18.962  1.00  0.00     0.006 C 
BRANCH   3   4
ATOM      4  C   UNL     1     -14.465  15.438 -20.374  1.00  0.00     0.053 C 
BRANCH   4   5
ATOM      5  C   UNL     1     -13.403  16.489 -20.470  1.00  0.00     0.041 C 
ATOM      6  O   UNL     1     -13.421  17.479 -19.693  1.00  0.00    -0.550 OA
ATOM      7  O   UNL     1     -12.415  16.394 -21.442  1.00  0.00    -0.550 OA
ENDBRANCH   4   5
ENDBRANCH   3   4
ENDBRANCH   2   3
ENDBRANCH   1   2
BRANCH   1   8
ATOM      8  C   UNL     1     -16.912  17.561 -18.721  1.00  0.00     0.000 C 
BRANCH   8   9
ATOM      9  C   UNL     1     -17.055  18.290 -20.063  1.00  0.00     0.006 C 
BRANCH   9  10
ATOM     10  C   UNL     1     -17.536  17.334 -21.160  1.00  0.00     0.053 C 
BRANCH  10  11
ATOM     11  C   UNL     1     -18.898  17.728 -21.637  1.00  0.00     0.041 C 
ATOM     12  O   UNL     1     -19.684  18.344 -20.870  1.00  0.00    -0.550 OA
ATOM     13  O   UNL     1     -19.318  17.371 -22.912  1.00  0.00    -0.550 OA
ENDBRANCH  10  11
ENDBRANCH   9  10
ENDBRANCH   8   9
ENDBRANCH   1   8
TORSDOF 8
ENDMDL
MODEL 6
REMARK VINA RESULT:    -3.814      3.925      7.061
REMARK INTER + INTRA:          -6.112
REMARK INTER:                  -5.835
REMARK INTRA:                  -0.277
REMARK UNBOUND:                -0.514
REMARK SMILES O=C([O-])CCCCCCCC(=O)[O-]
REMARK SMILES IDX 7 1 6 2 5 3 4 4 2 5 1 6 3 7 8 8 9 9 10 10 11 11 12 12 13 13
REMARK H PARENT
REMARK Flexibility Score: inf
ROOT
ATOM      1  C   UNL     1      -0.384  12.802 -10.232  1.00  0.00     0.000 C 
ENDROOT
BRANCH   1   2
ATOM      2  C   UNL     1      -1.396  11.745  -9.757  1.00  0.00     0.000 C 
BRANCH   2   3
ATOM      3  C   UNL     1      -0.802  10.611  -8.896  1.00  0.00     0.006 C 
BRANCH   3   4
ATOM      4  C   UNL     1      -0.647   9.269  -9.627  1.00  0.00     0.053 C 
BRANCH   4   5
ATOM      5  C   UNL     1      -1.486   8.192  -9.010  1.00  0.00     0.041 C 
ATOM      6  O   UNL     1      -2.742   8.272  -9.044  1.00  0.00    -0.550 OA
ATOM      7  O   UNL     1      -0.881   7.120  -8.367  1.00  0.00    -0.550 OA
ENDBRANCH   4   5
ENDBRANCH   3   4
ENDBRANCH   2   3
ENDBRANCH   1   2
BRANCH   1   8
ATOM      8  C   UNL     1      -0.259  12.866 -11.761  1.00  0.00     0.000 C 
BRANCH   8   9
ATOM      9  C   UNL     1      -0.519  14.287 -12.274  1.00  0.00     0.006 C 
BRANCH   9  10
ATOM     10  C   UNL     1      -1.989  14.679 -12.091  1.00  0.00     0.053 C 
BRANCH  10  11
ATOM     11  C   UNL     1      -2.269  15.988 -12.759  1.00  0.00     0.041 C 
ATOM     12  O   UNL     1      -3.222  16.090 -13.576  1.00  0.00    -0.550 OA
ATOM     13  O   UNL     1      -1.449  17.082 -12.518  1.00  0.00    -0.550 OA
ENDBRANCH  10  11
ENDBRANCH   9  10
ENDBRANCH   8   9
ENDBRANCH   1   8
TORSDOF 8
ENDMDL
MODEL 7
REMARK VINA RESULT:    -3.808      5.945      7.183
REMARK INTER + INTRA:          -6.102
REMARK INTER:                  -5.714
REMARK INTRA:                  -0.388
REMARK UNBOUND:                -0.514
REMARK SMILES O=C([O-])CCCCCCCC(=O)[O-]
REMARK SMILES IDX 7 1 6 2 5 3 4 4 2 5 1 6 3 7 8 8 9 9 10 10 11 11 12 12 13 13
REMARK H PARENT
REMARK Flexibility Score: inf
ROOT
ATOM      1  C   UNL     1      -0.834  11.993 -13.236  1.00  0.00     0.000 C 
ENDROOT
BRANCH   1   2
ATOM      2  C   UNL     1      -2.076  11.123 -12.969  1.00  0.00     0.000 C 
BRANCH   2   3
ATOM      3  C   UNL     1      -2.980  10.882 -14.195  1.00  0.00     0.006 C 
BRANCH   3   4
ATOM      4  C   UNL     1      -2.295  10.148 -15.358  1.00  0.00     0.053 C 
BRANCH   4   5
ATOM      5  C   UNL     1      -2.950  10.443 -16.673  1.00  0.00     0.041 C 
ATOM      6  O   UNL     1      -2.720   9.713 -17.672  1.00  0.00    -0.550 OA
ATOM      7  O   UNL     1      -3.786  11.545 -16.803  1.00  0.00    -0.550 OA
ENDBRANCH   4   5
ENDBRANCH   3   4
ENDBRANCH   2   3
ENDBRANCH   1   2
BRANCH   1   8
ATOM      8  C   UNL     1      -0.060  12.340 -11.956  1.00  0.00     0.000 C 
BRANCH   8   9
ATOM      9  C   UNL     1      -0.595  13.630 -11.322  1.00  0.00     0.006 C 
BRANCH   9  10
ATOM     10  C   UNL     1      -0.283  14.845 -12.203  1.00  0.00     0.053 C 
BRANCH  10  11
ATOM     11  C   UNL     1      -1.538  15.594 -12.524  1.00  0.00     0.041 C 
ATOM     12  O   UNL     1      -2.600  14.969 -12.781  1.00  0.00    -0.550 OA
ATOM     13  O   UNL     1      -1.523  16.981 -12.587  1.00  0.00    -0.550 OA
ENDBRANCH  10  11
ENDBRANCH   9  10
ENDBRANCH   8   9
ENDBRANCH   1   8
TORSDOF 8
ENDMDL
MODEL 8
REMARK VINA RESULT:    -3.804     15.824     17.949
REMARK INTER + INTRA:          -6.097
REMARK INTER:                  -5.617
REMARK INTRA:                  -0.480
REMARK UNBOUND:                -0.514
REMARK SMILES O=C([O-])CCCCCCCC(=O)[O-]
REMARK SMILES IDX 7 1 6 2 5 3 4 4 2 5 1 6 3 7 8 8 9 9 10 10 11 11 12 12 13 13
REMARK H PARENT
REMARK Flexibility Score: inf
ROOT
ATOM      1  C   UNL     1     -14.988  16.105 -20.926  1.00  0.00     0.000 C 
ENDROOT
BRANCH   1   2
ATOM      2  C   UNL     1     -15.844  16.357 -19.672  1.00  0.00     0.000 C 
BRANCH   2   3
ATOM      3  C   UNL     1     -17.116  17.197 -19.908  1.00  0.00     0.006 C 
BRANCH   3   4
ATOM      4  C   UNL     1     -17.332  17.634 -21.365  1.00  0.00     0.053 C 
BRANCH   4   5
ATOM      5  C   UNL     1     -18.783  17.682 -21.729  1.00  0.00     0.041 C 
ATOM      6  O   UNL     1     -19.156  17.363 -22.888  1.00  0.00    -0.550 OA
ATOM      7  O   UNL     1     -19.721  18.111 -20.798  1.00  0.00    -0.550 OA
ENDBRANCH   4   5
ENDBRANCH   3   4
ENDBRANCH   2   3
ENDBRANCH   1   2
BRANCH   1   8
ATOM      8  C   UNL     1     -13.480  16.209 -20.652  1.00  0.00     0.000 C 
BRANCH   8   9
ATOM      9  C   UNL     1     -13.214  16.790 -19.258  1.00  0.00     0.006 C 
BRANCH   9  10
ATOM     10  C   UNL     1     -12.647  18.210 -19.353  1.00  0.00     0.053 C 
BRANCH  10  11
ATOM     11  C   UNL     1     -13.027  19.007 -18.146  1.00  0.00     0.041 C 
ATOM     12  O   UNL     1     -14.196  18.936 -17.682  1.00  0.00    -0.550 OA
ATOM     13  O   UNL     1     -12.106  19.866 -17.561  1.00  0.00    -0.550 OA
ENDBRANCH  10  11
ENDBRANCH   9  10
ENDBRANCH   8   9
ENDBRANCH   1   8
TORSDOF 8
ENDMDL
