MODEL 1
REMARK VINA RESULT:    -4.451      0.000      0.000
REMARK INTER + INTRA:          -5.769
REMARK INTER:                  -5.491
REMARK INTRA:                  -0.278
REMARK UNBOUND:                -0.278
REMARK SMILES C=CCc1ccc(OC)c(OC)c1
REMARK SMILES IDX 7 1 10 2 13 3 4 4 5 5 6 6 8 7 9 8 11 9 12 10 3 11 2 12 1 13
REMARK H PARENT
REMARK Flexibility Score: inf
ROOT
ATOM      1  C   UNL     1      -8.292  35.815 -11.503  1.00  0.00     0.160 A 
ATOM      2  C   UNL     1      -9.510  35.540 -12.143  1.00  0.00     0.160 A 
ATOM      3  C   UNL     1     -10.215  34.362 -11.824  1.00  0.00     0.054 A 
ATOM      4  C   UNL     1      -9.705  33.461 -10.876  1.00  0.00    -0.040 A 
ATOM      5  C   UNL     1      -8.494  33.749 -10.235  1.00  0.00     0.008 A 
ATOM      6  C   UNL     1      -7.789  34.913 -10.547  1.00  0.00     0.051 A 
ENDROOT
BRANCH   1   7
ATOM      7  O   UNL     1      -7.612  36.995 -11.844  1.00  0.00    -0.493 OA
ATOM      8  C   UNL     1      -6.221  37.067 -12.142  1.00  0.00     0.278 C 
ENDBRANCH   1   7
BRANCH   2   9
ATOM      9  O   UNL     1      -9.990  36.461 -13.088  1.00  0.00    -0.493 OA
ATOM     10  C   UNL     1     -11.323  36.959 -13.125  1.00  0.00     0.278 C 
ENDBRANCH   2   9
BRANCH   4  11
ATOM     11  C   UNL     1     -10.476  32.219 -10.514  1.00  0.00     0.062 C 
BRANCH  11  12
ATOM     12  C   UNL     1      -9.569  31.020 -10.481  1.00  0.00    -0.030 C 
ATOM     13  C   UNL     1      -9.544  30.185  -9.438  1.00  0.00     0.004 C 
ENDBRANCH  11  12
ENDBRANCH   4  11
TORSDOF 4
ENDMDL
MODEL 2
REMARK VINA RESULT:    -4.008      1.610      2.340
REMARK INTER + INTRA:          -5.224
REMARK INTER:                  -5.096
REMARK INTRA:                  -0.127
REMARK UNBOUND:                -0.278
REMARK SMILES C=CCc1ccc(OC)c(OC)c1
REMARK SMILES IDX 7 1 10 2 13 3 4 4 5 5 6 6 8 7 9 8 11 9 12 10 3 11 2 12 1 13
REMARK H PARENT
REMARK Flexibility Score: inf
ROOT
ATOM      1  C   UNL     1      -7.973  35.669 -11.444  1.00  0.00     0.160 A 
ATOM      2  C   UNL     1      -7.771  34.441 -12.093  1.00  0.00     0.160 A 
ATOM      3  C   UNL     1      -8.520  33.313 -11.702  1.00  0.00     0.054 A 
ATOM      4  C   UNL     1      -9.460  33.407 -10.665  1.00  0.00    -0.040 A 
ATOM      5  C   UNL     1      -9.663  34.639 -10.029  1.00  0.00     0.008 A 
ATOM      6  C   UNL     1      -8.924  35.760 -10.410  1.00  0.00     0.051 A 
ENDROOT
BRANCH   1   7
ATOM      7  O   UNL     1      -7.211  36.774 -11.854  1.00  0.00    -0.493 OA
ATOM      8  C   UNL     1      -5.942  37.124 -11.312  1.00  0.00     0.278 C 
ENDBRANCH   1   7
BRANCH   2   9
ATOM      9  O   UNL     1      -6.819  34.381 -13.125  1.00  0.00    -0.493 OA
ATOM     10  C   UNL     1      -5.440  34.085 -12.934  1.00  0.00     0.278 C 
ENDBRANCH   2   9
BRANCH   4  11
ATOM     11  C   UNL     1     -10.282  32.209 -10.270  1.00  0.00     0.062 C 
BRANCH  11  12
ATOM     12  C   UNL     1      -9.522  30.936 -10.520  1.00  0.00    -0.030 C 
ATOM     13  C   UNL     1      -9.549  29.919  -9.654  1.00  0.00     0.004 C 
ENDBRANCH  11  12
ENDBRANCH   4  11
TORSDOF 4
ENDMDL
MODEL 3
REMARK VINA RESULT:    -3.801      2.593      4.929
REMARK INTER + INTRA:          -4.968
REMARK INTER:                  -4.689
REMARK INTRA:                  -0.279
REMARK UNBOUND:                -0.278
REMARK SMILES C=CCc1ccc(OC)c(OC)c1
REMARK SMILES IDX 7 1 10 2 13 3 4 4 5 5 6 6 8 7 9 8 11 9 12 10 3 11 2 12 1 13
REMARK H PARENT
REMARK Flexibility Score: inf
ROOT
ATOM      1  C   UNL     1      -9.925  32.288 -11.083  1.00  0.00     0.160 A 
ATOM      2  C   UNL     1      -9.158  33.303 -11.676  1.00  0.00     0.160 A 
ATOM      3  C   UNL     1      -9.721  34.580 -11.868  1.00  0.00     0.054 A 
ATOM      4  C   UNL     1     -11.043  34.843 -11.477  1.00  0.00    -0.040 A 
ATOM      5  C   UNL     1     -11.797  33.826 -10.876  1.00  0.00     0.008 A 
ATOM      6  C   UNL     1     -11.247  32.558 -10.684  1.00  0.00     0.051 A 
ENDROOT
BRANCH   1   7
ATOM      7  O   UNL     1      -9.337  31.025 -10.906  1.00  0.00    -0.493 OA
ATOM      8  C   UNL     1      -9.506  30.212  -9.749  1.00  0.00     0.278 C 
ENDBRANCH   1   7
BRANCH   2   9
ATOM      9  O   UNL     1      -7.840  33.006 -12.058  1.00  0.00    -0.493 OA
ATOM     10  C   UNL     1      -6.857  33.980 -12.392  1.00  0.00     0.278 C 
ENDBRANCH   2   9
BRANCH   4  11
ATOM     11  C   UNL     1     -11.632  36.217 -11.655  1.00  0.00     0.062 C 
BRANCH  11  12
ATOM     12  C   UNL     1     -11.214  37.125 -10.532  1.00  0.00    -0.030 C 
ATOM     13  C   UNL     1     -11.846  37.125  -9.355  1.00  0.00     0.004 C 
ENDBRANCH  11  12
ENDBRANCH   4  11
TORSDOF 4
ENDMDL
MODEL 4
REMARK VINA RESULT:    -3.643      1.191      2.848
REMARK INTER + INTRA:          -4.773
REMARK INTER:                  -4.503
REMARK INTRA:                  -0.270
REMARK UNBOUND:                -0.278
REMARK SMILES C=CCc1ccc(OC)c(OC)c1
REMARK SMILES IDX 7 1 10 2 13 3 4 4 5 5 6 6 8 7 9 8 11 9 12 10 3 11 2 12 1 13
REMARK H PARENT
REMARK Flexibility Score: inf
ROOT
ATOM      1  C   UNL     1     -10.616  35.414 -11.409  1.00  0.00     0.160 A 
ATOM      2  C   UNL     1      -9.251  35.146 -11.595  1.00  0.00     0.160 A 
ATOM      3  C   UNL     1      -8.768  33.833 -11.423  1.00  0.00     0.054 A 
ATOM      4  C   UNL     1      -9.640  32.794 -11.062  1.00  0.00    -0.040 A 
ATOM      5  C   UNL     1     -11.003  33.069 -10.889  1.00  0.00     0.008 A 
ATOM      6  C   UNL     1     -11.488  34.367 -11.056  1.00  0.00     0.051 A 
ENDROOT
BRANCH   1   7
ATOM      7  O   UNL     1     -11.068  36.731 -11.585  1.00  0.00    -0.493 OA
ATOM      8  C   UNL     1     -12.125  37.111 -12.460  1.00  0.00     0.278 C 
ENDBRANCH   1   7
BRANCH   2   9
ATOM      9  O   UNL     1      -8.406  36.209 -11.953  1.00  0.00    -0.493 OA
ATOM     10  C   UNL     1      -7.288  36.644 -11.187  1.00  0.00     0.278 C 
ENDBRANCH   2   9
BRANCH   4  11
ATOM     11  C   UNL     1      -9.127  31.387 -10.911  1.00  0.00     0.062 C 
BRANCH  11  12
ATOM     12  C   UNL     1      -9.876  30.661  -9.829  1.00  0.00    -0.030 C 
ATOM     13  C   UNL     1      -9.485  29.463  -9.385  1.00  0.00     0.004 C 
ENDBRANCH  11  12
ENDBRANCH   4  11
TORSDOF 4
ENDMDL
MODEL 5
REMARK VINA RESULT:    -3.187      2.218      5.165
REMARK INTER + INTRA:          -4.210
REMARK INTER:                  -4.221
REMARK INTRA:                   0.011
REMARK UNBOUND:                -0.278
REMARK SMILES C=CCc1ccc(OC)c(OC)c1
REMARK SMILES IDX 7 1 10 2 13 3 4 4 5 5 6 6 8 7 9 8 11 9 12 10 3 11 2 12 1 13
REMARK H PARENT
REMARK Flexibility Score: inf
ROOT
ATOM      1  C   UNL     1     -10.090  33.718 -11.907  1.00  0.00     0.160 A 
ATOM      2  C   UNL     1      -9.073  33.160 -11.116  1.00  0.00     0.160 A 
ATOM      3  C   UNL     1      -7.734  33.545 -11.328  1.00  0.00     0.054 A 
ATOM      4  C   UNL     1      -7.409  34.476 -12.327  1.00  0.00    -0.040 A 
ATOM      5  C   UNL     1      -8.432  35.035 -13.104  1.00  0.00     0.008 A 
ATOM      6  C   UNL     1      -9.761  34.658 -12.901  1.00  0.00     0.051 A 
ENDROOT
BRANCH   1   7
ATOM      7  O   UNL     1     -11.414  33.314 -11.673  1.00  0.00    -0.493 OA
ATOM      8  C   UNL     1     -12.125  33.543 -10.461  1.00  0.00     0.278 C 
ENDBRANCH   1   7
BRANCH   2   9
ATOM      9  O   UNL     1      -9.432  32.229 -10.127  1.00  0.00    -0.493 OA
ATOM     10  C   UNL     1      -9.621  30.837 -10.360  1.00  0.00     0.278 C 
ENDBRANCH   2   9
BRANCH   4  11
ATOM     11  C   UNL     1      -5.982  34.908 -12.530  1.00  0.00     0.062 C 
BRANCH  11  12
ATOM     12  C   UNL     1      -5.878  36.408 -12.548  1.00  0.00    -0.030 C 
ATOM     13  C   UNL     1      -5.860  37.125 -11.421  1.00  0.00     0.004 C 
ENDBRANCH  11  12
ENDBRANCH   4  11
TORSDOF 4
ENDMDL
MODEL 6
REMARK VINA RESULT:    -3.068      2.251      4.491
REMARK INTER + INTRA:          -4.064
REMARK INTER:                  -4.128
REMARK INTRA:                   0.064
REMARK UNBOUND:                -0.278
REMARK SMILES C=CCc1ccc(OC)c(OC)c1
REMARK SMILES IDX 7 1 10 2 13 3 4 4 5 5 6 6 8 7 9 8 11 9 12 10 3 11 2 12 1 13
REMARK H PARENT
REMARK Flexibility Score: inf
ROOT
ATOM      1  C   UNL     1     -10.519  34.903 -11.745  1.00  0.00     0.160 A 
ATOM      2  C   UNL     1      -9.946  33.672 -11.388  1.00  0.00     0.160 A 
ATOM      3  C   UNL     1      -8.654  33.346 -11.848  1.00  0.00     0.054 A 
ATOM      4  C   UNL     1      -7.940  34.238 -12.662  1.00  0.00    -0.040 A 
ATOM      5  C   UNL     1      -8.516  35.469 -13.004  1.00  0.00     0.008 A 
ATOM      6  C   UNL     1      -9.796  35.798 -12.554  1.00  0.00     0.051 A 
ENDROOT
BRANCH   1   7
ATOM      7  O   UNL     1     -11.808  35.199 -11.274  1.00  0.00    -0.493 OA
ATOM      8  C   UNL     1     -12.116  36.266 -10.383  1.00  0.00     0.278 C 
ENDBRANCH   1   7
BRANCH   2   9
ATOM      9  O   UNL     1     -10.689  32.801 -10.575  1.00  0.00    -0.493 OA
ATOM     10  C   UNL     1     -10.251  31.511 -10.163  1.00  0.00     0.278 C 
ENDBRANCH   2   9
BRANCH   4  11
ATOM     11  C   UNL     1      -6.548  33.900 -13.125  1.00  0.00     0.062 C 
BRANCH  11  12
ATOM     12  C   UNL     1      -5.521  34.510 -12.212  1.00  0.00    -0.030 C 
ATOM     13  C   UNL     1      -5.822  35.520 -11.390  1.00  0.00     0.004 C 
ENDBRANCH  11  12
ENDBRANCH   4  11
TORSDOF 4
ENDMDL
MODEL 7
REMARK VINA RESULT:    -3.006      1.990      4.638
REMARK INTER + INTRA:          -3.987
REMARK INTER:                  -3.759
REMARK INTRA:                  -0.228
REMARK UNBOUND:                -0.278
REMARK SMILES C=CCc1ccc(OC)c(OC)c1
REMARK SMILES IDX 7 1 10 2 13 3 4 4 5 5 6 6 8 7 9 8 11 9 12 10 3 11 2 12 1 13
REMARK H PARENT
REMARK Flexibility Score: inf
ROOT
ATOM      1  C   UNL     1      -9.509  33.512 -11.202  1.00  0.00     0.160 A 
ATOM      2  C   UNL     1     -10.012  34.823 -11.168  1.00  0.00     0.160 A 
ATOM      3  C   UNL     1      -9.292  35.862 -11.789  1.00  0.00     0.054 A 
ATOM      4  C   UNL     1      -8.074  35.599 -12.435  1.00  0.00    -0.040 A 
ATOM      5  C   UNL     1      -7.586  34.286 -12.474  1.00  0.00     0.008 A 
ATOM      6  C   UNL     1      -8.292  33.252 -11.859  1.00  0.00     0.051 A 
ENDROOT
BRANCH   1   7
ATOM      7  O   UNL     1     -10.248  32.498 -10.573  1.00  0.00    -0.493 OA
ATOM      8  C   UNL     1      -9.733  31.214 -10.239  1.00  0.00     0.278 C 
ENDBRANCH   1   7
BRANCH   2   9
ATOM      9  O   UNL     1     -11.232  35.051 -10.510  1.00  0.00    -0.493 OA
ATOM     10  C   UNL     1     -12.125  36.118 -10.813  1.00  0.00     0.278 C 
ENDBRANCH   2   9
BRANCH   4  11
ATOM     11  C   UNL     1      -7.322  36.706 -13.125  1.00  0.00     0.062 C 
BRANCH  11  12
ATOM     12  C   UNL     1      -5.978  36.916 -12.486  1.00  0.00    -0.030 C 
ATOM     13  C   UNL     1      -5.834  36.989 -11.159  1.00  0.00     0.004 C 
ENDBRANCH  11  12
ENDBRANCH   4  11
TORSDOF 4
ENDMDL
MODEL 8
REMARK VINA RESULT:    -2.643      2.030      4.156
REMARK INTER + INTRA:          -3.539
REMARK INTER:                  -3.416
REMARK INTRA:                  -0.123
REMARK UNBOUND:                -0.278
REMARK SMILES C=CCc1ccc(OC)c(OC)c1
REMARK SMILES IDX 7 1 10 2 13 3 4 4 5 5 6 6 8 7 9 8 11 9 12 10 3 11 2 12 1 13
REMARK H PARENT
REMARK Flexibility Score: inf
ROOT
ATOM      1  C   UNL     1     -10.253  35.008 -10.858  1.00  0.00     0.160 A 
ATOM      2  C   UNL     1     -10.018  36.265 -11.438  1.00  0.00     0.160 A 
ATOM      3  C   UNL     1      -8.708  36.628 -11.806  1.00  0.00     0.054 A 
ATOM      4  C   UNL     1      -7.636  35.747 -11.593  1.00  0.00    -0.040 A 
ATOM      5  C   UNL     1      -7.882  34.490 -11.024  1.00  0.00     0.008 A 
ATOM      6  C   UNL     1      -9.178  34.123 -10.655  1.00  0.00     0.051 A 
ENDROOT
BRANCH   1   7
ATOM      7  O   UNL     1     -11.569  34.674 -10.500  1.00  0.00    -0.493 OA
ATOM      8  C   UNL     1     -12.115  33.361 -10.567  1.00  0.00     0.278 C 
ENDBRANCH   1   7
BRANCH   2   9
ATOM      9  O   UNL     1     -11.112  37.123 -11.633  1.00  0.00    -0.493 OA
ATOM     10  C   UNL     1     -11.968  37.094 -12.771  1.00  0.00     0.278 C 
ENDBRANCH   2   9
BRANCH   4  11
ATOM     11  C   UNL     1      -6.242  36.125 -12.016  1.00  0.00     0.062 C 
BRANCH  11  12
ATOM     12  C   UNL     1      -5.346  34.918 -12.036  1.00  0.00    -0.030 C 
ATOM     13  C   UNL     1      -5.236  34.142 -13.118  1.00  0.00     0.004 C 
ENDBRANCH  11  12
ENDBRANCH   4  11
TORSDOF 4
ENDMDL
