MODEL 1
REMARK VINA RESULT:    -5.832      0.000      0.000
REMARK INTER + INTRA:          -6.173
REMARK INTER:                  -6.173
REMARK INTRA:                   0.000
REMARK UNBOUND:                 0.000
REMARK SMILES O=c1ccc2cc(O)c(O)cc2o1
REMARK SMILES IDX 4 1 3 2 2 3 1 4 13 5 12 6 11 7 9 8 7 9 6 10 5 11 8 12 10 14
REMARK H PARENT 8 13 10 15
REMARK Flexibility Score: inf
ROOT
ATOM      1  C   UNL     1      53.714 111.279  47.014  1.00  0.00     0.019 A 
ATOM      2  C   UNL     1      53.571 111.994  48.203  1.00  0.00     0.094 A 
ATOM      3  C   UNL     1      54.146 113.266  48.302  1.00  0.00     0.336 A 
ATOM      4  O   UNL     1      54.028 113.927  49.365  1.00  0.00    -0.246 OA
ATOM      5  O   UNL     1      54.818 113.782  47.276  1.00  0.00    -0.423 OA
ATOM      6  C   UNL     1      54.978 113.132  46.125  1.00  0.00     0.142 A 
ATOM      7  C   UNL     1      55.694 113.725  45.082  1.00  0.00     0.098 A 
ATOM      8  C   UNL     1      55.871 113.054  43.865  1.00  0.00     0.161 A 
ATOM      9  C   UNL     1      55.316 111.762  43.691  1.00  0.00     0.158 A 
ATOM     10  C   UNL     1      54.599 111.171  44.739  1.00  0.00     0.062 A 
ATOM     11  C   UNL     1      54.426 111.847  45.953  1.00  0.00     0.022 A 
ENDROOT
BRANCH   9  12
ATOM     12  O   UNL     1      55.453 111.036  42.506  1.00  0.00    -0.504 OA
ATOM     13  H   UNL     1      56.339 110.724  42.134  1.00  0.00     0.293 HD
ENDBRANCH   9  12
BRANCH   8  14
ATOM     14  O   UNL     1      56.598 113.704  42.865  1.00  0.00    -0.504 OA
ATOM     15  H   UNL     1      56.429 114.656  42.573  1.00  0.00     0.293 HD
ENDBRANCH   8  14
TORSDOF 2
ENDMDL
MODEL 2
REMARK VINA RESULT:    -5.503      3.110      3.999
REMARK INTER + INTRA:          -5.825
REMARK INTER:                  -5.825
REMARK INTRA:                   0.000
REMARK UNBOUND:                 0.000
REMARK SMILES O=c1ccc2cc(O)c(O)cc2o1
REMARK SMILES IDX 4 1 3 2 2 3 1 4 13 5 12 6 11 7 9 8 7 9 6 10 5 11 8 12 10 14
REMARK H PARENT 8 13 10 15
REMARK Flexibility Score: inf
ROOT
ATOM      1  C   UNL     1      51.230 113.751  45.028  1.00  0.00     0.019 A 
ATOM      2  C   UNL     1      50.004 114.013  45.639  1.00  0.00     0.094 A 
ATOM      3  C   UNL     1      49.900 113.892  47.029  1.00  0.00     0.336 A 
ATOM      4  O   UNL     1      48.804 114.125  47.599  1.00  0.00    -0.246 OA
ATOM      5  O   UNL     1      50.957 113.531  47.754  1.00  0.00    -0.423 OA
ATOM      6  C   UNL     1      52.143 113.272  47.210  1.00  0.00     0.142 A 
ATOM      7  C   UNL     1      53.217 112.898  48.021  1.00  0.00     0.098 A 
ATOM      8  C   UNL     1      54.472 112.621  47.464  1.00  0.00     0.161 A 
ATOM      9  C   UNL     1      54.653 112.723  46.062  1.00  0.00     0.158 A 
ATOM     10  C   UNL     1      53.574 113.099  45.251  1.00  0.00     0.062 A 
ATOM     11  C   UNL     1      52.322 113.374  45.816  1.00  0.00     0.022 A 
ENDROOT
BRANCH   9  12
ATOM     12  O   UNL     1      55.876 112.462  45.439  1.00  0.00    -0.504 OA
ATOM     13  H   UNL     1      56.754 112.869  45.727  1.00  0.00     0.293 HD
ENDBRANCH   9  12
BRANCH   8  14
ATOM     14  O   UNL     1      55.502 112.252  48.332  1.00  0.00    -0.504 OA
ATOM     15  H   UNL     1      55.651 112.669  49.240  1.00  0.00     0.293 HD
ENDBRANCH   8  14
TORSDOF 2
ENDMDL
MODEL 3
REMARK VINA RESULT:    -5.419      1.067      2.269
REMARK INTER + INTRA:          -5.736
REMARK INTER:                  -5.736
REMARK INTRA:                   0.000
REMARK UNBOUND:                 0.000
REMARK SMILES O=c1ccc2cc(O)c(O)cc2o1
REMARK SMILES IDX 4 1 3 2 2 3 1 4 13 5 12 6 11 7 9 8 7 9 6 10 5 11 8 12 10 14
REMARK H PARENT 8 13 10 15
REMARK Flexibility Score: inf
ROOT
ATOM      1  C   UNL     1      54.976 114.125  47.527  1.00  0.00     0.019 A 
ATOM      2  C   UNL     1      54.230 113.691  48.623  1.00  0.00     0.094 A 
ATOM      3  C   UNL     1      53.582 112.452  48.554  1.00  0.00     0.336 A 
ATOM      4  O   UNL     1      52.905 112.042  49.532  1.00  0.00    -0.246 OA
ATOM      5  O   UNL     1      53.677 111.703  47.458  1.00  0.00    -0.423 OA
ATOM      6  C   UNL     1      54.378 112.082  46.391  1.00  0.00     0.142 A 
ATOM      7  C   UNL     1      54.442 111.253  45.268  1.00  0.00     0.098 A 
ATOM      8  C   UNL     1      55.175 111.637  44.138  1.00  0.00     0.161 A 
ATOM      9  C   UNL     1      55.859 112.878  44.135  1.00  0.00     0.158 A 
ATOM     10  C   UNL     1      55.792 113.707  45.263  1.00  0.00     0.062 A 
ATOM     11  C   UNL     1      55.057 113.316  46.389  1.00  0.00     0.022 A 
ENDROOT
BRANCH   9  12
ATOM     12  O   UNL     1      56.608 113.324  43.044  1.00  0.00    -0.504 OA
ATOM     13  H   UNL     1      57.287 112.758  42.556  1.00  0.00     0.293 HD
ENDBRANCH   9  12
BRANCH   8  14
ATOM     14  O   UNL     1      55.197 110.762  43.050  1.00  0.00    -0.504 OA
ATOM     15  H   UNL     1      54.482 110.729  42.337  1.00  0.00     0.293 HD
ENDBRANCH   8  14
TORSDOF 2
ENDMDL
MODEL 4
REMARK VINA RESULT:    -5.318     10.769     11.630
REMARK INTER + INTRA:          -5.629
REMARK INTER:                  -5.629
REMARK INTRA:                   0.000
REMARK UNBOUND:                 0.000
REMARK SMILES O=c1ccc2cc(O)c(O)cc2o1
REMARK SMILES IDX 4 1 3 2 2 3 1 4 13 5 12 6 11 7 9 8 7 9 6 10 5 11 8 12 10 14
REMARK H PARENT 8 13 10 15
REMARK Flexibility Score: inf
ROOT
ATOM      1  C   UNL     1      46.544 107.955  53.505  1.00  0.00     0.019 A 
ATOM      2  C   UNL     1      47.099 109.167  53.913  1.00  0.00     0.094 A 
ATOM      3  C   UNL     1      48.488 109.331  53.856  1.00  0.00     0.336 A 
ATOM      4  O   UNL     1      49.008 110.417  54.218  1.00  0.00    -0.246 OA
ATOM      5  O   UNL     1      49.263 108.342  53.418  1.00  0.00    -0.423 OA
ATOM      6  C   UNL     1      48.774 107.170  53.020  1.00  0.00     0.142 A 
ATOM      7  C   UNL     1      49.638 106.169  52.569  1.00  0.00     0.098 A 
ATOM      8  C   UNL     1      49.137 104.930  52.147  1.00  0.00     0.161 A 
ATOM      9  C   UNL     1      47.741 104.692  52.177  1.00  0.00     0.158 A 
ATOM     10  C   UNL     1      46.877 105.698  52.629  1.00  0.00     0.062 A 
ATOM     11  C   UNL     1      47.385 106.934  53.050  1.00  0.00     0.022 A 
ENDROOT
BRANCH   9  12
ATOM     12  O   UNL     1      47.174 103.482  51.771  1.00  0.00    -0.504 OA
ATOM     13  H   UNL     1      46.322 103.100  52.158  1.00  0.00     0.293 HD
ENDBRANCH   9  12
BRANCH   8  14
ATOM     14  O   UNL     1      50.056 103.974  51.709  1.00  0.00    -0.504 OA
ATOM     15  H   UNL     1      50.031 103.001  51.981  1.00  0.00     0.293 HD
ENDBRANCH   8  14
TORSDOF 2
ENDMDL
MODEL 5
REMARK VINA RESULT:    -5.303     11.055     11.914
REMARK INTER + INTRA:          -5.613
REMARK INTER:                  -5.613
REMARK INTRA:                   0.000
REMARK UNBOUND:                 0.000
REMARK SMILES O=c1ccc2cc(O)c(O)cc2o1
REMARK SMILES IDX 4 1 3 2 2 3 1 4 13 5 12 6 11 7 9 8 7 9 6 10 5 11 8 12 10 14
REMARK H PARENT 8 13 10 15
REMARK Flexibility Score: inf
ROOT
ATOM      1  C   UNL     1      49.202 108.413  53.522  1.00  0.00     0.019 A 
ATOM      2  C   UNL     1      48.283 109.361  53.971  1.00  0.00     0.094 A 
ATOM      3  C   UNL     1      46.920 109.045  53.955  1.00  0.00     0.336 A 
ATOM      4  O   UNL     1      46.075 109.886  54.357  1.00  0.00    -0.246 OA
ATOM      5  O   UNL     1      46.510 107.857  53.518  1.00  0.00    -0.423 OA
ATOM      6  C   UNL     1      47.354 106.925  53.081  1.00  0.00     0.142 A 
ATOM      7  C   UNL     1      46.865 105.695  52.634  1.00  0.00     0.098 A 
ATOM      8  C   UNL     1      47.741 104.704  52.171  1.00  0.00     0.161 A 
ATOM      9  C   UNL     1      49.135 104.952  52.158  1.00  0.00     0.158 A 
ATOM     10  C   UNL     1      49.622 106.187  52.607  1.00  0.00     0.062 A 
ATOM     11  C   UNL     1      48.741 107.173  53.068  1.00  0.00     0.022 A 
ENDROOT
BRANCH   9  12
ATOM     12  O   UNL     1      50.065 104.011  51.710  1.00  0.00    -0.504 OA
ATOM     13  H   UNL     1      51.043 104.019  51.961  1.00  0.00     0.293 HD
ENDBRANCH   9  12
BRANCH   8  14
ATOM     14  O   UNL     1      47.186 103.497  51.738  1.00  0.00    -0.504 OA
ATOM     15  H   UNL     1      46.775 102.811  52.355  1.00  0.00     0.293 HD
ENDBRANCH   8  14
TORSDOF 2
ENDMDL
MODEL 6
REMARK VINA RESULT:    -5.202      3.243      4.837
REMARK INTER + INTRA:          -5.506
REMARK INTER:                  -5.506
REMARK INTRA:                   0.000
REMARK UNBOUND:                 0.000
REMARK SMILES O=c1ccc2cc(O)c(O)cc2o1
REMARK SMILES IDX 4 1 3 2 2 3 1 4 13 5 12 6 11 7 9 8 7 9 6 10 5 11 8 12 10 14
REMARK H PARENT 8 13 10 15
REMARK Flexibility Score: inf
ROOT
ATOM      1  C   UNL     1      52.887 113.023  45.464  1.00  0.00     0.019 A 
ATOM      2  C   UNL     1      51.589 113.411  45.135  1.00  0.00     0.094 A 
ATOM      3  C   UNL     1      50.705 113.762  46.161  1.00  0.00     0.336 A 
ATOM      4  O   UNL     1      49.530 114.115  45.885  1.00  0.00    -0.246 OA
ATOM      5  O   UNL     1      51.101 113.727  47.431  1.00  0.00    -0.423 OA
ATOM      6  C   UNL     1      52.331 113.363  47.788  1.00  0.00     0.142 A 
ATOM      7  C   UNL     1      52.690 113.346  49.138  1.00  0.00     0.098 A 
ATOM      8  C   UNL     1      53.980 112.965  49.529  1.00  0.00     0.161 A 
ATOM      9  C   UNL     1      54.930 112.596  48.545  1.00  0.00     0.158 A 
ATOM     10  C   UNL     1      54.566 112.614  47.192  1.00  0.00     0.062 A 
ATOM     11  C   UNL     1      53.275 112.996  46.808  1.00  0.00     0.022 A 
ENDROOT
BRANCH   9  12
ATOM     12  O   UNL     1      56.233 112.206  48.863  1.00  0.00    -0.504 OA
ATOM     13  H   UNL     1      57.061 112.650  48.493  1.00  0.00     0.293 HD
ENDBRANCH   9  12
BRANCH   8  14
ATOM     14  O   UNL     1      54.273 112.969  50.895  1.00  0.00    -0.504 OA
ATOM     15  H   UNL     1      53.995 113.704  51.529  1.00  0.00     0.293 HD
ENDBRANCH   8  14
TORSDOF 2
ENDMDL
MODEL 7
REMARK VINA RESULT:    -4.853      3.396      4.497
REMARK INTER + INTRA:          -5.137
REMARK INTER:                  -5.137
REMARK INTRA:                   0.000
REMARK UNBOUND:                 0.000
REMARK SMILES O=c1ccc2cc(O)c(O)cc2o1
REMARK SMILES IDX 4 1 3 2 2 3 1 4 13 5 12 6 11 7 9 8 7 9 6 10 5 11 8 12 10 14
REMARK H PARENT 8 13 10 15
REMARK Flexibility Score: inf
ROOT
ATOM      1  C   UNL     1      54.211 113.527  46.027  1.00  0.00     0.019 A 
ATOM      2  C   UNL     1      54.937 113.376  47.207  1.00  0.00     0.094 A 
ATOM      3  C   UNL     1      54.253 113.376  48.428  1.00  0.00     0.336 A 
ATOM      4  O   UNL     1      54.890 113.240  49.505  1.00  0.00    -0.246 OA
ATOM      5  O   UNL     1      52.930 113.517  48.458  1.00  0.00    -0.423 OA
ATOM      6  C   UNL     1      52.201 113.664  47.355  1.00  0.00     0.142 A 
ATOM      7  C   UNL     1      50.814 113.808  47.448  1.00  0.00     0.098 A 
ATOM      8  C   UNL     1      50.033 113.964  46.296  1.00  0.00     0.161 A 
ATOM      9  C   UNL     1      50.656 113.974  45.023  1.00  0.00     0.158 A 
ATOM     10  C   UNL     1      52.046 113.829  44.933  1.00  0.00     0.062 A 
ATOM     11  C   UNL     1      52.821 113.674  46.090  1.00  0.00     0.022 A 
ENDROOT
BRANCH   9  12
ATOM     12  O   UNL     1      49.939 114.125  43.834  1.00  0.00    -0.504 OA
ATOM     13  H   UNL     1      50.277 114.638  43.033  1.00  0.00     0.293 HD
ENDBRANCH   9  12
BRANCH   8  14
ATOM     14  O   UNL     1      48.653 114.103  46.461  1.00  0.00    -0.504 OA
ATOM     15  H   UNL     1      48.196 114.171  47.359  1.00  0.00     0.293 HD
ENDBRANCH   8  14
TORSDOF 2
ENDMDL
MODEL 8
REMARK VINA RESULT:    -4.839      3.928      4.896
REMARK INTER + INTRA:          -5.122
REMARK INTER:                  -5.122
REMARK INTRA:                   0.000
REMARK UNBOUND:                 0.000
REMARK SMILES O=c1ccc2cc(O)c(O)cc2o1
REMARK SMILES IDX 4 1 3 2 2 3 1 4 13 5 12 6 11 7 9 8 7 9 6 10 5 11 8 12 10 14
REMARK H PARENT 8 13 10 15
REMARK Flexibility Score: inf
ROOT
ATOM      1  C   UNL     1      49.055 113.865  46.317  1.00  0.00     0.019 A 
ATOM      2  C   UNL     1      48.169 113.625  47.367  1.00  0.00     0.094 A 
ATOM      3  C   UNL     1      48.683 113.287  48.624  1.00  0.00     0.336 A 
ATOM      4  O   UNL     1      47.900 113.067  49.584  1.00  0.00    -0.246 OA
ATOM      5  O   UNL     1      49.997 113.196  48.811  1.00  0.00    -0.423 OA
ATOM      6  C   UNL     1      50.876 113.416  47.835  1.00  0.00     0.142 A 
ATOM      7  C   UNL     1      52.245 113.307  48.091  1.00  0.00     0.098 A 
ATOM      8  C   UNL     1      53.182 113.535  47.075  1.00  0.00     0.161 A 
ATOM      9  C   UNL     1      52.736 113.883  45.776  1.00  0.00     0.158 A 
ATOM     10  C   UNL     1      51.362 113.992  45.523  1.00  0.00     0.062 A 
ATOM     11  C   UNL     1      50.431 113.762  46.544  1.00  0.00     0.022 A 
ENDROOT
BRANCH   9  12
ATOM     12  O   UNL     1      53.613 114.124  44.717  1.00  0.00    -0.504 OA
ATOM     13  H   UNL     1      54.616 114.015  44.778  1.00  0.00     0.293 HD
ENDBRANCH   9  12
BRANCH   8  14
ATOM     14  O   UNL     1      54.535 113.408  47.399  1.00  0.00    -0.504 OA
ATOM     15  H   UNL     1      55.285 113.811  46.856  1.00  0.00     0.293 HD
ENDBRANCH   8  14
TORSDOF 2
ENDMDL
MODEL 9
REMARK VINA RESULT:    -4.732      1.799      5.147
REMARK INTER + INTRA:          -5.008
REMARK INTER:                  -5.008
REMARK INTRA:                   0.000
REMARK UNBOUND:                 0.000
REMARK SMILES O=c1ccc2cc(O)c(O)cc2o1
REMARK SMILES IDX 4 1 3 2 2 3 1 4 13 5 12 6 11 7 9 8 7 9 6 10 5 11 8 12 10 14
REMARK H PARENT 8 13 10 15
REMARK Flexibility Score: inf
ROOT
ATOM      1  C   UNL     1      52.930 113.112  45.884  1.00  0.00     0.019 A 
ATOM      2  C   UNL     1      53.952 113.198  44.939  1.00  0.00     0.094 A 
ATOM      3  C   UNL     1      55.278 113.278  45.380  1.00  0.00     0.336 A 
ATOM      4  O   UNL     1      56.214 113.355  44.544  1.00  0.00    -0.246 OA
ATOM      5  O   UNL     1      55.555 113.271  46.681  1.00  0.00    -0.423 OA
ATOM      6  C   UNL     1      54.610 113.191  47.615  1.00  0.00     0.142 A 
ATOM      7  C   UNL     1      54.961 113.188  48.966  1.00  0.00     0.098 A 
ATOM      8  C   UNL     1      53.978 113.105  49.961  1.00  0.00     0.161 A 
ATOM      9  C   UNL     1      52.613 113.021  49.590  1.00  0.00     0.158 A 
ATOM     10  C   UNL     1      52.264 113.024  48.233  1.00  0.00     0.062 A 
ATOM     11  C   UNL     1      53.252 113.108  47.245  1.00  0.00     0.022 A 
ENDROOT
BRANCH   9  12
ATOM     12  O   UNL     1      51.581 112.935  50.527  1.00  0.00    -0.504 OA
ATOM     13  H   UNL     1      51.219 112.065  50.891  1.00  0.00     0.293 HD
ENDBRANCH   9  12
BRANCH   8  14
ATOM     14  O   UNL     1      54.398 113.107  51.293  1.00  0.00    -0.504 OA
ATOM     15  H   UNL     1      55.366 113.131  51.579  1.00  0.00     0.293 HD
ENDBRANCH   8  14
TORSDOF 2
ENDMDL
