MODEL 1
REMARK VINA RESULT:    -4.966      0.000      0.000
REMARK INTER + INTRA:          -5.539
REMARK INTER:                  -5.402
REMARK INTRA:                  -0.137
REMARK UNBOUND:                -0.137
REMARK SMILES C=C(C)[C@H]1CC[C@H](C)C[C@H]1O
REMARK SMILES IDX 8 1 7 2 6 3 5 4 4 5 10 6 9 7 11 8 2 10 1 11 3 12
REMARK H PARENT 11 9
REMARK Flexibility Score: inf
ROOT
ATOM      1  C   UNL     1     111.842 127.854 127.314  1.00  0.00     0.008 C 
ATOM      2  C   UNL     1     113.033 127.217 126.590  1.00  0.00    -0.012 C 
ATOM      3  C   UNL     1     113.006 127.581 125.093  1.00  0.00     0.004 C 
ATOM      4  C   UNL     1     114.204 126.974 124.351  1.00  0.00     0.011 C 
ATOM      5  C   UNL     1     115.532 127.442 124.981  1.00  0.00     0.043 C 
ATOM      6  C   UNL     1     115.603 127.126 126.500  1.00  0.00     0.121 C 
ATOM      7  C   UNL     1     114.360 127.664 127.243  1.00  0.00     0.035 C 
ENDROOT
BRANCH   6   8
ATOM      8  O   UNL     1     115.806 125.760 126.766  1.00  0.00    -0.392 OA
ATOM      9  H   UNL     1     115.222 125.498 127.521  1.00  0.00     0.210 HD
ENDBRANCH   6   8
BRANCH   5  10
ATOM     10  C   UNL     1     116.751 126.922 124.224  1.00  0.00    -0.075 C 
ATOM     11  C   UNL     1     116.706 125.789 123.503  1.00  0.00     0.008 C 
ATOM     12  C   UNL     1     118.047 127.690 124.268  1.00  0.00     0.039 C 
ENDBRANCH   5  10
TORSDOF 2
ENDMDL
MODEL 2
REMARK VINA RESULT:    -4.958      7.779      8.783
REMARK INTER + INTRA:          -5.530
REMARK INTER:                  -5.351
REMARK INTRA:                  -0.179
REMARK UNBOUND:                -0.137
REMARK SMILES C=C(C)[C@H]1CC[C@H](C)C[C@H]1O
REMARK SMILES IDX 8 1 7 2 6 3 5 4 4 5 10 6 9 7 11 8 2 10 1 11 3 12
REMARK H PARENT 11 9
REMARK Flexibility Score: inf
ROOT
ATOM      1  C   UNL     1     112.019 120.488 121.443  1.00  0.00     0.008 C 
ATOM      2  C   UNL     1     112.504 119.729 122.684  1.00  0.00    -0.012 C 
ATOM      3  C   UNL     1     113.818 120.342 123.206  1.00  0.00     0.004 C 
ATOM      4  C   UNL     1     114.310 119.614 124.463  1.00  0.00     0.011 C 
ATOM      5  C   UNL     1     113.237 119.649 125.571  1.00  0.00     0.043 C 
ATOM      6  C   UNL     1     111.879 119.069 125.090  1.00  0.00     0.121 C 
ATOM      7  C   UNL     1     111.415 119.741 123.779  1.00  0.00     0.035 C 
ENDROOT
BRANCH   6   8
ATOM      8  O   UNL     1     111.896 117.668 124.969  1.00  0.00    -0.392 OA
ATOM      9  H   UNL     1     111.440 117.280 125.758  1.00  0.00     0.210 HD
ENDBRANCH   6   8
BRANCH   5  10
ATOM     10  C   UNL     1     113.717 119.002 126.867  1.00  0.00    -0.075 C 
ATOM     11  C   UNL     1     112.987 119.049 127.995  1.00  0.00     0.008 C 
ATOM     12  C   UNL     1     115.040 118.280 126.902  1.00  0.00     0.039 C 
ENDBRANCH   5  10
TORSDOF 2
ENDMDL
MODEL 3
REMARK VINA RESULT:    -4.715      7.104      7.994
REMARK INTER + INTRA:          -5.266
REMARK INTER:                  -5.077
REMARK INTRA:                  -0.189
REMARK UNBOUND:                -0.137
REMARK SMILES C=C(C)[C@H]1CC[C@H](C)C[C@H]1O
REMARK SMILES IDX 8 1 7 2 6 3 5 4 4 5 10 6 9 7 11 8 2 10 1 11 3 12
REMARK H PARENT 11 9
REMARK Flexibility Score: inf
ROOT
ATOM      1  C   UNL     1     113.881 118.246 127.798  1.00  0.00     0.008 C 
ATOM      2  C   UNL     1     113.685 119.246 126.652  1.00  0.00    -0.012 C 
ATOM      3  C   UNL     1     114.947 119.301 125.769  1.00  0.00     0.004 C 
ATOM      4  C   UNL     1     114.766 120.278 124.601  1.00  0.00     0.011 C 
ATOM      5  C   UNL     1     113.543 119.887 123.745  1.00  0.00     0.043 C 
ATOM      6  C   UNL     1     112.245 119.787 124.591  1.00  0.00     0.121 C 
ATOM      7  C   UNL     1     112.443 118.868 125.817  1.00  0.00     0.035 C 
ENDROOT
BRANCH   6   8
ATOM      8  O   UNL     1     111.742 121.044 124.971  1.00  0.00    -0.392 OA
ATOM      9  H   UNL     1     111.377 121.492 124.166  1.00  0.00     0.210 HD
ENDBRANCH   6   8
BRANCH   5  10
ATOM     10  C   UNL     1     113.373 120.789 122.527  1.00  0.00    -0.075 C 
ATOM     11  C   UNL     1     114.035 121.953 122.409  1.00  0.00     0.008 C 
ATOM     12  C   UNL     1     112.448 120.377 121.410  1.00  0.00     0.039 C 
ENDBRANCH   5  10
TORSDOF 2
ENDMDL
MODEL 4
REMARK VINA RESULT:    -4.704      7.484      8.233
REMARK INTER + INTRA:          -5.253
REMARK INTER:                  -5.116
REMARK INTRA:                  -0.137
REMARK UNBOUND:                -0.137
REMARK SMILES C=C(C)[C@H]1CC[C@H](C)C[C@H]1O
REMARK SMILES IDX 8 1 7 2 6 3 5 4 4 5 10 6 9 7 11 8 2 10 1 11 3 12
REMARK H PARENT 11 9
REMARK Flexibility Score: inf
ROOT
ATOM      1  C   UNL     1     113.869 118.406 127.548  1.00  0.00     0.008 C 
ATOM      2  C   UNL     1     113.648 118.626 126.047  1.00  0.00    -0.012 C 
ATOM      3  C   UNL     1     112.145 118.783 125.745  1.00  0.00     0.004 C 
ATOM      4  C   UNL     1     111.902 119.030 124.251  1.00  0.00     0.011 C 
ATOM      5  C   UNL     1     112.668 120.279 123.770  1.00  0.00     0.043 C 
ATOM      6  C   UNL     1     114.188 120.187 124.075  1.00  0.00     0.121 C 
ATOM      7  C   UNL     1     114.442 119.859 125.563  1.00  0.00     0.035 C 
ENDROOT
BRANCH   6   8
ATOM      8  O   UNL     1     114.862 119.287 123.231  1.00  0.00    -0.392 OA
ATOM      9  H   UNL     1     115.836 119.388 123.380  1.00  0.00     0.210 HD
ENDBRANCH   6   8
BRANCH   5  10
ATOM     10  C   UNL     1     112.391 120.604 122.305  1.00  0.00    -0.075 C 
ATOM     11  C   UNL     1     111.473 119.929 121.591  1.00  0.00     0.008 C 
ATOM     12  C   UNL     1     113.151 121.713 121.624  1.00  0.00     0.039 C 
ENDBRANCH   5  10
TORSDOF 2
ENDMDL
MODEL 5
REMARK VINA RESULT:    -4.680      7.996      8.923
REMARK INTER + INTRA:          -5.228
REMARK INTER:                  -5.038
REMARK INTRA:                  -0.190
REMARK UNBOUND:                -0.137
REMARK SMILES C=C(C)[C@H]1CC[C@H](C)C[C@H]1O
REMARK SMILES IDX 8 1 7 2 6 3 5 4 4 5 10 6 9 7 11 8 2 10 1 11 3 12
REMARK H PARENT 11 9
REMARK Flexibility Score: inf
ROOT
ATOM      1  C   UNL     1     117.223 118.347 128.684  1.00  0.00     0.008 C 
ATOM      2  C   UNL     1     116.001 118.926 127.962  1.00  0.00    -0.012 C 
ATOM      3  C   UNL     1     116.331 119.191 126.480  1.00  0.00     0.004 C 
ATOM      4  C   UNL     1     115.114 119.747 125.730  1.00  0.00     0.011 C 
ATOM      5  C   UNL     1     113.916 118.780 125.837  1.00  0.00     0.043 C 
ATOM      6  C   UNL     1     113.557 118.453 127.311  1.00  0.00     0.121 C 
ATOM      7  C   UNL     1     114.796 117.969 128.097  1.00  0.00     0.035 C 
ENDROOT
BRANCH   6   8
ATOM      8  O   UNL     1     112.921 119.522 127.969  1.00  0.00    -0.392 OA
ATOM      9  H   UNL     1     113.119 120.357 127.474  1.00  0.00     0.210 HD
ENDBRANCH   6   8
BRANCH   5  10
ATOM     10  C   UNL     1     112.708 119.260 125.039  1.00  0.00    -0.075 C 
ATOM     11  C   UNL     1     111.700 118.432 124.713  1.00  0.00     0.008 C 
ATOM     12  C   UNL     1     112.620 120.700 124.601  1.00  0.00     0.039 C 
ENDBRANCH   5  10
TORSDOF 2
ENDMDL
MODEL 6
REMARK VINA RESULT:    -4.626      6.610      8.029
REMARK INTER + INTRA:          -5.169
REMARK INTER:                  -4.998
REMARK INTRA:                  -0.171
REMARK UNBOUND:                -0.137
REMARK SMILES C=C(C)[C@H]1CC[C@H](C)C[C@H]1O
REMARK SMILES IDX 8 1 7 2 6 3 5 4 4 5 10 6 9 7 11 8 2 10 1 11 3 12
REMARK H PARENT 11 9
REMARK Flexibility Score: inf
ROOT
ATOM      1  C   UNL     1     114.161 123.327 120.563  1.00  0.00     0.008 C 
ATOM      2  C   UNL     1     114.166 122.145 121.537  1.00  0.00    -0.012 C 
ATOM      3  C   UNL     1     114.112 122.650 122.993  1.00  0.00     0.004 C 
ATOM      4  C   UNL     1     114.091 121.481 123.986  1.00  0.00     0.011 C 
ATOM      5  C   UNL     1     112.894 120.549 123.709  1.00  0.00     0.043 C 
ATOM      6  C   UNL     1     112.881 120.032 122.246  1.00  0.00     0.121 C 
ATOM      7  C   UNL     1     112.983 121.198 121.237  1.00  0.00     0.035 C 
ENDROOT
BRANCH   6   8
ATOM      8  O   UNL     1     113.865 119.057 122.002  1.00  0.00    -0.392 OA
ATOM      9  H   UNL     1     114.235 119.206 121.095  1.00  0.00     0.210 HD
ENDBRANCH   6   8
BRANCH   5  10
ATOM     10  C   UNL     1     112.792 119.415 124.725  1.00  0.00    -0.075 C 
ATOM     11  C   UNL     1     111.765 118.548 124.718  1.00  0.00     0.008 C 
ATOM     12  C   UNL     1     113.866 119.242 125.769  1.00  0.00     0.039 C 
ENDBRANCH   5  10
TORSDOF 2
ENDMDL
MODEL 7
REMARK VINA RESULT:    -4.611     16.368     16.991
REMARK INTER + INTRA:          -5.153
REMARK INTER:                  -4.996
REMARK INTRA:                  -0.157
REMARK UNBOUND:                -0.137
REMARK SMILES C=C(C)[C@H]1CC[C@H](C)C[C@H]1O
REMARK SMILES IDX 8 1 7 2 6 3 5 4 4 5 10 6 9 7 11 8 2 10 1 11 3 12
REMARK H PARENT 11 9
REMARK Flexibility Score: inf
ROOT
ATOM      1  C   UNL     1     127.435 122.149 115.167  1.00  0.00     0.008 C 
ATOM      2  C   UNL     1     126.045 121.757 114.654  1.00  0.00    -0.012 C 
ATOM      3  C   UNL     1     125.917 122.083 113.153  1.00  0.00     0.004 C 
ATOM      4  C   UNL     1     124.541 121.675 112.611  1.00  0.00     0.011 C 
ATOM      5  C   UNL     1     124.283 120.173 112.846  1.00  0.00     0.043 C 
ATOM      6  C   UNL     1     124.428 119.781 114.341  1.00  0.00     0.121 C 
ATOM      7  C   UNL     1     125.779 120.259 114.919  1.00  0.00     0.035 C 
ENDROOT
BRANCH   6   8
ATOM      8  O   UNL     1     123.350 120.223 115.130  1.00  0.00    -0.392 OA
ATOM      9  H   UNL     1     123.195 121.183 114.938  1.00  0.00     0.210 HD
ENDBRANCH   6   8
BRANCH   5  10
ATOM     10  C   UNL     1     122.956 119.710 112.252  1.00  0.00    -0.075 C 
ATOM     11  C   UNL     1     122.167 120.540 111.547  1.00  0.00     0.008 C 
ATOM     12  C   UNL     1     122.503 118.285 112.443  1.00  0.00     0.039 C 
ENDBRANCH   5  10
TORSDOF 2
ENDMDL
MODEL 8
REMARK VINA RESULT:    -4.592      7.462      8.390
REMARK INTER + INTRA:          -5.132
REMARK INTER:                  -4.971
REMARK INTRA:                  -0.160
REMARK UNBOUND:                -0.137
REMARK SMILES C=C(C)[C@H]1CC[C@H](C)C[C@H]1O
REMARK SMILES IDX 8 1 7 2 6 3 5 4 4 5 10 6 9 7 11 8 2 10 1 11 3 12
REMARK H PARENT 11 9
REMARK Flexibility Score: inf
ROOT
ATOM      1  C   UNL     1     111.593 120.234 121.359  1.00  0.00     0.008 C 
ATOM      2  C   UNL     1     111.930 120.200 122.853  1.00  0.00    -0.012 C 
ATOM      3  C   UNL     1     111.687 118.789 123.425  1.00  0.00     0.004 C 
ATOM      4  C   UNL     1     112.042 118.724 124.915  1.00  0.00     0.011 C 
ATOM      5  C   UNL     1     113.509 119.139 125.148  1.00  0.00     0.043 C 
ATOM      6  C   UNL     1     113.819 120.545 124.565  1.00  0.00     0.121 C 
ATOM      7  C   UNL     1     113.391 120.645 123.085  1.00  0.00     0.035 C 
ENDROOT
BRANCH   6   8
ATOM      8  O   UNL     1     113.265 121.588 125.330  1.00  0.00    -0.392 OA
ATOM      9  H   UNL     1     112.406 121.856 124.917  1.00  0.00     0.210 HD
ENDBRANCH   6   8
BRANCH   5  10
ATOM     10  C   UNL     1     113.925 119.014 126.610  1.00  0.00    -0.075 C 
ATOM     11  C   UNL     1     113.023 119.023 127.607  1.00  0.00     0.008 C 
ATOM     12  C   UNL     1     115.382 118.866 126.968  1.00  0.00     0.039 C 
ENDBRANCH   5  10
TORSDOF 2
ENDMDL
MODEL 9
REMARK VINA RESULT:    -4.535      7.511      8.483
REMARK INTER + INTRA:          -5.070
REMARK INTER:                  -4.922
REMARK INTRA:                  -0.148
REMARK UNBOUND:                -0.137
REMARK SMILES C=C(C)[C@H]1CC[C@H](C)C[C@H]1O
REMARK SMILES IDX 8 1 7 2 6 3 5 4 4 5 10 6 9 7 11 8 2 10 1 11 3 12
REMARK H PARENT 11 9
REMARK Flexibility Score: inf
ROOT
ATOM      1  C   UNL     1     111.373 121.534 119.430  1.00  0.00     0.008 C 
ATOM      2  C   UNL     1     112.057 120.792 120.583  1.00  0.00    -0.012 C 
ATOM      3  C   UNL     1     113.184 121.656 121.182  1.00  0.00     0.004 C 
ATOM      4  C   UNL     1     113.867 120.943 122.356  1.00  0.00     0.011 C 
ATOM      5  C   UNL     1     112.842 120.585 123.451  1.00  0.00     0.043 C 
ATOM      6  C   UNL     1     111.666 119.737 122.897  1.00  0.00     0.121 C 
ATOM      7  C   UNL     1     111.022 120.408 121.663  1.00  0.00     0.035 C 
ENDROOT
BRANCH   6   8
ATOM      8  O   UNL     1     112.033 118.407 122.621  1.00  0.00    -0.392 OA
ATOM      9  H   UNL     1     112.262 117.962 123.476  1.00  0.00     0.210 HD
ENDBRANCH   6   8
BRANCH   5  10
ATOM     10  C   UNL     1     113.494 119.943 124.672  1.00  0.00    -0.075 C 
ATOM     11  C   UNL     1     114.828 119.816 124.778  1.00  0.00     0.008 C 
ATOM     12  C   UNL     1     112.637 119.439 125.804  1.00  0.00     0.039 C 
ENDBRANCH   5  10
TORSDOF 2
ENDMDL
