MODEL 1
REMARK VINA RESULT:    38.624      0.000      0.000
REMARK INTER + INTRA:          47.307
REMARK INTER:                  47.656
REMARK INTRA:                  -0.349
REMARK UNBOUND:                -0.349
REMARK SMILES O=c1c(O)c(-c2cc(O)c(O)c(O)c2)oc2cc(O)cc(O)c12
REMARK SMILES IDX 5 1 3 2 2 3 1 4 23 5 21 6 20 7 18 8 17 9 16 10 15 11 6 12
REMARK SMILES IDX 7 13 8 14 14 15 10 16 12 17 9 18 11 20 13 22 4 24 22 26
REMARK SMILES IDX 19 28
REMARK H PARENT 9 19 11 21 13 23 4 25 22 27 19 29
REMARK Flexibility Score: inf
ROOT
ATOM      1  C   UNL     1      57.108  57.097  -4.575  1.00  0.00     0.180 A 
ATOM      2  C   UNL     1      56.795  55.732  -4.683  1.00  0.00     0.208 A 
ATOM      3  C   UNL     1      57.790  54.781  -4.407  1.00  0.00     0.238 A 
ATOM      4  O   UNL     1      57.519  53.561  -4.559  1.00  0.00    -0.285 OA
ATOM      5  C   UNL     1      59.081  55.206  -4.011  1.00  0.00     0.111 A 
ATOM      6  C   UNL     1      60.154  54.330  -3.667  1.00  0.00     0.134 A 
ATOM      7  C   UNL     1      61.425  54.860  -3.417  1.00  0.00     0.093 A 
ATOM      8  C   UNL     1      61.646  56.239  -3.432  1.00  0.00     0.123 A 
ATOM      9  C   UNL     1      60.592  57.106  -3.708  1.00  0.00     0.094 A 
ATOM     10  C   UNL     1      59.321  56.605  -3.998  1.00  0.00     0.146 A 
ATOM     11  O   UNL     1      58.345  57.466  -4.265  1.00  0.00    -0.452 OA
ENDROOT
BRANCH   1  12
ATOM     12  C   UNL     1      56.106  58.159  -4.825  1.00  0.00     0.029 A 
ATOM     13  C   UNL     1      55.357  58.669  -3.754  1.00  0.00     0.062 A 
ATOM     14  C   UNL     1      54.388  59.659  -3.970  1.00  0.00     0.162 A 
ATOM     15  C   UNL     1      55.848  58.628  -6.126  1.00  0.00     0.062 A 
ATOM     16  C   UNL     1      54.150  60.136  -5.264  1.00  0.00     0.200 A 
ATOM     17  C   UNL     1      54.879  59.616  -6.347  1.00  0.00     0.162 A 
BRANCH  14  18
ATOM     18  O   UNL     1      53.657  60.171  -2.900  1.00  0.00    -0.504 OA
ATOM     19  H   UNL     1      54.080  60.783  -2.212  1.00  0.00     0.293 HD
ENDBRANCH  14  18
BRANCH  16  20
ATOM     20  O   UNL     1      53.184  61.124  -5.459  1.00  0.00    -0.502 OA
ATOM     21  H   UNL     1      53.264  61.819  -6.191  1.00  0.00     0.293 HD
ENDBRANCH  16  20
BRANCH  17  22
ATOM     22  O   UNL     1      54.635  60.080  -7.639  1.00  0.00    -0.504 OA
ATOM     23  H   UNL     1      54.851  59.517  -8.454  1.00  0.00     0.293 HD
ENDBRANCH  17  22
ENDBRANCH   1  12
BRANCH   2  24
ATOM     24  O   UNL     1      55.520  55.334  -5.097  1.00  0.00    -0.502 OA
ATOM     25  H   UNL     1      54.685  55.855  -4.861  1.00  0.00     0.293 HD
ENDBRANCH   2  24
BRANCH   6  26
ATOM     26  O   UNL     1      60.017  52.945  -3.534  1.00  0.00    -0.507 OA
ATOM     27  H   UNL     1      59.846  52.308  -4.298  1.00  0.00     0.293 HD
ENDBRANCH   6  26
BRANCH   8  28
ATOM     28  O   UNL     1      62.911  56.758  -3.165  1.00  0.00    -0.508 OA
ATOM     29  H   UNL     1      63.095  57.307  -2.333  1.00  0.00     0.293 HD
ENDBRANCH   8  28
TORSDOF 7
ENDMDL
MODEL 2
REMARK VINA RESULT:    38.769      0.080      1.750
REMARK INTER + INTRA:          47.485
REMARK INTER:                  47.833
REMARK INTRA:                  -0.348
REMARK UNBOUND:                -0.349
REMARK SMILES O=c1c(O)c(-c2cc(O)c(O)c(O)c2)oc2cc(O)cc(O)c12
REMARK SMILES IDX 5 1 3 2 2 3 1 4 23 5 21 6 20 7 18 8 17 9 16 10 15 11 6 12
REMARK SMILES IDX 7 13 8 14 14 15 10 16 12 17 9 18 11 20 13 22 4 24 22 26
REMARK SMILES IDX 19 28
REMARK H PARENT 9 19 11 21 13 23 4 25 22 27 19 29
REMARK Flexibility Score: inf
ROOT
ATOM      1  C   UNL     1      57.098  57.078  -4.559  1.00  0.00     0.180 A 
ATOM      2  C   UNL     1      56.811  55.706  -4.658  1.00  0.00     0.208 A 
ATOM      3  C   UNL     1      57.825  54.776  -4.379  1.00  0.00     0.238 A 
ATOM      4  O   UNL     1      57.577  53.550  -4.523  1.00  0.00    -0.285 OA
ATOM      5  C   UNL     1      59.109  55.229  -3.990  1.00  0.00     0.111 A 
ATOM      6  C   UNL     1      60.199  54.375  -3.644  1.00  0.00     0.134 A 
ATOM      7  C   UNL     1      61.461  54.932  -3.401  1.00  0.00     0.093 A 
ATOM      8  C   UNL     1      61.655  56.314  -3.425  1.00  0.00     0.123 A 
ATOM      9  C   UNL     1      60.583  57.159  -3.703  1.00  0.00     0.094 A 
ATOM     10  C   UNL     1      59.321  56.632  -3.986  1.00  0.00     0.146 A 
ATOM     11  O   UNL     1      58.329  57.473  -4.255  1.00  0.00    -0.452 OA
ENDROOT
BRANCH   1  12
ATOM     12  C   UNL     1      56.075  58.118  -4.813  1.00  0.00     0.029 A 
ATOM     13  C   UNL     1      55.849  58.559  -6.126  1.00  0.00     0.062 A 
ATOM     14  C   UNL     1      54.900  59.558  -6.389  1.00  0.00     0.162 A 
ATOM     15  C   UNL     1      55.362  58.715  -3.758  1.00  0.00     0.062 A 
ATOM     16  C   UNL     1      54.179  60.134  -5.336  1.00  0.00     0.200 A 
ATOM     17  C   UNL     1      54.413  59.715  -4.015  1.00  0.00     0.162 A 
BRANCH  14  18
ATOM     18  O   UNL     1      54.671  59.982  -7.696  1.00  0.00    -0.504 OA
ATOM     19  H   UNL     1      55.386  60.458  -8.233  1.00  0.00     0.293 HD
ENDBRANCH  14  18
BRANCH  16  20
ATOM     20  O   UNL     1      53.237  61.124  -5.617  1.00  0.00    -0.502 OA
ATOM     21  H   UNL     1      53.440  62.110  -5.502  1.00  0.00     0.293 HD
ENDBRANCH  16  20
BRANCH  17  22
ATOM     22  O   UNL     1      53.708  60.296  -2.963  1.00  0.00    -0.504 OA
ATOM     23  H   UNL     1      52.966  59.799  -2.482  1.00  0.00     0.293 HD
ENDBRANCH  17  22
ENDBRANCH   1  12
BRANCH   2  24
ATOM     24  O   UNL     1      55.543  55.281  -5.065  1.00  0.00    -0.502 OA
ATOM     25  H   UNL     1      55.382  54.371  -5.479  1.00  0.00     0.293 HD
ENDBRANCH   2  24
BRANCH   6  26
ATOM     26  O   UNL     1      60.090  52.989  -3.502  1.00  0.00    -0.507 OA
ATOM     27  H   UNL     1      59.451  52.524  -2.874  1.00  0.00     0.293 HD
ENDBRANCH   6  26
BRANCH   8  28
ATOM     28  O   UNL     1      62.911  56.860  -3.165  1.00  0.00    -0.508 OA
ATOM     29  H   UNL     1      63.681  56.288  -2.838  1.00  0.00     0.293 HD
ENDBRANCH   8  28
TORSDOF 7
ENDMDL
MODEL 3
REMARK VINA RESULT:    41.183      1.697      7.395
REMARK INTER + INTRA:          50.464
REMARK INTER:                  50.047
REMARK INTRA:                   0.418
REMARK UNBOUND:                -0.349
REMARK SMILES O=c1c(O)c(-c2cc(O)c(O)c(O)c2)oc2cc(O)cc(O)c12
REMARK SMILES IDX 5 1 3 2 2 3 1 4 23 5 21 6 20 7 18 8 17 9 16 10 15 11 6 12
REMARK SMILES IDX 7 13 8 14 14 15 10 16 12 17 9 18 11 20 13 22 4 24 22 26
REMARK SMILES IDX 19 28
REMARK H PARENT 9 19 11 21 13 23 4 25 22 27 19 29
REMARK Flexibility Score: inf
ROOT
ATOM      1  C   UNL     1      57.963  57.423  -4.139  1.00  0.00     0.180 A 
ATOM      2  C   UNL     1      58.067  58.805  -3.907  1.00  0.00     0.208 A 
ATOM      3  C   UNL     1      56.955  59.623  -4.161  1.00  0.00     0.238 A 
ATOM      4  O   UNL     1      57.073  60.867  -4.004  1.00  0.00    -0.285 OA
ATOM      5  C   UNL     1      55.749  59.049  -4.628  1.00  0.00     0.111 A 
ATOM      6  C   UNL     1      54.547  59.777  -4.879  1.00  0.00     0.134 A 
ATOM      7  C   UNL     1      53.454  59.126  -5.462  1.00  0.00     0.093 A 
ATOM      8  C   UNL     1      53.496  57.758  -5.742  1.00  0.00     0.123 A 
ATOM      9  C   UNL     1      54.643  57.026  -5.445  1.00  0.00     0.094 A 
ATOM     10  C   UNL     1      55.763  57.655  -4.897  1.00  0.00     0.146 A 
ATOM     11  O   UNL     1      56.839  56.922  -4.638  1.00  0.00    -0.452 OA
ENDROOT
BRANCH   1  12
ATOM     12  C   UNL     1      59.084  56.492  -3.872  1.00  0.00     0.029 A 
ATOM     13  C   UNL     1      60.394  56.989  -3.801  1.00  0.00     0.062 A 
ATOM     14  C   UNL     1      61.473  56.125  -3.569  1.00  0.00     0.162 A 
ATOM     15  C   UNL     1      58.869  55.108  -3.743  1.00  0.00     0.062 A 
ATOM     16  C   UNL     1      61.251  54.750  -3.423  1.00  0.00     0.200 A 
ATOM     17  C   UNL     1      59.945  54.239  -3.514  1.00  0.00     0.162 A 
BRANCH  14  18
ATOM     18  O   UNL     1      62.770  56.627  -3.486  1.00  0.00    -0.504 OA
ATOM     19  H   UNL     1      62.997  57.566  -3.793  1.00  0.00     0.293 HD
ENDBRANCH  14  18
BRANCH  16  20
ATOM     20  O   UNL     1      62.337  53.906  -3.190  1.00  0.00    -0.502 OA
ATOM     21  H   UNL     1      62.239  53.026  -2.698  1.00  0.00     0.293 HD
ENDBRANCH  16  20
BRANCH  17  22
ATOM     22  O   UNL     1      59.721  52.869  -3.382  1.00  0.00    -0.504 OA
ATOM     23  H   UNL     1      59.398  52.465  -2.510  1.00  0.00     0.293 HD
ENDBRANCH  17  22
ENDBRANCH   1  12
BRANCH   2  24
ATOM     24  O   UNL     1      59.275  59.355  -3.468  1.00  0.00    -0.502 OA
ATOM     25  H   UNL     1      59.835  59.969  -4.046  1.00  0.00     0.293 HD
ENDBRANCH   2  24
BRANCH   6  26
ATOM     26  O   UNL     1      54.370  61.124  -4.552  1.00  0.00    -0.507 OA
ATOM     27  H   UNL     1      55.068  61.707  -4.113  1.00  0.00     0.293 HD
ENDBRANCH   6  26
BRANCH   8  28
ATOM     28  O   UNL     1      52.397  57.115  -6.308  1.00  0.00    -0.508 OA
ATOM     29  H   UNL     1      51.930  57.485  -7.127  1.00  0.00     0.293 HD
ENDBRANCH   8  28
TORSDOF 7
ENDMDL
MODEL 4
REMARK VINA RESULT:    41.202      1.691      7.371
REMARK INTER + INTRA:          50.488
REMARK INTER:                  50.090
REMARK INTRA:                   0.398
REMARK UNBOUND:                -0.349
REMARK SMILES O=c1c(O)c(-c2cc(O)c(O)c(O)c2)oc2cc(O)cc(O)c12
REMARK SMILES IDX 5 1 3 2 2 3 1 4 23 5 21 6 20 7 18 8 17 9 16 10 15 11 6 12
REMARK SMILES IDX 7 13 8 14 14 15 10 16 12 17 9 18 11 20 13 22 4 24 22 26
REMARK SMILES IDX 19 28
REMARK H PARENT 9 19 11 21 13 23 4 25 22 27 19 29
REMARK Flexibility Score: inf
ROOT
ATOM      1  C   UNL     1      58.001  57.440  -4.190  1.00  0.00     0.180 A 
ATOM      2  C   UNL     1      58.102  58.820  -3.946  1.00  0.00     0.208 A 
ATOM      3  C   UNL     1      56.981  59.635  -4.170  1.00  0.00     0.238 A 
ATOM      4  O   UNL     1      57.094  60.877  -4.002  1.00  0.00    -0.285 OA
ATOM      5  C   UNL     1      55.768  59.058  -4.618  1.00  0.00     0.111 A 
ATOM      6  C   UNL     1      54.558  59.783  -4.837  1.00  0.00     0.134 A 
ATOM      7  C   UNL     1      53.457  59.131  -5.406  1.00  0.00     0.093 A 
ATOM      8  C   UNL     1      53.501  57.767  -5.701  1.00  0.00     0.123 A 
ATOM      9  C   UNL     1      54.658  57.038  -5.435  1.00  0.00     0.094 A 
ATOM     10  C   UNL     1      55.785  57.668  -4.902  1.00  0.00     0.146 A 
ATOM     11  O   UNL     1      56.870  56.938  -4.673  1.00  0.00    -0.452 OA
ENDROOT
BRANCH   1  12
ATOM     12  C   UNL     1      59.132  56.512  -3.956  1.00  0.00     0.029 A 
ATOM     13  C   UNL     1      58.884  55.136  -3.838  1.00  0.00     0.062 A 
ATOM     14  C   UNL     1      59.935  54.241  -3.595  1.00  0.00     0.162 A 
ATOM     15  C   UNL     1      60.445  56.988  -3.791  1.00  0.00     0.062 A 
ATOM     16  C   UNL     1      61.243  54.719  -3.452  1.00  0.00     0.200 A 
ATOM     17  C   UNL     1      61.499  56.097  -3.547  1.00  0.00     0.162 A 
BRANCH  14  18
ATOM     18  O   UNL     1      59.685  52.874  -3.492  1.00  0.00    -0.504 OA
ATOM     19  H   UNL     1      59.836  52.370  -2.627  1.00  0.00     0.293 HD
ENDBRANCH  14  18
BRANCH  16  20
ATOM     20  O   UNL     1      62.277  53.812  -3.214  1.00  0.00    -0.502 OA
ATOM     21  H   UNL     1      62.105  52.825  -3.066  1.00  0.00     0.293 HD
ENDBRANCH  16  20
BRANCH  17  22
ATOM     22  O   UNL     1      62.798  56.577  -3.392  1.00  0.00    -0.504 OA
ATOM     23  H   UNL     1      63.033  57.255  -2.675  1.00  0.00     0.293 HD
ENDBRANCH  17  22
ENDBRANCH   1  12
BRANCH   2  24
ATOM     24  O   UNL     1      59.315  59.372  -3.525  1.00  0.00    -0.502 OA
ATOM     25  H   UNL     1      59.365  60.227  -2.985  1.00  0.00     0.293 HD
ENDBRANCH   2  24
BRANCH   6  26
ATOM     26  O   UNL     1      54.380  61.125  -4.492  1.00  0.00    -0.507 OA
ATOM     27  H   UNL     1      54.498  61.501  -3.563  1.00  0.00     0.293 HD
ENDBRANCH   6  26
BRANCH   8  28
ATOM     28  O   UNL     1      52.394  57.123  -6.251  1.00  0.00    -0.508 OA
ATOM     29  H   UNL     1      51.572  56.914  -5.697  1.00  0.00     0.293 HD
ENDBRANCH   8  28
TORSDOF 7
ENDMDL
