MODEL 1
REMARK VINA RESULT:    -4.055      0.000      0.000
REMARK INTER + INTRA:          -6.498
REMARK INTER:                  -5.358
REMARK INTRA:                  -1.139
REMARK UNBOUND:                -1.139
REMARK SMILES CC(C)=CCC[C@@H](C(=O)[O-])[C@@H]1CC[C@@]2(C)C3=C(CC[C@@]12C)[C@@]1(C)CC[C@@H](O)C(C)(C)[C@H]1CC3
REMARK SMILES IDX 6 1 7 2 8 3 9 4 10 5 11 6 12 7 20 8 13 9 14 10 19 11 21 12
REMARK SMILES IDX 15 13 16 14 18 15 17 16 33 17 22 18 32 19 31 20 24 21 23 22
REMARK SMILES IDX 28 23 25 24 26 25 29 26 30 27 27 28 5 30 4 31 2 32 1 33 3 34
REMARK H PARENT 27 29
REMARK Flexibility Score: inf
ROOT
ATOM      1  C   UNL     1      10.739  27.368  14.515  1.00  0.00     0.014 C 
ENDROOT
BRANCH   1   2
ATOM      2  C   UNL     1       9.854  28.621  14.773  1.00  0.00     0.039 C 
BRANCH   2   3
ATOM      3  C   UNL     1      10.376  29.806  13.985  1.00  0.00     0.045 C 
ATOM      4  O   UNL     1      11.297  29.669  13.136  1.00  0.00    -0.550 OA
ATOM      5  O   UNL     1       9.906  31.091  14.269  1.00  0.00    -0.550 OA
ENDBRANCH   2   3
BRANCH   2   6
ATOM      6  C   UNL     1       8.334  28.287  14.531  1.00  0.00     0.004 C 
ATOM      7  C   UNL     1       7.743  28.836  13.219  1.00  0.00     0.006 C 
ATOM      8  C   UNL     1       7.302  28.605  15.676  1.00  0.00    -0.020 C 
ATOM      9  C   UNL     1       6.389  29.411  13.573  1.00  0.00     0.012 C 
ATOM     10  C   UNL     1       5.950  28.727  14.885  1.00  0.00    -0.006 C 
ATOM     11  C   UNL     1       7.299  27.447  16.738  1.00  0.00     0.012 C 
ATOM     12  C   UNL     1       7.634  29.927  16.421  1.00  0.00     0.012 C 
ATOM     13  C   UNL     1       4.851  29.613  15.528  1.00  0.00     0.017 C 
ATOM     14  C   UNL     1       5.343  27.325  14.687  1.00  0.00    -0.064 C 
ATOM     15  C   UNL     1       5.923  26.863  17.050  1.00  0.00     0.032 C 
ATOM     16  C   UNL     1       5.129  26.551  15.783  1.00  0.00    -0.064 C 
ATOM     17  C   UNL     1       4.724  26.893  13.380  1.00  0.00     0.032 C 
ATOM     18  C   UNL     1       4.038  25.444  15.731  1.00  0.00    -0.008 C 
ATOM     19  C   UNL     1       4.661  25.367  13.214  1.00  0.00     0.009 C 
ATOM     20  C   UNL     1       4.356  24.510  14.502  1.00  0.00     0.007 C 
ATOM     21  C   UNL     1       2.612  26.099  15.590  1.00  0.00     0.014 C 
ATOM     22  C   UNL     1       4.041  24.636  17.055  1.00  0.00     0.016 C 
ATOM     23  C   UNL     1       3.273  23.352  14.277  1.00  0.00    -0.006 C 
ATOM     24  C   UNL     1       1.716  25.459  14.503  1.00  0.00     0.033 C 
ATOM     25  C   UNL     1       1.797  23.911  14.490  1.00  0.00     0.120 C 
ATOM     26  C   UNL     1       3.452  22.687  12.875  1.00  0.00     0.014 C 
ATOM     27  C   UNL     1       3.515  22.153  15.270  1.00  0.00     0.014 C 
BRANCH  25  28
ATOM     28  O   UNL     1       0.875  23.386  13.549  1.00  0.00    -0.393 OA
ATOM     29  H   UNL     1       1.069  23.823  12.678  1.00  0.00     0.210 HD
ENDBRANCH  25  28
ENDBRANCH   2   6
ENDBRANCH   1   2
BRANCH   1  30
ATOM     30  C   UNL     1       9.937  26.050  14.387  1.00  0.00     0.028 C 
BRANCH  30  31
ATOM     31  C   UNL     1      10.767  24.877  13.925  1.00  0.00    -0.028 C 
ATOM     32  C   UNL     1      11.522  24.090  14.721  1.00  0.00    -0.080 C 
ATOM     33  C   UNL     1      12.279  22.939  14.103  1.00  0.00     0.039 C 
ATOM     34  C   UNL     1      11.642  24.340  16.207  1.00  0.00     0.039 C 
ENDBRANCH  30  31
ENDBRANCH   1  30
TORSDOF 6
ENDMDL
MODEL 2
REMARK VINA RESULT:    -4.023      1.990      7.219
REMARK INTER + INTRA:          -6.456
REMARK INTER:                  -5.771
REMARK INTRA:                  -0.685
REMARK UNBOUND:                -1.139
REMARK SMILES CC(C)=CCC[C@@H](C(=O)[O-])[C@@H]1CC[C@@]2(C)C3=C(CC[C@@]12C)[C@@]1(C)CC[C@@H](O)C(C)(C)[C@H]1CC3
REMARK SMILES IDX 6 1 7 2 8 3 9 4 10 5 11 6 12 7 20 8 13 9 14 10 19 11 21 12
REMARK SMILES IDX 15 13 16 14 18 15 17 16 33 17 22 18 32 19 31 20 24 21 23 22
REMARK SMILES IDX 28 23 25 24 26 25 29 26 30 27 27 28 5 30 4 31 2 32 1 33 3 34
REMARK H PARENT 27 29
REMARK Flexibility Score: inf
ROOT
ATOM      1  C   UNL     1       3.973  21.573  12.875  1.00  0.00     0.014 C 
ENDROOT
BRANCH   1   2
ATOM      2  C   UNL     1       2.936  22.467  13.614  1.00  0.00     0.039 C 
BRANCH   2   3
ATOM      3  C   UNL     1       2.034  21.616  14.485  1.00  0.00     0.045 C 
ATOM      4  O   UNL     1       2.174  20.365  14.542  1.00  0.00    -0.550 OA
ATOM      5  O   UNL     1       0.962  22.206  15.162  1.00  0.00    -0.550 OA
ENDBRANCH   2   3
BRANCH   2   6
ATOM      6  C   UNL     1       3.657  23.648  14.368  1.00  0.00     0.004 C 
ATOM      7  C   UNL     1       4.005  23.368  15.842  1.00  0.00     0.006 C 
ATOM      8  C   UNL     1       3.015  25.083  14.304  1.00  0.00    -0.020 C 
ATOM      9  C   UNL     1       3.628  24.617  16.609  1.00  0.00     0.012 C 
ATOM     10  C   UNL     1       3.607  25.773  15.586  1.00  0.00    -0.006 C 
ATOM     11  C   UNL     1       3.427  25.800  12.967  1.00  0.00     0.012 C 
ATOM     12  C   UNL     1       1.464  25.042  14.359  1.00  0.00     0.012 C 
ATOM     13  C   UNL     1       2.769  26.924  16.200  1.00  0.00     0.017 C 
ATOM     14  C   UNL     1       5.000  26.347  15.264  1.00  0.00    -0.064 C 
ATOM     15  C   UNL     1       4.037  27.188  13.142  1.00  0.00     0.032 C 
ATOM     16  C   UNL     1       5.119  27.210  14.220  1.00  0.00    -0.064 C 
ATOM     17  C   UNL     1       6.164  26.217  16.214  1.00  0.00     0.032 C 
ATOM     18  C   UNL     1       6.292  28.231  14.208  1.00  0.00    -0.008 C 
ATOM     19  C   UNL     1       7.530  26.371  15.526  1.00  0.00     0.009 C 
ATOM     20  C   UNL     1       7.637  27.421  14.356  1.00  0.00     0.007 C 
ATOM     21  C   UNL     1       6.120  29.264  15.385  1.00  0.00     0.014 C 
ATOM     22  C   UNL     1       6.276  29.039  12.884  1.00  0.00     0.016 C 
ATOM     23  C   UNL     1       8.940  28.350  14.427  1.00  0.00    -0.006 C 
ATOM     24  C   UNL     1       7.402  29.508  16.217  1.00  0.00     0.033 C 
ATOM     25  C   UNL     1       8.675  29.626  15.341  1.00  0.00     0.120 C 
ATOM     26  C   UNL     1      10.180  27.531  14.907  1.00  0.00     0.014 C 
ATOM     27  C   UNL     1       9.370  28.829  12.989  1.00  0.00     0.014 C 
BRANCH  25  28
ATOM     28  O   UNL     1       9.791  29.956  16.151  1.00  0.00    -0.393 OA
ATOM     29  H   UNL     1      10.606  29.730  15.629  1.00  0.00     0.210 HD
ENDBRANCH  25  28
ENDBRANCH   2   6
ENDBRANCH   1   2
BRANCH   1  30
ATOM     30  C   UNL     1       5.446  21.922  13.201  1.00  0.00     0.028 C 
BRANCH  30  31
ATOM     31  C   UNL     1       6.150  20.870  14.023  1.00  0.00    -0.028 C 
ATOM     32  C   UNL     1       7.457  20.545  13.925  1.00  0.00    -0.080 C 
ATOM     33  C   UNL     1       8.015  19.481  14.839  1.00  0.00     0.039 C 
ATOM     34  C   UNL     1       8.370  21.206  12.917  1.00  0.00     0.039 C 
ENDBRANCH  30  31
ENDBRANCH   1  30
TORSDOF 6
ENDMDL
MODEL 3
REMARK VINA RESULT:    -3.663      1.464      2.037
REMARK INTER + INTRA:          -5.980
REMARK INTER:                  -4.489
REMARK INTRA:                  -1.491
REMARK UNBOUND:                -1.139
REMARK SMILES CC(C)=CCC[C@@H](C(=O)[O-])[C@@H]1CC[C@@]2(C)C3=C(CC[C@@]12C)[C@@]1(C)CC[C@@H](O)C(C)(C)[C@H]1CC3
REMARK SMILES IDX 6 1 7 2 8 3 9 4 10 5 11 6 12 7 20 8 13 9 14 10 19 11 21 12
REMARK SMILES IDX 15 13 16 14 18 15 17 16 33 17 22 18 32 19 31 20 24 21 23 22
REMARK SMILES IDX 28 23 25 24 26 25 29 26 30 27 27 28 5 30 4 31 2 32 1 33 3 34
REMARK H PARENT 27 29
REMARK Flexibility Score: inf
ROOT
ATOM      1  C   UNL     1      12.195  26.590  15.317  1.00  0.00     0.014 C 
ENDROOT
BRANCH   1   2
ATOM      2  C   UNL     1      11.708  28.019  14.944  1.00  0.00     0.039 C 
BRANCH   2   3
ATOM      3  C   UNL     1      12.670  28.666  13.967  1.00  0.00     0.045 C 
ATOM      4  O   UNL     1      13.789  28.146  13.714  1.00  0.00    -0.550 OA
ATOM      5  O   UNL     1      12.362  29.909  13.408  1.00  0.00    -0.550 OA
ENDBRANCH   2   3
BRANCH   2   6
ATOM      6  C   UNL     1      10.206  27.988  14.468  1.00  0.00     0.004 C 
ATOM      7  C   UNL     1       9.989  28.259  12.968  1.00  0.00     0.006 C 
ATOM      8  C   UNL     1       9.150  28.849  15.256  1.00  0.00    -0.020 C 
ATOM      9  C   UNL     1       8.813  29.207  12.876  1.00  0.00     0.012 C 
ATOM     10  C   UNL     1       8.015  29.047  14.188  1.00  0.00    -0.006 C 
ATOM     11  C   UNL     1       8.671  28.076  16.538  1.00  0.00     0.012 C 
ATOM     12  C   UNL     1       9.726  30.216  15.717  1.00  0.00     0.012 C 
ATOM     13  C   UNL     1       7.126  30.307  14.350  1.00  0.00     0.017 C 
ATOM     14  C   UNL     1       7.077  27.825  14.204  1.00  0.00    -0.064 C 
ATOM     15  C   UNL     1       7.156  27.938  16.677  1.00  0.00     0.032 C 
ATOM     16  C   UNL     1       6.499  27.467  15.381  1.00  0.00    -0.064 C 
ATOM     17  C   UNL     1       6.557  27.192  12.936  1.00  0.00     0.032 C 
ATOM     18  C   UNL     1       5.162  26.674  15.362  1.00  0.00    -0.008 C 
ATOM     19  C   UNL     1       6.096  25.739  13.129  1.00  0.00     0.009 C 
ATOM     20  C   UNL     1       5.382  25.380  14.487  1.00  0.00     0.007 C 
ATOM     21  C   UNL     1       4.011  27.570  14.766  1.00  0.00     0.014 C 
ATOM     22  C   UNL     1       4.748  26.299  16.809  1.00  0.00     0.016 C 
ATOM     23  C   UNL     1       4.062  24.487  14.319  1.00  0.00    -0.006 C 
ATOM     24  C   UNL     1       3.140  26.868  13.696  1.00  0.00     0.033 C 
ATOM     25  C   UNL     1       2.787  25.407  14.071  1.00  0.00     0.120 C 
ATOM     26  C   UNL     1       4.251  23.426  13.188  1.00  0.00     0.014 C 
ATOM     27  C   UNL     1       3.815  23.600  15.597  1.00  0.00     0.014 C 
BRANCH  25  28
ATOM     28  O   UNL     1       1.901  24.861  13.107  1.00  0.00    -0.393 OA
ATOM     29  H   UNL     1       1.629  23.964  13.439  1.00  0.00     0.210 HD
ENDBRANCH  25  28
ENDBRANCH   2   6
ENDBRANCH   1   2
BRANCH   1  30
ATOM     30  C   UNL     1      11.068  25.528  15.332  1.00  0.00     0.028 C 
BRANCH  30  31
ATOM     31  C   UNL     1      11.425  24.255  14.605  1.00  0.00    -0.028 C 
ATOM     32  C   UNL     1      10.724  23.713  13.585  1.00  0.00    -0.080 C 
ATOM     33  C   UNL     1      11.230  22.441  12.948  1.00  0.00     0.039 C 
ATOM     34  C   UNL     1       9.445  24.336  13.077  1.00  0.00     0.039 C 
ENDBRANCH  30  31
ENDBRANCH   1  30
TORSDOF 6
ENDMDL
MODEL 4
REMARK VINA RESULT:    -3.323      1.528      2.257
REMARK INTER + INTRA:          -5.530
REMARK INTER:                  -4.913
REMARK INTRA:                  -0.617
REMARK UNBOUND:                -1.139
REMARK SMILES CC(C)=CCC[C@@H](C(=O)[O-])[C@@H]1CC[C@@]2(C)C3=C(CC[C@@]12C)[C@@]1(C)CC[C@@H](O)C(C)(C)[C@H]1CC3
REMARK SMILES IDX 6 1 7 2 8 3 9 4 10 5 11 6 12 7 20 8 13 9 14 10 19 11 21 12
REMARK SMILES IDX 15 13 16 14 18 15 17 16 33 17 22 18 32 19 31 20 24 21 23 22
REMARK SMILES IDX 28 23 25 24 26 25 29 26 30 27 27 28 5 30 4 31 2 32 1 33 3 34
REMARK H PARENT 27 29
REMARK Flexibility Score: inf
ROOT
ATOM      1  C   UNL     1      11.219  24.940  15.672  1.00  0.00     0.014 C 
ENDROOT
BRANCH   1   2
ATOM      2  C   UNL     1      10.882  26.400  15.252  1.00  0.00     0.039 C 
BRANCH   2   3
ATOM      3  C   UNL     1      11.966  26.951  14.348  1.00  0.00     0.045 C 
ATOM      4  O   UNL     1      12.399  28.125  14.491  1.00  0.00    -0.550 OA
ATOM      5  O   UNL     1      12.428  26.189  13.272  1.00  0.00    -0.550 OA
ENDBRANCH   2   3
BRANCH   2   6
ATOM      6  C   UNL     1       9.424  26.486  14.661  1.00  0.00     0.004 C 
ATOM      7  C   UNL     1       9.346  26.653  13.132  1.00  0.00     0.006 C 
ATOM      8  C   UNL     1       8.415  27.514  15.295  1.00  0.00    -0.020 C 
ATOM      9  C   UNL     1       8.291  27.706  12.875  1.00  0.00     0.012 C 
ATOM     10  C   UNL     1       7.388  27.739  14.127  1.00  0.00    -0.006 C 
ATOM     11  C   UNL     1       7.763  26.903  16.588  1.00  0.00     0.012 C 
ATOM     12  C   UNL     1       9.103  28.847  15.697  1.00  0.00     0.012 C 
ATOM     13  C   UNL     1       6.634  29.094  14.123  1.00  0.00     0.017 C 
ATOM     14  C   UNL     1       6.322  26.627  14.159  1.00  0.00    -0.064 C 
ATOM     15  C   UNL     1       6.236  26.936  16.616  1.00  0.00     0.032 C 
ATOM     16  C   UNL     1       5.626  26.430  15.310  1.00  0.00    -0.064 C 
ATOM     17  C   UNL     1       5.829  25.949  12.905  1.00  0.00     0.032 C 
ATOM     18  C   UNL     1       4.214  25.781  15.242  1.00  0.00    -0.008 C 
ATOM     19  C   UNL     1       5.198  24.572  13.168  1.00  0.00     0.009 C 
ATOM     20  C   UNL     1       4.353  24.404  14.488  1.00  0.00     0.007 C 
ATOM     21  C   UNL     1       3.215  26.740  14.491  1.00  0.00     0.014 C 
ATOM     22  C   UNL     1       3.659  25.573  16.675  1.00  0.00     0.016 C 
ATOM     23  C   UNL     1       2.959  23.642  14.281  1.00  0.00    -0.006 C 
ATOM     24  C   UNL     1       2.351  26.047  13.411  1.00  0.00     0.033 C 
ATOM     25  C   UNL     1       1.813  24.665  13.864  1.00  0.00     0.120 C 
ATOM     26  C   UNL     1       3.110  22.477  13.251  1.00  0.00     0.014 C 
ATOM     27  C   UNL     1       2.524  22.894  15.598  1.00  0.00     0.014 C 
BRANCH  25  28
ATOM     28  O   UNL     1       0.945  24.136  12.875  1.00  0.00    -0.393 OA
ATOM     29  H   UNL     1       0.253  24.828  12.697  1.00  0.00     0.210 HD
ENDBRANCH  25  28
ENDBRANCH   2   6
ENDBRANCH   1   2
BRANCH   1  30
ATOM     30  C   UNL     1      12.651  24.765  16.235  1.00  0.00     0.028 C 
BRANCH  30  31
ATOM     31  C   UNL     1      13.338  23.507  15.763  1.00  0.00    -0.028 C 
ATOM     32  C   UNL     1      14.425  23.462  14.963  1.00  0.00    -0.080 C 
ATOM     33  C   UNL     1      15.008  22.117  14.599  1.00  0.00     0.039 C 
ATOM     34  C   UNL     1      15.063  24.716  14.412  1.00  0.00     0.039 C 
ENDBRANCH  30  31
ENDBRANCH   1  30
TORSDOF 6
ENDMDL
MODEL 5
REMARK VINA RESULT:    -3.111      2.705      8.330
REMARK INTER + INTRA:          -5.251
REMARK INTER:                  -5.033
REMARK INTRA:                  -0.218
REMARK UNBOUND:                -1.139
REMARK SMILES CC(C)=CCC[C@@H](C(=O)[O-])[C@@H]1CC[C@@]2(C)C3=C(CC[C@@]12C)[C@@]1(C)CC[C@@H](O)C(C)(C)[C@H]1CC3
REMARK SMILES IDX 6 1 7 2 8 3 9 4 10 5 11 6 12 7 20 8 13 9 14 10 19 11 21 12
REMARK SMILES IDX 15 13 16 14 18 15 17 16 33 17 22 18 32 19 31 20 24 21 23 22
REMARK SMILES IDX 28 23 25 24 26 25 29 26 30 27 27 28 5 30 4 31 2 32 1 33 3 34
REMARK H PARENT 27 29
REMARK Flexibility Score: inf
ROOT
ATOM      1  C   UNL     1       6.616  26.716  17.073  1.00  0.00     0.014 C 
ENDROOT
BRANCH   1   2
ATOM      2  C   UNL     1       6.785  27.949  16.140  1.00  0.00     0.039 C 
BRANCH   2   3
ATOM      3  C   UNL     1       6.128  29.169  16.755  1.00  0.00     0.045 C 
ATOM      4  O   UNL     1       6.736  29.881  17.597  1.00  0.00    -0.550 OA
ATOM      5  O   UNL     1       4.791  29.458  16.466  1.00  0.00    -0.550 OA
ENDBRANCH   2   3
BRANCH   2   6
ATOM      6  C   UNL     1       8.298  28.145  15.745  1.00  0.00     0.004 C 
ATOM      7  C   UNL     1       8.985  29.372  16.371  1.00  0.00     0.006 C 
ATOM      8  C   UNL     1       8.685  28.120  14.219  1.00  0.00    -0.020 C 
ATOM      9  C   UNL     1       9.790  30.017  15.263  1.00  0.00     0.012 C 
ATOM     10  C   UNL     1      10.037  28.921  14.204  1.00  0.00    -0.006 C 
ATOM     11  C   UNL     1       8.836  26.636  13.724  1.00  0.00     0.012 C 
ATOM     12  C   UNL     1       7.618  28.810  13.326  1.00  0.00     0.012 C 
ATOM     13  C   UNL     1      10.403  29.632  12.875  1.00  0.00     0.017 C 
ATOM     14  C   UNL     1      11.200  27.971  14.546  1.00  0.00    -0.064 C 
ATOM     15  C   UNL     1      10.155  26.323  13.020  1.00  0.00     0.032 C 
ATOM     16  C   UNL     1      11.360  26.848  13.798  1.00  0.00    -0.064 C 
ATOM     17  C   UNL     1      12.319  28.371  15.476  1.00  0.00     0.032 C 
ATOM     18  C   UNL     1      12.768  26.195  13.698  1.00  0.00    -0.008 C 
ATOM     19  C   UNL     1      13.060  27.170  16.085  1.00  0.00     0.009 C 
ATOM     20  C   UNL     1      13.272  25.908  15.165  1.00  0.00     0.007 C 
ATOM     21  C   UNL     1      13.757  27.159  12.939  1.00  0.00     0.014 C 
ATOM     22  C   UNL     1      12.686  24.883  12.875  1.00  0.00     0.016 C 
ATOM     23  C   UNL     1      14.749  25.291  15.227  1.00  0.00    -0.006 C 
ATOM     24  C   UNL     1      15.129  27.344  13.630  1.00  0.00     0.033 C 
ATOM     25  C   UNL     1      15.708  26.018  14.185  1.00  0.00     0.120 C 
ATOM     26  C   UNL     1      15.313  25.347  16.683  1.00  0.00     0.014 C 
ATOM     27  C   UNL     1      14.729  23.747  14.916  1.00  0.00     0.014 C 
BRANCH  25  28
ATOM     28  O   UNL     1      17.009  26.238  14.705  1.00  0.00    -0.393 OA
ATOM     29  H   UNL     1      16.897  26.609  15.621  1.00  0.00     0.210 HD
ENDBRANCH  25  28
ENDBRANCH   2   6
ENDBRANCH   1   2
BRANCH   1  30
ATOM     30  C   UNL     1       5.188  26.117  17.067  1.00  0.00     0.028 C 
BRANCH  30  31
ATOM     31  C   UNL     1       4.713  25.694  15.698  1.00  0.00    -0.028 C 
ATOM     32  C   UNL     1       3.468  25.877  15.210  1.00  0.00    -0.080 C 
ATOM     33  C   UNL     1       3.159  25.413  13.807  1.00  0.00     0.039 C 
ATOM     34  C   UNL     1       2.375  26.519  16.033  1.00  0.00     0.039 C 
ENDBRANCH  30  31
ENDBRANCH   1  30
TORSDOF 6
ENDMDL
MODEL 6
REMARK VINA RESULT:    -2.841      3.124      7.996
REMARK INTER + INTRA:          -4.894
REMARK INTER:                  -5.431
REMARK INTRA:                   0.537
REMARK UNBOUND:                -1.139
REMARK SMILES CC(C)=CCC[C@@H](C(=O)[O-])[C@@H]1CC[C@@]2(C)C3=C(CC[C@@]12C)[C@@]1(C)CC[C@@H](O)C(C)(C)[C@H]1CC3
REMARK SMILES IDX 6 1 7 2 8 3 9 4 10 5 11 6 12 7 20 8 13 9 14 10 19 11 21 12
REMARK SMILES IDX 15 13 16 14 18 15 17 16 33 17 22 18 32 19 31 20 24 21 23 22
REMARK SMILES IDX 28 23 25 24 26 25 29 26 30 27 27 28 5 30 4 31 2 32 1 33 3 34
REMARK H PARENT 27 29
REMARK Flexibility Score: inf
ROOT
ATOM      1  C   UNL     1       5.277  28.205  16.777  1.00  0.00     0.014 C 
ENDROOT
BRANCH   1   2
ATOM      2  C   UNL     1       6.252  29.287  16.228  1.00  0.00     0.039 C 
BRANCH   2   3
ATOM      3  C   UNL     1       6.751  30.167  17.357  1.00  0.00     0.045 C 
ATOM      4  O   UNL     1       6.037  30.398  18.368  1.00  0.00    -0.550 OA
ATOM      5  O   UNL     1       7.983  30.817  17.238  1.00  0.00    -0.550 OA
ENDBRANCH   2   3
BRANCH   2   6
ATOM      6  C   UNL     1       7.385  28.624  15.358  1.00  0.00     0.004 C 
ATOM      7  C   UNL     1       7.624  29.277  13.984  1.00  0.00     0.006 C 
ATOM      8  C   UNL     1       7.346  27.066  15.134  1.00  0.00    -0.020 C 
ATOM      9  C   UNL     1       7.771  28.140  12.996  1.00  0.00     0.012 C 
ATOM     10  C   UNL     1       8.180  26.896  13.813  1.00  0.00    -0.006 C 
ATOM     11  C   UNL     1       7.979  26.327  16.369  1.00  0.00     0.012 C 
ATOM     12  C   UNL     1       5.900  26.530  14.953  1.00  0.00     0.012 C 
ATOM     13  C   UNL     1       7.862  25.647  12.952  1.00  0.00     0.017 C 
ATOM     14  C   UNL     1       9.681  26.840  14.157  1.00  0.00    -0.064 C 
ATOM     15  C   UNL     1       9.081  25.327  16.025  1.00  0.00     0.032 C 
ATOM     16  C   UNL     1      10.105  25.911  15.054  1.00  0.00    -0.064 C 
ATOM     17  C   UNL     1      10.721  27.570  13.344  1.00  0.00     0.032 C 
ATOM     18  C   UNL     1      11.581  25.423  15.002  1.00  0.00    -0.008 C 
ATOM     19  C   UNL     1      12.028  27.819  14.113  1.00  0.00     0.009 C 
ATOM     20  C   UNL     1      12.512  26.692  15.102  1.00  0.00     0.007 C 
ATOM     21  C   UNL     1      11.842  24.635  13.663  1.00  0.00     0.014 C 
ATOM     22  C   UNL     1      11.855  24.442  16.171  1.00  0.00     0.016 C 
ATOM     23  C   UNL     1      14.074  26.352  14.995  1.00  0.00    -0.006 C 
ATOM     24  C   UNL     1      13.133  25.047  12.916  1.00  0.00     0.033 C 
ATOM     25  C   UNL     1      14.337  25.259  13.868  1.00  0.00     0.120 C 
ATOM     26  C   UNL     1      14.910  27.651  14.762  1.00  0.00     0.014 C 
ATOM     27  C   UNL     1      14.630  25.816  16.368  1.00  0.00     0.014 C 
BRANCH  25  28
ATOM     28  O   UNL     1      15.508  25.527  13.113  1.00  0.00    -0.393 OA
ATOM     29  H   UNL     1      16.243  24.995  13.519  1.00  0.00     0.210 HD
ENDBRANCH  25  28
ENDBRANCH   2   6
ENDBRANCH   1   2
BRANCH   1  30
ATOM     30  C   UNL     1       3.782  28.587  16.649  1.00  0.00     0.028 C 
BRANCH  30  31
ATOM     31  C   UNL     1       3.334  28.818  15.226  1.00  0.00    -0.028 C 
ATOM     32  C   UNL     1       2.493  29.792  14.818  1.00  0.00    -0.080 C 
ATOM     33  C   UNL     1       2.161  29.901  13.349  1.00  0.00     0.039 C 
ATOM     34  C   UNL     1       1.865  30.763  15.791  1.00  0.00     0.039 C 
ENDBRANCH  30  31
ENDBRANCH   1  30
TORSDOF 6
ENDMDL
MODEL 7
REMARK VINA RESULT:    -2.269      2.760      7.761
REMARK INTER + INTRA:          -4.138
REMARK INTER:                  -4.429
REMARK INTRA:                   0.290
REMARK UNBOUND:                -1.139
REMARK SMILES CC(C)=CCC[C@@H](C(=O)[O-])[C@@H]1CC[C@@]2(C)C3=C(CC[C@@]12C)[C@@]1(C)CC[C@@H](O)C(C)(C)[C@H]1CC3
REMARK SMILES IDX 6 1 7 2 8 3 9 4 10 5 11 6 12 7 20 8 13 9 14 10 19 11 21 12
REMARK SMILES IDX 15 13 16 14 18 15 17 16 33 17 22 18 32 19 31 20 24 21 23 22
REMARK SMILES IDX 28 23 25 24 26 25 29 26 30 27 27 28 5 30 4 31 2 32 1 33 3 34
REMARK H PARENT 27 29
REMARK Flexibility Score: inf
ROOT
ATOM      1  C   UNL     1       3.499  21.212  12.969  1.00  0.00     0.014 C 
ENDROOT
BRANCH   1   2
ATOM      2  C   UNL     1       4.649  21.310  14.012  1.00  0.00     0.039 C 
BRANCH   2   3
ATOM      3  C   UNL     1       5.962  20.877  13.390  1.00  0.00     0.045 C 
ATOM      4  O   UNL     1       6.270  19.659  13.299  1.00  0.00    -0.550 OA
ATOM      5  O   UNL     1       6.897  21.840  13.000  1.00  0.00    -0.550 OA
ENDBRANCH   2   3
BRANCH   2   6
ATOM      6  C   UNL     1       4.675  22.737  14.680  1.00  0.00     0.004 C 
ATOM      7  C   UNL     1       4.648  22.741  16.220  1.00  0.00     0.006 C 
ATOM      8  C   UNL     1       3.636  23.813  14.192  1.00  0.00    -0.020 C 
ATOM      9  C   UNL     1       3.665  23.818  16.622  1.00  0.00     0.012 C 
ATOM     10  C   UNL     1       3.557  24.786  15.424  1.00  0.00    -0.006 C 
ATOM     11  C   UNL     1       4.155  24.511  12.882  1.00  0.00     0.012 C 
ATOM     12  C   UNL     1       2.246  23.196  13.879  1.00  0.00     0.012 C 
ATOM     13  C   UNL     1       2.239  25.586  15.588  1.00  0.00     0.017 C 
ATOM     14  C   UNL     1       4.704  25.811  15.343  1.00  0.00    -0.064 C 
ATOM     15  C   UNL     1       4.181  26.036  12.932  1.00  0.00     0.032 C 
ATOM     16  C   UNL     1       4.825  26.559  14.215  1.00  0.00    -0.064 C 
ATOM     17  C   UNL     1       5.510  26.214  16.554  1.00  0.00     0.032 C 
ATOM     18  C   UNL     1       5.534  27.941  14.292  1.00  0.00    -0.008 C 
ATOM     19  C   UNL     1       6.882  26.808  16.197  1.00  0.00     0.009 C 
ATOM     20  C   UNL     1       6.966  27.714  14.911  1.00  0.00     0.007 C 
ATOM     21  C   UNL     1       4.687  28.933  15.175  1.00  0.00     0.014 C 
ATOM     22  C   UNL     1       5.636  28.563  12.875  1.00  0.00     0.016 C 
ATOM     23  C   UNL     1       7.799  29.068  15.115  1.00  0.00    -0.006 C 
ATOM     24  C   UNL     1       5.508  29.715  16.230  1.00  0.00     0.033 C 
ATOM     25  C   UNL     1       6.863  30.226  15.680  1.00  0.00     0.120 C 
ATOM     26  C   UNL     1       9.044  28.821  16.027  1.00  0.00     0.014 C 
ATOM     27  C   UNL     1       8.444  29.544  13.759  1.00  0.00     0.014 C 
BRANCH  25  28
ATOM     28  O   UNL     1       7.513  31.022  16.658  1.00  0.00    -0.393 OA
ATOM     29  H   UNL     1       8.491  30.905  16.524  1.00  0.00     0.210 HD
ENDBRANCH  25  28
ENDBRANCH   2   6
ENDBRANCH   1   2
BRANCH   1  30
ATOM     30  C   UNL     1       2.838  19.814  12.895  1.00  0.00     0.028 C 
BRANCH  30  31
ATOM     31  C   UNL     1       1.860  19.546  14.014  1.00  0.00    -0.028 C 
ATOM     32  C   UNL     1       2.003  18.602  14.968  1.00  0.00    -0.080 C 
ATOM     33  C   UNL     1       0.941  18.476  16.035  1.00  0.00     0.039 C 
ATOM     34  C   UNL     1       3.186  17.662  14.990  1.00  0.00     0.039 C 
ENDBRANCH  30  31
ENDBRANCH   1  30
TORSDOF 6
ENDMDL
MODEL 8
REMARK VINA RESULT:    -2.165      2.732      3.763
REMARK INTER + INTRA:          -4.000
REMARK INTER:                  -4.072
REMARK INTRA:                   0.072
REMARK UNBOUND:                -1.139
REMARK SMILES CC(C)=CCC[C@@H](C(=O)[O-])[C@@H]1CC[C@@]2(C)C3=C(CC[C@@]12C)[C@@]1(C)CC[C@@H](O)C(C)(C)[C@H]1CC3
REMARK SMILES IDX 6 1 7 2 8 3 9 4 10 5 11 6 12 7 20 8 13 9 14 10 19 11 21 12
REMARK SMILES IDX 15 13 16 14 18 15 17 16 33 17 22 18 32 19 31 20 24 21 23 22
REMARK SMILES IDX 28 23 25 24 26 25 29 26 30 27 27 28 5 30 4 31 2 32 1 33 3 34
REMARK H PARENT 27 29
REMARK Flexibility Score: inf
ROOT
ATOM      1  C   UNL     1      12.092  27.062  13.651  1.00  0.00     0.014 C 
ENDROOT
BRANCH   1   2
ATOM      2  C   UNL     1      10.786  26.387  13.141  1.00  0.00     0.039 C 
BRANCH   2   3
ATOM      3  C   UNL     1      10.747  24.931  13.562  1.00  0.00     0.045 C 
ATOM      4  O   UNL     1      10.085  24.082  12.908  1.00  0.00    -0.550 OA
ATOM      5  O   UNL     1      11.369  24.533  14.748  1.00  0.00    -0.550 OA
ENDBRANCH   2   3
BRANCH   2   6
ATOM      6  C   UNL     1       9.523  27.229  13.563  1.00  0.00     0.004 C 
ATOM      7  C   UNL     1       9.416  28.620  12.912  1.00  0.00     0.006 C 
ATOM      8  C   UNL     1       9.217  27.406  15.097  1.00  0.00    -0.020 C 
ATOM      9  C   UNL     1       9.011  29.573  14.015  1.00  0.00     0.012 C 
ATOM     10  C   UNL     1       8.349  28.716  15.116  1.00  0.00    -0.006 C 
ATOM     11  C   UNL     1       8.454  26.147  15.644  1.00  0.00     0.012 C 
ATOM     12  C   UNL     1      10.508  27.581  15.942  1.00  0.00     0.012 C 
ATOM     13  C   UNL     1       8.374  29.542  16.428  1.00  0.00     0.017 C 
ATOM     14  C   UNL     1       6.877  28.361  14.831  1.00  0.00    -0.064 C 
ATOM     15  C   UNL     1       7.155  26.453  16.387  1.00  0.00     0.032 C 
ATOM     16  C   UNL     1       6.271  27.434  15.619  1.00  0.00    -0.064 C 
ATOM     17  C   UNL     1       6.012  29.189  13.913  1.00  0.00     0.032 C 
ATOM     18  C   UNL     1       4.724  27.462  15.772  1.00  0.00    -0.008 C 
ATOM     19  C   UNL     1       4.802  28.419  13.362  1.00  0.00     0.009 C 
ATOM     20  C   UNL     1       4.095  27.393  14.328  1.00  0.00     0.007 C 
ATOM     21  C   UNL     1       4.279  28.775  16.521  1.00  0.00     0.014 C 
ATOM     22  C   UNL     1       4.256  26.262  16.636  1.00  0.00     0.016 C 
ATOM     23  C   UNL     1       2.495  27.480  14.319  1.00  0.00    -0.006 C 
ATOM     24  C   UNL     1       3.100  29.525  15.855  1.00  0.00     0.033 C 
ATOM     25  C   UNL     1       1.984  28.573  15.358  1.00  0.00     0.120 C 
ATOM     26  C   UNL     1       1.962  27.747  12.875  1.00  0.00     0.014 C 
ATOM     27  C   UNL     1       1.853  26.088  14.681  1.00  0.00     0.014 C 
BRANCH  25  28
ATOM     28  O   UNL     1       0.891  29.327  14.860  1.00  0.00    -0.393 OA
ATOM     29  H   UNL     1       1.193  29.753  14.014  1.00  0.00     0.210 HD
ENDBRANCH  25  28
ENDBRANCH   2   6
ENDBRANCH   1   2
BRANCH   1  30
ATOM     30  C   UNL     1      13.387  26.422  13.093  1.00  0.00     0.028 C 
BRANCH  30  31
ATOM     31  C   UNL     1      14.650  26.978  13.705  1.00  0.00    -0.028 C 
ATOM     32  C   UNL     1      15.380  26.380  14.671  1.00  0.00    -0.080 C 
ATOM     33  C   UNL     1      16.636  27.060  15.162  1.00  0.00     0.039 C 
ATOM     34  C   UNL     1      14.968  25.061  15.282  1.00  0.00     0.039 C 
ENDBRANCH  30  31
ENDBRANCH   1  30
TORSDOF 6
ENDMDL
