MODEL 1
REMARK VINA RESULT:    -8.431      0.000      0.000
REMARK INTER + INTRA:         -13.692
REMARK INTER:                 -12.374
REMARK INTRA:                  -1.318
REMARK UNBOUND:                -1.318
REMARK SMILES Cc1cc2c(C(C)C)c(O)c(O)c(C=O)c2c(O)c1-c1c(C)cc2c(C(C)C)c(O)c(O)c(C=O)c2c1O
REMARK SMILES IDX 1 1 2 2 3 3 4 4 16 5 13 6 11 7 9 8 5 9 17 10 19 11 20 12
REMARK SMILES IDX 37 13 21 14 36 15 23 16 22 17 24 18 33 19 25 20 31 21 29 22
REMARK SMILES IDX 38 23 34 25 35 26 26 27 27 28 28 29 32 30 30 32 18 34 6 36
REMARK SMILES IDX 7 37 8 38 14 39 15 40 10 41 12 43
REMARK H PARENT 38 24 32 31 30 33 18 35 10 42 12 44
REMARK Flexibility Score: inf
ROOT
ATOM      1  C   UNL     1     -22.617 -47.414  49.766  1.00  0.00     0.045 C 
ATOM      2  C   UNL     1     -21.962 -48.575  49.060  1.00  0.00    -0.039 A 
ATOM      3  C   UNL     1     -20.967 -49.301  49.717  1.00  0.00     0.013 A 
ATOM      4  C   UNL     1     -20.302 -50.381  49.097  1.00  0.00    -0.006 A 
ATOM      5  C   UNL     1     -20.750 -50.818  47.815  1.00  0.00     0.039 A 
ATOM      6  C   UNL     1     -20.238 -52.039  47.284  1.00  0.00     0.072 A 
ATOM      7  C   UNL     1     -19.303 -52.790  48.029  1.00  0.00     0.169 A 
ATOM      8  C   UNL     1     -18.795 -52.296  49.235  1.00  0.00     0.162 A 
ATOM      9  C   UNL     1     -19.217 -51.048  49.743  1.00  0.00     0.008 A 
ATOM     10  C   UNL     1     -21.685 -50.006  47.104  1.00  0.00     0.132 A 
ATOM     11  C   UNL     1     -22.292 -48.898  47.733  1.00  0.00     0.031 A 
ENDROOT
BRANCH  11  12
ATOM     12  C   UNL     1     -23.291 -48.078  46.999  1.00  0.00     0.031 A 
ATOM     13  C   UNL     1     -24.662 -48.411  47.057  1.00  0.00     0.132 A 
ATOM     14  C   UNL     1     -22.863 -46.985  46.229  1.00  0.00    -0.039 A 
ATOM     15  C   UNL     1     -25.630 -47.617  46.366  1.00  0.00     0.039 A 
ATOM     16  C   UNL     1     -23.804 -46.210  45.552  1.00  0.00     0.013 A 
ATOM     17  C   UNL     1     -21.398 -46.637  46.122  1.00  0.00     0.045 C 
ATOM     18  C   UNL     1     -25.190 -46.465  45.643  1.00  0.00    -0.006 A 
ATOM     19  C   UNL     1     -27.019 -47.953  46.344  1.00  0.00     0.072 A 
ATOM     20  C   UNL     1     -26.139 -45.616  44.993  1.00  0.00     0.008 A 
ATOM     21  C   UNL     1     -27.916 -47.190  45.569  1.00  0.00     0.169 A 
ATOM     22  C   UNL     1     -27.472 -46.061  44.874  1.00  0.00     0.162 A 
BRANCH  13  23
ATOM     23  O   UNL     1     -25.060 -49.532  47.794  1.00  0.00    -0.507 OA
ATOM     24  H   UNL     1     -24.472 -50.340  47.958  1.00  0.00     0.293 HD
ENDBRANCH  13  23
BRANCH  19  25
ATOM     25  C   UNL     1     -27.560 -49.100  47.101  1.00  0.00     0.264 C 
ATOM     26  O   UNL     1     -27.903 -50.154  46.504  1.00  0.00    -0.298 OA
ENDBRANCH  19  25
BRANCH  20  27
ATOM     27  C   UNL     1     -25.737 -44.249  44.408  1.00  0.00     0.017 C 
ATOM     28  C   UNL     1     -25.640 -44.316  42.881  1.00  0.00     0.012 C 
ATOM     29  C   UNL     1     -26.643 -43.088  44.862  1.00  0.00     0.012 C 
ENDBRANCH  20  27
BRANCH  21  30
ATOM     30  O   UNL     1     -29.276 -47.513  45.490  1.00  0.00    -0.504 OA
ATOM     31  H   UNL     1     -29.764 -47.717  44.627  1.00  0.00     0.293 HD
ENDBRANCH  21  30
BRANCH  22  32
ATOM     32  O   UNL     1     -28.367 -45.369  44.055  1.00  0.00    -0.504 OA
ATOM     33  H   UNL     1     -28.945 -45.823  43.358  1.00  0.00     0.293 HD
ENDBRANCH  22  32
ENDBRANCH  11  12
BRANCH  10  34
ATOM     34  O   UNL     1     -21.986 -50.283  45.765  1.00  0.00    -0.507 OA
ATOM     35  H   UNL     1     -21.369 -50.071  44.991  1.00  0.00     0.293 HD
ENDBRANCH  10  34
BRANCH   9  36
ATOM     36  C   UNL     1     -18.515 -50.447  50.973  1.00  0.00     0.017 C 
ATOM     37  C   UNL     1     -18.034 -49.022  50.685  1.00  0.00     0.012 C 
ATOM     38  C   UNL     1     -19.360 -50.506  52.258  1.00  0.00     0.012 C 
ENDBRANCH   9  36
BRANCH   6  39
ATOM     39  C   UNL     1     -20.733 -52.604  46.011  1.00  0.00     0.264 C 
ATOM     40  O   UNL     1     -21.561 -53.554  46.011  1.00  0.00    -0.298 OA
ENDBRANCH   6  39
BRANCH   8  41
ATOM     41  O   UNL     1     -17.876 -53.065  49.954  1.00  0.00    -0.504 OA
ATOM     42  H   UNL     1     -18.152 -53.788  50.608  1.00  0.00     0.293 HD
ENDBRANCH   8  41
BRANCH   7  43
ATOM     43  O   UNL     1     -18.871 -54.052  47.604  1.00  0.00    -0.504 OA
ATOM     44  H   UNL     1     -19.083 -54.449  46.698  1.00  0.00     0.293 HD
ENDBRANCH   7  43
TORSDOF 11
ENDMDL
MODEL 2
REMARK VINA RESULT:    -8.318      0.327      8.882
REMARK INTER + INTRA:         -13.526
REMARK INTER:                 -12.355
REMARK INTRA:                  -1.171
REMARK UNBOUND:                -1.318
REMARK SMILES Cc1cc2c(C(C)C)c(O)c(O)c(C=O)c2c(O)c1-c1c(C)cc2c(C(C)C)c(O)c(O)c(C=O)c2c1O
REMARK SMILES IDX 1 1 2 2 3 3 4 4 16 5 13 6 11 7 9 8 5 9 17 10 19 11 20 12
REMARK SMILES IDX 37 13 21 14 36 15 23 16 22 17 24 18 33 19 25 20 31 21 29 22
REMARK SMILES IDX 38 23 34 25 35 26 26 27 27 28 28 29 32 30 30 32 18 34 6 36
REMARK SMILES IDX 7 37 8 38 14 39 15 40 10 41 12 43
REMARK H PARENT 38 24 32 31 30 33 18 35 10 42 12 44
REMARK Flexibility Score: inf
ROOT
ATOM      1  C   UNL     1     -21.279 -47.048  45.527  1.00  0.00     0.045 C 
ATOM      2  C   UNL     1     -22.735 -47.243  45.874  1.00  0.00    -0.039 A 
ATOM      3  C   UNL     1     -23.699 -46.457  45.240  1.00  0.00     0.013 A 
ATOM      4  C   UNL     1     -25.073 -46.578  45.541  1.00  0.00    -0.006 A 
ATOM      5  C   UNL     1     -25.492 -47.618  46.423  1.00  0.00     0.039 A 
ATOM      6  C   UNL     1     -26.888 -47.888  46.556  1.00  0.00     0.072 A 
ATOM      7  C   UNL     1     -27.822 -47.129  45.821  1.00  0.00     0.169 A 
ATOM      8  C   UNL     1     -27.402 -46.045  45.042  1.00  0.00     0.162 A 
ATOM      9  C   UNL     1     -26.036 -45.698  44.960  1.00  0.00     0.008 A 
ATOM     10  C   UNL     1     -24.500 -48.339  47.152  1.00  0.00     0.132 A 
ATOM     11  C   UNL     1     -23.130 -48.156  46.866  1.00  0.00     0.031 A 
ENDROOT
BRANCH  11  12
ATOM     12  C   UNL     1     -22.102 -48.937  47.603  1.00  0.00     0.031 A 
ATOM     13  C   UNL     1     -21.632 -50.162  47.082  1.00  0.00     0.132 A 
ATOM     14  C   UNL     1     -21.618 -48.462  48.832  1.00  0.00    -0.039 A 
ATOM     15  C   UNL     1     -20.632 -50.910  47.778  1.00  0.00     0.039 A 
ATOM     16  C   UNL     1     -20.645 -49.190  49.516  1.00  0.00     0.013 A 
ATOM     17  C   UNL     1     -22.136 -47.174  49.426  1.00  0.00     0.045 C 
ATOM     18  C   UNL     1     -20.096 -50.382  48.993  1.00  0.00    -0.006 A 
ATOM     19  C   UNL     1     -20.175 -52.185  47.321  1.00  0.00     0.072 A 
ATOM     20  C   UNL     1     -19.052 -51.075  49.681  1.00  0.00     0.008 A 
ATOM     21  C   UNL     1     -19.258 -52.922  48.097  1.00  0.00     0.169 A 
ATOM     22  C   UNL     1     -18.734 -52.388  49.278  1.00  0.00     0.162 A 
BRANCH  13  23
ATOM     23  O   UNL     1     -22.165 -50.637  45.878  1.00  0.00    -0.507 OA
ATOM     24  H   UNL     1     -21.851 -51.480  45.413  1.00  0.00     0.293 HD
ENDBRANCH  13  23
BRANCH  19  25
ATOM     25  C   UNL     1     -20.647 -52.779  46.055  1.00  0.00     0.264 C 
ATOM     26  O   UNL     1     -21.439 -53.757  46.064  1.00  0.00    -0.298 OA
ENDBRANCH  19  25
BRANCH  20  27
ATOM     27  C   UNL     1     -18.287 -50.432  50.853  1.00  0.00     0.017 C 
ATOM     28  C   UNL     1     -17.936 -48.974  50.541  1.00  0.00     0.012 C 
ATOM     29  C   UNL     1     -19.008 -50.556  52.209  1.00  0.00     0.012 C 
ENDBRANCH  20  27
BRANCH  21  30
ATOM     30  O   UNL     1     -18.818 -54.192  47.702  1.00  0.00    -0.504 OA
ATOM     31  H   UNL     1     -17.902 -54.383  47.318  1.00  0.00     0.293 HD
ENDBRANCH  21  30
BRANCH  22  32
ATOM     32  O   UNL     1     -17.886 -53.173  50.063  1.00  0.00    -0.504 OA
ATOM     33  H   UNL     1     -17.529 -52.874  50.962  1.00  0.00     0.293 HD
ENDBRANCH  22  32
ENDBRANCH  11  12
BRANCH  10  34
ATOM     34  O   UNL     1     -24.873 -49.215  48.179  1.00  0.00    -0.507 OA
ATOM     35  H   UNL     1     -25.823 -49.323  48.511  1.00  0.00     0.293 HD
ENDBRANCH  10  34
BRANCH   9  36
ATOM     36  C   UNL     1     -25.619 -44.400  44.246  1.00  0.00     0.017 C 
ATOM     37  C   UNL     1     -26.032 -44.432  42.772  1.00  0.00     0.012 C 
ATOM     38  C   UNL     1     -26.121 -43.122  44.942  1.00  0.00     0.012 C 
ENDBRANCH   9  36
BRANCH   6  39
ATOM     39  C   UNL     1     -27.388 -49.016  47.370  1.00  0.00     0.264 C 
ATOM     40  O   UNL     1     -27.704 -50.108  46.827  1.00  0.00    -0.298 OA
ENDBRANCH   6  39
BRANCH   8  41
ATOM     41  O   UNL     1     -28.350 -45.316  44.319  1.00  0.00    -0.504 OA
ATOM     42  H   UNL     1     -28.287 -45.167  43.319  1.00  0.00     0.293 HD
ENDBRANCH   8  41
BRANCH   7  43
ATOM     43  O   UNL     1     -29.187 -47.442  45.824  1.00  0.00    -0.504 OA
ATOM     44  H   UNL     1     -29.772 -47.439  44.999  1.00  0.00     0.293 HD
ENDBRANCH   7  43
TORSDOF 11
ENDMDL
MODEL 3
REMARK VINA RESULT:    -8.216      1.802      9.165
REMARK INTER + INTRA:         -13.376
REMARK INTER:                 -13.238
REMARK INTRA:                  -0.138
REMARK UNBOUND:                -1.318
REMARK SMILES Cc1cc2c(C(C)C)c(O)c(O)c(C=O)c2c(O)c1-c1c(C)cc2c(C(C)C)c(O)c(O)c(C=O)c2c1O
REMARK SMILES IDX 1 1 2 2 3 3 4 4 16 5 13 6 11 7 9 8 5 9 17 10 19 11 20 12
REMARK SMILES IDX 37 13 21 14 36 15 23 16 22 17 24 18 33 19 25 20 31 21 29 22
REMARK SMILES IDX 38 23 34 25 35 26 26 27 27 28 28 29 32 30 30 32 18 34 6 36
REMARK SMILES IDX 7 37 8 38 14 39 15 40 10 41 12 43
REMARK H PARENT 38 24 32 31 30 33 18 35 10 42 12 44
REMARK Flexibility Score: inf
ROOT
ATOM      1  C   UNL     1     -25.518 -49.614  47.731  1.00  0.00     0.045 C 
ATOM      2  C   UNL     1     -25.251 -48.230  47.192  1.00  0.00    -0.039 A 
ATOM      3  C   UNL     1     -26.254 -47.570  46.480  1.00  0.00     0.013 A 
ATOM      4  C   UNL     1     -26.054 -46.285  45.931  1.00  0.00    -0.006 A 
ATOM      5  C   UNL     1     -24.839 -45.596  46.224  1.00  0.00     0.039 A 
ATOM      6  C   UNL     1     -24.722 -44.220  45.865  1.00  0.00     0.072 A 
ATOM      7  C   UNL     1     -25.800 -43.567  45.230  1.00  0.00     0.169 A 
ATOM      8  C   UNL     1     -26.943 -44.283  44.855  1.00  0.00     0.162 A 
ATOM      9  C   UNL     1     -27.051 -45.666  45.118  1.00  0.00     0.008 A 
ATOM     10  C   UNL     1     -23.779 -46.316  46.852  1.00  0.00     0.132 A 
ATOM     11  C   UNL     1     -23.993 -47.622  47.341  1.00  0.00     0.031 A 
ENDROOT
BRANCH  11  12
ATOM     12  C   UNL     1     -22.895 -48.353  48.027  1.00  0.00     0.031 A 
ATOM     13  C   UNL     1     -22.221 -49.404  47.368  1.00  0.00     0.132 A 
ATOM     14  C   UNL     1     -22.547 -48.008  49.343  1.00  0.00    -0.039 A 
ATOM     15  C   UNL     1     -21.153 -50.099  48.017  1.00  0.00     0.039 A 
ATOM     16  C   UNL     1     -21.509 -48.685  49.980  1.00  0.00     0.013 A 
ATOM     17  C   UNL     1     -23.282 -46.914  50.079  1.00  0.00     0.045 C 
ATOM     18  C   UNL     1     -20.762 -49.693  49.330  1.00  0.00    -0.006 A 
ATOM     19  C   UNL     1     -20.487 -51.210  47.413  1.00  0.00     0.072 A 
ATOM     20  C   UNL     1     -19.658 -50.326  49.981  1.00  0.00     0.008 A 
ATOM     21  C   UNL     1     -19.507 -51.920  48.136  1.00  0.00     0.169 A 
ATOM     22  C   UNL     1     -19.127 -51.504  49.416  1.00  0.00     0.162 A 
BRANCH  13  23
ATOM     23  O   UNL     1     -22.617 -49.760  46.074  1.00  0.00    -0.507 OA
ATOM     24  H   UNL     1     -23.435 -50.319  45.865  1.00  0.00     0.293 HD
ENDBRANCH  13  23
BRANCH  19  25
ATOM     25  C   UNL     1     -20.803 -51.664  46.044  1.00  0.00     0.264 C 
ATOM     26  O   UNL     1     -21.460 -52.722  45.857  1.00  0.00    -0.298 OA
ENDBRANCH  19  25
BRANCH  20  27
ATOM     27  C   UNL     1     -19.056 -49.768  51.284  1.00  0.00     0.017 C 
ATOM     28  C   UNL     1     -18.674 -50.904  52.239  1.00  0.00     0.012 C 
ATOM     29  C   UNL     1     -17.875 -48.804  51.060  1.00  0.00     0.012 C 
ENDBRANCH  20  27
BRANCH  21  30
ATOM     30  O   UNL     1     -18.861 -53.038  47.593  1.00  0.00    -0.504 OA
ATOM     31  H   UNL     1     -18.218 -53.001  46.813  1.00  0.00     0.293 HD
ENDBRANCH  21  30
BRANCH  22  32
ATOM     32  O   UNL     1     -18.208 -52.270  50.136  1.00  0.00    -0.504 OA
ATOM     33  H   UNL     1     -18.471 -52.871  50.907  1.00  0.00     0.293 HD
ENDBRANCH  22  32
ENDBRANCH  11  12
BRANCH  10  34
ATOM     34  O   UNL     1     -22.505 -45.745  46.963  1.00  0.00    -0.507 OA
ATOM     35  H   UNL     1     -21.711 -46.020  46.399  1.00  0.00     0.293 HD
ENDBRANCH  10  34
BRANCH   9  36
ATOM     36  C   UNL     1     -28.233 -46.463  44.540  1.00  0.00     0.017 C 
ATOM     37  C   UNL     1     -27.868 -47.076  43.185  1.00  0.00     0.012 C 
ATOM     38  C   UNL     1     -28.794 -47.525  45.503  1.00  0.00     0.012 C 
ENDBRANCH   9  36
BRANCH   6  39
ATOM     39  C   UNL     1     -23.535 -43.417  46.229  1.00  0.00     0.264 C 
ATOM     40  O   UNL     1     -23.595 -42.572  47.160  1.00  0.00    -0.298 OA
ENDBRANCH   6  39
BRANCH   8  41
ATOM     41  O   UNL     1     -27.998 -43.608  44.235  1.00  0.00    -0.504 OA
ATOM     42  H   UNL     1     -28.806 -44.081  43.849  1.00  0.00     0.293 HD
ENDBRANCH   8  41
BRANCH   7  43
ATOM     43  O   UNL     1     -25.777 -42.191  44.975  1.00  0.00    -0.504 OA
ATOM     44  H   UNL     1     -25.145 -41.541  45.425  1.00  0.00     0.293 HD
ENDBRANCH   7  43
TORSDOF 11
ENDMDL
MODEL 4
REMARK VINA RESULT:    -7.661      2.777      4.799
REMARK INTER + INTRA:         -12.562
REMARK INTER:                 -12.302
REMARK INTRA:                  -0.259
REMARK UNBOUND:                -1.318
REMARK SMILES Cc1cc2c(C(C)C)c(O)c(O)c(C=O)c2c(O)c1-c1c(C)cc2c(C(C)C)c(O)c(O)c(C=O)c2c1O
REMARK SMILES IDX 1 1 2 2 3 3 4 4 16 5 13 6 11 7 9 8 5 9 17 10 19 11 20 12
REMARK SMILES IDX 37 13 21 14 36 15 23 16 22 17 24 18 33 19 25 20 31 21 29 22
REMARK SMILES IDX 38 23 34 25 35 26 26 27 27 28 28 29 32 30 30 32 18 34 6 36
REMARK SMILES IDX 7 37 8 38 14 39 15 40 10 41 12 43
REMARK H PARENT 38 24 32 31 30 33 18 35 10 42 12 44
REMARK Flexibility Score: inf
ROOT
ATOM      1  C   UNL     1     -27.049 -47.739  47.209  1.00  0.00     0.045 C 
ATOM      2  C   UNL     1     -25.580 -47.832  46.875  1.00  0.00    -0.039 A 
ATOM      3  C   UNL     1     -24.697 -48.361  47.817  1.00  0.00     0.013 A 
ATOM      4  C   UNL     1     -23.309 -48.450  47.570  1.00  0.00    -0.006 A 
ATOM      5  C   UNL     1     -22.822 -48.108  46.274  1.00  0.00     0.039 A 
ATOM      6  C   UNL     1     -21.465 -48.407  45.946  1.00  0.00     0.072 A 
ATOM      7  C   UNL     1     -20.634 -49.030  46.902  1.00  0.00     0.169 A 
ATOM      8  C   UNL     1     -21.097 -49.263  48.201  1.00  0.00     0.162 A 
ATOM      9  C   UNL     1     -22.407 -48.898  48.581  1.00  0.00     0.008 A 
ATOM     10  C   UNL     1     -23.706 -47.463  45.358  1.00  0.00     0.132 A 
ATOM     11  C   UNL     1     -25.080 -47.339  45.658  1.00  0.00     0.031 A 
ENDROOT
BRANCH  11  12
ATOM     12  C   UNL     1     -26.002 -46.699  44.684  1.00  0.00     0.031 A 
ATOM     13  C   UNL     1     -26.334 -45.333  44.811  1.00  0.00     0.132 A 
ATOM     14  C   UNL     1     -26.560 -47.466  43.649  1.00  0.00    -0.039 A 
ATOM     15  C   UNL     1     -27.208 -44.709  43.867  1.00  0.00     0.039 A 
ATOM     16  C   UNL     1     -27.415 -46.862  42.728  1.00  0.00     0.013 A 
ATOM     17  C   UNL     1     -26.249 -48.938  43.518  1.00  0.00     0.045 C 
ATOM     18  C   UNL     1     -27.714 -45.482  42.778  1.00  0.00    -0.006 A 
ATOM     19  C   UNL     1     -27.622 -43.347  43.995  1.00  0.00     0.072 A 
ATOM     20  C   UNL     1     -28.540 -44.873  41.783  1.00  0.00     0.008 A 
ATOM     21  C   UNL     1     -28.560 -42.809  43.090  1.00  0.00     0.169 A 
ATOM     22  C   UNL     1     -29.039 -43.576  42.023  1.00  0.00     0.162 A 
BRANCH  13  23
ATOM     23  O   UNL     1     -25.802 -44.601  45.878  1.00  0.00    -0.507 OA
ATOM     24  H   UNL     1     -25.034 -44.918  46.457  1.00  0.00     0.293 HD
ENDBRANCH  13  23
BRANCH  19  25
ATOM     25  C   UNL     1     -27.111 -42.469  45.066  1.00  0.00     0.264 C 
ATOM     26  O   UNL     1     -26.211 -41.622  44.823  1.00  0.00    -0.298 OA
ENDBRANCH  19  25
BRANCH  20  27
ATOM     27  C   UNL     1     -28.910 -45.601  40.478  1.00  0.00     0.017 C 
ATOM     28  C   UNL     1     -27.894 -45.293  39.374  1.00  0.00     0.012 C 
ATOM     29  C   UNL     1     -29.109 -47.120  40.648  1.00  0.00     0.012 C 
ENDBRANCH  20  27
BRANCH  21  30
ATOM     30  O   UNL     1     -29.021 -41.491  43.207  1.00  0.00    -0.504 OA
ATOM     31  H   UNL     1     -28.498 -40.677  42.912  1.00  0.00     0.293 HD
ENDBRANCH  21  30
BRANCH  22  32
ATOM     32  O   UNL     1     -30.024 -43.042  41.188  1.00  0.00    -0.504 OA
ATOM     33  H   UNL     1     -30.552 -42.208  41.417  1.00  0.00     0.293 HD
ENDBRANCH  22  32
ENDBRANCH  11  12
BRANCH  10  34
ATOM     34  O   UNL     1     -23.216 -46.921  44.164  1.00  0.00    -0.507 OA
ATOM     35  H   UNL     1     -22.297 -46.506  44.067  1.00  0.00     0.293 HD
ENDBRANCH  10  34
BRANCH   9  36
ATOM     36  C   UNL     1     -22.831 -49.000  50.057  1.00  0.00     0.017 C 
ATOM     37  C   UNL     1     -22.048 -50.103  50.775  1.00  0.00     0.012 C 
ATOM     38  C   UNL     1     -22.746 -47.665  50.819  1.00  0.00     0.012 C 
ENDBRANCH   9  36
BRANCH   6  39
ATOM     39  C   UNL     1     -20.921 -48.174  44.592  1.00  0.00     0.264 C 
ATOM     40  O   UNL     1     -20.907 -49.102  43.740  1.00  0.00    -0.298 OA
ENDBRANCH   6  39
BRANCH   8  41
ATOM     41  O   UNL     1     -20.254 -49.890  49.124  1.00  0.00    -0.504 OA
ATOM     42  H   UNL     1     -20.576 -50.236  50.020  1.00  0.00     0.293 HD
ENDBRANCH   8  41
BRANCH   7  43
ATOM     43  O   UNL     1     -19.339 -49.454  46.582  1.00  0.00    -0.504 OA
ATOM     44  H   UNL     1     -18.512 -49.192  47.102  1.00  0.00     0.293 HD
ENDBRANCH   7  43
TORSDOF 11
ENDMDL
MODEL 5
REMARK VINA RESULT:    -7.660      2.797     10.043
REMARK INTER + INTRA:         -12.561
REMARK INTER:                 -12.340
REMARK INTRA:                  -0.221
REMARK UNBOUND:                -1.318
REMARK SMILES Cc1cc2c(C(C)C)c(O)c(O)c(C=O)c2c(O)c1-c1c(C)cc2c(C(C)C)c(O)c(O)c(C=O)c2c1O
REMARK SMILES IDX 1 1 2 2 3 3 4 4 16 5 13 6 11 7 9 8 5 9 17 10 19 11 20 12
REMARK SMILES IDX 37 13 21 14 36 15 23 16 22 17 24 18 33 19 25 20 31 21 29 22
REMARK SMILES IDX 38 23 34 25 35 26 26 27 27 28 28 29 32 30 30 32 18 34 6 36
REMARK SMILES IDX 7 37 8 38 14 39 15 40 10 41 12 43
REMARK H PARENT 38 24 32 31 30 33 18 35 10 42 12 44
REMARK Flexibility Score: inf
ROOT
ATOM      1  C   UNL     1     -26.454 -48.927  43.658  1.00  0.00     0.045 C 
ATOM      2  C   UNL     1     -26.714 -47.442  43.729  1.00  0.00    -0.039 A 
ATOM      3  C   UNL     1     -27.537 -46.846  42.773  1.00  0.00     0.013 A 
ATOM      4  C   UNL     1     -27.797 -45.458  42.775  1.00  0.00    -0.006 A 
ATOM      5  C   UNL     1     -27.306 -44.671  43.859  1.00  0.00     0.039 A 
ATOM      6  C   UNL     1     -27.750 -43.321  43.987  1.00  0.00     0.072 A 
ATOM      7  C   UNL     1     -28.658 -42.789  43.047  1.00  0.00     0.169 A 
ATOM      8  C   UNL     1     -29.048 -43.540  41.932  1.00  0.00     0.162 A 
ATOM      9  C   UNL     1     -28.556 -44.848  41.731  1.00  0.00     0.008 A 
ATOM     10  C   UNL     1     -26.375 -45.261  44.766  1.00  0.00     0.132 A 
ATOM     11  C   UNL     1     -26.093 -46.642  44.703  1.00  0.00     0.031 A 
ENDROOT
BRANCH  11  12
ATOM     12  C   UNL     1     -25.151 -47.257  45.675  1.00  0.00     0.031 A 
ATOM     13  C   UNL     1     -23.804 -47.477  45.316  1.00  0.00     0.132 A 
ATOM     14  C   UNL     1     -25.613 -47.639  46.944  1.00  0.00    -0.039 A 
ATOM     15  C   UNL     1     -22.889 -48.053  46.252  1.00  0.00     0.039 A 
ATOM     16  C   UNL     1     -24.725 -48.204  47.859  1.00  0.00     0.013 A 
ATOM     17  C   UNL     1     -27.060 -47.449  47.334  1.00  0.00     0.045 C 
ATOM     18  C   UNL     1     -23.354 -48.373  47.565  1.00  0.00    -0.006 A 
ATOM     19  C   UNL     1     -21.534 -48.352  45.910  1.00  0.00     0.072 A 
ATOM     20  C   UNL     1     -22.451 -48.893  48.542  1.00  0.00     0.008 A 
ATOM     21  C   UNL     1     -20.702 -49.008  46.841  1.00  0.00     0.169 A 
ATOM     22  C   UNL     1     -21.169 -49.306  48.125  1.00  0.00     0.162 A 
BRANCH  13  23
ATOM     23  O   UNL     1     -23.378 -47.130  44.029  1.00  0.00    -0.507 OA
ATOM     24  H   UNL     1     -22.824 -47.733  43.433  1.00  0.00     0.293 HD
ENDBRANCH  13  23
BRANCH  19  25
ATOM     25  C   UNL     1     -20.965 -48.013  44.591  1.00  0.00     0.264 C 
ATOM     26  O   UNL     1     -20.877 -48.887  43.689  1.00  0.00    -0.298 OA
ENDBRANCH  19  25
BRANCH  20  27
ATOM     27  C   UNL     1     -22.849 -49.028  50.024  1.00  0.00     0.017 C 
ATOM     28  C   UNL     1     -22.048 -50.142  50.705  1.00  0.00     0.012 C 
ATOM     29  C   UNL     1     -22.757 -47.709  50.816  1.00  0.00     0.012 C 
ENDBRANCH  20  27
BRANCH  21  30
ATOM     30  O   UNL     1     -19.381 -49.355  46.528  1.00  0.00    -0.504 OA
ATOM     31  H   UNL     1     -18.703 -48.716  46.135  1.00  0.00     0.293 HD
ENDBRANCH  21  30
BRANCH  22  32
ATOM     32  O   UNL     1     -20.348 -50.022  48.999  1.00  0.00    -0.504 OA
ATOM     33  H   UNL     1     -20.352 -49.885  50.002  1.00  0.00     0.293 HD
ENDBRANCH  22  32
ENDBRANCH  11  12
BRANCH  10  34
ATOM     34  O   UNL     1     -25.709 -44.469  45.710  1.00  0.00    -0.507 OA
ATOM     35  H   UNL     1     -26.176 -43.953  46.445  1.00  0.00     0.293 HD
ENDBRANCH  10  34
BRANCH   9  36
ATOM     36  C   UNL     1     -28.856 -45.582  40.413  1.00  0.00     0.017 C 
ATOM     37  C   UNL     1     -27.772 -45.298  39.370  1.00  0.00     0.012 C 
ATOM     38  C   UNL     1     -29.086 -47.095  40.585  1.00  0.00     0.012 C 
ENDBRANCH   9  36
BRANCH   6  39
ATOM     39  C   UNL     1     -27.364 -42.480  45.140  1.00  0.00     0.264 C 
ATOM     40  O   UNL     1     -26.548 -41.532  44.996  1.00  0.00    -0.298 OA
ENDBRANCH   6  39
BRANCH   8  41
ATOM     41  O   UNL     1     -29.955 -42.990  41.023  1.00  0.00    -0.504 OA
ATOM     42  H   UNL     1     -30.033 -43.302  40.062  1.00  0.00     0.293 HD
ENDBRANCH   8  41
BRANCH   7  43
ATOM     43  O   UNL     1     -29.215 -41.515  43.205  1.00  0.00    -0.504 OA
ATOM     44  H   UNL     1     -30.209 -41.331  43.244  1.00  0.00     0.293 HD
ENDBRANCH   7  43
TORSDOF 11
ENDMDL
MODEL 6
REMARK VINA RESULT:    -7.614      3.325     10.295
REMARK INTER + INTRA:         -12.493
REMARK INTER:                 -12.409
REMARK INTRA:                  -0.084
REMARK UNBOUND:                -1.318
REMARK SMILES Cc1cc2c(C(C)C)c(O)c(O)c(C=O)c2c(O)c1-c1c(C)cc2c(C(C)C)c(O)c(O)c(C=O)c2c1O
REMARK SMILES IDX 1 1 2 2 3 3 4 4 16 5 13 6 11 7 9 8 5 9 17 10 19 11 20 12
REMARK SMILES IDX 37 13 21 14 36 15 23 16 22 17 24 18 33 19 25 20 31 21 29 22
REMARK SMILES IDX 38 23 34 25 35 26 26 27 27 28 28 29 32 30 30 32 18 34 6 36
REMARK SMILES IDX 7 37 8 38 14 39 15 40 10 41 12 43
REMARK H PARENT 38 24 32 31 30 33 18 35 10 42 12 44
REMARK Flexibility Score: inf
ROOT
ATOM      1  C   UNL     1     -26.815 -49.222  43.149  1.00  0.00     0.045 C 
ATOM      2  C   UNL     1     -26.964 -47.785  42.711  1.00  0.00    -0.039 A 
ATOM      3  C   UNL     1     -27.633 -47.500  41.520  1.00  0.00     0.013 A 
ATOM      4  C   UNL     1     -27.782 -46.178  41.047  1.00  0.00    -0.006 A 
ATOM      5  C   UNL     1     -27.348 -45.102  41.877  1.00  0.00     0.039 A 
ATOM      6  C   UNL     1     -27.697 -43.766  41.512  1.00  0.00     0.072 A 
ATOM      7  C   UNL     1     -28.456 -43.534  40.346  1.00  0.00     0.169 A 
ATOM      8  C   UNL     1     -28.782 -44.590  39.488  1.00  0.00     0.162 A 
ATOM      9  C   UNL     1     -28.376 -45.911  39.777  1.00  0.00     0.008 A 
ATOM     10  C   UNL     1     -26.569 -45.400  43.035  1.00  0.00     0.132 A 
ATOM     11  C   UNL     1     -26.390 -46.737  43.451  1.00  0.00     0.031 A 
ENDROOT
BRANCH  11  12
ATOM     12  C   UNL     1     -25.608 -47.039  44.678  1.00  0.00     0.031 A 
ATOM     13  C   UNL     1     -24.233 -47.348  44.585  1.00  0.00     0.132 A 
ATOM     14  C   UNL     1     -26.247 -47.039  45.927  1.00  0.00    -0.039 A 
ATOM     15  C   UNL     1     -23.471 -47.623  45.763  1.00  0.00     0.039 A 
ATOM     16  C   UNL     1     -25.509 -47.310  47.078  1.00  0.00     0.013 A 
ATOM     17  C   UNL     1     -27.725 -46.751  46.044  1.00  0.00     0.045 C 
ATOM     18  C   UNL     1     -24.117 -47.551  47.036  1.00  0.00    -0.006 A 
ATOM     19  C   UNL     1     -22.094 -48.003  45.711  1.00  0.00     0.072 A 
ATOM     20  C   UNL     1     -23.370 -47.761  48.236  1.00  0.00     0.008 A 
ATOM     21  C   UNL     1     -21.417 -48.357  46.896  1.00  0.00     0.169 A 
ATOM     22  C   UNL     1     -22.060 -48.272  48.135  1.00  0.00     0.162 A 
BRANCH  13  23
ATOM     23  O   UNL     1     -23.628 -47.387  43.323  1.00  0.00    -0.507 OA
ATOM     24  H   UNL     1     -24.072 -47.068  42.472  1.00  0.00     0.293 HD
ENDBRANCH  13  23
BRANCH  19  25
ATOM     25  C   UNL     1     -21.344 -48.058  44.441  1.00  0.00     0.264 C 
ATOM     26  O   UNL     1     -20.923 -49.157  43.995  1.00  0.00    -0.298 OA
ENDBRANCH  19  25
BRANCH  20  27
ATOM     27  C   UNL     1     -23.966 -47.462  49.625  1.00  0.00     0.017 C 
ATOM     28  C   UNL     1     -22.945 -46.745  50.514  1.00  0.00     0.012 C 
ATOM     29  C   UNL     1     -25.302 -46.696  49.577  1.00  0.00     0.012 C 
ENDBRANCH  20  27
BRANCH  21  30
ATOM     30  O   UNL     1     -20.080 -48.773  46.881  1.00  0.00    -0.504 OA
ATOM     31  H   UNL     1     -19.770 -49.703  47.131  1.00  0.00     0.293 HD
ENDBRANCH  21  30
BRANCH  22  32
ATOM     32  O   UNL     1     -21.387 -48.700  49.282  1.00  0.00    -0.504 OA
ATOM     33  H   UNL     1     -21.086 -48.070  50.015  1.00  0.00     0.293 HD
ENDBRANCH  22  32
ENDBRANCH  11  12
BRANCH  10  34
ATOM     34  O   UNL     1     -25.947 -44.372  43.753  1.00  0.00    -0.507 OA
ATOM     35  H   UNL     1     -25.536 -44.492  44.671  1.00  0.00     0.293 HD
ENDBRANCH  10  34
BRANCH   9  36
ATOM     36  C   UNL     1     -28.591 -47.021  38.734  1.00  0.00     0.017 C 
ATOM     37  C   UNL     1     -30.078 -47.356  38.592  1.00  0.00     0.012 C 
ATOM     38  C   UNL     1     -27.950 -46.719  37.367  1.00  0.00     0.012 C 
ENDBRANCH   9  36
BRANCH   6  39
ATOM     39  C   UNL     1     -27.371 -42.612  42.377  1.00  0.00     0.264 C 
ATOM     40  O   UNL     1     -28.178 -42.230  43.266  1.00  0.00    -0.298 OA
ENDBRANCH   6  39
BRANCH   8  41
ATOM     41  O   UNL     1     -29.542 -44.330  38.344  1.00  0.00    -0.504 OA
ATOM     42  H   UNL     1     -29.883 -43.407  38.105  1.00  0.00     0.293 HD
ENDBRANCH   8  41
BRANCH   7  43
ATOM     43  O   UNL     1     -28.926 -42.256  40.019  1.00  0.00    -0.504 OA
ATOM     44  H   UNL     1     -28.798 -41.439  40.602  1.00  0.00     0.293 HD
ENDBRANCH   7  43
TORSDOF 11
ENDMDL
MODEL 7
REMARK VINA RESULT:    -7.490      3.424      6.135
REMARK INTER + INTRA:         -12.310
REMARK INTER:                 -12.426
REMARK INTRA:                   0.115
REMARK UNBOUND:                -1.318
REMARK SMILES Cc1cc2c(C(C)C)c(O)c(O)c(C=O)c2c(O)c1-c1c(C)cc2c(C(C)C)c(O)c(O)c(C=O)c2c1O
REMARK SMILES IDX 1 1 2 2 3 3 4 4 16 5 13 6 11 7 9 8 5 9 17 10 19 11 20 12
REMARK SMILES IDX 37 13 21 14 36 15 23 16 22 17 24 18 33 19 25 20 31 21 29 22
REMARK SMILES IDX 38 23 34 25 35 26 26 27 27 28 28 29 32 30 30 32 18 34 6 36
REMARK SMILES IDX 7 37 8 38 14 39 15 40 10 41 12 43
REMARK H PARENT 38 24 32 31 30 33 18 35 10 42 12 44
REMARK Flexibility Score: inf
ROOT
ATOM      1  C   UNL     1     -27.919 -46.816  45.866  1.00  0.00     0.045 C 
ATOM      2  C   UNL     1     -26.425 -47.016  45.783  1.00  0.00    -0.039 A 
ATOM      3  C   UNL     1     -25.705 -47.276  46.950  1.00  0.00     0.013 A 
ATOM      4  C   UNL     1     -24.304 -47.447  46.938  1.00  0.00    -0.006 A 
ATOM      5  C   UNL     1     -23.629 -47.481  45.681  1.00  0.00     0.039 A 
ATOM      6  C   UNL     1     -22.258 -47.875  45.645  1.00  0.00     0.072 A 
ATOM      7  C   UNL     1     -21.596 -48.221  46.842  1.00  0.00     0.169 A 
ATOM      8  C   UNL     1     -22.241 -48.081  48.076  1.00  0.00     0.162 A 
ATOM      9  C   UNL     1     -23.569 -47.609  48.151  1.00  0.00     0.008 A 
ATOM     10  C   UNL     1     -24.348 -47.104  44.507  1.00  0.00     0.132 A 
ATOM     11  C   UNL     1     -25.741 -46.884  44.563  1.00  0.00     0.031 A 
ENDROOT
BRANCH  11  12
ATOM     12  C   UNL     1     -26.491 -46.527  43.330  1.00  0.00     0.031 A 
ATOM     13  C   UNL     1     -26.679 -45.172  42.980  1.00  0.00     0.132 A 
ATOM     14  C   UNL     1     -27.031 -47.543  42.526  1.00  0.00    -0.039 A 
ATOM     15  C   UNL     1     -27.384 -44.823  41.787  1.00  0.00     0.039 A 
ATOM     16  C   UNL     1     -27.722 -47.207  41.363  1.00  0.00     0.013 A 
ATOM     17  C   UNL     1     -26.875 -48.997  42.903  1.00  0.00     0.045 C 
ATOM     18  C   UNL     1     -27.869 -45.867  40.940  1.00  0.00    -0.006 A 
ATOM     19  C   UNL     1     -27.654 -43.466  41.428  1.00  0.00     0.072 A 
ATOM     20  C   UNL     1     -28.524 -45.552  39.709  1.00  0.00     0.008 A 
ATOM     21  C   UNL     1     -28.437 -43.181  40.291  1.00  0.00     0.169 A 
ATOM     22  C   UNL     1     -28.895 -44.214  39.466  1.00  0.00     0.162 A 
BRANCH  13  23
ATOM     23  O   UNL     1     -26.171 -44.176  43.822  1.00  0.00    -0.507 OA
ATOM     24  H   UNL     1     -25.311 -43.672  43.649  1.00  0.00     0.293 HD
ENDBRANCH  13  23
BRANCH  19  25
ATOM     25  C   UNL     1     -27.151 -42.330  42.225  1.00  0.00     0.264 C 
ATOM     26  O   UNL     1     -27.855 -41.833  43.144  1.00  0.00    -0.298 OA
ENDBRANCH  19  25
BRANCH  20  27
ATOM     27  C   UNL     1     -28.848 -46.634  38.662  1.00  0.00     0.017 C 
ATOM     28  C   UNL     1     -27.565 -47.281  38.131  1.00  0.00     0.012 C 
ATOM     29  C   UNL     1     -29.848 -47.698  39.156  1.00  0.00     0.012 C 
ENDBRANCH  20  27
BRANCH  21  30
ATOM     30  O   UNL     1     -28.756 -41.866  39.930  1.00  0.00    -0.504 OA
ATOM     31  H   UNL     1     -28.238 -41.319  39.255  1.00  0.00     0.293 HD
ENDBRANCH  21  30
BRANCH  22  32
ATOM     32  O   UNL     1     -29.731 -43.906  38.390  1.00  0.00    -0.504 OA
ATOM     33  H   UNL     1     -29.573 -43.119  37.773  1.00  0.00     0.293 HD
ENDBRANCH  22  32
ENDBRANCH  11  12
BRANCH  10  34
ATOM     34  O   UNL     1     -23.675 -46.918  43.294  1.00  0.00    -0.507 OA
ATOM     35  H   UNL     1     -24.078 -46.457  42.488  1.00  0.00     0.293 HD
ENDBRANCH  10  34
BRANCH   9  36
ATOM     36  C   UNL     1     -24.192 -47.295  49.522  1.00  0.00     0.017 C 
ATOM     37  C   UNL     1     -23.138 -46.748  50.489  1.00  0.00     0.012 C 
ATOM     38  C   UNL     1     -25.419 -46.369  49.447  1.00  0.00     0.012 C 
ENDBRANCH   9  36
BRANCH   6  39
ATOM     39  C   UNL     1     -21.526 -48.033  44.370  1.00  0.00     0.264 C 
ATOM     40  O   UNL     1     -20.889 -49.091  44.124  1.00  0.00    -0.298 OA
ENDBRANCH   6  39
BRANCH   8  41
ATOM     41  O   UNL     1     -21.563 -48.439  49.245  1.00  0.00    -0.504 OA
ATOM     42  H   UNL     1     -22.024 -48.848  50.048  1.00  0.00     0.293 HD
ENDBRANCH   8  41
BRANCH   7  43
ATOM     43  O   UNL     1     -20.293 -48.733  46.839  1.00  0.00    -0.504 OA
ATOM     44  H   UNL     1     -19.607 -48.542  47.557  1.00  0.00     0.293 HD
ENDBRANCH   7  43
TORSDOF 11
ENDMDL
MODEL 8
REMARK VINA RESULT:    -7.435      1.631      3.089
REMARK INTER + INTRA:         -12.231
REMARK INTER:                 -11.741
REMARK INTRA:                  -0.489
REMARK UNBOUND:                -1.318
REMARK SMILES Cc1cc2c(C(C)C)c(O)c(O)c(C=O)c2c(O)c1-c1c(C)cc2c(C(C)C)c(O)c(O)c(C=O)c2c1O
REMARK SMILES IDX 1 1 2 2 3 3 4 4 16 5 13 6 11 7 9 8 5 9 17 10 19 11 20 12
REMARK SMILES IDX 37 13 21 14 36 15 23 16 22 17 24 18 33 19 25 20 31 21 29 22
REMARK SMILES IDX 38 23 34 25 35 26 26 27 27 28 28 29 32 30 30 32 18 34 6 36
REMARK SMILES IDX 7 37 8 38 14 39 15 40 10 41 12 43
REMARK H PARENT 38 24 32 31 30 33 18 35 10 42 12 44
REMARK Flexibility Score: inf
ROOT
ATOM      1  C   UNL     1     -23.261 -47.298  49.499  1.00  0.00     0.045 C 
ATOM      2  C   UNL     1     -22.456 -48.433  48.915  1.00  0.00    -0.039 A 
ATOM      3  C   UNL     1     -21.441 -49.013  49.677  1.00  0.00     0.013 A 
ATOM      4  C   UNL     1     -20.639 -50.061  49.174  1.00  0.00    -0.006 A 
ATOM      5  C   UNL     1     -20.963 -50.623  47.904  1.00  0.00     0.039 A 
ATOM      6  C   UNL     1     -20.306 -51.821  47.491  1.00  0.00     0.072 A 
ATOM      7  C   UNL     1     -19.352 -52.425  48.339  1.00  0.00     0.169 A 
ATOM      8  C   UNL     1     -18.969 -51.805  49.533  1.00  0.00     0.162 A 
ATOM      9  C   UNL     1     -19.538 -50.574  49.926  1.00  0.00     0.008 A 
ATOM     10  C   UNL     1     -21.924 -49.956  47.085  1.00  0.00     0.132 A 
ATOM     11  C   UNL     1     -22.671 -48.874  47.598  1.00  0.00     0.031 A 
ENDROOT
BRANCH  11  12
ATOM     12  C   UNL     1     -23.696 -48.207  46.753  1.00  0.00     0.031 A 
ATOM     13  C   UNL     1     -23.326 -47.155  45.887  1.00  0.00     0.132 A 
ATOM     14  C   UNL     1     -25.036 -48.614  46.836  1.00  0.00    -0.039 A 
ATOM     15  C   UNL     1     -24.304 -46.520  45.059  1.00  0.00     0.039 A 
ATOM     16  C   UNL     1     -25.994 -47.996  46.033  1.00  0.00     0.013 A 
ATOM     17  C   UNL     1     -25.458 -49.711  47.784  1.00  0.00     0.045 C 
ATOM     18  C   UNL     1     -25.654 -46.989  45.101  1.00  0.00    -0.006 A 
ATOM     19  C   UNL     1     -23.988 -45.409  44.218  1.00  0.00     0.072 A 
ATOM     20  C   UNL     1     -26.642 -46.418  44.242  1.00  0.00     0.008 A 
ATOM     21  C   UNL     1     -25.011 -44.761  43.495  1.00  0.00     0.169 A 
ATOM     22  C   UNL     1     -26.324 -45.238  43.539  1.00  0.00     0.162 A 
BRANCH  13  23
ATOM     23  O   UNL     1     -21.991 -46.736  45.856  1.00  0.00    -0.507 OA
ATOM     24  H   UNL     1     -21.622 -46.066  45.194  1.00  0.00     0.293 HD
ENDBRANCH  13  23
BRANCH  19  25
ATOM     25  C   UNL     1     -22.612 -44.893  44.085  1.00  0.00     0.264 C 
ATOM     26  O   UNL     1     -21.791 -45.453  43.311  1.00  0.00    -0.298 OA
ENDBRANCH  19  25
BRANCH  20  27
ATOM     27  C   UNL     1     -28.040 -47.045  44.084  1.00  0.00     0.017 C 
ATOM     28  C   UNL     1     -27.978 -48.303  43.212  1.00  0.00     0.012 C 
ATOM     29  C   UNL     1     -28.751 -47.326  45.421  1.00  0.00     0.012 C 
ENDBRANCH  20  27
BRANCH  21  30
ATOM     30  O   UNL     1     -24.747 -43.644  42.692  1.00  0.00    -0.504 OA
ATOM     31  H   UNL     1     -24.284 -42.805  43.016  1.00  0.00     0.293 HD
ENDBRANCH  21  30
BRANCH  22  32
ATOM     32  O   UNL     1     -27.328 -44.530  42.873  1.00  0.00    -0.504 OA
ATOM     33  H   UNL     1     -27.369 -44.441  41.865  1.00  0.00     0.293 HD
ENDBRANCH  22  32
ENDBRANCH  11  12
BRANCH  10  34
ATOM     34  O   UNL     1     -22.114 -50.349  45.755  1.00  0.00    -0.507 OA
ATOM     35  H   UNL     1     -22.944 -50.819  45.417  1.00  0.00     0.293 HD
ENDBRANCH  10  34
BRANCH   9  36
ATOM     36  C   UNL     1     -18.974 -49.827  51.147  1.00  0.00     0.017 C 
ATOM     37  C   UNL     1     -18.491 -50.812  52.215  1.00  0.00     0.012 C 
ATOM     38  C   UNL     1     -17.881 -48.801  50.794  1.00  0.00     0.012 C 
ENDBRANCH   9  36
BRANCH   6  39
ATOM     39  C   UNL     1     -20.665 -52.515  46.236  1.00  0.00     0.264 C 
ATOM     40  O   UNL     1     -21.025 -53.722  46.252  1.00  0.00    -0.298 OA
ENDBRANCH   6  39
BRANCH   8  41
ATOM     41  O   UNL     1     -18.029 -52.431  50.356  1.00  0.00    -0.504 OA
ATOM     42  H   UNL     1     -17.376 -51.919  50.937  1.00  0.00     0.293 HD
ENDBRANCH   8  41
BRANCH   7  43
ATOM     43  O   UNL     1     -18.778 -53.664  48.031  1.00  0.00    -0.504 OA
ATOM     44  H   UNL     1     -17.882 -53.776  47.574  1.00  0.00     0.293 HD
ENDBRANCH   7  43
TORSDOF 11
ENDMDL
MODEL 9
REMARK VINA RESULT:    -7.234      2.725      5.375
REMARK INTER + INTRA:         -11.935
REMARK INTER:                 -11.128
REMARK INTRA:                  -0.807
REMARK UNBOUND:                -1.318
REMARK SMILES Cc1cc2c(C(C)C)c(O)c(O)c(C=O)c2c(O)c1-c1c(C)cc2c(C(C)C)c(O)c(O)c(C=O)c2c1O
REMARK SMILES IDX 1 1 2 2 3 3 4 4 16 5 13 6 11 7 9 8 5 9 17 10 19 11 20 12
REMARK SMILES IDX 37 13 21 14 36 15 23 16 22 17 24 18 33 19 25 20 31 21 29 22
REMARK SMILES IDX 38 23 34 25 35 26 26 27 27 28 28 29 32 30 30 32 18 34 6 36
REMARK SMILES IDX 7 37 8 38 14 39 15 40 10 41 12 43
REMARK H PARENT 38 24 32 31 30 33 18 35 10 42 12 44
REMARK Flexibility Score: inf
ROOT
ATOM      1  C   UNL     1     -22.653 -46.743  43.367  1.00  0.00     0.045 C 
ATOM      2  C   UNL     1     -22.981 -47.065  44.805  1.00  0.00    -0.039 A 
ATOM      3  C   UNL     1     -22.018 -47.684  45.603  1.00  0.00     0.013 A 
ATOM      4  C   UNL     1     -22.277 -48.031  46.947  1.00  0.00    -0.006 A 
ATOM      5  C   UNL     1     -23.509 -47.620  47.535  1.00  0.00     0.039 A 
ATOM      6  C   UNL     1     -23.684 -47.767  48.944  1.00  0.00     0.072 A 
ATOM      7  C   UNL     1     -22.644 -48.313  49.726  1.00  0.00     0.169 A 
ATOM      8  C   UNL     1     -21.483 -48.808  49.120  1.00  0.00     0.162 A 
ATOM      9  C   UNL     1     -21.319 -48.757  47.719  1.00  0.00     0.008 A 
ATOM     10  C   UNL     1     -24.530 -47.091  46.689  1.00  0.00     0.132 A 
ATOM     11  C   UNL     1     -24.257 -46.807  45.334  1.00  0.00     0.031 A 
ENDROOT
BRANCH  11  12
ATOM     12  C   UNL     1     -25.313 -46.222  44.466  1.00  0.00     0.031 A 
ATOM     13  C   UNL     1     -25.578 -44.836  44.508  1.00  0.00     0.132 A 
ATOM     14  C   UNL     1     -26.061 -47.057  43.623  1.00  0.00    -0.039 A 
ATOM     15  C   UNL     1     -26.581 -44.264  43.664  1.00  0.00     0.039 A 
ATOM     16  C   UNL     1     -27.043 -46.505  42.801  1.00  0.00     0.013 A 
ATOM     17  C   UNL     1     -25.820 -48.548  43.593  1.00  0.00     0.045 C 
ATOM     18  C   UNL     1     -27.289 -45.115  42.759  1.00  0.00    -0.006 A 
ATOM     19  C   UNL     1     -26.927 -42.879  43.719  1.00  0.00     0.072 A 
ATOM     20  C   UNL     1     -28.253 -44.565  41.859  1.00  0.00     0.008 A 
ATOM     21  C   UNL     1     -27.990 -42.388  42.934  1.00  0.00     0.169 A 
ATOM     22  C   UNL     1     -28.666 -43.230  42.045  1.00  0.00     0.162 A 
BRANCH  13  23
ATOM     23  O   UNL     1     -24.850 -44.030  45.391  1.00  0.00    -0.507 OA
ATOM     24  H   UNL     1     -23.848 -44.088  45.516  1.00  0.00     0.293 HD
ENDBRANCH  13  23
BRANCH  19  25
ATOM     25  C   UNL     1     -26.216 -41.927  44.595  1.00  0.00     0.264 C 
ATOM     26  O   UNL     1     -26.805 -41.393  45.571  1.00  0.00    -0.298 OA
ENDBRANCH  19  25
BRANCH  20  27
ATOM     27  C   UNL     1     -28.862 -45.397  40.714  1.00  0.00     0.017 C 
ATOM     28  C   UNL     1     -28.014 -45.279  39.444  1.00  0.00     0.012 C 
ATOM     29  C   UNL     1     -29.114 -46.872  41.084  1.00  0.00     0.012 C 
ENDBRANCH  20  27
BRANCH  21  30
ATOM     30  O   UNL     1     -28.385 -41.045  42.991  1.00  0.00    -0.504 OA
ATOM     31  H   UNL     1     -29.008 -40.664  43.691  1.00  0.00     0.293 HD
ENDBRANCH  21  30
BRANCH  22  32
ATOM     32  O   UNL     1     -29.762 -42.733  41.336  1.00  0.00    -0.504 OA
ATOM     33  H   UNL     1     -30.605 -42.396  41.784  1.00  0.00     0.293 HD
ENDBRANCH  22  32
ENDBRANCH  11  12
BRANCH  10  34
ATOM     34  O   UNL     1     -25.821 -46.877  47.186  1.00  0.00    -0.507 OA
ATOM     35  H   UNL     1     -26.019 -46.401  48.058  1.00  0.00     0.293 HD
ENDBRANCH  10  34
BRANCH   9  36
ATOM     36  C   UNL     1     -20.121 -49.465  47.064  1.00  0.00     0.017 C 
ATOM     37  C   UNL     1     -18.808 -48.764  47.424  1.00  0.00     0.012 C 
ATOM     38  C   UNL     1     -20.052 -50.973  47.366  1.00  0.00     0.012 C 
ENDBRANCH   9  36
BRANCH   6  39
ATOM     39  C   UNL     1     -24.892 -47.270  49.636  1.00  0.00     0.264 C 
ATOM     40  O   UNL     1     -25.038 -46.040  49.864  1.00  0.00    -0.298 OA
ENDBRANCH   6  39
BRANCH   8  41
ATOM     41  O   UNL     1     -20.467 -49.335  49.921  1.00  0.00    -0.504 OA
ATOM     42  H   UNL     1     -19.969 -48.789  50.613  1.00  0.00     0.293 HD
ENDBRANCH   8  41
BRANCH   7  43
ATOM     43  O   UNL     1     -22.723 -48.359  51.123  1.00  0.00    -0.504 OA
ATOM     44  H   UNL     1     -22.275 -49.064  51.694  1.00  0.00     0.293 HD
ENDBRANCH   7  43
TORSDOF 11
ENDMDL
