MODEL 1
REMARK VINA RESULT:    -4.738      0.000      0.000
REMARK INTER + INTRA:          -8.193
REMARK INTER:                  -6.954
REMARK INTRA:                  -1.239
REMARK UNBOUND:                -1.239
REMARK SMILES Cc1cc2c(C(C)C)c(O)c(O)c(C=O)c2c(O)c1-c1c(C)cc2c(C(C)C)c(O)c(O)c(C=O)c2c1O
REMARK SMILES IDX 1 1 2 2 3 3 4 4 16 5 13 6 11 7 9 8 5 9 17 10 19 11 20 12
REMARK SMILES IDX 37 13 21 14 36 15 23 16 22 17 24 18 33 19 25 20 31 21 29 22
REMARK SMILES IDX 38 23 34 25 35 26 26 27 27 28 28 29 32 30 30 32 18 34 6 36
REMARK SMILES IDX 7 37 8 38 14 39 15 40 10 41 12 43
REMARK H PARENT 38 24 32 31 30 33 18 35 10 42 12 44
REMARK Flexibility Score: inf
ROOT
ATOM      1  C   UNL     1     114.789 106.882 101.911  1.00  0.00     0.045 C 
ATOM      2  C   UNL     1     115.602 107.808 101.038  1.00  0.00    -0.039 A 
ATOM      3  C   UNL     1     116.318 108.853 101.625  1.00  0.00     0.013 A 
ATOM      4  C   UNL     1     117.089 109.750 100.856  1.00  0.00    -0.006 A 
ATOM      5  C   UNL     1     117.016 109.673  99.434  1.00  0.00     0.039 A 
ATOM      6  C   UNL     1     117.617 110.708  98.655  1.00  0.00     0.072 A 
ATOM      7  C   UNL     1     118.263 111.784  99.299  1.00  0.00     0.169 A 
ATOM      8  C   UNL     1     118.412 111.795 100.690  1.00  0.00     0.162 A 
ATOM      9  C   UNL     1     117.908 110.740 101.480  1.00  0.00     0.008 A 
ATOM     10  C   UNL     1     116.354 108.556  98.840  1.00  0.00     0.132 A 
ATOM     11  C   UNL     1     115.649 107.634  99.645  1.00  0.00     0.031 A 
ENDROOT
BRANCH  11  12
ATOM     12  C   UNL     1     114.938 106.486  99.020  1.00  0.00     0.031 A 
ATOM     13  C   UNL     1     115.587 105.241  98.878  1.00  0.00     0.132 A 
ATOM     14  C   UNL     1     113.628 106.657  98.548  1.00  0.00    -0.039 A 
ATOM     15  C   UNL     1     114.908 104.134  98.281  1.00  0.00     0.039 A 
ATOM     16  C   UNL     1     112.965 105.583  97.956  1.00  0.00     0.013 A 
ATOM     17  C   UNL     1     112.930 107.992  98.657  1.00  0.00     0.045 C 
ATOM     18  C   UNL     1     113.553 104.303  97.856  1.00  0.00    -0.006 A 
ATOM     19  C   UNL     1     115.547 102.876  98.057  1.00  0.00     0.072 A 
ATOM     20  C   UNL     1     112.830 103.201  97.304  1.00  0.00     0.008 A 
ATOM     21  C   UNL     1     114.865 101.853  97.368  1.00  0.00     0.169 A 
ATOM     22  C   UNL     1     113.539 102.030  96.963  1.00  0.00     0.162 A 
BRANCH  13  23
ATOM     23  O   UNL     1     116.909 105.111  99.317  1.00  0.00    -0.507 OA
ATOM     24  H   UNL     1     117.444 104.253  99.264  1.00  0.00     0.293 HD
ENDBRANCH  13  23
BRANCH  19  25
ATOM     25  C   UNL     1     116.924 102.606  98.516  1.00  0.00     0.264 C 
ATOM     26  O   UNL     1     117.131 101.924  99.554  1.00  0.00    -0.298 OA
ENDBRANCH  19  25
BRANCH  20  27
ATOM     27  C   UNL     1     111.311 103.271  97.056  1.00  0.00     0.017 C 
ATOM     28  C   UNL     1     111.007 103.367  95.558  1.00  0.00     0.012 C 
ATOM     29  C   UNL     1     110.518 102.126  97.715  1.00  0.00     0.012 C 
ENDBRANCH  20  27
BRANCH  21  30
ATOM     30  O   UNL     1     115.473 100.621  97.094  1.00  0.00    -0.504 OA
ATOM     31  H   UNL     1     114.996  99.831  96.682  1.00  0.00     0.293 HD
ENDBRANCH  21  30
BRANCH  22  32
ATOM     32  O   UNL     1     112.913 101.030  96.216  1.00  0.00    -0.504 OA
ATOM     33  H   UNL     1     112.555 100.175  96.626  1.00  0.00     0.293 HD
ENDBRANCH  22  32
ENDBRANCH  11  12
BRANCH  10  34
ATOM     34  O   UNL     1     116.413 108.348  97.458  1.00  0.00    -0.507 OA
ATOM     35  H   UNL     1     116.780 107.509  97.027  1.00  0.00     0.293 HD
ENDBRANCH  10  34
BRANCH   9  36
ATOM     36  C   UNL     1     118.237 110.686 102.982  1.00  0.00     0.017 C 
ATOM     37  C   UNL     1     119.039 109.427 103.323  1.00  0.00     0.012 C 
ATOM     38  C   UNL     1     117.002 110.826 103.892  1.00  0.00     0.012 C 
ENDBRANCH   9  36
BRANCH   6  39
ATOM     39  C   UNL     1     117.505 110.743  97.182  1.00  0.00     0.264 C 
ATOM     40  O   UNL     1     116.606 111.427  96.624  1.00  0.00    -0.298 OA
ENDBRANCH   6  39
BRANCH   8  41
ATOM     41  O   UNL     1     119.045 112.880 101.301  1.00  0.00    -0.504 OA
ATOM     42  H   UNL     1     119.740 113.449 100.833  1.00  0.00     0.293 HD
ENDBRANCH   8  41
BRANCH   7  43
ATOM     43  O   UNL     1     118.755 112.880  98.579  1.00  0.00    -0.504 OA
ATOM     44  H   UNL     1     119.541 112.835  97.945  1.00  0.00     0.293 HD
ENDBRANCH   7  43
TORSDOF 11
ENDMDL
MODEL 2
REMARK VINA RESULT:    -4.730      1.628      2.275
REMARK INTER + INTRA:          -8.181
REMARK INTER:                  -6.926
REMARK INTRA:                  -1.255
REMARK UNBOUND:                -1.239
REMARK SMILES Cc1cc2c(C(C)C)c(O)c(O)c(C=O)c2c(O)c1-c1c(C)cc2c(C(C)C)c(O)c(O)c(C=O)c2c1O
REMARK SMILES IDX 1 1 2 2 3 3 4 4 16 5 13 6 11 7 9 8 5 9 17 10 19 11 20 12
REMARK SMILES IDX 37 13 21 14 36 15 23 16 22 17 24 18 33 19 25 20 31 21 29 22
REMARK SMILES IDX 38 23 34 25 35 26 26 27 27 28 28 29 32 30 30 32 18 34 6 36
REMARK SMILES IDX 7 37 8 38 14 39 15 40 10 41 12 43
REMARK H PARENT 38 24 32 31 30 33 18 35 10 42 12 44
REMARK Flexibility Score: inf
ROOT
ATOM      1  C   UNL     1     115.024 108.416 102.341  1.00  0.00     0.045 C 
ATOM      2  C   UNL     1     115.829 109.238 101.363  1.00  0.00    -0.039 A 
ATOM      3  C   UNL     1     116.217 110.533 101.710  1.00  0.00     0.013 A 
ATOM      4  C   UNL     1     116.965 111.346 100.833  1.00  0.00    -0.006 A 
ATOM      5  C   UNL     1     117.203 110.884  99.504  1.00  0.00     0.039 A 
ATOM      6  C   UNL     1     117.765 111.785  98.551  1.00  0.00     0.072 A 
ATOM      7  C   UNL     1     118.069 113.109  98.932  1.00  0.00     0.169 A 
ATOM      8  C   UNL     1     117.921 113.518 100.261  1.00  0.00     0.162 A 
ATOM      9  C   UNL     1     117.454 112.623 101.246  1.00  0.00     0.008 A 
ATOM     10  C   UNL     1     116.881 109.530  99.181  1.00  0.00     0.132 A 
ATOM     11  C   UNL     1     116.194 108.719 100.110  1.00  0.00     0.031 A 
ENDROOT
BRANCH  11  12
ATOM     12  C   UNL     1     115.837 107.318  99.759  1.00  0.00     0.031 A 
ATOM     13  C   UNL     1     116.766 106.276  99.961  1.00  0.00     0.132 A 
ATOM     14  C   UNL     1     114.579 107.044  99.198  1.00  0.00    -0.039 A 
ATOM     15  C   UNL     1     116.427 104.928  99.628  1.00  0.00     0.039 A 
ATOM     16  C   UNL     1     114.248 105.732  98.863  1.00  0.00     0.013 A 
ATOM     17  C   UNL     1     113.586 108.150  98.939  1.00  0.00     0.045 C 
ATOM     18  C   UNL     1     115.122 104.651  99.113  1.00  0.00    -0.006 A 
ATOM     19  C   UNL     1     117.359 103.852  99.755  1.00  0.00     0.072 A 
ATOM     20  C   UNL     1     114.734 103.307  98.819  1.00  0.00     0.008 A 
ATOM     21  C   UNL     1     117.007 102.561  99.311  1.00  0.00     0.169 A 
ATOM     22  C   UNL     1     115.726 102.304  98.815  1.00  0.00     0.162 A 
BRANCH  13  23
ATOM     23  O   UNL     1     118.029 106.584 100.479  1.00  0.00    -0.507 OA
ATOM     24  H   UNL     1     118.706 105.892 100.774  1.00  0.00     0.293 HD
ENDBRANCH  13  23
BRANCH  19  25
ATOM     25  C   UNL     1     118.705 104.047 100.329  1.00  0.00     0.264 C 
ATOM     26  O   UNL     1     118.954 103.692 101.512  1.00  0.00    -0.298 OA
ENDBRANCH  19  25
BRANCH  20  27
ATOM     27  C   UNL     1     113.276 102.937  98.492  1.00  0.00     0.017 C 
ATOM     28  C   UNL     1     113.120 102.594  97.008  1.00  0.00     0.012 C 
ATOM     29  C   UNL     1     112.698 101.824  99.387  1.00  0.00     0.012 C 
ENDBRANCH  20  27
BRANCH  21  30
ATOM     30  O   UNL     1     117.908 101.490  99.381  1.00  0.00    -0.504 OA
ATOM     31  H   UNL     1     117.640 100.517  99.330  1.00  0.00     0.293 HD
ENDBRANCH  21  30
BRANCH  22  32
ATOM     32  O   UNL     1     115.431 101.035  98.312  1.00  0.00    -0.504 OA
ATOM     33  H   UNL     1     115.072 100.282  98.888  1.00  0.00     0.293 HD
ENDBRANCH  22  32
ENDBRANCH  11  12
BRANCH  10  34
ATOM     34  O   UNL     1     117.261 108.985  97.949  1.00  0.00    -0.507 OA
ATOM     35  H   UNL     1     116.622 108.817  97.183  1.00  0.00     0.293 HD
ENDBRANCH  10  34
BRANCH   9  36
ATOM     36  C   UNL     1     117.468 113.041 102.727  1.00  0.00     0.017 C 
ATOM     37  C   UNL     1     116.401 114.104 103.006  1.00  0.00     0.012 C 
ATOM     38  C   UNL     1     118.852 113.491 103.231  1.00  0.00     0.012 C 
ENDBRANCH   9  36
BRANCH   6  39
ATOM     39  C   UNL     1     117.958 111.406  97.135  1.00  0.00     0.264 C 
ATOM     40  O   UNL     1     117.054 111.624  96.285  1.00  0.00    -0.298 OA
ENDBRANCH   6  39
BRANCH   8  41
ATOM     41  O   UNL     1     118.218 114.839 100.606  1.00  0.00    -0.504 OA
ATOM     42  H   UNL     1     118.650 115.494  99.965  1.00  0.00     0.293 HD
ENDBRANCH   8  41
BRANCH   7  43
ATOM     43  O   UNL     1     118.504 114.059  97.998  1.00  0.00    -0.504 OA
ATOM     44  H   UNL     1     119.193 114.772  98.194  1.00  0.00     0.293 HD
ENDBRANCH   7  43
TORSDOF 11
ENDMDL
MODEL 3
REMARK VINA RESULT:    -4.691      1.667      9.172
REMARK INTER + INTRA:          -8.125
REMARK INTER:                  -6.826
REMARK INTRA:                  -1.299
REMARK UNBOUND:                -1.239
REMARK SMILES Cc1cc2c(C(C)C)c(O)c(O)c(C=O)c2c(O)c1-c1c(C)cc2c(C(C)C)c(O)c(O)c(C=O)c2c1O
REMARK SMILES IDX 1 1 2 2 3 3 4 4 16 5 13 6 11 7 9 8 5 9 17 10 19 11 20 12
REMARK SMILES IDX 37 13 21 14 36 15 23 16 22 17 24 18 33 19 25 20 31 21 29 22
REMARK SMILES IDX 38 23 34 25 35 26 26 27 27 28 28 29 32 30 30 32 18 34 6 36
REMARK SMILES IDX 7 37 8 38 14 39 15 40 10 41 12 43
REMARK H PARENT 38 24 32 31 30 33 18 35 10 42 12 44
REMARK Flexibility Score: inf
ROOT
ATOM      1  C   UNL     1     113.619 108.045  99.683  1.00  0.00     0.045 C 
ATOM      2  C   UNL     1     114.675 106.967  99.646  1.00  0.00    -0.039 A 
ATOM      3  C   UNL     1     114.309 105.658  99.326  1.00  0.00     0.013 A 
ATOM      4  C   UNL     1     115.254 104.611  99.283  1.00  0.00    -0.006 A 
ATOM      5  C   UNL     1     116.587 104.872  99.721  1.00  0.00     0.039 A 
ATOM      6  C   UNL     1     117.485 103.774  99.886  1.00  0.00     0.072 A 
ATOM      7  C   UNL     1     117.043 102.461  99.623  1.00  0.00     0.169 A 
ATOM      8  C   UNL     1     115.766 102.231  99.102  1.00  0.00     0.162 A 
ATOM      9  C   UNL     1     114.887 103.304  98.841  1.00  0.00     0.008 A 
ATOM     10  C   UNL     1     116.977 106.223  99.965  1.00  0.00     0.132 A 
ATOM     11  C   UNL     1     116.019 107.260  99.930  1.00  0.00     0.031 A 
ENDROOT
BRANCH  11  12
ATOM     12  C   UNL     1     116.425 108.663 100.212  1.00  0.00     0.031 A 
ATOM     13  C   UNL     1     116.851 109.504  99.161  1.00  0.00     0.132 A 
ATOM     14  C   UNL     1     116.409 109.137 101.533  1.00  0.00    -0.039 A 
ATOM     15  C   UNL     1     117.239 110.854  99.425  1.00  0.00     0.039 A 
ATOM     16  C   UNL     1     116.795 110.451 101.797  1.00  0.00     0.013 A 
ATOM     17  C   UNL     1     115.992 108.242 102.675  1.00  0.00     0.045 C 
ATOM     18  C   UNL     1     117.163 111.344 100.767  1.00  0.00    -0.006 A 
ATOM     19  C   UNL     1     117.739 111.719  98.405  1.00  0.00     0.072 A 
ATOM     20  C   UNL     1     117.494 112.704 101.056  1.00  0.00     0.008 A 
ATOM     21  C   UNL     1     118.208 113.006  98.740  1.00  0.00     0.169 A 
ATOM     22  C   UNL     1     118.122 113.474 100.054  1.00  0.00     0.162 A 
BRANCH  13  23
ATOM     23  O   UNL     1     116.901 108.992  97.860  1.00  0.00    -0.507 OA
ATOM     24  H   UNL     1     117.758 108.805  97.356  1.00  0.00     0.293 HD
ENDBRANCH  13  23
BRANCH  19  25
ATOM     25  C   UNL     1     117.797 111.306  96.988  1.00  0.00     0.264 C 
ATOM     26  O   UNL     1     116.867 111.609  96.194  1.00  0.00    -0.298 OA
ENDBRANCH  19  25
BRANCH  20  27
ATOM     27  C   UNL     1     117.201 113.336 102.429  1.00  0.00     0.017 C 
ATOM     28  C   UNL     1     118.497 113.553 103.217  1.00  0.00     0.012 C 
ATOM     29  C   UNL     1     116.368 114.630 102.356  1.00  0.00     0.012 C 
ENDBRANCH  20  27
BRANCH  21  30
ATOM     30  O   UNL     1     118.743 113.867  97.773  1.00  0.00    -0.504 OA
ATOM     31  H   UNL     1     118.640 113.735  96.776  1.00  0.00     0.293 HD
ENDBRANCH  21  30
BRANCH  22  32
ATOM     32  O   UNL     1     118.664 114.721 100.371  1.00  0.00    -0.504 OA
ATOM     33  H   UNL     1     118.213 115.597 100.133  1.00  0.00     0.293 HD
ENDBRANCH  22  32
ENDBRANCH  11  12
BRANCH  10  34
ATOM     34  O   UNL     1     118.316 106.540 100.220  1.00  0.00    -0.507 OA
ATOM     35  H   UNL     1     118.751 107.415  99.957  1.00  0.00     0.293 HD
ENDBRANCH  10  34
BRANCH   9  36
ATOM     36  C   UNL     1     113.560 103.044  98.106  1.00  0.00     0.017 C 
ATOM     37  C   UNL     1     112.600 102.231  98.980  1.00  0.00     0.012 C 
ATOM     38  C   UNL     1     113.737 102.398  96.719  1.00  0.00     0.012 C 
ENDBRANCH   9  36
BRANCH   6  39
ATOM     39  C   UNL     1     118.852 103.956 100.420  1.00  0.00     0.264 C 
ATOM     40  O   UNL     1     119.089 103.780 101.644  1.00  0.00    -0.298 OA
ENDBRANCH   6  39
BRANCH   8  41
ATOM     41  O   UNL     1     115.351 100.919  98.862  1.00  0.00    -0.504 OA
ATOM     42  H   UNL     1     114.636 100.456  99.411  1.00  0.00     0.293 HD
ENDBRANCH   8  41
BRANCH   7  43
ATOM     43  O   UNL     1     117.851 101.348  99.890  1.00  0.00    -0.504 OA
ATOM     44  H   UNL     1     117.830 100.827 100.756  1.00  0.00     0.293 HD
ENDBRANCH   7  43
TORSDOF 11
ENDMDL
MODEL 4
REMARK VINA RESULT:    -4.635     11.110     13.875
REMARK INTER + INTRA:          -8.042
REMARK INTER:                  -6.775
REMARK INTRA:                  -1.267
REMARK UNBOUND:                -1.239
REMARK SMILES Cc1cc2c(C(C)C)c(O)c(O)c(C=O)c2c(O)c1-c1c(C)cc2c(C(C)C)c(O)c(O)c(C=O)c2c1O
REMARK SMILES IDX 1 1 2 2 3 3 4 4 16 5 13 6 11 7 9 8 5 9 17 10 19 11 20 12
REMARK SMILES IDX 37 13 21 14 36 15 23 16 22 17 24 18 33 19 25 20 31 21 29 22
REMARK SMILES IDX 38 23 34 25 35 26 26 27 27 28 28 29 32 30 30 32 18 34 6 36
REMARK SMILES IDX 7 37 8 38 14 39 15 40 10 41 12 43
REMARK H PARENT 38 24 32 31 30 33 18 35 10 42 12 44
REMARK Flexibility Score: inf
ROOT
ATOM      1  C   UNL     1     107.192 112.664  98.453  1.00  0.00     0.045 C 
ATOM      2  C   UNL     1     107.891 113.986  98.247  1.00  0.00    -0.039 A 
ATOM      3  C   UNL     1     109.070 114.031  97.500  1.00  0.00     0.013 A 
ATOM      4  C   UNL     1     109.767 115.238  97.281  1.00  0.00    -0.006 A 
ATOM      5  C   UNL     1     109.333 116.414  97.963  1.00  0.00     0.039 A 
ATOM      6  C   UNL     1     110.156 117.580  97.919  1.00  0.00     0.072 A 
ATOM      7  C   UNL     1     111.378 117.549  97.213  1.00  0.00     0.169 A 
ATOM      8  C   UNL     1     111.741 116.422  96.469  1.00  0.00     0.162 A 
ATOM      9  C   UNL     1     110.904 115.287  96.419  1.00  0.00     0.008 A 
ATOM     10  C   UNL     1     108.085 116.385  98.656  1.00  0.00     0.132 A 
ATOM     11  C   UNL     1     107.375 115.172  98.796  1.00  0.00     0.031 A 
ENDROOT
BRANCH  11  12
ATOM     12  C   UNL     1     106.088 115.141  99.541  1.00  0.00     0.031 A 
ATOM     13  C   UNL     1     104.863 115.241  98.847  1.00  0.00     0.132 A 
ATOM     14  C   UNL     1     106.100 115.040 100.941  1.00  0.00    -0.039 A 
ATOM     15  C   UNL     1     103.623 115.209  99.558  1.00  0.00     0.039 A 
ATOM     16  C   UNL     1     104.893 115.017 101.639  1.00  0.00     0.013 A 
ATOM     17  C   UNL     1     107.401 114.970 101.704  1.00  0.00     0.045 C 
ATOM     18  C   UNL     1     103.645 115.047 100.978  1.00  0.00    -0.006 A 
ATOM     19  C   UNL     1     102.363 115.372  98.904  1.00  0.00     0.072 A 
ATOM     20  C   UNL     1     102.422 114.958 101.712  1.00  0.00     0.008 A 
ATOM     21  C   UNL     1     101.179 115.440  99.665  1.00  0.00     0.169 A 
ATOM     22  C   UNL     1     101.215 115.274 101.053  1.00  0.00     0.162 A 
BRANCH  13  23
ATOM     23  O   UNL     1     104.881 115.387  97.456  1.00  0.00    -0.507 OA
ATOM     24  H   UNL     1     104.497 114.710  96.808  1.00  0.00     0.293 HD
ENDBRANCH  13  23
BRANCH  19  25
ATOM     25  C   UNL     1     102.253 115.491  97.436  1.00  0.00     0.264 C 
ATOM     26  O   UNL     1     101.876 114.510  96.742  1.00  0.00    -0.298 OA
ENDBRANCH  19  25
BRANCH  20  27
ATOM     27  C   UNL     1     102.394 114.548 103.196  1.00  0.00     0.017 C 
ATOM     28  C   UNL     1     102.047 115.745 104.086  1.00  0.00     0.012 C 
ATOM     29  C   UNL     1     101.477 113.346 103.494  1.00  0.00     0.012 C 
ENDBRANCH  20  27
BRANCH  21  30
ATOM     30  O   UNL     1      99.930 115.641  99.063  1.00  0.00    -0.504 OA
ATOM     31  H   UNL     1      99.127 115.044  99.207  1.00  0.00     0.293 HD
ENDBRANCH  21  30
BRANCH  22  32
ATOM     32  O   UNL     1     100.037 115.422 101.789  1.00  0.00    -0.504 OA
ATOM     33  H   UNL     1      99.840 116.237 102.358  1.00  0.00     0.293 HD
ENDBRANCH  22  32
ENDBRANCH  11  12
BRANCH  10  34
ATOM     34  O   UNL     1     107.539 117.560  99.184  1.00  0.00    -0.507 OA
ATOM     35  H   UNL     1     107.901 118.486  98.997  1.00  0.00     0.293 HD
ENDBRANCH  10  34
BRANCH   9  36
ATOM     36  C   UNL     1     111.238 114.133  95.457  1.00  0.00     0.017 C 
ATOM     37  C   UNL     1     112.524 113.418  95.885  1.00  0.00     0.012 C 
ATOM     38  C   UNL     1     111.300 114.558  93.978  1.00  0.00     0.012 C 
ENDBRANCH   9  36
BRANCH   6  39
ATOM     39  C   UNL     1     109.818 118.805  98.673  1.00  0.00     0.264 C 
ATOM     40  O   UNL     1     110.376 119.053  99.775  1.00  0.00    -0.298 OA
ENDBRANCH   6  39
BRANCH   8  41
ATOM     41  O   UNL     1     112.962 116.417  95.790  1.00  0.00    -0.504 OA
ATOM     42  H   UNL     1     113.055 116.686  94.818  1.00  0.00     0.293 HD
ENDBRANCH   8  41
BRANCH   7  43
ATOM     43  O   UNL     1     112.271 118.627  97.248  1.00  0.00    -0.504 OA
ATOM     44  H   UNL     1     112.834 118.871  98.051  1.00  0.00     0.293 HD
ENDBRANCH   7  43
TORSDOF 11
ENDMDL
MODEL 5
REMARK VINA RESULT:    -4.615     11.168     14.641
REMARK INTER + INTRA:          -8.013
REMARK INTER:                  -6.776
REMARK INTRA:                  -1.237
REMARK UNBOUND:                -1.239
REMARK SMILES Cc1cc2c(C(C)C)c(O)c(O)c(C=O)c2c(O)c1-c1c(C)cc2c(C(C)C)c(O)c(O)c(C=O)c2c1O
REMARK SMILES IDX 1 1 2 2 3 3 4 4 16 5 13 6 11 7 9 8 5 9 17 10 19 11 20 12
REMARK SMILES IDX 37 13 21 14 36 15 23 16 22 17 24 18 33 19 25 20 31 21 29 22
REMARK SMILES IDX 38 23 34 25 35 26 26 27 27 28 28 29 32 30 30 32 18 34 6 36
REMARK SMILES IDX 7 37 8 38 14 39 15 40 10 41 12 43
REMARK H PARENT 38 24 32 31 30 33 18 35 10 42 12 44
REMARK Flexibility Score: inf
ROOT
ATOM      1  C   UNL     1     106.967 114.540 101.704  1.00  0.00     0.045 C 
ATOM      2  C   UNL     1     105.735 114.864 100.894  1.00  0.00    -0.039 A 
ATOM      3  C   UNL     1     104.495 114.937 101.530  1.00  0.00     0.013 A 
ATOM      4  C   UNL     1     103.310 115.231 100.821  1.00  0.00    -0.006 A 
ATOM      5  C   UNL     1     103.365 115.310  99.398  1.00  0.00     0.039 A 
ATOM      6  C   UNL     1     102.143 115.389  98.664  1.00  0.00     0.072 A 
ATOM      7  C   UNL     1     100.911 115.382  99.352  1.00  0.00     0.169 A 
ATOM      8  C   UNL     1     100.876 115.403 100.750  1.00  0.00     0.162 A 
ATOM      9  C   UNL     1     102.069 115.418 101.503  1.00  0.00     0.008 A 
ATOM     10  C   UNL     1     104.643 115.320  98.760  1.00  0.00     0.132 A 
ATOM     11  C   UNL     1     105.817 115.093  99.510  1.00  0.00     0.031 A 
ENDROOT
BRANCH  11  12
ATOM     12  C   UNL     1     107.143 115.077  98.837  1.00  0.00     0.031 A 
ATOM     13  C   UNL     1     107.923 116.252  98.776  1.00  0.00     0.132 A 
ATOM     14  C   UNL     1     107.602 113.894  98.238  1.00  0.00    -0.039 A 
ATOM     15  C   UNL     1     109.200 116.242  98.133  1.00  0.00     0.039 A 
ATOM     16  C   UNL     1     108.843 113.881  97.602  1.00  0.00     0.013 A 
ATOM     17  C   UNL     1     106.766 112.637  98.261  1.00  0.00     0.045 C 
ATOM     18  C   UNL     1     109.683 115.016  97.578  1.00  0.00    -0.006 A 
ATOM     19  C   UNL     1     109.992 117.421  97.990  1.00  0.00     0.072 A 
ATOM     20  C   UNL     1     110.977 114.960  96.975  1.00  0.00     0.008 A 
ATOM     21  C   UNL     1     111.194 117.377  97.253  1.00  0.00     0.169 A 
ATOM     22  C   UNL     1     111.657 116.170  96.721  1.00  0.00     0.162 A 
BRANCH  13  23
ATOM     23  O   UNL     1     107.421 117.429  99.341  1.00  0.00    -0.507 OA
ATOM     24  H   UNL     1     106.477 117.535  99.689  1.00  0.00     0.293 HD
ENDBRANCH  13  23
BRANCH  19  25
ATOM     25  C   UNL     1     109.588 118.712  98.582  1.00  0.00     0.264 C 
ATOM     26  O   UNL     1     110.125 119.125  99.644  1.00  0.00    -0.298 OA
ENDBRANCH  19  25
BRANCH  20  27
ATOM     27  C   UNL     1     111.632 113.623  96.581  1.00  0.00     0.017 C 
ATOM     28  C   UNL     1     111.699 113.475  95.058  1.00  0.00     0.012 C 
ATOM     29  C   UNL     1     113.012 113.389  97.227  1.00  0.00     0.012 C 
ENDBRANCH  20  27
BRANCH  21  30
ATOM     30  O   UNL     1     111.977 118.521  97.057  1.00  0.00    -0.504 OA
ATOM     31  H   UNL     1     112.505 118.712  96.216  1.00  0.00     0.293 HD
ENDBRANCH  21  30
BRANCH  22  32
ATOM     32  O   UNL     1     112.809 116.170  95.931  1.00  0.00    -0.504 OA
ATOM     33  H   UNL     1     112.939 115.545  95.144  1.00  0.00     0.293 HD
ENDBRANCH  22  32
ENDBRANCH  11  12
BRANCH  10  34
ATOM     34  O   UNL     1     104.748 115.575  97.388  1.00  0.00    -0.507 OA
ATOM     35  H   UNL     1     104.228 116.295  96.905  1.00  0.00     0.293 HD
ENDBRANCH  10  34
BRANCH   9  36
ATOM     36  C   UNL     1     102.008 115.619 103.027  1.00  0.00     0.017 C 
ATOM     37  C   UNL     1     102.774 116.878 103.445  1.00  0.00     0.012 C 
ATOM     38  C   UNL     1     102.469 114.389 103.833  1.00  0.00     0.012 C 
ENDBRANCH   9  36
BRANCH   6  39
ATOM     39  C   UNL     1     102.116 115.384  97.187  1.00  0.00     0.264 C 
ATOM     40  O   UNL     1     101.937 114.310  96.553  1.00  0.00    -0.298 OA
ENDBRANCH   6  39
BRANCH   8  41
ATOM     41  O   UNL     1      99.642 115.383 101.403  1.00  0.00    -0.504 OA
ATOM     42  H   UNL     1      98.761 115.530 100.925  1.00  0.00     0.293 HD
ENDBRANCH   8  41
BRANCH   7  43
ATOM     43  O   UNL     1      99.690 115.333  98.667  1.00  0.00    -0.504 OA
ATOM     44  H   UNL     1      99.601 115.134  97.680  1.00  0.00     0.293 HD
ENDBRANCH   7  43
TORSDOF 11
ENDMDL
MODEL 6
REMARK VINA RESULT:    -4.603      0.756      9.193
REMARK INTER + INTRA:          -7.996
REMARK INTER:                  -6.700
REMARK INTRA:                  -1.296
REMARK UNBOUND:                -1.239
REMARK SMILES Cc1cc2c(C(C)C)c(O)c(O)c(C=O)c2c(O)c1-c1c(C)cc2c(C(C)C)c(O)c(O)c(C=O)c2c1O
REMARK SMILES IDX 1 1 2 2 3 3 4 4 16 5 13 6 11 7 9 8 5 9 17 10 19 11 20 12
REMARK SMILES IDX 37 13 21 14 36 15 23 16 22 17 24 18 33 19 25 20 31 21 29 22
REMARK SMILES IDX 38 23 34 25 35 26 26 27 27 28 28 29 32 30 30 32 18 34 6 36
REMARK SMILES IDX 7 37 8 38 14 39 15 40 10 41 12 43
REMARK H PARENT 38 24 32 31 30 33 18 35 10 42 12 44
REMARK Flexibility Score: inf
ROOT
ATOM      1  C   UNL     1     112.783 107.990  98.296  1.00  0.00     0.045 C 
ATOM      2  C   UNL     1     113.544 106.695  98.146  1.00  0.00    -0.039 A 
ATOM      3  C   UNL     1     112.987 105.654  97.402  1.00  0.00     0.013 A 
ATOM      4  C   UNL     1     113.652 104.421  97.234  1.00  0.00    -0.006 A 
ATOM      5  C   UNL     1     114.855 104.185  97.964  1.00  0.00     0.039 A 
ATOM      6  C   UNL     1     115.413 102.870  97.969  1.00  0.00     0.072 A 
ATOM      7  C   UNL     1     114.768 101.833  97.263  1.00  0.00     0.169 A 
ATOM      8  C   UNL     1     113.645 102.101  96.472  1.00  0.00     0.162 A 
ATOM      9  C   UNL     1     113.125 103.409  96.375  1.00  0.00     0.008 A 
ATOM     10  C   UNL     1     115.464 105.277  98.654  1.00  0.00     0.132 A 
ATOM     11  C   UNL     1     114.803 106.522  98.743  1.00  0.00     0.031 A 
ENDROOT
BRANCH  11  12
ATOM     12  C   UNL     1     115.430 107.648  99.486  1.00  0.00     0.031 A 
ATOM     13  C   UNL     1     116.187 108.620  98.797  1.00  0.00     0.132 A 
ATOM     14  C   UNL     1     115.285 107.725 100.880  1.00  0.00    -0.039 A 
ATOM     15  C   UNL     1     116.789 109.706  99.505  1.00  0.00     0.039 A 
ATOM     16  C   UNL     1     115.878 108.778 101.576  1.00  0.00     0.013 A 
ATOM     17  C   UNL     1     114.510 106.675 101.639  1.00  0.00     0.045 C 
ATOM     18  C   UNL     1     116.586 109.806 100.917  1.00  0.00    -0.006 A 
ATOM     19  C   UNL     1     117.617 110.674  98.859  1.00  0.00     0.072 A 
ATOM     20  C   UNL     1     117.130 110.909 101.645  1.00  0.00     0.008 A 
ATOM     21  C   UNL     1     118.272 111.662  99.622  1.00  0.00     0.169 A 
ATOM     22  C   UNL     1     118.060 111.751 101.001  1.00  0.00     0.162 A 
BRANCH  13  23
ATOM     23  O   UNL     1     116.353 108.494  97.413  1.00  0.00    -0.507 OA
ATOM     24  H   UNL     1     115.590 108.384  96.757  1.00  0.00     0.293 HD
ENDBRANCH  13  23
BRANCH  19  25
ATOM     25  C   UNL     1     117.830 110.670  97.398  1.00  0.00     0.264 C 
ATOM     26  O   UNL     1     117.232 111.499  96.662  1.00  0.00    -0.298 OA
ENDBRANCH  19  25
BRANCH  20  27
ATOM     27  C   UNL     1     116.742 111.184 103.110  1.00  0.00     0.017 C 
ATOM     28  C   UNL     1     117.891 110.822 104.056  1.00  0.00     0.012 C 
ATOM     29  C   UNL     1     116.239 112.618 103.364  1.00  0.00     0.012 C 
ENDBRANCH  20  27
BRANCH  21  30
ATOM     30  O   UNL     1     119.125 112.602  99.029  1.00  0.00    -0.504 OA
ATOM     31  H   UNL     1     120.131 112.591  99.117  1.00  0.00     0.293 HD
ENDBRANCH  21  30
BRANCH  22  32
ATOM     32  O   UNL     1     118.780 112.690 101.743  1.00  0.00    -0.504 OA
ATOM     33  H   UNL     1     119.739 112.545 102.036  1.00  0.00     0.293 HD
ENDBRANCH  22  32
ENDBRANCH  11  12
BRANCH  10  34
ATOM     34  O   UNL     1     116.731 105.134  99.231  1.00  0.00    -0.507 OA
ATOM     35  H   UNL     1     117.002 105.550 100.112  1.00  0.00     0.293 HD
ENDBRANCH  10  34
BRANCH   9  36
ATOM     36  C   UNL     1     112.003 103.711  95.366  1.00  0.00     0.017 C 
ATOM     37  C   UNL     1     110.708 102.989  95.753  1.00  0.00     0.012 C 
ATOM     38  C   UNL     1     112.390 103.421  93.903  1.00  0.00     0.012 C 
ENDBRANCH   9  36
BRANCH   6  39
ATOM     39  C   UNL     1     116.604 102.530  98.773  1.00  0.00     0.264 C 
ATOM     40  O   UNL     1     117.723 102.356  98.219  1.00  0.00    -0.298 OA
ENDBRANCH   6  39
BRANCH   8  41
ATOM     41  O   UNL     1     113.021 101.051  95.794  1.00  0.00    -0.504 OA
ATOM     42  H   UNL     1     112.792 101.089  94.808  1.00  0.00     0.293 HD
ENDBRANCH   8  41
BRANCH   7  43
ATOM     43  O   UNL     1     115.211 100.507  97.343  1.00  0.00    -0.504 OA
ATOM     44  H   UNL     1     114.966  99.871  98.089  1.00  0.00     0.293 HD
ENDBRANCH   7  43
TORSDOF 11
ENDMDL
MODEL 7
REMARK VINA RESULT:    -4.263     10.597     13.292
REMARK INTER + INTRA:          -7.497
REMARK INTER:                  -6.230
REMARK INTRA:                  -1.267
REMARK UNBOUND:                -1.239
REMARK SMILES Cc1cc2c(C(C)C)c(O)c(O)c(C=O)c2c(O)c1-c1c(C)cc2c(C(C)C)c(O)c(O)c(C=O)c2c1O
REMARK SMILES IDX 1 1 2 2 3 3 4 4 16 5 13 6 11 7 9 8 5 9 17 10 19 11 20 12
REMARK SMILES IDX 37 13 21 14 36 15 23 16 22 17 24 18 33 19 25 20 31 21 29 22
REMARK SMILES IDX 38 23 34 25 35 26 26 27 27 28 28 29 32 30 30 32 18 34 6 36
REMARK SMILES IDX 7 37 8 38 14 39 15 40 10 41 12 43
REMARK H PARENT 38 24 32 31 30 33 18 35 10 42 12 44
REMARK Flexibility Score: inf
ROOT
ATOM      1  C   UNL     1     106.732 111.671  99.026  1.00  0.00     0.045 C 
ATOM      2  C   UNL     1     107.634 112.846  98.737  1.00  0.00    -0.039 A 
ATOM      3  C   UNL     1     108.980 112.623  98.441  1.00  0.00     0.013 A 
ATOM      4  C   UNL     1     109.867 113.686  98.168  1.00  0.00    -0.006 A 
ATOM      5  C   UNL     1     109.409 115.026  98.343  1.00  0.00     0.039 A 
ATOM      6  C   UNL     1     110.356 116.092  98.281  1.00  0.00     0.072 A 
ATOM      7  C   UNL     1     111.719 115.807  98.056  1.00  0.00     0.169 A 
ATOM      8  C   UNL     1     112.138 114.499  97.789  1.00  0.00     0.162 A 
ATOM      9  C   UNL     1     111.211 113.436  97.753  1.00  0.00     0.008 A 
ATOM     10  C   UNL     1     108.016 115.251  98.562  1.00  0.00     0.132 A 
ATOM     11  C   UNL     1     107.139 114.161  98.761  1.00  0.00     0.031 A 
ENDROOT
BRANCH  11  12
ATOM     12  C   UNL     1     105.694 114.402  99.015  1.00  0.00     0.031 A 
ATOM     13  C   UNL     1     104.774 114.403  97.944  1.00  0.00     0.132 A 
ATOM     14  C   UNL     1     105.253 114.654 100.323  1.00  0.00    -0.039 A 
ATOM     15  C   UNL     1     103.384 114.630  98.182  1.00  0.00     0.039 A 
ATOM     16  C   UNL     1     103.898 114.886 100.560  1.00  0.00     0.013 A 
ATOM     17  C   UNL     1     106.226 114.694 101.477  1.00  0.00     0.045 C 
ATOM     18  C   UNL     1     102.937 114.829  99.526  1.00  0.00    -0.006 A 
ATOM     19  C   UNL     1     102.429 114.706  97.123  1.00  0.00     0.072 A 
ATOM     20  C   UNL     1     101.547 115.007  99.804  1.00  0.00     0.008 A 
ATOM     21  C   UNL     1     101.088 115.039  97.405  1.00  0.00     0.169 A 
ATOM     22  C   UNL     1     100.665 115.225  98.724  1.00  0.00     0.162 A 
BRANCH  13  23
ATOM     23  O   UNL     1     105.248 114.193  96.644  1.00  0.00    -0.507 OA
ATOM     24  H   UNL     1     104.737 113.693  95.927  1.00  0.00     0.293 HD
ENDBRANCH  13  23
BRANCH  19  25
ATOM     25  C   UNL     1     102.801 114.459  95.715  1.00  0.00     0.264 C 
ATOM     26  O   UNL     1     102.491 113.376  95.152  1.00  0.00    -0.298 OA
ENDBRANCH  19  25
BRANCH  20  27
ATOM     27  C   UNL     1     100.998 114.985 101.243  1.00  0.00     0.017 C 
ATOM     28  C   UNL     1     101.213 113.613 101.888  1.00  0.00     0.012 C 
ATOM     29  C   UNL     1     101.545 116.115 102.137  1.00  0.00     0.012 C 
ENDBRANCH  20  27
BRANCH  21  30
ATOM     30  O   UNL     1     100.133 115.163  96.389  1.00  0.00    -0.504 OA
ATOM     31  H   UNL     1     100.191 115.830  95.632  1.00  0.00     0.293 HD
ENDBRANCH  21  30
BRANCH  22  32
ATOM     32  O   UNL     1      99.351 115.629  98.969  1.00  0.00    -0.504 OA
ATOM     33  H   UNL     1      99.116 116.411  99.569  1.00  0.00     0.293 HD
ENDBRANCH  22  32
ENDBRANCH  11  12
BRANCH  10  34
ATOM     34  O   UNL     1     107.498 116.551  98.560  1.00  0.00    -0.507 OA
ATOM     35  H   UNL     1     108.060 117.383  98.679  1.00  0.00     0.293 HD
ENDBRANCH  10  34
BRANCH   9  36
ATOM     36  C   UNL     1     111.665 112.042  97.285  1.00  0.00     0.017 C 
ATOM     37  C   UNL     1     112.528 111.360  98.351  1.00  0.00     0.012 C 
ATOM     38  C   UNL     1     112.369 112.048  95.915  1.00  0.00     0.012 C 
ENDBRANCH   9  36
BRANCH   6  39
ATOM     39  C   UNL     1     109.971 117.495  98.541  1.00  0.00     0.264 C 
ATOM     40  O   UNL     1     109.983 118.345  97.612  1.00  0.00    -0.298 OA
ENDBRANCH   6  39
BRANCH   8  41
ATOM     41  O   UNL     1     113.496 114.246  97.582  1.00  0.00    -0.504 OA
ATOM     42  H   UNL     1     113.955 114.389  96.691  1.00  0.00     0.293 HD
ENDBRANCH   8  41
BRANCH   7  43
ATOM     43  O   UNL     1     112.696 116.809  98.112  1.00  0.00    -0.504 OA
ATOM     44  H   UNL     1     113.624 116.718  97.722  1.00  0.00     0.293 HD
ENDBRANCH   7  43
TORSDOF 11
ENDMDL
MODEL 8
REMARK VINA RESULT:    -4.260     12.684     16.630
REMARK INTER + INTRA:          -7.492
REMARK INTER:                  -6.296
REMARK INTRA:                  -1.196
REMARK UNBOUND:                -1.239
REMARK SMILES Cc1cc2c(C(C)C)c(O)c(O)c(C=O)c2c(O)c1-c1c(C)cc2c(C(C)C)c(O)c(O)c(C=O)c2c1O
REMARK SMILES IDX 1 1 2 2 3 3 4 4 16 5 13 6 11 7 9 8 5 9 17 10 19 11 20 12
REMARK SMILES IDX 37 13 21 14 36 15 23 16 22 17 24 18 33 19 25 20 31 21 29 22
REMARK SMILES IDX 38 23 34 25 35 26 26 27 27 28 28 29 32 30 30 32 18 34 6 36
REMARK SMILES IDX 7 37 8 38 14 39 15 40 10 41 12 43
REMARK H PARENT 38 24 32 31 30 33 18 35 10 42 12 44
REMARK Flexibility Score: inf
ROOT
ATOM      1  C   UNL     1     103.345 109.834 101.106  1.00  0.00     0.045 C 
ATOM      2  C   UNL     1     102.381 108.965 100.336  1.00  0.00    -0.039 A 
ATOM      3  C   UNL     1     101.838 107.833 100.947  1.00  0.00     0.013 A 
ATOM      4  C   UNL     1     100.937 106.983 100.272  1.00  0.00    -0.006 A 
ATOM      5  C   UNL     1     100.690 107.207  98.885  1.00  0.00     0.039 A 
ATOM      6  C   UNL     1      99.955 106.229  98.148  1.00  0.00     0.072 A 
ATOM      7  C   UNL     1      99.495 105.064  98.797  1.00  0.00     0.169 A 
ATOM      8  C   UNL     1      99.660 104.905 100.176  1.00  0.00     0.162 A 
ATOM      9  C   UNL     1     100.301 105.897 100.948  1.00  0.00     0.008 A 
ATOM     10  C   UNL     1     101.177 108.409  98.287  1.00  0.00     0.132 A 
ATOM     11  C   UNL     1     102.021 109.277  99.015  1.00  0.00     0.031 A 
ENDROOT
BRANCH  11  12
ATOM     12  C   UNL     1     102.547 110.514  98.379  1.00  0.00     0.031 A 
ATOM     13  C   UNL     1     101.874 111.743  98.551  1.00  0.00     0.132 A 
ATOM     14  C   UNL     1     103.701 110.448  97.583  1.00  0.00    -0.039 A 
ATOM     15  C   UNL     1     102.377 112.936  97.945  1.00  0.00     0.039 A 
ATOM     16  C   UNL     1     104.190 111.607  96.983  1.00  0.00     0.013 A 
ATOM     17  C   UNL     1     104.413 109.136  97.356  1.00  0.00     0.045 C 
ATOM     18  C   UNL     1     103.586 112.867  97.185  1.00  0.00    -0.006 A 
ATOM     19  C   UNL     1     101.694 114.187  98.039  1.00  0.00     0.072 A 
ATOM     20  C   UNL     1     104.143 114.051  96.611  1.00  0.00     0.008 A 
ATOM     21  C   UNL     1     102.177 115.308  97.333  1.00  0.00     0.169 A 
ATOM     22  C   UNL     1     103.364 115.227  96.598  1.00  0.00     0.162 A 
BRANCH  13  23
ATOM     23  O   UNL     1     100.700 111.773  99.312  1.00  0.00    -0.507 OA
ATOM     24  H   UNL     1      99.781 111.959  98.932  1.00  0.00     0.293 HD
ENDBRANCH  13  23
BRANCH  19  25
ATOM     25  C   UNL     1     100.470 114.352  98.849  1.00  0.00     0.264 C 
ATOM     26  O   UNL     1      99.415 114.802  98.329  1.00  0.00    -0.298 OA
ENDBRANCH  19  25
BRANCH  20  27
ATOM     27  C   UNL     1     105.554 114.067  95.993  1.00  0.00     0.017 C 
ATOM     28  C   UNL     1     105.487 114.346  94.488  1.00  0.00     0.012 C 
ATOM     29  C   UNL     1     106.533 115.026  96.697  1.00  0.00     0.012 C 
ENDBRANCH  20  27
BRANCH  21  30
ATOM     30  O   UNL     1     101.512 116.540  97.367  1.00  0.00    -0.504 OA
ATOM     31  H   UNL     1     101.882 117.397  96.980  1.00  0.00     0.293 HD
ENDBRANCH  21  30
BRANCH  22  32
ATOM     32  O   UNL     1     103.778 116.330  95.847  1.00  0.00    -0.504 OA
ATOM     33  H   UNL     1     103.234 117.181  95.770  1.00  0.00     0.293 HD
ENDBRANCH  22  32
ENDBRANCH  11  12
BRANCH  10  34
ATOM     34  O   UNL     1     100.806 108.753  96.983  1.00  0.00    -0.507 OA
ATOM     35  H   UNL     1     100.501 108.086  96.286  1.00  0.00     0.293 HD
ENDBRANCH  10  34
BRANCH   9  36
ATOM     36  C   UNL     1     100.314 105.782 102.482  1.00  0.00     0.017 C 
ATOM     37  C   UNL     1     101.207 104.624 102.938  1.00  0.00     0.012 C 
ATOM     38  C   UNL     1      98.909 105.686 103.108  1.00  0.00     0.012 C 
ENDBRANCH   9  36
BRANCH   6  39
ATOM     39  C   UNL     1      99.737 106.349  96.692  1.00  0.00     0.264 C 
ATOM     40  O   UNL     1     100.531 105.805  95.878  1.00  0.00    -0.298 OA
ENDBRANCH   6  39
BRANCH   8  41
ATOM     41  O   UNL     1      99.204 103.734 100.788  1.00  0.00    -0.504 OA
ATOM     42  H   UNL     1      99.397 103.505 101.756  1.00  0.00     0.293 HD
ENDBRANCH   8  41
BRANCH   7  43
ATOM     43  O   UNL     1      98.881 104.025  98.086  1.00  0.00    -0.504 OA
ATOM     44  H   UNL     1      98.695 103.108  98.469  1.00  0.00     0.293 HD
ENDBRANCH   7  43
TORSDOF 11
ENDMDL
MODEL 9
REMARK VINA RESULT:    -4.236      1.986      3.678
REMARK INTER + INTRA:          -7.457
REMARK INTER:                  -6.140
REMARK INTRA:                  -1.317
REMARK UNBOUND:                -1.239
REMARK SMILES Cc1cc2c(C(C)C)c(O)c(O)c(C=O)c2c(O)c1-c1c(C)cc2c(C(C)C)c(O)c(O)c(C=O)c2c1O
REMARK SMILES IDX 1 1 2 2 3 3 4 4 16 5 13 6 11 7 9 8 5 9 17 10 19 11 20 12
REMARK SMILES IDX 37 13 21 14 36 15 23 16 22 17 24 18 33 19 25 20 31 21 29 22
REMARK SMILES IDX 38 23 34 25 35 26 26 27 27 28 28 29 32 30 30 32 18 34 6 36
REMARK SMILES IDX 7 37 8 38 14 39 15 40 10 41 12 43
REMARK H PARENT 38 24 32 31 30 33 18 35 10 42 12 44
REMARK Flexibility Score: inf
ROOT
ATOM      1  C   UNL     1     114.461 107.996 102.202  1.00  0.00     0.045 C 
ATOM      2  C   UNL     1     115.308 108.974 101.423  1.00  0.00    -0.039 A 
ATOM      3  C   UNL     1     115.292 110.326 101.772  1.00  0.00     0.013 A 
ATOM      4  C   UNL     1     116.059 111.283 101.074  1.00  0.00    -0.006 A 
ATOM      5  C   UNL     1     116.752 110.879  99.895  1.00  0.00     0.039 A 
ATOM      6  C   UNL     1     117.348 111.880  99.068  1.00  0.00     0.072 A 
ATOM      7  C   UNL     1     117.236 113.240  99.425  1.00  0.00     0.169 A 
ATOM      8  C   UNL     1     116.639 113.613 100.633  1.00  0.00     0.162 A 
ATOM      9  C   UNL     1     116.123 112.640 101.515  1.00  0.00     0.008 A 
ATOM     10  C   UNL     1     116.836 109.486  99.591  1.00  0.00     0.132 A 
ATOM     11  C   UNL     1     116.111 108.545 100.354  1.00  0.00     0.031 A 
ENDROOT
BRANCH  11  12
ATOM     12  C   UNL     1     116.180 107.098 100.017  1.00  0.00     0.031 A 
ATOM     13  C   UNL     1     115.303 106.549  99.056  1.00  0.00     0.132 A 
ATOM     14  C   UNL     1     117.104 106.275 100.680  1.00  0.00    -0.039 A 
ATOM     15  C   UNL     1     115.367 105.160  98.726  1.00  0.00     0.039 A 
ATOM     16  C   UNL     1     117.164 104.918 100.368  1.00  0.00     0.013 A 
ATOM     17  C   UNL     1     118.025 106.836 101.737  1.00  0.00     0.045 C 
ATOM     18  C   UNL     1     116.352 104.343  99.365  1.00  0.00    -0.006 A 
ATOM     19  C   UNL     1     114.457 104.550  97.810  1.00  0.00     0.072 A 
ATOM     20  C   UNL     1     116.476 102.962  99.019  1.00  0.00     0.008 A 
ATOM     21  C   UNL     1     114.496 103.156  97.602  1.00  0.00     0.169 A 
ATOM     22  C   UNL     1     115.468 102.371  98.229  1.00  0.00     0.162 A 
BRANCH  13  23
ATOM     23  O   UNL     1     114.361 107.383  98.444  1.00  0.00    -0.507 OA
ATOM     24  H   UNL     1     114.574 108.293  98.057  1.00  0.00     0.293 HD
ENDBRANCH  13  23
BRANCH  19  25
ATOM     25  C   UNL     1     113.448 105.334  97.070  1.00  0.00     0.264 C 
ATOM     26  O   UNL     1     112.237 105.304  97.413  1.00  0.00    -0.298 OA
ENDBRANCH  19  25
BRANCH  20  27
ATOM     27  C   UNL     1     117.665 102.109  99.500  1.00  0.00     0.017 C 
ATOM     28  C   UNL     1     118.991 102.693  99.003  1.00  0.00     0.012 C 
ATOM     29  C   UNL     1     117.691 101.879 101.023  1.00  0.00     0.012 C 
ENDBRANCH  20  27
BRANCH  21  30
ATOM     30  O   UNL     1     113.593 102.516  96.743  1.00  0.00    -0.504 OA
ATOM     31  H   UNL     1     113.037 101.712  96.999  1.00  0.00     0.293 HD
ENDBRANCH  21  30
BRANCH  22  32
ATOM     32  O   UNL     1     115.435 100.984  98.065  1.00  0.00    -0.504 OA
ATOM     33  H   UNL     1     115.727 100.335  98.787  1.00  0.00     0.293 HD
ENDBRANCH  22  32
ENDBRANCH  11  12
BRANCH  10  34
ATOM     34  O   UNL     1     117.653 109.035  98.548  1.00  0.00    -0.507 OA
ATOM     35  H   UNL     1     117.305 108.597  97.706  1.00  0.00     0.293 HD
ENDBRANCH  10  34
BRANCH   9  36
ATOM     36  C   UNL     1     115.632 113.059 102.912  1.00  0.00     0.017 C 
ATOM     37  C   UNL     1     114.315 113.836 102.820  1.00  0.00     0.012 C 
ATOM     38  C   UNL     1     116.683 113.832 103.731  1.00  0.00     0.012 C 
ENDBRANCH   9  36
BRANCH   6  39
ATOM     39  C   UNL     1     118.004 111.546  97.787  1.00  0.00     0.264 C 
ATOM     40  O   UNL     1     117.373 111.639  96.701  1.00  0.00    -0.298 OA
ENDBRANCH   6  39
BRANCH   8  41
ATOM     41  O   UNL     1     116.533 114.968 100.953  1.00  0.00    -0.504 OA
ATOM     42  H   UNL     1     116.641 115.708 100.270  1.00  0.00     0.293 HD
ENDBRANCH   8  41
BRANCH   7  43
ATOM     43  O   UNL     1     117.697 114.258  98.580  1.00  0.00    -0.504 OA
ATOM     44  H   UNL     1     118.629 114.294  98.191  1.00  0.00     0.293 HD
ENDBRANCH   7  43
TORSDOF 11
ENDMDL
