MODEL 1
REMARK VINA RESULT:    -5.907      0.000      0.000
REMARK INTER + INTRA:          -6.386
REMARK INTER:                  -6.252
REMARK INTRA:                  -0.134
REMARK UNBOUND:                -0.134
REMARK SMILES CC1=CC[C@@H]2[C@H]3[C@H](C(C)C)CC[C@]2(C)[C@@H]13
REMARK SMILES IDX 1 1 2 2 3 3 4 4 5 5 6 6 15 7 13 8 12 9 11 10 7 11 14 12 8 13
REMARK SMILES IDX 9 14 10 15
REMARK H PARENT
REMARK Flexibility Score: inf
ROOT
ATOM      1  C   UNL     1      27.234  23.794  11.856  1.00  0.00     0.039 C 
ATOM      2  C   UNL     1      28.652  24.127  12.209  1.00  0.00    -0.073 C 
ATOM      3  C   UNL     1      29.301  23.476  13.210  1.00  0.00    -0.027 C 
ATOM      4  C   UNL     1      30.755  23.847  13.513  1.00  0.00     0.031 C 
ATOM      5  C   UNL     1      31.231  25.003  12.573  1.00  0.00     0.003 C 
ATOM      6  C   UNL     1      30.123  26.083  12.566  1.00  0.00     0.004 C 
ATOM      7  C   UNL     1      29.427  25.225  11.476  1.00  0.00     0.024 C 
ATOM      8  C   UNL     1      30.844  24.730  11.098  1.00  0.00    -0.022 C 
ATOM      9  C   UNL     1      31.564  25.770  10.184  1.00  0.00     0.008 C 
ATOM     10  C   UNL     1      31.156  27.232  10.510  1.00  0.00     0.005 C 
ATOM     11  C   UNL     1      30.701  27.413  11.990  1.00  0.00    -0.005 C 
ATOM     12  C   UNL     1      31.010  23.297  10.540  1.00  0.00     0.012 C 
ENDROOT
BRANCH  11  13
ATOM     13  C   UNL     1      29.759  28.642  12.172  1.00  0.00    -0.014 C 
ATOM     14  C   UNL     1      30.210  29.893  11.398  1.00  0.00     0.007 C 
ATOM     15  C   UNL     1      28.307  28.295  11.806  1.00  0.00     0.007 C 
ENDBRANCH  11  13
TORSDOF 1
ENDMDL
MODEL 2
REMARK VINA RESULT:    -5.544      1.187      2.811
REMARK INTER + INTRA:          -6.003
REMARK INTER:                  -5.776
REMARK INTRA:                  -0.227
REMARK UNBOUND:                -0.134
REMARK SMILES CC1=CC[C@@H]2[C@H]3[C@H](C(C)C)CC[C@]2(C)[C@@H]13
REMARK SMILES IDX 1 1 2 2 3 3 4 4 5 5 6 6 15 7 13 8 12 9 11 10 7 11 14 12 8 13
REMARK SMILES IDX 9 14 10 15
REMARK H PARENT
REMARK Flexibility Score: inf
ROOT
ATOM      1  C   UNL     1      32.125  24.274  14.139  1.00  0.00     0.039 C 
ATOM      2  C   UNL     1      31.308  24.319  12.883  1.00  0.00    -0.073 C 
ATOM      3  C   UNL     1      31.415  23.351  11.937  1.00  0.00    -0.027 C 
ATOM      4  C   UNL     1      30.542  23.442  10.683  1.00  0.00     0.031 C 
ATOM      5  C   UNL     1      29.664  24.736  10.722  1.00  0.00     0.003 C 
ATOM      6  C   UNL     1      30.584  25.910  11.133  1.00  0.00     0.004 C 
ATOM      7  C   UNL     1      30.334  25.466  12.599  1.00  0.00     0.024 C 
ATOM      8  C   UNL     1      28.977  24.914  12.099  1.00  0.00    -0.022 C 
ATOM      9  C   UNL     1      27.923  26.060  11.995  1.00  0.00     0.008 C 
ATOM     10  C   UNL     1      28.560  27.423  11.612  1.00  0.00     0.005 C 
ATOM     11  C   UNL     1      29.880  27.262  10.797  1.00  0.00    -0.005 C 
ATOM     12  C   UNL     1      28.375  23.671  12.794  1.00  0.00     0.012 C 
ENDROOT
BRANCH  11  13
ATOM     13  C   UNL     1      30.809  28.507  10.926  1.00  0.00    -0.014 C 
ATOM     14  C   UNL     1      31.445  28.949   9.596  1.00  0.00     0.007 C 
ATOM     15  C   UNL     1      30.074  29.691  11.573  1.00  0.00     0.007 C 
ENDBRANCH  11  13
TORSDOF 1
ENDMDL
MODEL 3
REMARK VINA RESULT:    -5.319      1.100      1.383
REMARK INTER + INTRA:          -5.764
REMARK INTER:                  -5.397
REMARK INTRA:                  -0.367
REMARK UNBOUND:                -0.134
REMARK SMILES CC1=CC[C@@H]2[C@H]3[C@H](C(C)C)CC[C@]2(C)[C@@H]13
REMARK SMILES IDX 1 1 2 2 3 3 4 4 5 5 6 6 15 7 13 8 12 9 11 10 7 11 14 12 8 13
REMARK SMILES IDX 9 14 10 15
REMARK H PARENT
REMARK Flexibility Score: inf
ROOT
ATOM      1  C   UNL     1      28.053  23.407  13.001  1.00  0.00     0.039 C 
ATOM      2  C   UNL     1      29.505  23.778  12.978  1.00  0.00    -0.073 C 
ATOM      3  C   UNL     1      30.334  23.447  14.002  1.00  0.00    -0.027 C 
ATOM      4  C   UNL     1      31.812  23.837  13.914  1.00  0.00     0.031 C 
ATOM      5  C   UNL     1      32.090  24.624  12.591  1.00  0.00     0.003 C 
ATOM      6  C   UNL     1      30.979  25.690  12.440  1.00  0.00     0.004 C 
ATOM      7  C   UNL     1      30.116  24.563  11.814  1.00  0.00     0.024 C 
ATOM      8  C   UNL     1      31.452  23.920  11.367  1.00  0.00    -0.022 C 
ATOM      9  C   UNL     1      31.977  24.596  10.063  1.00  0.00     0.008 C 
ATOM     10  C   UNL     1      31.607  26.101   9.980  1.00  0.00     0.005 C 
ATOM     11  C   UNL     1      31.421  26.752  11.385  1.00  0.00    -0.005 C 
ATOM     12  C   UNL     1      31.542  22.380  11.267  1.00  0.00     0.012 C 
ENDROOT
BRANCH  11  13
ATOM     13  C   UNL     1      30.503  28.012  11.335  1.00  0.00    -0.014 C 
ATOM     14  C   UNL     1      29.232  27.823  10.489  1.00  0.00     0.007 C 
ATOM     15  C   UNL     1      30.126  28.487  12.747  1.00  0.00     0.007 C 
ENDBRANCH  11  13
TORSDOF 1
ENDMDL
MODEL 4
REMARK VINA RESULT:    -5.267      2.300      5.448
REMARK INTER + INTRA:          -5.710
REMARK INTER:                  -5.483
REMARK INTRA:                  -0.226
REMARK UNBOUND:                -0.134
REMARK SMILES CC1=CC[C@@H]2[C@H]3[C@H](C(C)C)CC[C@]2(C)[C@@H]13
REMARK SMILES IDX 1 1 2 2 3 3 4 4 5 5 6 6 15 7 13 8 12 9 11 10 7 11 14 12 8 13
REMARK SMILES IDX 9 14 10 15
REMARK H PARENT
REMARK Flexibility Score: inf
ROOT
ATOM      1  C   UNL     1      27.362  24.259  12.501  1.00  0.00     0.039 C 
ATOM      2  C   UNL     1      28.776  23.968  12.094  1.00  0.00    -0.073 C 
ATOM      3  C   UNL     1      29.191  24.145  10.813  1.00  0.00    -0.027 C 
ATOM      4  C   UNL     1      30.652  23.849  10.461  1.00  0.00     0.031 C 
ATOM      5  C   UNL     1      31.422  23.333  11.721  1.00  0.00     0.003 C 
ATOM      6  C   UNL     1      30.538  22.260  12.401  1.00  0.00     0.004 C 
ATOM      7  C   UNL     1      29.807  23.441  13.095  1.00  0.00     0.024 C 
ATOM      8  C   UNL     1      31.140  24.218  12.961  1.00  0.00    -0.022 C 
ATOM      9  C   UNL     1      32.125  23.819  14.103  1.00  0.00     0.008 C 
ATOM     10  C   UNL     1      31.963  22.338  14.541  1.00  0.00     0.005 C 
ATOM     11  C   UNL     1      31.405  21.433  13.400  1.00  0.00    -0.005 C 
ATOM     12  C   UNL     1      31.094  25.753  12.782  1.00  0.00     0.012 C 
ENDROOT
BRANCH  11  13
ATOM     13  C   UNL     1      30.691  20.161  13.951  1.00  0.00    -0.014 C 
ATOM     14  C   UNL     1      31.021  18.875  13.173  1.00  0.00     0.007 C 
ATOM     15  C   UNL     1      30.985  19.956  15.446  1.00  0.00     0.007 C 
ENDBRANCH  11  13
TORSDOF 1
ENDMDL
MODEL 5
REMARK VINA RESULT:    -4.933      2.148      5.527
REMARK INTER + INTRA:          -5.355
REMARK INTER:                  -5.119
REMARK INTRA:                  -0.236
REMARK UNBOUND:                -0.134
REMARK SMILES CC1=CC[C@@H]2[C@H]3[C@H](C(C)C)CC[C@]2(C)[C@@H]13
REMARK SMILES IDX 1 1 2 2 3 3 4 4 5 5 6 6 15 7 13 8 12 9 11 10 7 11 14 12 8 13
REMARK SMILES IDX 9 14 10 15
REMARK H PARENT
REMARK Flexibility Score: inf
ROOT
ATOM      1  C   UNL     1      32.118  23.820   9.473  1.00  0.00     0.039 C 
ATOM      2  C   UNL     1      31.760  24.216  10.874  1.00  0.00    -0.073 C 
ATOM      3  C   UNL     1      32.125  25.423  11.381  1.00  0.00    -0.027 C 
ATOM      4  C   UNL     1      31.714  25.779  12.812  1.00  0.00     0.031 C 
ATOM      5  C   UNL     1      30.934  24.592  13.467  1.00  0.00     0.003 C 
ATOM      6  C   UNL     1      31.723  23.295  13.169  1.00  0.00     0.004 C 
ATOM      7  C   UNL     1      30.987  23.276  11.802  1.00  0.00     0.024 C 
ATOM      8  C   UNL     1      29.844  24.037  12.517  1.00  0.00    -0.022 C 
ATOM      9  C   UNL     1      28.937  23.046  13.310  1.00  0.00     0.008 C 
ATOM     10  C   UNL     1      29.727  21.833  13.872  1.00  0.00     0.005 C 
ATOM     11  C   UNL     1      31.231  22.160  14.121  1.00  0.00    -0.005 C 
ATOM     12  C   UNL     1      28.990  25.036  11.703  1.00  0.00     0.012 C 
ENDROOT
BRANCH  11  13
ATOM     13  C   UNL     1      32.125  20.883  14.094  1.00  0.00    -0.014 C 
ATOM     14  C   UNL     1      32.038  20.035  15.376  1.00  0.00     0.007 C 
ATOM     15  C   UNL     1      31.819  20.009  12.868  1.00  0.00     0.007 C 
ENDBRANCH  11  13
TORSDOF 1
ENDMDL
MODEL 6
REMARK VINA RESULT:    -4.808      1.561      4.696
REMARK INTER + INTRA:          -5.224
REMARK INTER:                  -5.071
REMARK INTRA:                  -0.152
REMARK UNBOUND:                -0.134
REMARK SMILES CC1=CC[C@@H]2[C@H]3[C@H](C(C)C)CC[C@]2(C)[C@@H]13
REMARK SMILES IDX 1 1 2 2 3 3 4 4 5 5 6 6 15 7 13 8 12 9 11 10 7 11 14 12 8 13
REMARK SMILES IDX 9 14 10 15
REMARK H PARENT
REMARK Flexibility Score: inf
ROOT
ATOM      1  C   UNL     1      32.125  27.504  13.366  1.00  0.00     0.039 C 
ATOM      2  C   UNL     1      31.256  26.744  12.410  1.00  0.00    -0.073 C 
ATOM      3  C   UNL     1      30.209  27.340  11.781  1.00  0.00    -0.027 C 
ATOM      4  C   UNL     1      29.368  26.517  10.802  1.00  0.00     0.031 C 
ATOM      5  C   UNL     1      29.890  25.044  10.738  1.00  0.00     0.003 C 
ATOM      6  C   UNL     1      30.107  24.564  12.193  1.00  0.00     0.004 C 
ATOM      7  C   UNL     1      31.492  25.260  12.114  1.00  0.00     0.024 C 
ATOM      8  C   UNL     1      31.431  24.994  10.590  1.00  0.00    -0.022 C 
ATOM      9  C   UNL     1      31.862  23.528  10.271  1.00  0.00     0.008 C 
ATOM     10  C   UNL     1      31.469  22.533  11.396  1.00  0.00     0.005 C 
ATOM     11  C   UNL     1      30.228  23.008  12.212  1.00  0.00    -0.005 C 
ATOM     12  C   UNL     1      32.117  25.993   9.630  1.00  0.00     0.012 C 
ENDROOT
BRANCH  11  13
ATOM     13  C   UNL     1      30.189  22.389  13.642  1.00  0.00    -0.014 C 
ATOM     14  C   UNL     1      30.265  20.853  13.659  1.00  0.00     0.007 C 
ATOM     15  C   UNL     1      31.292  22.977  14.538  1.00  0.00     0.007 C 
ENDBRANCH  11  13
TORSDOF 1
ENDMDL
MODEL 7
REMARK VINA RESULT:    -4.576      1.369      2.896
REMARK INTER + INTRA:          -4.977
REMARK INTER:                  -4.843
REMARK INTRA:                  -0.134
REMARK UNBOUND:                -0.134
REMARK SMILES CC1=CC[C@@H]2[C@H]3[C@H](C(C)C)CC[C@]2(C)[C@@H]13
REMARK SMILES IDX 1 1 2 2 3 3 4 4 5 5 6 6 15 7 13 8 12 9 11 10 7 11 14 12 8 13
REMARK SMILES IDX 9 14 10 15
REMARK H PARENT
REMARK Flexibility Score: inf
ROOT
ATOM      1  C   UNL     1      32.054  23.519   9.519  1.00  0.00     0.039 C 
ATOM      2  C   UNL     1      31.159  24.290  10.442  1.00  0.00    -0.073 C 
ATOM      3  C   UNL     1      29.916  23.840  10.758  1.00  0.00    -0.027 C 
ATOM      4  C   UNL     1      29.055  24.661  11.721  1.00  0.00     0.031 C 
ATOM      5  C   UNL     1      29.809  25.962  12.153  1.00  0.00     0.003 C 
ATOM      6  C   UNL     1      30.400  26.604  10.875  1.00  0.00     0.004 C 
ATOM      7  C   UNL     1      31.592  25.625  11.052  1.00  0.00     0.024 C 
ATOM      8  C   UNL     1      31.270  25.660  12.567  1.00  0.00    -0.022 C 
ATOM      9  C   UNL     1      31.884  26.933  13.229  1.00  0.00     0.008 C 
ATOM     10  C   UNL     1      31.914  28.150  12.266  1.00  0.00     0.005 C 
ATOM     11  C   UNL     1      30.800  28.082  11.177  1.00  0.00    -0.005 C 
ATOM     12  C   UNL     1      31.556  24.402  13.419  1.00  0.00     0.012 C 
ENDROOT
BRANCH  11  13
ATOM     13  C   UNL     1      31.165  28.908   9.906  1.00  0.00    -0.014 C 
ATOM     14  C   UNL     1      31.745  30.300  10.213  1.00  0.00     0.007 C 
ATOM     15  C   UNL     1      32.124  28.133   8.989  1.00  0.00     0.007 C 
ENDBRANCH  11  13
TORSDOF 1
ENDMDL
MODEL 8
REMARK VINA RESULT:    -4.312      1.254      4.784
REMARK INTER + INTRA:          -4.698
REMARK INTER:                  -4.494
REMARK INTRA:                  -0.204
REMARK UNBOUND:                -0.134
REMARK SMILES CC1=CC[C@@H]2[C@H]3[C@H](C(C)C)CC[C@]2(C)[C@@H]13
REMARK SMILES IDX 1 1 2 2 3 3 4 4 5 5 6 6 15 7 13 8 12 9 11 10 7 11 14 12 8 13
REMARK SMILES IDX 9 14 10 15
REMARK H PARENT
REMARK Flexibility Score: inf
ROOT
ATOM      1  C   UNL     1      32.125  27.540   9.047  1.00  0.00     0.039 C 
ATOM      2  C   UNL     1      31.532  27.427  10.419  1.00  0.00    -0.073 C 
ATOM      3  C   UNL     1      31.804  28.347  11.382  1.00  0.00    -0.027 C 
ATOM      4  C   UNL     1      31.154  28.189  12.760  1.00  0.00     0.031 C 
ATOM      5  C   UNL     1      30.276  26.896  12.804  1.00  0.00     0.003 C 
ATOM      6  C   UNL     1      31.106  25.747  12.184  1.00  0.00     0.004 C 
ATOM      7  C   UNL     1      30.614  26.265  10.806  1.00  0.00     0.024 C 
ATOM      8  C   UNL     1      29.364  26.786  11.556  1.00  0.00    -0.022 C 
ATOM      9  C   UNL     1      28.337  25.633  11.779  1.00  0.00     0.008 C 
ATOM     10  C   UNL     1      29.022  24.254  11.978  1.00  0.00     0.005 C 
ATOM     11  C   UNL     1      30.461  24.378  12.565  1.00  0.00    -0.005 C 
ATOM     12  C   UNL     1      28.660  28.061  11.037  1.00  0.00     0.012 C 
ENDROOT
BRANCH  11  13
ATOM     13  C   UNL     1      31.348  23.144  12.218  1.00  0.00    -0.014 C 
ATOM     14  C   UNL     1      30.918  21.848  12.928  1.00  0.00     0.007 C 
ATOM     15  C   UNL     1      31.417  22.911  10.701  1.00  0.00     0.007 C 
ENDBRANCH  11  13
TORSDOF 1
ENDMDL
MODEL 9
REMARK VINA RESULT:    -2.996      1.439      4.439
REMARK INTER + INTRA:          -3.305
REMARK INTER:                  -3.130
REMARK INTRA:                  -0.174
REMARK UNBOUND:                -0.134
REMARK SMILES CC1=CC[C@@H]2[C@H]3[C@H](C(C)C)CC[C@]2(C)[C@@H]13
REMARK SMILES IDX 1 1 2 2 3 3 4 4 5 5 6 6 15 7 13 8 12 9 11 10 7 11 14 12 8 13
REMARK SMILES IDX 9 14 10 15
REMARK H PARENT
REMARK Flexibility Score: inf
ROOT
ATOM      1  C   UNL     1      28.110  27.909  11.740  1.00  0.00     0.039 C 
ATOM      2  C   UNL     1      29.364  27.148  11.431  1.00  0.00    -0.073 C 
ATOM      3  C   UNL     1      29.986  27.272  10.229  1.00  0.00    -0.027 C 
ATOM      4  C   UNL     1      31.274  26.483   9.978  1.00  0.00     0.031 C 
ATOM      5  C   UNL     1      31.626  25.603  11.223  1.00  0.00     0.003 C 
ATOM      6  C   UNL     1      30.330  24.883  11.666  1.00  0.00     0.004 C 
ATOM      7  C   UNL     1      29.988  26.183  12.442  1.00  0.00     0.024 C 
ATOM      8  C   UNL     1      31.517  26.412  12.539  1.00  0.00    -0.022 C 
ATOM      9  C   UNL     1      32.125  25.570  13.703  1.00  0.00     0.008 C 
ATOM     10  C   UNL     1      31.380  24.226  13.920  1.00  0.00     0.005 C 
ATOM     11  C   UNL     1      30.694  23.704  12.621  1.00  0.00    -0.005 C 
ATOM     12  C   UNL     1      32.054  27.862  12.566  1.00  0.00     0.012 C 
ENDROOT
BRANCH  11  13
ATOM     13  C   UNL     1      29.501  22.748  12.926  1.00  0.00    -0.014 C 
ATOM     14  C   UNL     1      29.902  21.476  13.694  1.00  0.00     0.007 C 
ATOM     15  C   UNL     1      28.375  23.478  13.676  1.00  0.00     0.007 C 
ENDBRANCH  11  13
TORSDOF 1
ENDMDL
