MODEL 1
REMARK VINA RESULT:    -4.688      0.000      0.000
REMARK INTER + INTRA:          -5.803
REMARK INTER:                  -5.510
REMARK INTRA:                  -0.293
REMARK UNBOUND:                -0.293
REMARK SMILES O=c1c(O)c(-c2ccc(O)cc2)oc2cc(O)cc(O)c12
REMARK SMILES IDX 5 1 3 2 2 3 1 4 21 5 19 6 18 7 16 8 15 9 14 10 13 11 6 12
REMARK SMILES IDX 7 13 8 14 9 15 12 16 11 17 10 18 4 20 20 22 17 24
REMARK H PARENT 10 19 4 21 20 23 17 25
REMARK Flexibility Score: inf
ROOT
ATOM      1  C   UNL     1      63.589  15.010  46.847  1.00  0.00     0.180 A 
ATOM      2  C   UNL     1      63.864  13.898  47.661  1.00  0.00     0.208 A 
ATOM      3  C   UNL     1      65.199  13.509  47.853  1.00  0.00     0.238 A 
ATOM      4  O   UNL     1      65.436  12.480  48.540  1.00  0.00    -0.285 OA
ATOM      5  C   UNL     1      66.243  14.244  47.244  1.00  0.00     0.111 A 
ATOM      6  C   UNL     1      67.633  13.964  47.402  1.00  0.00     0.134 A 
ATOM      7  C   UNL     1      68.573  14.676  46.648  1.00  0.00     0.093 A 
ATOM      8  C   UNL     1      68.178  15.702  45.790  1.00  0.00     0.123 A 
ATOM      9  C   UNL     1      66.826  16.026  45.671  1.00  0.00     0.094 A 
ATOM     10  C   UNL     1      65.862  15.308  46.384  1.00  0.00     0.146 A 
ATOM     11  O   UNL     1      64.585  15.640  46.236  1.00  0.00    -0.452 OA
ENDROOT
BRANCH   1  12
ATOM     12  C   UNL     1      62.209  15.496  46.616  1.00  0.00     0.021 A 
ATOM     13  C   UNL     1      61.471  14.995  45.530  1.00  0.00     0.016 A 
ATOM     14  C   UNL     1      60.176  15.457  45.280  1.00  0.00     0.047 A 
ATOM     15  C   UNL     1      59.607  16.435  46.102  1.00  0.00     0.115 A 
ATOM     16  C   UNL     1      61.638  16.494  47.427  1.00  0.00     0.016 A 
ATOM     17  C   UNL     1      60.342  16.955  47.174  1.00  0.00     0.047 A 
BRANCH  15  18
ATOM     18  O   UNL     1      58.314  16.884  45.842  1.00  0.00    -0.508 OA
ATOM     19  H   UNL     1      57.571  16.242  45.592  1.00  0.00     0.293 HD
ENDBRANCH  15  18
ENDBRANCH   1  12
BRANCH   2  20
ATOM     20  O   UNL     1      62.818  13.172  48.236  1.00  0.00    -0.502 OA
ATOM     21  H   UNL     1      61.880  13.547  48.326  1.00  0.00     0.293 HD
ENDBRANCH   2  20
BRANCH   6  22
ATOM     22  O   UNL     1      68.141  13.022  48.302  1.00  0.00    -0.507 OA
ATOM     23  H   UNL     1      69.022  12.544  48.197  1.00  0.00     0.293 HD
ENDBRANCH   6  22
BRANCH   8  24
ATOM     24  O   UNL     1      69.141  16.402  45.065  1.00  0.00    -0.508 OA
ATOM     25  H   UNL     1      68.885  17.126  44.405  1.00  0.00     0.293 HD
ENDBRANCH   8  24
TORSDOF 5
ENDMDL
MODEL 2
REMARK VINA RESULT:    -4.524     19.211     20.489
REMARK INTER + INTRA:          -5.611
REMARK INTER:                  -5.324
REMARK INTRA:                  -0.287
REMARK UNBOUND:                -0.293
REMARK SMILES O=c1c(O)c(-c2ccc(O)cc2)oc2cc(O)cc(O)c12
REMARK SMILES IDX 5 1 3 2 2 3 1 4 21 5 19 6 18 7 16 8 15 9 14 10 13 11 6 12
REMARK SMILES IDX 7 13 8 14 9 15 12 16 11 17 10 18 4 20 20 22 17 24
REMARK H PARENT 10 19 4 21 20 23 17 25
REMARK Flexibility Score: inf
ROOT
ATOM      1  C   UNL     1      59.874   2.399  31.264  1.00  0.00     0.180 A 
ATOM      2  C   UNL     1      59.151   3.408  30.606  1.00  0.00     0.208 A 
ATOM      3  C   UNL     1      59.629   4.728  30.650  1.00  0.00     0.238 A 
ATOM      4  O   UNL     1      58.948   5.636  30.104  1.00  0.00    -0.285 OA
ATOM      5  C   UNL     1      60.832   5.019  31.335  1.00  0.00     0.111 A 
ATOM      6  C   UNL     1      61.430   6.312  31.410  1.00  0.00     0.134 A 
ATOM      7  C   UNL     1      62.551   6.510  32.226  1.00  0.00     0.093 A 
ATOM      8  C   UNL     1      63.134   5.448  32.917  1.00  0.00     0.123 A 
ATOM      9  C   UNL     1      62.593   4.167  32.805  1.00  0.00     0.094 A 
ATOM     10  C   UNL     1      61.453   3.946  32.027  1.00  0.00     0.146 A 
ATOM     11  O   UNL     1      60.963   2.714  31.955  1.00  0.00    -0.452 OA
ENDROOT
BRANCH   1  12
ATOM     12  C   UNL     1      59.446   0.981  31.243  1.00  0.00     0.021 A 
ATOM     13  C   UNL     1      58.766   0.447  32.350  1.00  0.00     0.016 A 
ATOM     14  C   UNL     1      58.374  -0.895  32.361  1.00  0.00     0.047 A 
ATOM     15  C   UNL     1      58.669  -1.723  31.273  1.00  0.00     0.115 A 
ATOM     16  C   UNL     1      59.757   0.138  30.160  1.00  0.00     0.016 A 
ATOM     17  C   UNL     1      59.365  -1.204  30.174  1.00  0.00     0.047 A 
BRANCH  15  18
ATOM     18  O   UNL     1      58.270  -3.057  31.297  1.00  0.00    -0.508 OA
ATOM     19  H   UNL     1      57.291  -3.317  31.344  1.00  0.00     0.293 HD
ENDBRANCH  15  18
ENDBRANCH   1  12
BRANCH   2  20
ATOM     20  O   UNL     1      57.954   3.103  29.952  1.00  0.00    -0.502 OA
ATOM     21  H   UNL     1      57.182   2.639  30.417  1.00  0.00     0.293 HD
ENDBRANCH   2  20
BRANCH   6  22
ATOM     22  O   UNL     1      60.983   7.422  30.687  1.00  0.00    -0.507 OA
ATOM     23  H   UNL     1      60.637   8.275  31.098  1.00  0.00     0.293 HD
ENDBRANCH   6  22
BRANCH   8  24
ATOM     24  O   UNL     1      64.258   5.677  33.708  1.00  0.00    -0.508 OA
ATOM     25  H   UNL     1      64.925   4.941  33.907  1.00  0.00     0.293 HD
ENDBRANCH   8  24
TORSDOF 5
ENDMDL
MODEL 3
REMARK VINA RESULT:    -4.497      1.935      3.730
REMARK INTER + INTRA:          -5.578
REMARK INTER:                  -5.303
REMARK INTRA:                  -0.275
REMARK UNBOUND:                -0.293
REMARK SMILES O=c1c(O)c(-c2ccc(O)cc2)oc2cc(O)cc(O)c12
REMARK SMILES IDX 5 1 3 2 2 3 1 4 21 5 19 6 18 7 16 8 15 9 14 10 13 11 6 12
REMARK SMILES IDX 7 13 8 14 9 15 12 16 11 17 10 18 4 20 20 22 17 24
REMARK H PARENT 10 19 4 21 20 23 17 25
REMARK Flexibility Score: inf
ROOT
ATOM      1  C   UNL     1      64.961  14.163  45.960  1.00  0.00     0.180 A 
ATOM      2  C   UNL     1      66.031  15.035  45.697  1.00  0.00     0.208 A 
ATOM      3  C   UNL     1      67.282  14.771  46.277  1.00  0.00     0.238 A 
ATOM      4  O   UNL     1      68.223  15.586  46.081  1.00  0.00    -0.285 OA
ATOM      5  C   UNL     1      67.453  13.632  47.098  1.00  0.00     0.111 A 
ATOM      6  C   UNL     1      68.685  13.246  47.705  1.00  0.00     0.134 A 
ATOM      7  C   UNL     1      68.708  12.173  48.604  1.00  0.00     0.093 A 
ATOM      8  C   UNL     1      67.557  11.432  48.868  1.00  0.00     0.123 A 
ATOM      9  C   UNL     1      66.358  11.763  48.236  1.00  0.00     0.094 A 
ATOM     10  C   UNL     1      66.297  12.851  47.361  1.00  0.00     0.146 A 
ATOM     11  O   UNL     1      65.135  13.140  46.787  1.00  0.00    -0.452 OA
ENDROOT
BRANCH   1  12
ATOM     12  C   UNL     1      63.619  14.361  45.366  1.00  0.00     0.021 A 
ATOM     13  C   UNL     1      62.586  14.899  46.153  1.00  0.00     0.016 A 
ATOM     14  C   UNL     1      61.306  15.073  45.619  1.00  0.00     0.047 A 
ATOM     15  C   UNL     1      61.037  14.698  44.299  1.00  0.00     0.115 A 
ATOM     16  C   UNL     1      63.336  13.967  44.045  1.00  0.00     0.016 A 
ATOM     17  C   UNL     1      62.055  14.141  43.514  1.00  0.00     0.047 A 
BRANCH  15  18
ATOM     18  O   UNL     1      59.757  14.878  43.780  1.00  0.00    -0.508 OA
ATOM     19  H   UNL     1      59.610  15.132  42.809  1.00  0.00     0.293 HD
ENDBRANCH  15  18
ENDBRANCH   1  12
BRANCH   2  20
ATOM     20  O   UNL     1      65.836  16.167  44.901  1.00  0.00    -0.502 OA
ATOM     21  H   UNL     1      65.398  16.121  43.988  1.00  0.00     0.293 HD
ENDBRANCH   2  20
BRANCH   6  22
ATOM     22  O   UNL     1      69.912  13.861  47.438  1.00  0.00    -0.507 OA
ATOM     23  H   UNL     1      70.133  14.359  46.589  1.00  0.00     0.293 HD
ENDBRANCH   6  22
BRANCH   8  24
ATOM     24  O   UNL     1      67.618  10.360  49.757  1.00  0.00    -0.508 OA
ATOM     25  H   UNL     1      67.568   9.401  49.435  1.00  0.00     0.293 HD
ENDBRANCH   8  24
TORSDOF 5
ENDMDL
MODEL 4
REMARK VINA RESULT:    -4.488     20.344     22.403
REMARK INTER + INTRA:          -5.568
REMARK INTER:                  -5.273
REMARK INTRA:                  -0.295
REMARK UNBOUND:                -0.293
REMARK SMILES O=c1c(O)c(-c2ccc(O)cc2)oc2cc(O)cc(O)c12
REMARK SMILES IDX 5 1 3 2 2 3 1 4 21 5 19 6 18 7 16 8 15 9 14 10 13 11 6 12
REMARK SMILES IDX 7 13 8 14 9 15 12 16 11 17 10 18 4 20 20 22 17 24
REMARK H PARENT 10 19 4 21 20 23 17 25
REMARK Flexibility Score: inf
ROOT
ATOM      1  C   UNL     1      72.410  -0.156  33.528  1.00  0.00     0.180 A 
ATOM      2  C   UNL     1      71.279  -0.655  34.196  1.00  0.00     0.208 A 
ATOM      3  C   UNL     1      70.017  -0.123  33.889  1.00  0.00     0.238 A 
ATOM      4  O   UNL     1      69.015  -0.536  34.529  1.00  0.00    -0.285 OA
ATOM      5  C   UNL     1      69.899   0.889  32.907  1.00  0.00     0.111 A 
ATOM      6  C   UNL     1      68.667   1.473  32.488  1.00  0.00     0.134 A 
ATOM      7  C   UNL     1      68.681   2.559  31.604  1.00  0.00     0.093 A 
ATOM      8  C   UNL     1      69.877   3.039  31.074  1.00  0.00     0.123 A 
ATOM      9  C   UNL     1      71.085   2.438  31.430  1.00  0.00     0.094 A 
ATOM     10  C   UNL     1      71.105   1.377  32.338  1.00  0.00     0.146 A 
ATOM     11  O   UNL     1      72.276   0.839  32.660  1.00  0.00    -0.452 OA
ENDROOT
BRANCH   1  12
ATOM     12  C   UNL     1      73.771  -0.684  33.780  1.00  0.00     0.021 A 
ATOM     13  C   UNL     1      74.575  -0.085  34.765  1.00  0.00     0.016 A 
ATOM     14  C   UNL     1      75.870  -0.552  35.003  1.00  0.00     0.047 A 
ATOM     15  C   UNL     1      76.385  -1.613  34.251  1.00  0.00     0.115 A 
ATOM     16  C   UNL     1      74.302  -1.738  33.014  1.00  0.00     0.016 A 
ATOM     17  C   UNL     1      75.599  -2.203  33.253  1.00  0.00     0.047 A 
BRANCH  15  18
ATOM     18  O   UNL     1      77.677  -2.069  34.501  1.00  0.00    -0.508 OA
ATOM     19  H   UNL     1      77.906  -3.056  34.466  1.00  0.00     0.293 HD
ENDBRANCH  15  18
ENDBRANCH   1  12
BRANCH   2  20
ATOM     20  O   UNL     1      71.420  -1.640  35.178  1.00  0.00    -0.502 OA
ATOM     21  H   UNL     1      72.036  -1.530  35.975  1.00  0.00     0.293 HD
ENDBRANCH   2  20
BRANCH   6  22
ATOM     22  O   UNL     1      67.409   1.009  32.885  1.00  0.00    -0.507 OA
ATOM     23  H   UNL     1      66.722   0.608  32.265  1.00  0.00     0.293 HD
ENDBRANCH   6  22
BRANCH   8  24
ATOM     24  O   UNL     1      69.854   4.112  30.184  1.00  0.00    -0.508 OA
ATOM     25  H   UNL     1      69.709   5.062  30.504  1.00  0.00     0.293 HD
ENDBRANCH   8  24
TORSDOF 5
ENDMDL
MODEL 5
REMARK VINA RESULT:    -4.472     18.784     19.637
REMARK INTER + INTRA:          -5.549
REMARK INTER:                  -5.254
REMARK INTRA:                  -0.295
REMARK UNBOUND:                -0.293
REMARK SMILES O=c1c(O)c(-c2ccc(O)cc2)oc2cc(O)cc(O)c12
REMARK SMILES IDX 5 1 3 2 2 3 1 4 21 5 19 6 18 7 16 8 15 9 14 10 13 11 6 12
REMARK SMILES IDX 7 13 8 14 9 15 12 16 11 17 10 18 4 20 20 22 17 24
REMARK H PARENT 10 19 4 21 20 23 17 25
REMARK Flexibility Score: inf
ROOT
ATOM      1  C   UNL     1      65.448  -1.235  36.595  1.00  0.00     0.180 A 
ATOM      2  C   UNL     1      65.282  -0.661  35.324  1.00  0.00     0.208 A 
ATOM      3  C   UNL     1      66.418  -0.404  34.540  1.00  0.00     0.238 A 
ATOM      4  O   UNL     1      66.268   0.161  33.424  1.00  0.00    -0.285 OA
ATOM      5  C   UNL     1      67.703  -0.739  35.029  1.00  0.00     0.111 A 
ATOM      6  C   UNL     1      68.919  -0.559  34.305  1.00  0.00     0.134 A 
ATOM      7  C   UNL     1      70.144  -0.804  34.938  1.00  0.00     0.093 A 
ATOM      8  C   UNL     1      70.194  -1.284  36.246  1.00  0.00     0.123 A 
ATOM      9  C   UNL     1      69.009  -1.519  36.945  1.00  0.00     0.094 A 
ATOM     10  C   UNL     1      67.774  -1.250  36.352  1.00  0.00     0.146 A 
ATOM     11  O   UNL     1      66.670  -1.477  37.053  1.00  0.00    -0.452 OA
ENDROOT
BRANCH   1  12
ATOM     12  C   UNL     1      64.297  -1.558  37.470  1.00  0.00     0.021 A 
ATOM     13  C   UNL     1      63.843  -0.605  38.397  1.00  0.00     0.016 A 
ATOM     14  C   UNL     1      62.773  -0.897  39.247  1.00  0.00     0.047 A 
ATOM     15  C   UNL     1      62.154  -2.150  39.194  1.00  0.00     0.115 A 
ATOM     16  C   UNL     1      63.682  -2.824  37.435  1.00  0.00     0.016 A 
ATOM     17  C   UNL     1      62.613  -3.114  38.289  1.00  0.00     0.047 A 
BRANCH  15  18
ATOM     18  O   UNL     1      61.088  -2.426  40.047  1.00  0.00    -0.508 OA
ATOM     19  H   UNL     1      61.219  -2.945  40.908  1.00  0.00     0.293 HD
ENDBRANCH  15  18
ENDBRANCH   1  12
BRANCH   2  20
ATOM     20  O   UNL     1      64.007  -0.318  34.868  1.00  0.00    -0.502 OA
ATOM     21  H   UNL     1      63.336   0.175  35.446  1.00  0.00     0.293 HD
ENDBRANCH   2  20
BRANCH   6  22
ATOM     22  O   UNL     1      68.978  -0.173  32.962  1.00  0.00    -0.507 OA
ATOM     23  H   UNL     1      69.829   0.018  32.456  1.00  0.00     0.293 HD
ENDBRANCH   6  22
BRANCH   8  24
ATOM     24  O   UNL     1      71.430  -1.531  36.841  1.00  0.00    -0.508 OA
ATOM     25  H   UNL     1      72.007  -0.779  37.197  1.00  0.00     0.293 HD
ENDBRANCH   8  24
TORSDOF 5
ENDMDL
MODEL 6
REMARK VINA RESULT:    -4.441     18.472     19.768
REMARK INTER + INTRA:          -5.513
REMARK INTER:                  -5.212
REMARK INTRA:                  -0.300
REMARK UNBOUND:                -0.293
REMARK SMILES O=c1c(O)c(-c2ccc(O)cc2)oc2cc(O)cc(O)c12
REMARK SMILES IDX 5 1 3 2 2 3 1 4 21 5 19 6 18 7 16 8 15 9 14 10 13 11 6 12
REMARK SMILES IDX 7 13 8 14 9 15 12 16 11 17 10 18 4 20 20 22 17 24
REMARK H PARENT 10 19 4 21 20 23 17 25
REMARK Flexibility Score: inf
ROOT
ATOM      1  C   UNL     1      60.832   3.452  32.084  1.00  0.00     0.180 A 
ATOM      2  C   UNL     1      60.137   2.716  31.109  1.00  0.00     0.208 A 
ATOM      3  C   UNL     1      59.792   1.382  31.380  1.00  0.00     0.238 A 
ATOM      4  O   UNL     1      59.217   0.712  30.482  1.00  0.00    -0.285 OA
ATOM      5  C   UNL     1      60.131   0.806  32.627  1.00  0.00     0.111 A 
ATOM      6  C   UNL     1      59.797  -0.523  33.024  1.00  0.00     0.134 A 
ATOM      7  C   UNL     1      60.297  -1.031  34.229  1.00  0.00     0.093 A 
ATOM      8  C   UNL     1      61.064  -0.238  35.081  1.00  0.00     0.123 A 
ATOM      9  C   UNL     1      61.348   1.083  34.731  1.00  0.00     0.094 A 
ATOM     10  C   UNL     1      60.893   1.606  33.518  1.00  0.00     0.146 A 
ATOM     11  O   UNL     1      61.194   2.864  33.217  1.00  0.00    -0.452 OA
ENDROOT
BRANCH   1  12
ATOM     12  C   UNL     1      61.209   4.870  31.881  1.00  0.00     0.021 A 
ATOM     13  C   UNL     1      62.482   5.182  31.374  1.00  0.00     0.016 A 
ATOM     14  C   UNL     1      62.866   6.514  31.197  1.00  0.00     0.047 A 
ATOM     15  C   UNL     1      61.992   7.550  31.537  1.00  0.00     0.115 A 
ATOM     16  C   UNL     1      60.341   5.918  32.240  1.00  0.00     0.016 A 
ATOM     17  C   UNL     1      60.729   7.249  32.063  1.00  0.00     0.047 A 
BRANCH  15  18
ATOM     18  O   UNL     1      62.388   8.873  31.353  1.00  0.00    -0.508 OA
ATOM     19  H   UNL     1      62.872   9.169  30.513  1.00  0.00     0.293 HD
ENDBRANCH  15  18
ENDBRANCH   1  12
BRANCH   2  20
ATOM     20  O   UNL     1      59.831   3.297  29.875  1.00  0.00    -0.502 OA
ATOM     21  H   UNL     1      59.703   2.750  29.032  1.00  0.00     0.293 HD
ENDBRANCH   2  20
BRANCH   6  22
ATOM     22  O   UNL     1      58.959  -1.369  32.291  1.00  0.00    -0.507 OA
ATOM     23  H   UNL     1      59.027  -1.524  31.297  1.00  0.00     0.293 HD
ENDBRANCH   6  22
BRANCH   8  24
ATOM     24  O   UNL     1      61.533  -0.771  36.280  1.00  0.00    -0.508 OA
ATOM     25  H   UNL     1      61.925  -0.181  37.005  1.00  0.00     0.293 HD
ENDBRANCH   8  24
TORSDOF 5
ENDMDL
MODEL 7
REMARK VINA RESULT:    -4.434     16.991     18.826
REMARK INTER + INTRA:          -5.505
REMARK INTER:                  -5.267
REMARK INTRA:                  -0.238
REMARK UNBOUND:                -0.293
REMARK SMILES O=c1c(O)c(-c2ccc(O)cc2)oc2cc(O)cc(O)c12
REMARK SMILES IDX 5 1 3 2 2 3 1 4 21 5 19 6 18 7 16 8 15 9 14 10 13 11 6 12
REMARK SMILES IDX 7 13 8 14 9 15 12 16 11 17 10 18 4 20 20 22 17 24
REMARK H PARENT 10 19 4 21 20 23 17 25
REMARK Flexibility Score: inf
ROOT
ATOM      1  C   UNL     1      70.227  -1.120  41.168  1.00  0.00     0.180 A 
ATOM      2  C   UNL     1      71.512  -0.576  41.341  1.00  0.00     0.208 A 
ATOM      3  C   UNL     1      72.288  -0.290  40.207  1.00  0.00     0.238 A 
ATOM      4  O   UNL     1      73.458   0.146  40.370  1.00  0.00    -0.285 OA
ATOM      5  C   UNL     1      71.766  -0.536  38.915  1.00  0.00     0.111 A 
ATOM      6  C   UNL     1      72.449  -0.247  37.696  1.00  0.00     0.134 A 
ATOM      7  C   UNL     1      71.891  -0.653  36.477  1.00  0.00     0.093 A 
ATOM      8  C   UNL     1      70.646  -1.278  36.429  1.00  0.00     0.123 A 
ATOM      9  C   UNL     1      69.941  -1.512  37.610  1.00  0.00     0.094 A 
ATOM     10  C   UNL     1      70.489  -1.151  38.844  1.00  0.00     0.146 A 
ATOM     11  O   UNL     1      69.792  -1.401  39.946  1.00  0.00    -0.452 OA
ENDROOT
BRANCH   1  12
ATOM     12  C   UNL     1      69.340  -1.426  42.314  1.00  0.00     0.021 A 
ATOM     13  C   UNL     1      69.086  -2.765  42.654  1.00  0.00     0.016 A 
ATOM     14  C   UNL     1      68.233  -3.075  43.717  1.00  0.00     0.047 A 
ATOM     15  C   UNL     1      67.612  -2.054  44.443  1.00  0.00     0.115 A 
ATOM     16  C   UNL     1      68.697  -0.403  43.036  1.00  0.00     0.016 A 
ATOM     17  C   UNL     1      67.843  -0.717  44.097  1.00  0.00     0.047 A 
BRANCH  15  18
ATOM     18  O   UNL     1      66.766  -2.379  45.501  1.00  0.00    -0.508 OA
ATOM     19  H   UNL     1      65.883  -2.853  45.347  1.00  0.00     0.293 HD
ENDBRANCH  15  18
ENDBRANCH   1  12
BRANCH   2  20
ATOM     20  O   UNL     1      72.017  -0.362  42.626  1.00  0.00    -0.502 OA
ATOM     21  H   UNL     1      71.733   0.425  43.198  1.00  0.00     0.293 HD
ENDBRANCH   2  20
BRANCH   6  22
ATOM     22  O   UNL     1      73.656   0.456  37.625  1.00  0.00    -0.507 OA
ATOM     23  H   UNL     1      73.886   1.260  38.187  1.00  0.00     0.293 HD
ENDBRANCH   6  22
BRANCH   8  24
ATOM     24  O   UNL     1      70.112  -1.655  35.198  1.00  0.00    -0.508 OA
ATOM     25  H   UNL     1      69.319  -1.171  34.794  1.00  0.00     0.293 HD
ENDBRANCH   8  24
TORSDOF 5
ENDMDL
MODEL 8
REMARK VINA RESULT:    -4.385     18.694     20.024
REMARK INTER + INTRA:          -5.447
REMARK INTER:                  -5.202
REMARK INTRA:                  -0.245
REMARK UNBOUND:                -0.293
REMARK SMILES O=c1c(O)c(-c2ccc(O)cc2)oc2cc(O)cc(O)c12
REMARK SMILES IDX 5 1 3 2 2 3 1 4 21 5 19 6 18 7 16 8 15 9 14 10 13 11 6 12
REMARK SMILES IDX 7 13 8 14 9 15 12 16 11 17 10 18 4 20 20 22 17 24
REMARK H PARENT 10 19 4 21 20 23 17 25
REMARK Flexibility Score: inf
ROOT
ATOM      1  C   UNL     1      68.951   1.479  33.694  1.00  0.00     0.180 A 
ATOM      2  C   UNL     1      67.704   0.853  33.534  1.00  0.00     0.208 A 
ATOM      3  C   UNL     1      67.373  -0.229  34.365  1.00  0.00     0.238 A 
ATOM      4  O   UNL     1      66.277  -0.821  34.181  1.00  0.00    -0.285 OA
ATOM      5  C   UNL     1      68.286  -0.660  35.357  1.00  0.00     0.111 A 
ATOM      6  C   UNL     1      68.040  -1.720  36.280  1.00  0.00     0.134 A 
ATOM      7  C   UNL     1      69.065  -2.148  37.132  1.00  0.00     0.093 A 
ATOM      8  C   UNL     1      70.306  -1.513  37.139  1.00  0.00     0.123 A 
ATOM      9  C   UNL     1      70.540  -0.437  36.282  1.00  0.00     0.094 A 
ATOM     10  C   UNL     1      69.547  -0.011  35.395  1.00  0.00     0.146 A 
ATOM     11  O   UNL     1      69.813   1.010  34.588  1.00  0.00    -0.452 OA
ENDROOT
BRANCH   1  12
ATOM     12  C   UNL     1      69.361   2.641  32.872  1.00  0.00     0.021 A 
ATOM     13  C   UNL     1      69.254   3.938  33.404  1.00  0.00     0.016 A 
ATOM     14  C   UNL     1      69.613   5.049  32.637  1.00  0.00     0.047 A 
ATOM     15  C   UNL     1      70.068   4.883  31.325  1.00  0.00     0.115 A 
ATOM     16  C   UNL     1      69.800   2.482  31.545  1.00  0.00     0.016 A 
ATOM     17  C   UNL     1      70.157   3.596  30.779  1.00  0.00     0.047 A 
BRANCH  15  18
ATOM     18  O   UNL     1      70.423   6.000  30.573  1.00  0.00    -0.508 OA
ATOM     19  H   UNL     1      69.878   6.854  30.603  1.00  0.00     0.293 HD
ENDBRANCH  15  18
ENDBRANCH   1  12
BRANCH   2  20
ATOM     20  O   UNL     1      66.825   1.281  32.534  1.00  0.00    -0.502 OA
ATOM     21  H   UNL     1      65.885   0.915  32.443  1.00  0.00     0.293 HD
ENDBRANCH   2  20
BRANCH   6  22
ATOM     22  O   UNL     1      66.805  -2.361  36.421  1.00  0.00    -0.507 OA
ATOM     23  H   UNL     1      66.072  -2.354  35.728  1.00  0.00     0.293 HD
ENDBRANCH   6  22
BRANCH   8  24
ATOM     24  O   UNL     1      71.300  -1.954  38.010  1.00  0.00    -0.508 OA
ATOM     25  H   UNL     1      71.765  -2.844  37.876  1.00  0.00     0.293 HD
ENDBRANCH   8  24
TORSDOF 5
ENDMDL
MODEL 9
REMARK VINA RESULT:    -4.334      1.937      6.750
REMARK INTER + INTRA:          -5.387
REMARK INTER:                  -5.087
REMARK INTRA:                  -0.300
REMARK UNBOUND:                -0.293
REMARK SMILES O=c1c(O)c(-c2ccc(O)cc2)oc2cc(O)cc(O)c12
REMARK SMILES IDX 5 1 3 2 2 3 1 4 21 5 19 6 18 7 16 8 15 9 14 10 13 11 6 12
REMARK SMILES IDX 7 13 8 14 9 15 12 16 11 17 10 18 4 20 20 22 17 24
REMARK H PARENT 10 19 4 21 20 23 17 25
REMARK Flexibility Score: inf
ROOT
ATOM      1  C   UNL     1      65.367  14.846  47.312  1.00  0.00     0.180 A 
ATOM      2  C   UNL     1      64.881  15.637  48.367  1.00  0.00     0.208 A 
ATOM      3  C   UNL     1      63.550  16.080  48.329  1.00  0.00     0.238 A 
ATOM      4  O   UNL     1      63.136  16.833  49.250  1.00  0.00    -0.285 OA
ATOM      5  C   UNL     1      62.716  15.714  47.246  1.00  0.00     0.111 A 
ATOM      6  C   UNL     1      61.341  16.073  47.123  1.00  0.00     0.134 A 
ATOM      7  C   UNL     1      60.648  15.767  45.946  1.00  0.00     0.093 A 
ATOM      8  C   UNL     1      61.261  15.058  44.914  1.00  0.00     0.123 A 
ATOM      9  C   UNL     1      62.589  14.649  45.047  1.00  0.00     0.094 A 
ATOM     10  C   UNL     1      63.316  14.972  46.195  1.00  0.00     0.146 A 
ATOM     11  O   UNL     1      64.580  14.574  46.279  1.00  0.00    -0.452 OA
ENDROOT
BRANCH   1  12
ATOM     12  C   UNL     1      66.752  14.320  47.294  1.00  0.00     0.021 A 
ATOM     13  C   UNL     1      67.757  15.042  46.627  1.00  0.00     0.016 A 
ATOM     14  C   UNL     1      69.065  14.552  46.578  1.00  0.00     0.047 A 
ATOM     15  C   UNL     1      69.383  13.331  47.180  1.00  0.00     0.115 A 
ATOM     16  C   UNL     1      67.074  13.083  47.881  1.00  0.00     0.016 A 
ATOM     17  C   UNL     1      68.384  12.595  47.829  1.00  0.00     0.047 A 
BRANCH  15  18
ATOM     18  O   UNL     1      70.692  12.857  47.124  1.00  0.00    -0.508 OA
ATOM     19  H   UNL     1      71.320  13.123  46.374  1.00  0.00     0.293 HD
ENDBRANCH  15  18
ENDBRANCH   1  12
BRANCH   2  20
ATOM     20  O   UNL     1      65.727  16.005  49.417  1.00  0.00    -0.502 OA
ATOM     21  H   UNL     1      66.290  16.847  49.393  1.00  0.00     0.293 HD
ENDBRANCH   2  20
BRANCH   6  22
ATOM     22  O   UNL     1      60.606  16.702  48.133  1.00  0.00    -0.507 OA
ATOM     23  H   UNL     1      60.614  16.431  49.104  1.00  0.00     0.293 HD
ENDBRANCH   6  22
BRANCH   8  24
ATOM     24  O   UNL     1      60.538  14.757  43.762  1.00  0.00    -0.508 OA
ATOM     25  H   UNL     1      60.218  13.815  43.568  1.00  0.00     0.293 HD
ENDBRANCH   8  24
TORSDOF 5
ENDMDL
