MODEL 1
REMARK VINA RESULT:    -3.610      0.000      0.000
REMARK INTER + INTRA:          -5.739
REMARK INTER:                  -6.247
REMARK INTRA:                   0.508
REMARK UNBOUND:                 0.508
REMARK SMILES OC[C@@H]1O[C@@H](O)[C@H](O)[C@H](O)[C@@H]1O[C@H]1O[C@H](CO)[C@H](O[C@@H]2O[C@H](CO)[C@@H](O)[C@@H](O)[C@@H]2O)[C@H](O)[C@@H]1O
REMARK SMILES IDX 18 1 15 2 14 3 13 4 33 5 31 6 19 7 20 8 22 9 25 10 21 11
REMARK SMILES IDX 27 12 29 13 23 14 24 15 26 17 28 19 30 21 16 23 17 24 32 26
REMARK SMILES IDX 34 28 12 30 11 31 3 32 9 33 4 34 7 35 5 36 2 37 1 38 10 40
REMARK SMILES IDX 8 42 6 44
REMARK H PARENT 24 16 26 18 28 20 30 22 17 25 32 27 34 29 1 39 10 41 8 43 6 45
REMARK Flexibility Score: inf
ROOT
ATOM      1  C   UNL     1      12.401   6.053   3.444  1.00  0.00     0.184 C 
ATOM      2  C   UNL     1      13.755   5.266   3.524  1.00  0.00     0.178 C 
ATOM      3  O   UNL     1      14.731   5.665   2.506  1.00  0.00    -0.341 OA
ATOM      4  C   UNL     1      14.404   6.961   1.978  1.00  0.00     0.282 C 
ATOM      5  C   UNL     1      13.976   7.940   3.105  1.00  0.00     0.202 C 
ATOM      6  C   UNL     1      12.735   7.539   4.040  1.00  0.00     0.180 C 
ENDROOT
BRANCH   1   7
ATOM      7  O   UNL     1      11.746   6.314   2.140  1.00  0.00    -0.341 OA
BRANCH   7   8
ATOM      8  C   UNL     1      10.350   6.720   1.854  1.00  0.00     0.282 C 
ATOM      9  C   UNL     1       8.744   8.346   1.639  1.00  0.00     0.178 C 
ATOM     10  C   UNL     1       7.589   7.620   2.544  1.00  0.00     0.177 C 
ATOM     11  O   UNL     1      10.040   8.086   2.199  1.00  0.00    -0.341 OA
ATOM     12  C   UNL     1       7.937   6.218   3.204  1.00  0.00     0.179 C 
ATOM     13  C   UNL     1       9.015   5.703   2.218  1.00  0.00     0.202 C 
BRANCH   9  14
ATOM     14  C   UNL     1       8.461   9.717   1.053  1.00  0.00     0.191 C 
BRANCH  14  15
ATOM     15  O   UNL     1       7.208   9.669   0.347  1.00  0.00    -0.394 OA
ATOM     16  H   UNL     1       6.449   9.679   1.061  1.00  0.00     0.210 HD
ENDBRANCH  14  15
ENDBRANCH   9  14
BRANCH  10  17
ATOM     17  O   UNL     1       6.275   7.788   2.054  1.00  0.00    -0.387 OA
ATOM     18  H   UNL     1       5.655   8.149   2.823  1.00  0.00     0.211 HD
ENDBRANCH  10  17
BRANCH  12  19
ATOM     19  O   UNL     1       6.738   5.462   3.467  1.00  0.00    -0.387 OA
ATOM     20  H   UNL     1       6.271   5.436   2.570  1.00  0.00     0.211 HD
ENDBRANCH  12  19
BRANCH  13  21
ATOM     21  O   UNL     1       9.360   4.391   2.277  1.00  0.00    -0.385 OA
ATOM     22  H   UNL     1       9.913   4.272   1.431  1.00  0.00     0.211 HD
ENDBRANCH  13  21
ENDBRANCH   7   8
ENDBRANCH   1   7
BRANCH   2  23
ATOM     23  C   UNL     1      13.766   3.732   3.909  1.00  0.00     0.191 C 
BRANCH  23  24
ATOM     24  O   UNL     1      12.498   3.109   3.746  1.00  0.00    -0.394 OA
ATOM     25  H   UNL     1      12.452   2.562   2.828  1.00  0.00     0.210 HD
ENDBRANCH  23  24
ENDBRANCH   2  23
BRANCH   6  26
ATOM     26  O   UNL     1      11.458   8.215   4.066  1.00  0.00    -0.387 OA
ATOM     27  H   UNL     1      11.090   8.217   5.026  1.00  0.00     0.211 HD
ENDBRANCH   6  26
BRANCH   5  28
ATOM     28  O   UNL     1      13.951   9.374   2.786  1.00  0.00    -0.385 OA
ATOM     29  H   UNL     1      14.657   9.552   2.111  1.00  0.00     0.211 HD
ENDBRANCH   5  28
BRANCH   4  30
ATOM     30  O   UNL     1      15.506   7.484   1.131  1.00  0.00    -0.341 OA
BRANCH  30  31
ATOM     31  C   UNL     1      16.107   8.618   1.803  1.00  0.00     0.184 C 
ATOM     32  C   UNL     1      16.696   9.747   0.890  1.00  0.00     0.178 C 
ATOM     33  C   UNL     1      17.157   8.255   2.941  1.00  0.00     0.180 C 
ATOM     34  O   UNL     1      17.954   9.420   0.380  1.00  0.00    -0.342 OA
ATOM     35  C   UNL     1      18.349   9.194   2.928  1.00  0.00     0.201 C 
ATOM     36  C   UNL     1      18.914   9.209   1.475  1.00  0.00     0.279 C 
BRANCH  32  37
ATOM     37  C   UNL     1      15.617  10.125  -0.226  1.00  0.00     0.191 C 
BRANCH  37  38
ATOM     38  O   UNL     1      16.051   9.777  -1.533  1.00  0.00    -0.394 OA
ATOM     39  H   UNL     1      16.935   9.341  -1.410  1.00  0.00     0.210 HD
ENDBRANCH  37  38
ENDBRANCH  32  37
BRANCH  33  40
ATOM     40  O   UNL     1      17.632   6.965   2.656  1.00  0.00    -0.387 OA
ATOM     41  H   UNL     1      17.042   6.503   2.004  1.00  0.00     0.211 HD
ENDBRANCH  33  40
BRANCH  35  42
ATOM     42  O   UNL     1      19.259   8.773   3.934  1.00  0.00    -0.385 OA
ATOM     43  H   UNL     1      20.073   8.395   3.498  1.00  0.00     0.211 HD
ENDBRANCH  35  42
BRANCH  36  44
ATOM     44  O   UNL     1      20.098   9.953   1.312  1.00  0.00    -0.366 OA
ATOM     45  H   UNL     1      20.963   9.446   1.491  1.00  0.00     0.213 HD
ENDBRANCH  36  44
ENDBRANCH  30  31
ENDBRANCH   4  30
TORSDOF 18
ENDMDL
MODEL 2
REMARK VINA RESULT:    -2.962      2.478      8.815
REMARK INTER + INTRA:          -4.619
REMARK INTER:                  -3.347
REMARK INTRA:                  -1.272
REMARK UNBOUND:                 0.508
REMARK SMILES OC[C@@H]1O[C@@H](O)[C@H](O)[C@H](O)[C@@H]1O[C@H]1O[C@H](CO)[C@H](O[C@@H]2O[C@H](CO)[C@@H](O)[C@@H](O)[C@@H]2O)[C@H](O)[C@@H]1O
REMARK SMILES IDX 18 1 15 2 14 3 13 4 33 5 31 6 19 7 20 8 22 9 25 10 21 11
REMARK SMILES IDX 27 12 29 13 23 14 24 15 26 17 28 19 30 21 16 23 17 24 32 26
REMARK SMILES IDX 34 28 12 30 11 31 3 32 9 33 4 34 7 35 5 36 2 37 1 38 10 40
REMARK SMILES IDX 8 42 6 44
REMARK H PARENT 24 16 26 18 28 20 30 22 17 25 32 27 34 29 1 39 10 41 8 43 6 45
REMARK Flexibility Score: inf
ROOT
ATOM      1  C   UNL     1       9.877   8.201   1.601  1.00  0.00     0.184 C 
ATOM      2  C   UNL     1       9.834   6.780   0.937  1.00  0.00     0.178 C 
ATOM      3  O   UNL     1       9.356   5.724   1.832  1.00  0.00    -0.341 OA
ATOM      4  C   UNL     1       8.627   6.291   2.932  1.00  0.00     0.282 C 
ATOM      5  C   UNL     1       7.682   7.428   2.460  1.00  0.00     0.202 C 
ATOM      6  C   UNL     1       8.316   8.681   1.683  1.00  0.00     0.180 C 
ENDROOT
BRANCH   1   7
ATOM      7  O   UNL     1      10.395   8.382   2.978  1.00  0.00    -0.341 OA
BRANCH   7   8
ATOM      8  C   UNL     1      11.753   8.123   3.513  1.00  0.00     0.282 C 
ATOM      9  C   UNL     1      13.954   8.729   3.762  1.00  0.00     0.178 C 
ATOM     10  C   UNL     1      14.614   7.284   3.366  1.00  0.00     0.177 C 
ATOM     11  O   UNL     1      12.785   8.968   2.963  1.00  0.00    -0.341 OA
ATOM     12  C   UNL     1      13.629   6.103   2.968  1.00  0.00     0.179 C 
ATOM     13  C   UNL     1      12.353   6.530   3.736  1.00  0.00     0.202 C 
BRANCH   9  14
ATOM     14  C   UNL     1      14.874   9.892   4.080  1.00  0.00     0.191 C 
BRANCH  14  15
ATOM     15  O   UNL     1      16.072   9.762   3.294  1.00  0.00    -0.394 OA
ATOM     16  H   UNL     1      16.823  10.294   3.782  1.00  0.00     0.210 HD
ENDBRANCH  14  15
ENDBRANCH   9  14
BRANCH  10  17
ATOM     17  O   UNL     1      15.754   6.938   4.125  1.00  0.00    -0.387 OA
ATOM     18  H   UNL     1      16.048   5.956   3.892  1.00  0.00     0.211 HD
ENDBRANCH  10  17
BRANCH  12  19
ATOM     19  O   UNL     1      14.247   4.821   3.194  1.00  0.00    -0.387 OA
ATOM     20  H   UNL     1      14.620   4.573   2.287  1.00  0.00     0.211 HD
ENDBRANCH  12  19
BRANCH  13  21
ATOM     21  O   UNL     1      11.361   5.615   3.885  1.00  0.00    -0.385 OA
ATOM     22  H   UNL     1      10.559   6.095   3.482  1.00  0.00     0.211 HD
ENDBRANCH  13  21
ENDBRANCH   7   8
ENDBRANCH   1   7
BRANCH   2  23
ATOM     23  C   UNL     1      10.957   6.345  -0.089  1.00  0.00     0.191 C 
BRANCH  23  24
ATOM     24  O   UNL     1      12.078   5.736   0.539  1.00  0.00    -0.394 OA
ATOM     25  H   UNL     1      11.920   4.687   0.677  1.00  0.00     0.210 HD
ENDBRANCH  23  24
ENDBRANCH   2  23
BRANCH   6  26
ATOM     26  O   UNL     1       8.378  10.033   2.192  1.00  0.00    -0.387 OA
ATOM     27  H   UNL     1       8.773  10.652   1.473  1.00  0.00     0.211 HD
ENDBRANCH   6  26
BRANCH   5  28
ATOM     28  O   UNL     1       6.627   7.864   3.385  1.00  0.00    -0.385 OA
ATOM     29  H   UNL     1       5.916   7.171   3.392  1.00  0.00     0.211 HD
ENDBRANCH   5  28
BRANCH   4  30
ATOM     30  O   UNL     1       7.933   5.234   3.711  1.00  0.00    -0.341 OA
BRANCH  30  31
ATOM     31  C   UNL     1       7.447   4.225   2.790  1.00  0.00     0.184 C 
ATOM     32  C   UNL     1       6.069   3.564   3.133  1.00  0.00     0.178 C 
ATOM     33  C   UNL     1       8.497   3.094   2.406  1.00  0.00     0.180 C 
ATOM     34  O   UNL     1       6.179   2.574   4.112  1.00  0.00    -0.342 OA
ATOM     35  C   UNL     1       7.845   1.726   2.322  1.00  0.00     0.201 C 
ATOM     36  C   UNL     1       7.071   1.496   3.655  1.00  0.00     0.279 C 
BRANCH  32  37
ATOM     37  C   UNL     1       5.016   4.714   3.483  1.00  0.00     0.191 C 
BRANCH  37  38
ATOM     38  O   UNL     1       3.696   4.210   3.620  1.00  0.00    -0.394 OA
ATOM     39  H   UNL     1       3.119   4.843   3.117  1.00  0.00     0.210 HD
ENDBRANCH  37  38
ENDBRANCH  32  37
BRANCH  33  40
ATOM     40  O   UNL     1       9.441   3.049   3.444  1.00  0.00    -0.387 OA
ATOM     41  H   UNL     1      10.366   3.028   3.085  1.00  0.00     0.211 HD
ENDBRANCH  33  40
BRANCH  35  42
ATOM     42  O   UNL     1       8.852   0.769   2.027  1.00  0.00    -0.385 OA
ATOM     43  H   UNL     1       9.074   0.820   1.056  1.00  0.00     0.211 HD
ENDBRANCH  35  42
BRANCH  36  44
ATOM     44  O   UNL     1       6.493   0.220   3.788  1.00  0.00    -0.366 OA
ATOM     45  H   UNL     1       7.145  -0.562   3.763  1.00  0.00     0.213 HD
ENDBRANCH  36  44
ENDBRANCH  30  31
ENDBRANCH   4  30
TORSDOF 18
ENDMDL
MODEL 3
REMARK VINA RESULT:    -2.776      2.711      9.195
REMARK INTER + INTRA:          -4.297
REMARK INTER:                  -5.117
REMARK INTRA:                   0.820
REMARK UNBOUND:                 0.508
REMARK SMILES OC[C@@H]1O[C@@H](O)[C@H](O)[C@H](O)[C@@H]1O[C@H]1O[C@H](CO)[C@H](O[C@@H]2O[C@H](CO)[C@@H](O)[C@@H](O)[C@@H]2O)[C@H](O)[C@@H]1O
REMARK SMILES IDX 18 1 15 2 14 3 13 4 33 5 31 6 19 7 20 8 22 9 25 10 21 11
REMARK SMILES IDX 27 12 29 13 23 14 24 15 26 17 28 19 30 21 16 23 17 24 32 26
REMARK SMILES IDX 34 28 12 30 11 31 3 32 9 33 4 34 7 35 5 36 2 37 1 38 10 40
REMARK SMILES IDX 8 42 6 44
REMARK H PARENT 24 16 26 18 28 20 30 22 17 25 32 27 34 29 1 39 10 41 8 43 6 45
REMARK Flexibility Score: inf
ROOT
ATOM      1  C   UNL     1       8.473   9.170   1.995  1.00  0.00     0.184 C 
ATOM      2  C   UNL     1       7.094   8.718   1.400  1.00  0.00     0.178 C 
ATOM      3  O   UNL     1       7.041   7.298   1.046  1.00  0.00    -0.341 OA
ATOM      4  C   UNL     1       8.076   6.571   1.727  1.00  0.00     0.282 C 
ATOM      5  C   UNL     1       8.204   7.023   3.207  1.00  0.00     0.202 C 
ATOM      6  C   UNL     1       8.500   8.570   3.516  1.00  0.00     0.180 C 
ENDROOT
BRANCH   1   7
ATOM      7  O   UNL     1       9.749   8.715   1.392  1.00  0.00    -0.341 OA
BRANCH   7   8
ATOM      8  C   UNL     1      11.032   8.376   2.053  1.00  0.00     0.282 C 
ATOM      9  C   UNL     1      13.149   8.956   2.725  1.00  0.00     0.178 C 
ATOM     10  C   UNL     1      13.920   7.629   2.153  1.00  0.00     0.177 C 
ATOM     11  O   UNL     1      12.091   9.330   1.830  1.00  0.00    -0.341 OA
ATOM     12  C   UNL     1      13.051   6.535   1.398  1.00  0.00     0.179 C 
ATOM     13  C   UNL     1      11.665   6.780   2.046  1.00  0.00     0.202 C 
BRANCH   9  14
ATOM     14  C   UNL     1      13.966  10.047   3.390  1.00  0.00     0.191 C 
BRANCH  14  15
ATOM     15  O   UNL     1      15.348   9.879   3.024  1.00  0.00    -0.394 OA
ATOM     16  H   UNL     1      15.549  10.552   2.254  1.00  0.00     0.210 HD
ENDBRANCH  14  15
ENDBRANCH   9  14
BRANCH  10  17
ATOM     17  O   UNL     1      14.960   7.158   2.984  1.00  0.00    -0.387 OA
ATOM     18  H   UNL     1      14.848   6.124   3.138  1.00  0.00     0.211 HD
ENDBRANCH  10  17
BRANCH  12  19
ATOM     19  O   UNL     1      13.688   5.244   1.456  1.00  0.00    -0.387 OA
ATOM     20  H   UNL     1      13.194   4.767   2.200  1.00  0.00     0.211 HD
ENDBRANCH  12  19
BRANCH  13  21
ATOM     21  O   UNL     1      10.703   5.838   1.871  1.00  0.00    -0.385 OA
ATOM     22  H   UNL     1      10.227   6.165   1.033  1.00  0.00     0.211 HD
ENDBRANCH  13  21
ENDBRANCH   7   8
ENDBRANCH   1   7
BRANCH   2  23
ATOM     23  C   UNL     1       6.278   9.686   0.452  1.00  0.00     0.191 C 
BRANCH  23  24
ATOM     24  O   UNL     1       6.825   9.773  -0.858  1.00  0.00    -0.394 OA
ATOM     25  H   UNL     1       7.203  10.754  -1.053  1.00  0.00     0.210 HD
ENDBRANCH  23  24
ENDBRANCH   2  23
BRANCH   6  26
ATOM     26  O   UNL     1       9.722   9.086   4.089  1.00  0.00    -0.387 OA
ATOM     27  H   UNL     1       9.826   8.736   5.049  1.00  0.00     0.211 HD
ENDBRANCH   6  26
BRANCH   5  28
ATOM     28  O   UNL     1       8.958   6.152   4.120  1.00  0.00    -0.385 OA
ATOM     29  H   UNL     1       9.261   5.357   3.609  1.00  0.00     0.211 HD
ENDBRANCH   5  28
BRANCH   4  30
ATOM     30  O   UNL     1       7.889   5.106   1.572  1.00  0.00    -0.341 OA
BRANCH  30  31
ATOM     31  C   UNL     1       6.883   4.667   2.519  1.00  0.00     0.184 C 
ATOM     32  C   UNL     1       7.279   3.486   3.469  1.00  0.00     0.178 C 
ATOM     33  C   UNL     1       5.443   4.391   1.902  1.00  0.00     0.180 C 
ATOM     34  O   UNL     1       7.189   2.241   2.842  1.00  0.00    -0.342 OA
ATOM     35  C   UNL     1       4.793   3.164   2.516  1.00  0.00     0.201 C 
ATOM     36  C   UNL     1       5.810   1.989   2.395  1.00  0.00     0.279 C 
BRANCH  32  37
ATOM     37  C   UNL     1       8.711   3.793   4.107  1.00  0.00     0.191 C 
BRANCH  37  38
ATOM     38  O   UNL     1       9.771   3.530   3.200  1.00  0.00    -0.394 OA
ATOM     39  H   UNL     1       9.772   2.546   3.074  1.00  0.00     0.210 HD
ENDBRANCH  37  38
ENDBRANCH  32  37
BRANCH  33  40
ATOM     40  O   UNL     1       5.632   4.131   0.536  1.00  0.00    -0.387 OA
ATOM     41  H   UNL     1       6.597   4.131   0.302  1.00  0.00     0.211 HD
ENDBRANCH  33  40
BRANCH  35  42
ATOM     42  O   UNL     1       3.541   2.958   1.879  1.00  0.00    -0.385 OA
ATOM     43  H   UNL     1       2.923   3.701   2.128  1.00  0.00     0.211 HD
ENDBRANCH  35  42
BRANCH  36  44
ATOM     44  O   UNL     1       5.319   0.741   2.822  1.00  0.00    -0.366 OA
ATOM     45  H   UNL     1       5.957  -0.045   2.706  1.00  0.00     0.213 HD
ENDBRANCH  36  44
ENDBRANCH  30  31
ENDBRANCH   4  30
TORSDOF 18
ENDMDL
MODEL 4
REMARK VINA RESULT:    -2.324      1.916      8.823
REMARK INTER + INTRA:          -3.514
REMARK INTER:                  -2.475
REMARK INTRA:                  -1.038
REMARK UNBOUND:                 0.508
REMARK SMILES OC[C@@H]1O[C@@H](O)[C@H](O)[C@H](O)[C@@H]1O[C@H]1O[C@H](CO)[C@H](O[C@@H]2O[C@H](CO)[C@@H](O)[C@@H](O)[C@@H]2O)[C@H](O)[C@@H]1O
REMARK SMILES IDX 18 1 15 2 14 3 13 4 33 5 31 6 19 7 20 8 22 9 25 10 21 11
REMARK SMILES IDX 27 12 29 13 23 14 24 15 26 17 28 19 30 21 16 23 17 24 32 26
REMARK SMILES IDX 34 28 12 30 11 31 3 32 9 33 4 34 7 35 5 36 2 37 1 38 10 40
REMARK SMILES IDX 8 42 6 44
REMARK H PARENT 24 16 26 18 28 20 30 22 17 25 32 27 34 29 1 39 10 41 8 43 6 45
REMARK Flexibility Score: inf
ROOT
ATOM      1  C   UNL     1      15.283   7.358   3.504  1.00  0.00     0.184 C 
ATOM      2  C   UNL     1      14.280   8.542   3.730  1.00  0.00     0.178 C 
ATOM      3  O   UNL     1      13.133   8.526   2.820  1.00  0.00    -0.341 OA
ATOM      4  C   UNL     1      12.959   7.217   2.254  1.00  0.00     0.282 C 
ATOM      5  C   UNL     1      13.148   6.108   3.324  1.00  0.00     0.202 C 
ATOM      6  C   UNL     1      14.537   6.042   4.125  1.00  0.00     0.180 C 
ENDROOT
BRANCH   1   7
ATOM      7  O   UNL     1      15.683   6.948   2.136  1.00  0.00    -0.341 OA
BRANCH   7   8
ATOM      8  C   UNL     1      16.955   7.196   1.416  1.00  0.00     0.282 C 
ATOM      9  C   UNL     1      18.991   6.467   0.645  1.00  0.00     0.178 C 
ATOM     10  C   UNL     1      19.882   7.732   1.180  1.00  0.00     0.177 C 
ATOM     11  O   UNL     1      17.951   6.166   1.588  1.00  0.00    -0.341 OA
ATOM     12  C   UNL     1      19.131   8.883   1.976  1.00  0.00     0.179 C 
ATOM     13  C   UNL     1      17.701   8.742   1.395  1.00  0.00     0.202 C 
BRANCH   9  14
ATOM     14  C   UNL     1      19.694   5.322  -0.059  1.00  0.00     0.191 C 
BRANCH  14  15
ATOM     15  O   UNL     1      21.102   5.399   0.226  1.00  0.00    -0.394 OA
ATOM     16  H   UNL     1      21.285   4.797   1.057  1.00  0.00     0.210 HD
ENDBRANCH  14  15
ENDBRANCH   9  14
BRANCH  10  17
ATOM     17  O   UNL     1      20.913   8.130   0.301  1.00  0.00    -0.387 OA
ATOM     18  H   UNL     1      20.494   8.493  -0.592  1.00  0.00     0.211 HD
ENDBRANCH  10  17
BRANCH  12  19
ATOM     19  O   UNL     1      19.856  10.125   1.889  1.00  0.00    -0.387 OA
ATOM     20  H   UNL     1      20.794   9.874   2.176  1.00  0.00     0.211 HD
ENDBRANCH  12  19
BRANCH  13  21
ATOM     21  O   UNL     1      16.820   9.750   1.615  1.00  0.00    -0.385 OA
ATOM     22  H   UNL     1      17.272  10.540   1.159  1.00  0.00     0.211 HD
ENDBRANCH  13  21
ENDBRANCH   7   8
ENDBRANCH   1   7
BRANCH   2  23
ATOM     23  C   UNL     1      14.816   9.978   4.122  1.00  0.00     0.191 C 
BRANCH  23  24
ATOM     24  O   UNL     1      16.235  10.061   4.124  1.00  0.00    -0.394 OA
ATOM     25  H   UNL     1      16.570  10.930   4.651  1.00  0.00     0.210 HD
ENDBRANCH  23  24
ENDBRANCH   2  23
BRANCH   6  26
ATOM     26  O   UNL     1      15.514   4.983   4.012  1.00  0.00    -0.387 OA
ATOM     27  H   UNL     1      16.420   5.312   4.371  1.00  0.00     0.211 HD
ENDBRANCH   6  26
BRANCH   5  28
ATOM     28  O   UNL     1      12.666   4.759   2.996  1.00  0.00    -0.385 OA
ATOM     29  H   UNL     1      13.254   4.384   2.290  1.00  0.00     0.211 HD
ENDBRANCH   5  28
BRANCH   4  30
ATOM     30  O   UNL     1      11.669   7.119   1.525  1.00  0.00    -0.341 OA
BRANCH  30  31
ATOM     31  C   UNL     1      10.588   7.177   2.489  1.00  0.00     0.184 C 
ATOM     32  C   UNL     1       9.296   6.360   2.148  1.00  0.00     0.178 C 
ATOM     33  C   UNL     1      10.181   8.639   2.967  1.00  0.00     0.180 C 
ATOM     34  O   UNL     1       8.473   7.018   1.232  1.00  0.00    -0.342 OA
ATOM     35  C   UNL     1       8.677   8.785   3.112  1.00  0.00     0.201 C 
ATOM     36  C   UNL     1       8.032   8.313   1.774  1.00  0.00     0.279 C 
BRANCH  32  37
ATOM     37  C   UNL     1       9.719   4.885   1.704  1.00  0.00     0.191 C 
BRANCH  37  38
ATOM     38  O   UNL     1       8.879   4.370   0.681  1.00  0.00    -0.394 OA
ATOM     39  H   UNL     1       7.997   4.225   1.112  1.00  0.00     0.210 HD
ENDBRANCH  37  38
ENDBRANCH  32  37
BRANCH  33  40
ATOM     40  O   UNL     1      10.596   9.523   1.959  1.00  0.00    -0.387 OA
ATOM     41  H   UNL     1      10.225  10.432   2.106  1.00  0.00     0.211 HD
ENDBRANCH  33  40
BRANCH  35  42
ATOM     42  O   UNL     1       8.395  10.124   3.489  1.00  0.00    -0.385 OA
ATOM     43  H   UNL     1       8.661  10.734   2.746  1.00  0.00     0.211 HD
ENDBRANCH  35  42
BRANCH  36  44
ATOM     44  O   UNL     1       6.637   8.487   1.700  1.00  0.00    -0.366 OA
ATOM     45  H   UNL     1       6.281   9.355   2.095  1.00  0.00     0.213 HD
ENDBRANCH  36  44
ENDBRANCH  30  31
ENDBRANCH   4  30
TORSDOF 18
ENDMDL
MODEL 5
REMARK VINA RESULT:    -2.167      2.036      8.857
REMARK INTER + INTRA:          -3.242
REMARK INTER:                  -3.048
REMARK INTRA:                  -0.194
REMARK UNBOUND:                 0.508
REMARK SMILES OC[C@@H]1O[C@@H](O)[C@H](O)[C@H](O)[C@@H]1O[C@H]1O[C@H](CO)[C@H](O[C@@H]2O[C@H](CO)[C@@H](O)[C@@H](O)[C@@H]2O)[C@H](O)[C@@H]1O
REMARK SMILES IDX 18 1 15 2 14 3 13 4 33 5 31 6 19 7 20 8 22 9 25 10 21 11
REMARK SMILES IDX 27 12 29 13 23 14 24 15 26 17 28 19 30 21 16 23 17 24 32 26
REMARK SMILES IDX 34 28 12 30 11 31 3 32 9 33 4 34 7 35 5 36 2 37 1 38 10 40
REMARK SMILES IDX 8 42 6 44
REMARK H PARENT 24 16 26 18 28 20 30 22 17 25 32 27 34 29 1 39 10 41 8 43 6 45
REMARK Flexibility Score: inf
ROOT
ATOM      1  C   UNL     1      11.818   7.803   3.582  1.00  0.00     0.184 C 
ATOM      2  C   UNL     1      10.299   8.184   3.675  1.00  0.00     0.178 C 
ATOM      3  O   UNL     1       9.473   7.577   2.629  1.00  0.00    -0.341 OA
ATOM      4  C   UNL     1      10.144   6.446   2.051  1.00  0.00     0.282 C 
ATOM      5  C   UNL     1      10.823   5.573   3.142  1.00  0.00     0.202 C 
ATOM      6  C   UNL     1      11.904   6.258   4.110  1.00  0.00     0.180 C 
ENDROOT
BRANCH   1   7
ATOM      7  O   UNL     1      12.521   7.790   2.276  1.00  0.00    -0.341 OA
BRANCH   7   8
ATOM      8  C   UNL     1      13.797   8.437   1.891  1.00  0.00     0.282 C 
ATOM      9  C   UNL     1      15.661   8.545   0.555  1.00  0.00     0.178 C 
ATOM     10  C   UNL     1      16.766   8.717   1.751  1.00  0.00     0.177 C 
ATOM     11  O   UNL     1      14.610   7.665   0.983  1.00  0.00    -0.341 OA
ATOM     12  C   UNL     1      16.239   8.728   3.250  1.00  0.00     0.179 C 
ATOM     13  C   UNL     1      14.792   9.239   3.037  1.00  0.00     0.202 C 
BRANCH   9  14
ATOM     14  C   UNL     1      16.144   8.464  -0.881  1.00  0.00     0.191 C 
BRANCH  14  15
ATOM     15  O   UNL     1      16.617   9.763  -1.283  1.00  0.00    -0.394 OA
ATOM     16  H   UNL     1      17.659   9.724  -1.294  1.00  0.00     0.210 HD
ENDBRANCH  14  15
ENDBRANCH   9  14
BRANCH  10  17
ATOM     17  O   UNL     1      17.827   9.596   1.440  1.00  0.00    -0.387 OA
ATOM     18  H   UNL     1      18.102   9.473   0.433  1.00  0.00     0.211 HD
ENDBRANCH  10  17
BRANCH  12  19
ATOM     19  O   UNL     1      17.161   9.421   4.113  1.00  0.00    -0.387 OA
ATOM     20  H   UNL     1      16.582   9.728   4.884  1.00  0.00     0.211 HD
ENDBRANCH  12  19
BRANCH  13  21
ATOM     21  O   UNL     1      14.099   9.663   4.124  1.00  0.00    -0.385 OA
ATOM     22  H   UNL     1      13.294   9.039   4.127  1.00  0.00     0.211 HD
ENDBRANCH  13  21
ENDBRANCH   7   8
ENDBRANCH   1   7
BRANCH   2  23
ATOM     23  C   UNL     1       9.866   9.637   4.125  1.00  0.00     0.191 C 
BRANCH  23  24
ATOM     24  O   UNL     1       8.477   9.882   3.952  1.00  0.00    -0.394 OA
ATOM     25  H   UNL     1       8.296  10.899   3.672  1.00  0.00     0.210 HD
ENDBRANCH  23  24
ENDBRANCH   2  23
BRANCH   6  26
ATOM     26  O   UNL     1      13.318   5.958   4.125  1.00  0.00    -0.387 OA
ATOM     27  H   UNL     1      13.854   6.821   3.969  1.00  0.00     0.211 HD
ENDBRANCH   6  26
BRANCH   5  28
ATOM     28  O   UNL     1      11.242   4.217   2.763  1.00  0.00    -0.385 OA
ATOM     29  H   UNL     1      11.494   4.229   1.803  1.00  0.00     0.211 HD
ENDBRANCH   5  28
BRANCH   4  30
ATOM     30  O   UNL     1       9.230   5.678   1.167  1.00  0.00    -0.341 OA
BRANCH  30  31
ATOM     31  C   UNL     1       8.508   4.715   1.975  1.00  0.00     0.184 C 
ATOM     32  C   UNL     1       7.840   3.519   1.215  1.00  0.00     0.178 C 
ATOM     33  C   UNL     1       7.467   5.337   3.005  1.00  0.00     0.180 C 
ATOM     34  O   UNL     1       6.631   3.876   0.613  1.00  0.00    -0.342 OA
ATOM     35  C   UNL     1       6.193   4.515   3.082  1.00  0.00     0.201 C 
ATOM     36  C   UNL     1       5.667   4.333   1.626  1.00  0.00     0.279 C 
BRANCH  32  37
ATOM     37  C   UNL     1       8.908   2.884   0.210  1.00  0.00     0.191 C 
BRANCH  37  38
ATOM     38  O   UNL     1       8.983   3.598  -1.015  1.00  0.00    -0.394 OA
ATOM     39  H   UNL     1       8.179   3.326  -1.529  1.00  0.00     0.210 HD
ENDBRANCH  37  38
ENDBRANCH  32  37
BRANCH  33  40
ATOM     40  O   UNL     1       7.122   6.606   2.514  1.00  0.00    -0.387 OA
ATOM     41  H   UNL     1       7.111   7.280   3.243  1.00  0.00     0.211 HD
ENDBRANCH  33  40
BRANCH  35  42
ATOM     42  O   UNL     1       5.300   5.161   3.978  1.00  0.00    -0.385 OA
ATOM     43  H   UNL     1       5.756   5.287   4.856  1.00  0.00     0.211 HD
ENDBRANCH  35  42
BRANCH  36  44
ATOM     44  O   UNL     1       4.424   3.681   1.526  1.00  0.00    -0.366 OA
ATOM     45  H   UNL     1       3.606   4.272   1.663  1.00  0.00     0.213 HD
ENDBRANCH  36  44
ENDBRANCH  30  31
ENDBRANCH   4  30
TORSDOF 18
ENDMDL
MODEL 6
REMARK VINA RESULT:    -1.495      1.520      8.399
REMARK INTER + INTRA:          -2.079
REMARK INTER:                  -1.579
REMARK INTRA:                  -0.500
REMARK UNBOUND:                 0.508
REMARK SMILES OC[C@@H]1O[C@@H](O)[C@H](O)[C@H](O)[C@@H]1O[C@H]1O[C@H](CO)[C@H](O[C@@H]2O[C@H](CO)[C@@H](O)[C@@H](O)[C@@H]2O)[C@H](O)[C@@H]1O
REMARK SMILES IDX 18 1 15 2 14 3 13 4 33 5 31 6 19 7 20 8 22 9 25 10 21 11
REMARK SMILES IDX 27 12 29 13 23 14 24 15 26 17 28 19 30 21 16 23 17 24 32 26
REMARK SMILES IDX 34 28 12 30 11 31 3 32 9 33 4 34 7 35 5 36 2 37 1 38 10 40
REMARK SMILES IDX 8 42 6 44
REMARK H PARENT 24 16 26 18 28 20 30 22 17 25 32 27 34 29 1 39 10 41 8 43 6 45
REMARK Flexibility Score: inf
ROOT
ATOM      1  C   UNL     1      13.738   5.795   2.167  1.00  0.00     0.184 C 
ATOM      2  C   UNL     1      13.113   4.855   3.256  1.00  0.00     0.178 C 
ATOM      3  O   UNL     1      11.991   5.456   3.981  1.00  0.00    -0.341 OA
ATOM      4  C   UNL     1      11.447   6.559   3.239  1.00  0.00     0.282 C 
ATOM      5  C   UNL     1      11.335   6.224   1.727  1.00  0.00     0.202 C 
ATOM      6  C   UNL     1      12.664   5.796   0.935  1.00  0.00     0.180 C 
ENDROOT
BRANCH   1   7
ATOM      7  O   UNL     1      13.983   7.230   2.449  1.00  0.00    -0.341 OA
BRANCH   7   8
ATOM      8  C   UNL     1      15.118   8.088   2.035  1.00  0.00     0.282 C 
ATOM      9  C   UNL     1      16.289   9.209   0.409  1.00  0.00     0.178 C 
ATOM     10  C   UNL     1      17.780   8.667   0.814  1.00  0.00     0.177 C 
ATOM     11  O   UNL     1      15.319   8.169   0.609  1.00  0.00    -0.341 OA
ATOM     12  C   UNL     1      17.894   7.654   2.031  1.00  0.00     0.179 C 
ATOM     13  C   UNL     1      16.633   8.043   2.842  1.00  0.00     0.202 C 
BRANCH   9  14
ATOM     14  C   UNL     1      16.143  10.125  -0.792  1.00  0.00     0.191 C 
BRANCH  14  15
ATOM     15  O   UNL     1      17.381  10.125  -1.526  1.00  0.00    -0.394 OA
ATOM     16  H   UNL     1      17.359  10.943  -2.172  1.00  0.00     0.210 HD
ENDBRANCH  14  15
ENDBRANCH   9  14
BRANCH  10  17
ATOM     17  O   UNL     1      18.803   9.632   0.685  1.00  0.00    -0.387 OA
ATOM     18  H   UNL     1      18.474  10.414   0.064  1.00  0.00     0.211 HD
ENDBRANCH  10  17
BRANCH  12  19
ATOM     19  O   UNL     1      19.209   7.705   2.619  1.00  0.00    -0.387 OA
ATOM     20  H   UNL     1      19.767   8.172   1.916  1.00  0.00     0.211 HD
ENDBRANCH  12  19
BRANCH  13  21
ATOM     21  O   UNL     1      16.531   7.594   4.119  1.00  0.00    -0.385 OA
ATOM     22  H   UNL     1      15.568   7.823   4.355  1.00  0.00     0.211 HD
ENDBRANCH  13  21
ENDBRANCH   7   8
ENDBRANCH   1   7
BRANCH   2  23
ATOM     23  C   UNL     1      14.037   3.895   4.109  1.00  0.00     0.191 C 
BRANCH  23  24
ATOM     24  O   UNL     1      14.150   2.592   3.553  1.00  0.00    -0.394 OA
ATOM     25  H   UNL     1      14.498   1.890   4.281  1.00  0.00     0.210 HD
ENDBRANCH  23  24
ENDBRANCH   2  23
BRANCH   6  26
ATOM     26  O   UNL     1      13.303   6.573  -0.103  1.00  0.00    -0.387 OA
ATOM     27  H   UNL     1      14.235   6.187  -0.296  1.00  0.00     0.211 HD
ENDBRANCH   6  26
BRANCH   5  28
ATOM     28  O   UNL     1      10.488   7.094   0.899  1.00  0.00    -0.385 OA
ATOM     29  H   UNL     1       9.623   7.219   1.368  1.00  0.00     0.211 HD
ENDBRANCH   5  28
BRANCH   4  30
ATOM     30  O   UNL     1      10.168   7.023   3.835  1.00  0.00    -0.341 OA
BRANCH  30  31
ATOM     31  C   UNL     1       9.090   6.707   2.919  1.00  0.00     0.184 C 
ATOM     32  C   UNL     1       7.819   7.621   2.986  1.00  0.00     0.178 C 
ATOM     33  C   UNL     1       8.645   5.180   2.895  1.00  0.00     0.180 C 
ATOM     34  O   UNL     1       6.975   7.286   4.048  1.00  0.00    -0.342 OA
ATOM     35  C   UNL     1       7.138   5.035   2.782  1.00  0.00     0.201 C 
ATOM     36  C   UNL     1       6.501   5.900   3.911  1.00  0.00     0.279 C 
BRANCH  32  37
ATOM     37  C   UNL     1       8.280   9.150   2.976  1.00  0.00     0.191 C 
BRANCH  37  38
ATOM     38  O   UNL     1       9.272   9.406   1.992  1.00  0.00    -0.394 OA
ATOM     39  H   UNL     1       8.873   9.109   1.132  1.00  0.00     0.210 HD
ENDBRANCH  37  38
ENDBRANCH  32  37
BRANCH  33  40
ATOM     40  O   UNL     1       9.032   4.627   4.125  1.00  0.00    -0.387 OA
ATOM     41  H   UNL     1       8.701   3.695   4.218  1.00  0.00     0.211 HD
ENDBRANCH  33  40
BRANCH  35  42
ATOM     42  O   UNL     1       6.820   3.651   2.818  1.00  0.00    -0.385 OA
ATOM     43  H   UNL     1       6.820   3.294   1.887  1.00  0.00     0.211 HD
ENDBRANCH  35  42
BRANCH  36  44
ATOM     44  O   UNL     1       5.102   5.791   4.017  1.00  0.00    -0.366 OA
ATOM     45  H   UNL     1       4.757   5.400   4.892  1.00  0.00     0.213 HD
ENDBRANCH  36  44
ENDBRANCH  30  31
ENDBRANCH   4  30
TORSDOF 18
ENDMDL
MODEL 7
REMARK VINA RESULT:    -1.378      1.774      8.860
REMARK INTER + INTRA:          -1.878
REMARK INTER:                  -0.800
REMARK INTRA:                  -1.078
REMARK UNBOUND:                 0.508
REMARK SMILES OC[C@@H]1O[C@@H](O)[C@H](O)[C@H](O)[C@@H]1O[C@H]1O[C@H](CO)[C@H](O[C@@H]2O[C@H](CO)[C@@H](O)[C@@H](O)[C@@H]2O)[C@H](O)[C@@H]1O
REMARK SMILES IDX 18 1 15 2 14 3 13 4 33 5 31 6 19 7 20 8 22 9 25 10 21 11
REMARK SMILES IDX 27 12 29 13 23 14 24 15 26 17 28 19 30 21 16 23 17 24 32 26
REMARK SMILES IDX 34 28 12 30 11 31 3 32 9 33 4 34 7 35 5 36 2 37 1 38 10 40
REMARK SMILES IDX 8 42 6 44
REMARK H PARENT 24 16 26 18 28 20 30 22 17 25 32 27 34 29 1 39 10 41 8 43 6 45
REMARK Flexibility Score: inf
ROOT
ATOM      1  C   UNL     1      13.849   8.117   3.423  1.00  0.00     0.184 C 
ATOM      2  C   UNL     1      12.333   8.459   3.638  1.00  0.00     0.178 C 
ATOM      3  O   UNL     1      11.428   7.698   2.774  1.00  0.00    -0.341 OA
ATOM      4  C   UNL     1      12.084   6.523   2.269  1.00  0.00     0.282 C 
ATOM      5  C   UNL     1      12.915   5.819   3.376  1.00  0.00     0.202 C 
ATOM      6  C   UNL     1      14.062   6.656   4.125  1.00  0.00     0.180 C 
ENDROOT
BRANCH   1   7
ATOM      7  O   UNL     1      14.408   7.959   2.058  1.00  0.00    -0.341 OA
BRANCH   7   8
ATOM      8  C   UNL     1      15.789   8.195   1.576  1.00  0.00     0.282 C 
ATOM      9  C   UNL     1      17.673   7.481   0.475  1.00  0.00     0.178 C 
ATOM     10  C   UNL     1      18.762   7.924   1.614  1.00  0.00     0.177 C 
ATOM     11  O   UNL     1      16.469   7.014   1.104  1.00  0.00    -0.341 OA
ATOM     12  C   UNL     1      18.211   8.596   2.944  1.00  0.00     0.179 C 
ATOM     13  C   UNL     1      16.887   9.209   2.423  1.00  0.00     0.202 C 
BRANCH   9  14
ATOM     14  C   UNL     1      18.166   6.776  -0.775  1.00  0.00     0.191 C 
BRANCH  14  15
ATOM     15  O   UNL     1      19.321   5.987  -0.435  1.00  0.00    -0.394 OA
ATOM     16  H   UNL     1      19.193   5.655   0.544  1.00  0.00     0.210 HD
ENDBRANCH  14  15
ENDBRANCH   9  14
BRANCH  10  17
ATOM     17  O   UNL     1      19.972   8.434   1.094  1.00  0.00    -0.387 OA
ATOM     18  H   UNL     1      20.522   7.653   0.653  1.00  0.00     0.211 HD
ENDBRANCH  10  17
BRANCH  12  19
ATOM     19  O   UNL     1      19.223   9.413   3.563  1.00  0.00    -0.387 OA
ATOM     20  H   UNL     1      20.084   9.086   3.144  1.00  0.00     0.211 HD
ENDBRANCH  12  19
BRANCH  13  21
ATOM     21  O   UNL     1      16.256  10.124   3.202  1.00  0.00    -0.385 OA
ATOM     22  H   UNL     1      16.675  10.999   2.894  1.00  0.00     0.211 HD
ENDBRANCH  13  21
ENDBRANCH   7   8
ENDBRANCH   1   7
BRANCH   2  23
ATOM     23  C   UNL     1      11.886   9.943   3.950  1.00  0.00     0.191 C 
BRANCH  23  24
ATOM     24  O   UNL     1      10.477  10.125   3.890  1.00  0.00    -0.394 OA
ATOM     25  H   UNL     1       9.966   9.185   3.912  1.00  0.00     0.210 HD
ENDBRANCH  23  24
ENDBRANCH   2  23
BRANCH   6  26
ATOM     26  O   UNL     1      15.481   6.405   4.018  1.00  0.00    -0.387 OA
ATOM     27  H   UNL     1      15.964   6.817   4.826  1.00  0.00     0.211 HD
ENDBRANCH   6  26
BRANCH   5  28
ATOM     28  O   UNL     1      13.352   4.440   3.123  1.00  0.00    -0.385 OA
ATOM     29  H   UNL     1      13.844   4.120   3.924  1.00  0.00     0.211 HD
ENDBRANCH   5  28
BRANCH   4  30
ATOM     30  O   UNL     1      11.116   5.621   1.595  1.00  0.00    -0.341 OA
BRANCH  30  31
ATOM     31  C   UNL     1       9.942   5.492   2.436  1.00  0.00     0.184 C 
ATOM     32  C   UNL     1       9.238   4.093   2.452  1.00  0.00     0.178 C 
ATOM     33  C   UNL     1       8.850   6.635   2.258  1.00  0.00     0.180 C 
ATOM     34  O   UNL     1       8.423   3.893   1.336  1.00  0.00    -0.342 OA
ATOM     35  C   UNL     1       7.439   6.078   2.313  1.00  0.00     0.201 C 
ATOM     36  C   UNL     1       7.359   4.909   1.285  1.00  0.00     0.279 C 
BRANCH  32  37
ATOM     37  C   UNL     1      10.343   2.960   2.666  1.00  0.00     0.191 C 
BRANCH  37  38
ATOM     38  O   UNL     1      11.086   3.152   3.860  1.00  0.00    -0.394 OA
ATOM     39  H   UNL     1      11.898   3.655   3.587  1.00  0.00     0.210 HD
ENDBRANCH  37  38
ENDBRANCH  32  37
BRANCH  33  40
ATOM     40  O   UNL     1       9.040   7.179   0.979  1.00  0.00    -0.387 OA
ATOM     41  H   UNL     1       8.190   7.193   0.466  1.00  0.00     0.211 HD
ENDBRANCH  33  40
BRANCH  35  42
ATOM     42  O   UNL     1       6.530   7.147   2.096  1.00  0.00    -0.385 OA
ATOM     43  H   UNL     1       6.461   7.320   1.116  1.00  0.00     0.211 HD
ENDBRANCH  35  42
BRANCH  36  44
ATOM     44  O   UNL     1       6.078   4.348   1.130  1.00  0.00    -0.366 OA
ATOM     45  H   UNL     1       5.683   4.408   0.194  1.00  0.00     0.213 HD
ENDBRANCH  36  44
ENDBRANCH  30  31
ENDBRANCH   4  30
TORSDOF 18
ENDMDL
