MODEL 1
REMARK VINA RESULT:    -3.428      0.000      0.000
REMARK INTER + INTRA:          -3.646
REMARK INTER:                  -3.628
REMARK INTRA:                  -0.018
REMARK UNBOUND:                -0.018
REMARK SMILES O=C([O-])c1cccnc1
REMARK SMILES IDX 4 1 5 2 9 3 6 4 8 5 7 6 2 7 1 8 3 9
REMARK H PARENT
REMARK Flexibility Score: inf
ROOT
ATOM      1  C   UNL     1      40.793 185.452  32.136  1.00  0.00     0.016 A 
ATOM      2  C   UNL     1      40.614 185.935  30.829  1.00  0.00     0.013 A 
ATOM      3  C   UNL     1      39.653 185.217  32.924  1.00  0.00     0.120 A 
ATOM      4  C   UNL     1      39.327 186.171  30.340  1.00  0.00     0.021 A 
ATOM      5  N   UNL     1      38.411 185.456  32.424  1.00  0.00    -0.264 NA
ATOM      6  C   UNL     1      38.227 185.923  31.161  1.00  0.00     0.111 A 
ENDROOT
BRANCH   1   7
ATOM      7  C   UNL     1      42.151 185.198  32.665  1.00  0.00     0.073 C 
ATOM      8  O   UNL     1      42.883 184.311  32.149  1.00  0.00    -0.545 OA
ATOM      9  O   UNL     1      42.637 185.934  33.739  1.00  0.00    -0.545 OA
ENDBRANCH   1   7
TORSDOF 1
ENDMDL
MODEL 2
REMARK VINA RESULT:    -3.396      2.630      3.751
REMARK INTER + INTRA:          -3.612
REMARK INTER:                  -3.590
REMARK INTRA:                  -0.023
REMARK UNBOUND:                -0.018
REMARK SMILES O=C([O-])c1cccnc1
REMARK SMILES IDX 4 1 5 2 9 3 6 4 8 5 7 6 2 7 1 8 3 9
REMARK H PARENT
REMARK Flexibility Score: inf
ROOT
ATOM      1  C   UNL     1      41.277 185.590  32.201  1.00  0.00     0.016 A 
ATOM      2  C   UNL     1      41.676 184.252  32.044  1.00  0.00     0.013 A 
ATOM      3  C   UNL     1      41.831 186.334  33.258  1.00  0.00     0.120 A 
ATOM      4  C   UNL     1      42.601 183.690  32.926  1.00  0.00     0.021 A 
ATOM      5  N   UNL     1      42.730 185.761  34.102  1.00  0.00    -0.264 NA
ATOM      6  C   UNL     1      43.122 184.468  33.960  1.00  0.00     0.111 A 
ENDROOT
BRANCH   1   7
ATOM      7  C   UNL     1      40.298 186.198  31.273  1.00  0.00     0.073 C 
ATOM      8  O   UNL     1      40.157 185.745  30.105  1.00  0.00    -0.545 OA
ATOM      9  O   UNL     1      39.521 187.277  31.677  1.00  0.00    -0.545 OA
ENDBRANCH   1   7
TORSDOF 1
ENDMDL
MODEL 3
REMARK VINA RESULT:    -3.365      1.969      2.786
REMARK INTER + INTRA:          -3.579
REMARK INTER:                  -3.561
REMARK INTRA:                  -0.018
REMARK UNBOUND:                -0.018
REMARK SMILES O=C([O-])c1cccnc1
REMARK SMILES IDX 4 1 5 2 9 3 6 4 8 5 7 6 2 7 1 8 3 9
REMARK H PARENT
REMARK Flexibility Score: inf
ROOT
ATOM      1  C   UNL     1      42.605 184.872  33.089  1.00  0.00     0.016 A 
ATOM      2  C   UNL     1      42.383 186.178  33.556  1.00  0.00     0.013 A 
ATOM      3  C   UNL     1      41.777 184.377  32.066  1.00  0.00     0.120 A 
ATOM      4  C   UNL     1      41.359 186.953  33.007  1.00  0.00     0.021 A 
ATOM      5  N   UNL     1      40.787 185.153  31.550  1.00  0.00    -0.264 NA
ATOM      6  C   UNL     1      40.563 186.417  31.994  1.00  0.00     0.111 A 
ENDROOT
BRANCH   1   7
ATOM      7  C   UNL     1      43.687 184.041  33.662  1.00  0.00     0.073 C 
ATOM      8  O   UNL     1      43.715 183.792  34.897  1.00  0.00    -0.545 OA
ATOM      9  O   UNL     1      44.686 183.525  32.846  1.00  0.00    -0.545 OA
ENDBRANCH   1   7
TORSDOF 1
ENDMDL
MODEL 4
REMARK VINA RESULT:    -3.350      2.600      3.797
REMARK INTER + INTRA:          -3.564
REMARK INTER:                  -3.541
REMARK INTRA:                  -0.022
REMARK UNBOUND:                -0.018
REMARK SMILES O=C([O-])c1cccnc1
REMARK SMILES IDX 4 1 5 2 9 3 6 4 8 5 7 6 2 7 1 8 3 9
REMARK H PARENT
REMARK Flexibility Score: inf
ROOT
ATOM      1  C   UNL     1      41.276 185.516  32.210  1.00  0.00     0.016 A 
ATOM      2  C   UNL     1      41.775 186.249  33.300  1.00  0.00     0.013 A 
ATOM      3  C   UNL     1      41.694 184.183  32.053  1.00  0.00     0.120 A 
ATOM      4  C   UNL     1      42.665 185.652  34.196  1.00  0.00     0.021 A 
ATOM      5  N   UNL     1      42.561 183.627  32.940  1.00  0.00    -0.264 NA
ATOM      6  C   UNL     1      43.050 184.326  33.997  1.00  0.00     0.111 A 
ENDROOT
BRANCH   1   7
ATOM      7  C   UNL     1      40.333 186.137  31.254  1.00  0.00     0.073 C 
ATOM      8  O   UNL     1      40.202 185.672  30.091  1.00  0.00    -0.545 OA
ATOM      9  O   UNL     1      39.579 187.244  31.627  1.00  0.00    -0.545 OA
ENDBRANCH   1   7
TORSDOF 1
ENDMDL
MODEL 5
REMARK VINA RESULT:    -3.292      0.937      1.603
REMARK INTER + INTRA:          -3.502
REMARK INTER:                  -3.484
REMARK INTRA:                  -0.017
REMARK UNBOUND:                -0.018
REMARK SMILES O=C([O-])c1cccnc1
REMARK SMILES IDX 4 1 5 2 9 3 6 4 8 5 7 6 2 7 1 8 3 9
REMARK H PARENT
REMARK Flexibility Score: inf
ROOT
ATOM      1  C   UNL     1      40.696 185.430  32.063  1.00  0.00     0.016 A 
ATOM      2  C   UNL     1      39.563 185.381  32.890  1.00  0.00     0.013 A 
ATOM      3  C   UNL     1      40.524 185.784  30.713  1.00  0.00     0.120 A 
ATOM      4  C   UNL     1      38.302 185.679  32.369  1.00  0.00     0.021 A 
ATOM      5  N   UNL     1      39.285 186.069  30.231  1.00  0.00    -0.264 NA
ATOM      6  C   UNL     1      38.182 186.024  31.023  1.00  0.00     0.111 A 
ENDROOT
BRANCH   1   7
ATOM      7  C   UNL     1      42.037 185.117  32.604  1.00  0.00     0.073 C 
ATOM      8  O   UNL     1      42.701 184.148  32.147  1.00  0.00    -0.545 OA
ATOM      9  O   UNL     1      42.583 185.888  33.624  1.00  0.00    -0.545 OA
ENDBRANCH   1   7
TORSDOF 1
ENDMDL
MODEL 6
REMARK VINA RESULT:    -3.187      1.801      2.363
REMARK INTER + INTRA:          -3.391
REMARK INTER:                  -3.368
REMARK INTRA:                  -0.023
REMARK UNBOUND:                -0.018
REMARK SMILES O=C([O-])c1cccnc1
REMARK SMILES IDX 4 1 5 2 9 3 6 4 8 5 7 6 2 7 1 8 3 9
REMARK H PARENT
REMARK Flexibility Score: inf
ROOT
ATOM      1  C   UNL     1      40.390 186.769  32.472  1.00  0.00     0.016 A 
ATOM      2  C   UNL     1      39.260 187.592  32.337  1.00  0.00     0.013 A 
ATOM      3  C   UNL     1      40.726 185.913  31.408  1.00  0.00     0.120 A 
ATOM      4  C   UNL     1      38.499 187.549  31.166  1.00  0.00     0.021 A 
ATOM      5  N   UNL     1      39.967 185.891  30.280  1.00  0.00    -0.264 NA
ATOM      6  C   UNL     1      38.872 186.683  30.139  1.00  0.00     0.111 A 
ENDROOT
BRANCH   1   7
ATOM      7  C   UNL     1      41.205 186.805  33.706  1.00  0.00     0.073 C 
ATOM      8  O   UNL     1      40.714 187.237  34.784  1.00  0.00    -0.545 OA
ATOM      9  O   UNL     1      42.523 186.365  33.693  1.00  0.00    -0.545 OA
ENDBRANCH   1   7
TORSDOF 1
ENDMDL
MODEL 7
REMARK VINA RESULT:    -3.141      2.774      3.845
REMARK INTER + INTRA:          -3.342
REMARK INTER:                  -3.318
REMARK INTRA:                  -0.024
REMARK UNBOUND:                -0.018
REMARK SMILES O=C([O-])c1cccnc1
REMARK SMILES IDX 4 1 5 2 9 3 6 4 8 5 7 6 2 7 1 8 3 9
REMARK H PARENT
REMARK Flexibility Score: inf
ROOT
ATOM      1  C   UNL     1      41.246 186.110  32.617  1.00  0.00     0.016 A 
ATOM      2  C   UNL     1      42.207 186.107  33.640  1.00  0.00     0.013 A 
ATOM      3  C   UNL     1      41.100 184.952  31.832  1.00  0.00     0.120 A 
ATOM      4  C   UNL     1      42.992 184.973  33.861  1.00  0.00     0.021 A 
ATOM      5  N   UNL     1      41.878 183.862  32.068  1.00  0.00    -0.264 NA
ATOM      6  C   UNL     1      42.811 183.849  33.055  1.00  0.00     0.111 A 
ENDROOT
BRANCH   1   7
ATOM      7  C   UNL     1      40.408 187.305  32.374  1.00  0.00     0.073 C 
ATOM      8  O   UNL     1      40.661 188.393  32.956  1.00  0.00    -0.545 OA
ATOM      9  O   UNL     1      39.329 187.243  31.499  1.00  0.00    -0.545 OA
ENDBRANCH   1   7
TORSDOF 1
ENDMDL
MODEL 8
REMARK VINA RESULT:    -3.107      3.019      3.881
REMARK INTER + INTRA:          -3.306
REMARK INTER:                  -3.289
REMARK INTRA:                  -0.017
REMARK UNBOUND:                -0.018
REMARK SMILES O=C([O-])c1cccnc1
REMARK SMILES IDX 4 1 5 2 9 3 6 4 8 5 7 6 2 7 1 8 3 9
REMARK H PARENT
REMARK Flexibility Score: inf
ROOT
ATOM      1  C   UNL     1      40.106 186.191  31.560  1.00  0.00     0.016 A 
ATOM      2  C   UNL     1      40.491 187.136  32.525  1.00  0.00     0.013 A 
ATOM      3  C   UNL     1      40.880 185.026  31.419  1.00  0.00     0.120 A 
ATOM      4  C   UNL     1      41.618 186.908  33.318  1.00  0.00     0.021 A 
ATOM      5  N   UNL     1      41.973 184.829  32.204  1.00  0.00    -0.264 NA
ATOM      6  C   UNL     1      42.354 185.737  33.140  1.00  0.00     0.111 A 
ENDROOT
BRANCH   1   7
ATOM      7  C   UNL     1      38.914 186.421  30.714  1.00  0.00     0.073 C 
ATOM      8  O   UNL     1      38.959 187.235  29.753  1.00  0.00    -0.545 OA
ATOM      9  O   UNL     1      37.728 185.743  30.969  1.00  0.00    -0.545 OA
ENDBRANCH   1   7
TORSDOF 1
ENDMDL
MODEL 9
REMARK VINA RESULT:    -3.034     21.674     22.189
REMARK INTER + INTRA:          -3.229
REMARK INTER:                  -3.207
REMARK INTRA:                  -0.022
REMARK UNBOUND:                -0.018
REMARK SMILES O=C([O-])c1cccnc1
REMARK SMILES IDX 4 1 5 2 9 3 6 4 8 5 7 6 2 7 1 8 3 9
REMARK H PARENT
REMARK Flexibility Score: inf
ROOT
ATOM      1  C   UNL     1      33.538 170.428  17.704  1.00  0.00     0.016 A 
ATOM      2  C   UNL     1      34.796 170.039  17.217  1.00  0.00     0.013 A 
ATOM      3  C   UNL     1      32.734 171.252  16.896  1.00  0.00     0.120 A 
ATOM      4  C   UNL     1      35.224 170.467  15.959  1.00  0.00     0.021 A 
ATOM      5  N   UNL     1      33.175 171.656  15.675  1.00  0.00    -0.264 NA
ATOM      6  C   UNL     1      34.391 171.284  15.194  1.00  0.00     0.111 A 
ENDROOT
BRANCH   1   7
ATOM      7  C   UNL     1      33.073 169.980  19.035  1.00  0.00     0.073 C 
ATOM      8  O   UNL     1      33.454 168.876  19.507  1.00  0.00    -0.545 OA
ATOM      9  O   UNL     1      32.210 170.772  19.783  1.00  0.00    -0.545 OA
ENDBRANCH   1   7
TORSDOF 1
ENDMDL
