MODEL 1
REMARK VINA RESULT:    -2.638      0.000      0.000
REMARK INTER + INTRA:         -10.013
REMARK INTER:                  -6.647
REMARK INTRA:                  -3.366
REMARK UNBOUND:                -3.366
REMARK SMILES CCCCCCCCCCCCCCCCCCCCCCCCCCCC(=O)[O-]
REMARK SMILES IDX 15 1 16 2 17 3 18 4 19 5 20 6 21 7 22 8 23 9 24 10 25 11
REMARK SMILES IDX 26 12 27 13 28 14 29 15 30 16 14 17 13 18 12 19 11 20 10 21
REMARK SMILES IDX 9 22 8 23 7 24 6 25 5 26 4 27 3 28 2 29 1 30
REMARK H PARENT
REMARK Flexibility Score: inf
ROOT
ATOM      1  C   UNL     1       5.624  -6.224  -9.076  1.00  0.00     0.000 C 
ENDROOT
BRANCH   1   2
ATOM      2  C   UNL     1       4.115  -6.123  -9.365  1.00  0.00     0.000 C 
BRANCH   2   3
ATOM      3  C   UNL     1       3.458  -7.494  -9.576  1.00  0.00     0.000 C 
BRANCH   3   4
ATOM      4  C   UNL     1       4.467  -8.512 -10.122  1.00  0.00     0.000 C 
BRANCH   4   5
ATOM      5  C   UNL     1       5.085  -9.335  -8.986  1.00  0.00     0.000 C 
BRANCH   5   6
ATOM      6  C   UNL     1       6.307 -10.125  -9.480  1.00  0.00     0.000 C 
BRANCH   6   7
ATOM      7  C   UNL     1       7.480  -9.216  -9.883  1.00  0.00     0.000 C 
BRANCH   7   8
ATOM      8  C   UNL     1       8.819  -9.679  -9.281  1.00  0.00     0.000 C 
BRANCH   8   9
ATOM      9  C   UNL     1       9.578  -8.537  -8.584  1.00  0.00     0.000 C 
BRANCH   9  10
ATOM     10  C   UNL     1       9.916  -8.866  -7.118  1.00  0.00     0.000 C 
BRANCH  10  11
ATOM     11  C   UNL     1       8.875  -9.784  -6.460  1.00  0.00     0.000 C 
BRANCH  11  12
ATOM     12  C   UNL     1       7.996  -9.049  -5.435  1.00  0.00     0.006 C 
BRANCH  12  13
ATOM     13  C   UNL     1       6.970  -8.152  -6.134  1.00  0.00     0.053 C 
BRANCH  13  14
ATOM     14  C   UNL     1       7.072  -6.743  -5.640  1.00  0.00     0.041 C 
ATOM     15  O   UNL     1       8.125  -6.078  -5.833  1.00  0.00    -0.550 OA
ATOM     16  O   UNL     1       6.000  -6.158  -4.977  1.00  0.00    -0.550 OA
ENDBRANCH  13  14
ENDBRANCH  12  13
ENDBRANCH  11  12
ENDBRANCH  10  11
ENDBRANCH   9  10
ENDBRANCH   8   9
ENDBRANCH   7   8
ENDBRANCH   6   7
ENDBRANCH   5   6
ENDBRANCH   4   5
ENDBRANCH   3   4
ENDBRANCH   2   3
ENDBRANCH   1   2
BRANCH   1  17
ATOM     17  C   UNL     1       6.514  -5.320  -9.952  1.00  0.00     0.000 C 
BRANCH  17  18
ATOM     18  C   UNL     1       8.015  -5.675  -9.945  1.00  0.00     0.000 C 
BRANCH  18  19
ATOM     19  C   UNL     1       8.899  -4.740  -9.101  1.00  0.00     0.000 C 
BRANCH  19  20
ATOM     20  C   UNL     1       8.726  -3.260  -9.474  1.00  0.00     0.000 C 
BRANCH  20  21
ATOM     21  C   UNL     1       8.325  -2.426  -8.252  1.00  0.00     0.000 C 
BRANCH  21  22
ATOM     22  C   UNL     1       6.847  -2.654  -7.898  1.00  0.00    -0.000 C 
BRANCH  22  23
ATOM     23  C   UNL     1       5.910  -2.449  -9.099  1.00  0.00    -0.000 C 
BRANCH  23  24
ATOM     24  C   UNL     1       4.426  -2.582  -8.718  1.00  0.00    -0.000 C 
BRANCH  24  25
ATOM     25  C   UNL     1       4.196  -2.441  -7.205  1.00  0.00    -0.000 C 
BRANCH  25  26
ATOM     26  C   UNL     1       3.880  -3.789  -6.532  1.00  0.00    -0.000 C 
BRANCH  26  27
ATOM     27  C   UNL     1       3.568  -3.647  -5.033  1.00  0.00    -0.000 C 
BRANCH  27  28
ATOM     28  C   UNL     1       2.371  -2.733  -4.709  1.00  0.00    -0.000 C 
BRANCH  28  29
ATOM     29  C   UNL     1       2.390  -2.174  -3.270  1.00  0.00    -0.003 C 
ATOM     30  C   UNL     1       2.301  -3.276  -2.214  1.00  0.00     0.004 C 
ENDBRANCH  28  29
ENDBRANCH  27  28
ENDBRANCH  26  27
ENDBRANCH  25  26
ENDBRANCH  24  25
ENDBRANCH  23  24
ENDBRANCH  22  23
ENDBRANCH  21  22
ENDBRANCH  20  21
ENDBRANCH  19  20
ENDBRANCH  18  19
ENDBRANCH  17  18
ENDBRANCH   1  17
TORSDOF 26
ENDMDL
MODEL 2
REMARK VINA RESULT:    -2.481      2.168      6.563
REMARK INTER + INTRA:          -9.617
REMARK INTER:                  -5.504
REMARK INTRA:                  -4.113
REMARK UNBOUND:                -3.366
REMARK SMILES CCCCCCCCCCCCCCCCCCCCCCCCCCCC(=O)[O-]
REMARK SMILES IDX 15 1 16 2 17 3 18 4 19 5 20 6 21 7 22 8 23 9 24 10 25 11
REMARK SMILES IDX 26 12 27 13 28 14 29 15 30 16 14 17 13 18 12 19 11 20 10 21
REMARK SMILES IDX 9 22 8 23 7 24 6 25 5 26 4 27 3 28 2 29 1 30
REMARK H PARENT
REMARK Flexibility Score: inf
ROOT
ATOM      1  C   UNL     1       7.577  -2.281  -9.158  1.00  0.00     0.000 C 
ENDROOT
BRANCH   1   2
ATOM      2  C   UNL     1       8.828  -2.996  -9.699  1.00  0.00     0.000 C 
BRANCH   2   3
ATOM      3  C   UNL     1       8.547  -4.444 -10.124  1.00  0.00     0.000 C 
BRANCH   3   4
ATOM      4  C   UNL     1       9.747  -5.351  -9.824  1.00  0.00     0.000 C 
BRANCH   4   5
ATOM      5  C   UNL     1       9.783  -5.741  -8.342  1.00  0.00     0.000 C 
BRANCH   5   6
ATOM      6  C   UNL     1       8.461  -5.386  -7.646  1.00  0.00     0.000 C 
BRANCH   6   7
ATOM      7  C   UNL     1       8.662  -4.500  -6.405  1.00  0.00     0.000 C 
BRANCH   7   8
ATOM      8  C   UNL     1       7.408  -3.677  -6.057  1.00  0.00     0.000 C 
BRANCH   8   9
ATOM      9  C   UNL     1       6.104  -4.417  -6.400  1.00  0.00     0.000 C 
BRANCH   9  10
ATOM     10  C   UNL     1       4.860  -3.529  -6.219  1.00  0.00     0.000 C 
BRANCH  10  11
ATOM     11  C   UNL     1       3.566  -4.343  -6.063  1.00  0.00     0.000 C 
BRANCH  11  12
ATOM     12  C   UNL     1       2.362  -3.476  -5.660  1.00  0.00     0.006 C 
BRANCH  12  13
ATOM     13  C   UNL     1       2.771  -2.406  -4.644  1.00  0.00     0.053 C 
BRANCH  13  14
ATOM     14  C   UNL     1       2.220  -2.722  -3.289  1.00  0.00     0.041 C 
ATOM     15  O   UNL     1       1.277  -3.549  -3.164  1.00  0.00    -0.550 OA
ATOM     16  O   UNL     1       2.756  -2.113  -2.160  1.00  0.00    -0.550 OA
ENDBRANCH  13  14
ENDBRANCH  12  13
ENDBRANCH  11  12
ENDBRANCH  10  11
ENDBRANCH   9  10
ENDBRANCH   8   9
ENDBRANCH   7   8
ENDBRANCH   6   7
ENDBRANCH   5   6
ENDBRANCH   4   5
ENDBRANCH   3   4
ENDBRANCH   2   3
ENDBRANCH   1   2
BRANCH   1  17
ATOM     17  C   UNL     1       6.946  -1.257 -10.123  1.00  0.00     0.000 C 
BRANCH  17  18
ATOM     18  C   UNL     1       5.404  -1.222 -10.124  1.00  0.00     0.000 C 
BRANCH  18  19
ATOM     19  C   UNL     1       4.731  -2.251  -9.197  1.00  0.00     0.000 C 
BRANCH  19  20
ATOM     20  C   UNL     1       4.088  -3.413  -9.967  1.00  0.00     0.000 C 
BRANCH  20  21
ATOM     21  C   UNL     1       4.894  -4.706  -9.791  1.00  0.00     0.000 C 
BRANCH  21  22
ATOM     22  C   UNL     1       3.963  -5.928  -9.764  1.00  0.00    -0.000 C 
BRANCH  22  23
ATOM     23  C   UNL     1       4.731  -7.260  -9.788  1.00  0.00    -0.000 C 
BRANCH  23  24
ATOM     24  C   UNL     1       5.990  -7.231  -8.905  1.00  0.00    -0.000 C 
BRANCH  24  25
ATOM     25  C   UNL     1       6.880  -8.466  -9.115  1.00  0.00    -0.000 C 
BRANCH  25  26
ATOM     26  C   UNL     1       6.569  -9.591  -8.112  1.00  0.00    -0.000 C 
BRANCH  26  27
ATOM     27  C   UNL     1       7.751  -9.897  -7.177  1.00  0.00    -0.000 C 
BRANCH  27  28
ATOM     28  C   UNL     1       9.066  -9.181  -7.546  1.00  0.00    -0.000 C 
BRANCH  28  29
ATOM     29  C   UNL     1       9.920  -8.785  -6.323  1.00  0.00    -0.003 C 
ATOM     30  C   UNL     1       9.079  -8.199  -5.188  1.00  0.00     0.004 C 
ENDBRANCH  28  29
ENDBRANCH  27  28
ENDBRANCH  26  27
ENDBRANCH  25  26
ENDBRANCH  24  25
ENDBRANCH  23  24
ENDBRANCH  22  23
ENDBRANCH  21  22
ENDBRANCH  20  21
ENDBRANCH  19  20
ENDBRANCH  18  19
ENDBRANCH  17  18
ENDBRANCH   1  17
TORSDOF 26
ENDMDL
MODEL 3
REMARK VINA RESULT:    -2.104      2.209      5.443
REMARK INTER + INTRA:          -8.668
REMARK INTER:                  -4.712
REMARK INTRA:                  -3.956
REMARK UNBOUND:                -3.366
REMARK SMILES CCCCCCCCCCCCCCCCCCCCCCCCCCCC(=O)[O-]
REMARK SMILES IDX 15 1 16 2 17 3 18 4 19 5 20 6 21 7 22 8 23 9 24 10 25 11
REMARK SMILES IDX 26 12 27 13 28 14 29 15 30 16 14 17 13 18 12 19 11 20 10 21
REMARK SMILES IDX 9 22 8 23 7 24 6 25 5 26 4 27 3 28 2 29 1 30
REMARK H PARENT
REMARK Flexibility Score: inf
ROOT
ATOM      1  C   UNL     1       7.139  -6.349  -9.443  1.00  0.00     0.000 C 
ENDROOT
BRANCH   1   2
ATOM      2  C   UNL     1       6.519  -7.583 -10.125  1.00  0.00     0.000 C 
BRANCH   2   3
ATOM      3  C   UNL     1       6.793  -8.884  -9.358  1.00  0.00     0.000 C 
BRANCH   3   4
ATOM      4  C   UNL     1       5.492  -9.645  -9.077  1.00  0.00     0.000 C 
BRANCH   4   5
ATOM      5  C   UNL     1       4.318  -9.028  -9.846  1.00  0.00     0.000 C 
BRANCH   5   6
ATOM      6  C   UNL     1       3.278  -8.436  -8.883  1.00  0.00     0.000 C 
BRANCH   6   7
ATOM      7  C   UNL     1       3.795  -7.190  -8.143  1.00  0.00     0.000 C 
BRANCH   7   8
ATOM      8  C   UNL     1       3.057  -5.906  -8.562  1.00  0.00     0.000 C 
BRANCH   8   9
ATOM      9  C   UNL     1       2.505  -5.124  -7.358  1.00  0.00     0.000 C 
BRANCH   9  10
ATOM     10  C   UNL     1       3.291  -3.829  -7.089  1.00  0.00     0.000 C 
BRANCH  10  11
ATOM     11  C   UNL     1       3.781  -3.721  -5.637  1.00  0.00     0.000 C 
BRANCH  11  12
ATOM     12  C   UNL     1       3.166  -2.529  -4.887  1.00  0.00     0.006 C 
BRANCH  12  13
ATOM     13  C   UNL     1       1.962  -2.967  -4.049  1.00  0.00     0.053 C 
BRANCH  13  14
ATOM     14  C   UNL     1       2.231  -2.775  -2.590  1.00  0.00     0.041 C 
ATOM     15  O   UNL     1       3.020  -1.872  -2.204  1.00  0.00    -0.550 OA
ATOM     16  O   UNL     1       1.599  -3.584  -1.652  1.00  0.00    -0.550 OA
ENDBRANCH  13  14
ENDBRANCH  12  13
ENDBRANCH  11  12
ENDBRANCH  10  11
ENDBRANCH   9  10
ENDBRANCH   8   9
ENDBRANCH   7   8
ENDBRANCH   6   7
ENDBRANCH   5   6
ENDBRANCH   4   5
ENDBRANCH   3   4
ENDBRANCH   2   3
ENDBRANCH   1   2
BRANCH   1  17
ATOM     17  C   UNL     1       6.801  -5.001 -10.111  1.00  0.00     0.000 C 
BRANCH  17  18
ATOM     18  C   UNL     1       5.802  -4.119  -9.335  1.00  0.00     0.000 C 
BRANCH  18  19
ATOM     19  C   UNL     1       6.342  -2.738  -8.920  1.00  0.00     0.000 C 
BRANCH  19  20
ATOM     20  C   UNL     1       7.431  -2.216  -9.867  1.00  0.00     0.000 C 
BRANCH  20  21
ATOM     21  C   UNL     1       8.478  -1.394  -9.106  1.00  0.00     0.000 C 
BRANCH  21  22
ATOM     22  C   UNL     1       9.771  -2.200  -8.916  1.00  0.00    -0.000 C 
BRANCH  22  23
ATOM     23  C   UNL     1       9.736  -3.097  -7.668  1.00  0.00    -0.000 C 
BRANCH  23  24
ATOM     24  C   UNL     1       9.801  -4.594  -8.014  1.00  0.00    -0.000 C 
BRANCH  24  25
ATOM     25  C   UNL     1       9.470  -5.488  -6.809  1.00  0.00    -0.000 C 
BRANCH  25  26
ATOM     26  C   UNL     1       8.527  -4.796  -5.808  1.00  0.00    -0.000 C 
BRANCH  26  27
ATOM     27  C   UNL     1       7.048  -5.145  -6.046  1.00  0.00    -0.000 C 
BRANCH  27  28
ATOM     28  C   UNL     1       6.801  -6.566  -6.589  1.00  0.00    -0.000 C 
BRANCH  28  29
ATOM     29  C   UNL     1       6.553  -7.616  -5.485  1.00  0.00    -0.003 C 
ATOM     30  C   UNL     1       7.507  -8.806  -5.586  1.00  0.00     0.004 C 
ENDBRANCH  28  29
ENDBRANCH  27  28
ENDBRANCH  26  27
ENDBRANCH  25  26
ENDBRANCH  24  25
ENDBRANCH  23  24
ENDBRANCH  22  23
ENDBRANCH  21  22
ENDBRANCH  20  21
ENDBRANCH  19  20
ENDBRANCH  18  19
ENDBRANCH  17  18
ENDBRANCH   1  17
TORSDOF 26
ENDMDL
MODEL 4
REMARK VINA RESULT:    -1.732      1.966      4.410
REMARK INTER + INTRA:          -7.732
REMARK INTER:                  -5.021
REMARK INTRA:                  -2.711
REMARK UNBOUND:                -3.366
REMARK SMILES CCCCCCCCCCCCCCCCCCCCCCCCCCCC(=O)[O-]
REMARK SMILES IDX 15 1 16 2 17 3 18 4 19 5 20 6 21 7 22 8 23 9 24 10 25 11
REMARK SMILES IDX 26 12 27 13 28 14 29 15 30 16 14 17 13 18 12 19 11 20 10 21
REMARK SMILES IDX 9 22 8 23 7 24 6 25 5 26 4 27 3 28 2 29 1 30
REMARK H PARENT
REMARK Flexibility Score: inf
ROOT
ATOM      1  C   UNL     1       6.423  -5.196  -9.328  1.00  0.00     0.000 C 
ENDROOT
BRANCH   1   2
ATOM      2  C   UNL     1       7.022  -3.997 -10.086  1.00  0.00     0.000 C 
BRANCH   2   3
ATOM      3  C   UNL     1       7.103  -2.730  -9.223  1.00  0.00     0.000 C 
BRANCH   3   4
ATOM      4  C   UNL     1       6.543  -2.981  -7.817  1.00  0.00     0.000 C 
BRANCH   4   5
ATOM      5  C   UNL     1       7.667  -3.013  -6.776  1.00  0.00     0.000 C 
BRANCH   5   6
ATOM      6  C   UNL     1       9.030  -2.732  -7.426  1.00  0.00     0.000 C 
BRANCH   6   7
ATOM      7  C   UNL     1      10.000  -3.920  -7.312  1.00  0.00     0.000 C 
BRANCH   7   8
ATOM      8  C   UNL     1       9.322  -5.185  -6.755  1.00  0.00     0.000 C 
BRANCH   8   9
ATOM      9  C   UNL     1       9.781  -6.464  -7.475  1.00  0.00     0.000 C 
BRANCH   9  10
ATOM     10  C   UNL     1       8.719  -7.577  -7.429  1.00  0.00     0.000 C 
BRANCH  10  11
ATOM     11  C   UNL     1       9.250  -8.882  -6.815  1.00  0.00     0.000 C 
BRANCH  11  12
ATOM     12  C   UNL     1       8.866  -9.042  -5.336  1.00  0.00     0.006 C 
BRANCH  12  13
ATOM     13  C   UNL     1       9.987  -9.728  -4.548  1.00  0.00     0.053 C 
BRANCH  13  14
ATOM     14  C   UNL     1       9.990  -9.274  -3.122  1.00  0.00     0.041 C 
ATOM     15  O   UNL     1       9.978 -10.118  -2.188  1.00  0.00    -0.550 OA
ATOM     16  O   UNL     1      10.019  -7.916  -2.824  1.00  0.00    -0.550 OA
ENDBRANCH  13  14
ENDBRANCH  12  13
ENDBRANCH  11  12
ENDBRANCH  10  11
ENDBRANCH   9  10
ENDBRANCH   8   9
ENDBRANCH   7   8
ENDBRANCH   6   7
ENDBRANCH   5   6
ENDBRANCH   4   5
ENDBRANCH   3   4
ENDBRANCH   2   3
ENDBRANCH   1   2
BRANCH   1  17
ATOM     17  C   UNL     1       6.808  -6.578  -9.892  1.00  0.00     0.000 C 
BRANCH  17  18
ATOM     18  C   UNL     1       5.628  -7.543 -10.121  1.00  0.00     0.000 C 
BRANCH  18  19
ATOM     19  C   UNL     1       4.920  -8.019  -8.839  1.00  0.00     0.000 C 
BRANCH  19  20
ATOM     20  C   UNL     1       3.467  -7.533  -8.746  1.00  0.00     0.000 C 
BRANCH  20  21
ATOM     21  C   UNL     1       3.151  -6.520  -9.853  1.00  0.00     0.000 C 
BRANCH  21  22
ATOM     22  C   UNL     1       3.240  -5.082  -9.318  1.00  0.00    -0.000 C 
BRANCH  22  23
ATOM     23  C   UNL     1       3.001  -4.997  -7.802  1.00  0.00    -0.000 C 
BRANCH  23  24
ATOM     24  C   UNL     1       3.284  -3.595  -7.238  1.00  0.00    -0.000 C 
BRANCH  24  25
ATOM     25  C   UNL     1       3.603  -3.623  -5.734  1.00  0.00    -0.000 C 
BRANCH  25  26
ATOM     26  C   UNL     1       2.396  -3.214  -4.871  1.00  0.00    -0.000 C 
BRANCH  26  27
ATOM     27  C   UNL     1       2.803  -2.427  -3.615  1.00  0.00    -0.000 C 
BRANCH  27  28
ATOM     28  C   UNL     1       2.304  -3.030  -2.287  1.00  0.00    -0.000 C 
BRANCH  28  29
ATOM     29  C   UNL     1       1.526  -2.029  -1.406  1.00  0.00    -0.003 C 
ATOM     30  C   UNL     1       2.244  -0.685  -1.276  1.00  0.00     0.004 C 
ENDBRANCH  28  29
ENDBRANCH  27  28
ENDBRANCH  26  27
ENDBRANCH  25  26
ENDBRANCH  24  25
ENDBRANCH  23  24
ENDBRANCH  22  23
ENDBRANCH  21  22
ENDBRANCH  20  21
ENDBRANCH  19  20
ENDBRANCH  18  19
ENDBRANCH  17  18
ENDBRANCH   1  17
TORSDOF 26
ENDMDL
MODEL 5
REMARK VINA RESULT:    -1.564      2.815      5.141
REMARK INTER + INTRA:          -7.306
REMARK INTER:                  -4.295
REMARK INTRA:                  -3.012
REMARK UNBOUND:                -3.366
REMARK SMILES CCCCCCCCCCCCCCCCCCCCCCCCCCCC(=O)[O-]
REMARK SMILES IDX 15 1 16 2 17 3 18 4 19 5 20 6 21 7 22 8 23 9 24 10 25 11
REMARK SMILES IDX 26 12 27 13 28 14 29 15 30 16 14 17 13 18 12 19 11 20 10 21
REMARK SMILES IDX 9 22 8 23 7 24 6 25 5 26 4 27 3 28 2 29 1 30
REMARK H PARENT
REMARK Flexibility Score: inf
ROOT
ATOM      1  C   UNL     1       4.898  -5.159  -9.516  1.00  0.00     0.000 C 
ENDROOT
BRANCH   1   2
ATOM      2  C   UNL     1       4.054  -6.439  -9.373  1.00  0.00     0.000 C 
BRANCH   2   3
ATOM      3  C   UNL     1       4.894  -7.663  -8.983  1.00  0.00     0.000 C 
BRANCH   3   4
ATOM      4  C   UNL     1       6.240  -7.241  -8.382  1.00  0.00     0.000 C 
BRANCH   4   5
ATOM      5  C   UNL     1       6.272  -7.497  -6.872  1.00  0.00     0.000 C 
BRANCH   5   6
ATOM      6  C   UNL     1       7.155  -8.708  -6.535  1.00  0.00     0.000 C 
BRANCH   6   7
ATOM      7  C   UNL     1       8.395  -8.329  -5.708  1.00  0.00     0.000 C 
BRANCH   7   8
ATOM      8  C   UNL     1       8.577  -6.806  -5.580  1.00  0.00     0.000 C 
BRANCH   8   9
ATOM      9  C   UNL     1       9.839  -6.301  -6.299  1.00  0.00     0.000 C 
BRANCH   9  10
ATOM     10  C   UNL     1       9.845  -6.659  -7.796  1.00  0.00     0.000 C 
BRANCH  10  11
ATOM     11  C   UNL     1       9.721  -5.425  -8.703  1.00  0.00     0.000 C 
BRANCH  11  12
ATOM     12  C   UNL     1       8.674  -4.419  -8.199  1.00  0.00     0.006 C 
BRANCH  12  13
ATOM     13  C   UNL     1       8.223  -3.484  -9.325  1.00  0.00     0.053 C 
BRANCH  13  14
ATOM     14  C   UNL     1       8.023  -2.092  -8.813  1.00  0.00     0.041 C 
ATOM     15  O   UNL     1       8.071  -1.859  -7.575  1.00  0.00    -0.550 OA
ATOM     16  O   UNL     1       7.795  -1.048  -9.702  1.00  0.00    -0.550 OA
ENDBRANCH  13  14
ENDBRANCH  12  13
ENDBRANCH  11  12
ENDBRANCH  10  11
ENDBRANCH   9  10
ENDBRANCH   8   9
ENDBRANCH   7   8
ENDBRANCH   6   7
ENDBRANCH   5   6
ENDBRANCH   4   5
ENDBRANCH   3   4
ENDBRANCH   2   3
ENDBRANCH   1   2
BRANCH   1  17
ATOM     17  C   UNL     1       4.099  -3.843  -9.430  1.00  0.00     0.000 C 
BRANCH  17  18
ATOM     18  C   UNL     1       4.560  -2.869  -8.326  1.00  0.00     0.000 C 
BRANCH  18  19
ATOM     19  C   UNL     1       4.914  -3.532  -6.983  1.00  0.00     0.000 C 
BRANCH  19  20
ATOM     20  C   UNL     1       3.744  -4.325  -6.384  1.00  0.00     0.000 C 
BRANCH  20  21
ATOM     21  C   UNL     1       2.636  -3.387  -5.889  1.00  0.00     0.000 C 
BRANCH  21  22
ATOM     22  C   UNL     1       2.977  -2.827  -4.500  1.00  0.00    -0.000 C 
BRANCH  22  23
ATOM     23  C   UNL     1       1.815  -2.964  -3.503  1.00  0.00    -0.000 C 
BRANCH  23  24
ATOM     24  C   UNL     1       2.207  -2.536  -2.079  1.00  0.00    -0.000 C 
BRANCH  24  25
ATOM     25  C   UNL     1       2.866  -1.148  -2.046  1.00  0.00    -0.000 C 
BRANCH  25  26
ATOM     26  C   UNL     1       2.372  -0.292  -0.866  1.00  0.00    -0.000 C 
BRANCH  26  27
ATOM     27  C   UNL     1       3.282   0.915  -0.585  1.00  0.00    -0.000 C 
BRANCH  27  28
ATOM     28  C   UNL     1       2.543   2.183  -0.113  1.00  0.00    -0.000 C 
BRANCH  28  29
ATOM     29  C   UNL     1       2.919   3.451  -0.909  1.00  0.00    -0.003 C 
ATOM     30  C   UNL     1       1.710   4.344  -1.190  1.00  0.00     0.004 C 
ENDBRANCH  28  29
ENDBRANCH  27  28
ENDBRANCH  26  27
ENDBRANCH  25  26
ENDBRANCH  24  25
ENDBRANCH  23  24
ENDBRANCH  22  23
ENDBRANCH  21  22
ENDBRANCH  20  21
ENDBRANCH  19  20
ENDBRANCH  18  19
ENDBRANCH  17  18
ENDBRANCH   1  17
TORSDOF 26
ENDMDL
MODEL 6
REMARK VINA RESULT:    -1.532      2.521      5.316
REMARK INTER + INTRA:          -7.226
REMARK INTER:                  -4.690
REMARK INTRA:                  -2.536
REMARK UNBOUND:                -3.366
REMARK SMILES CCCCCCCCCCCCCCCCCCCCCCCCCCCC(=O)[O-]
REMARK SMILES IDX 15 1 16 2 17 3 18 4 19 5 20 6 21 7 22 8 23 9 24 10 25 11
REMARK SMILES IDX 26 12 27 13 28 14 29 15 30 16 14 17 13 18 12 19 11 20 10 21
REMARK SMILES IDX 9 22 8 23 7 24 6 25 5 26 4 27 3 28 2 29 1 30
REMARK H PARENT
REMARK Flexibility Score: inf
ROOT
ATOM      1  C   UNL     1       5.030  -2.597  -9.219  1.00  0.00     0.000 C 
ENDROOT
BRANCH   1   2
ATOM      2  C   UNL     1       6.203  -2.178 -10.124  1.00  0.00     0.000 C 
BRANCH   2   3
ATOM      3  C   UNL     1       7.530  -2.833  -9.717  1.00  0.00     0.000 C 
BRANCH   3   4
ATOM      4  C   UNL     1       8.290  -1.963  -8.709  1.00  0.00     0.000 C 
BRANCH   4   5
ATOM      5  C   UNL     1       7.874  -2.297  -7.272  1.00  0.00     0.000 C 
BRANCH   5   6
ATOM      6  C   UNL     1       8.215  -3.753  -6.923  1.00  0.00     0.000 C 
BRANCH   6   7
ATOM      7  C   UNL     1       9.727  -4.033  -6.952  1.00  0.00     0.000 C 
BRANCH   7   8
ATOM      8  C   UNL     1      10.052  -5.472  -7.392  1.00  0.00     0.000 C 
BRANCH   8   9
ATOM      9  C   UNL     1       9.137  -5.963  -8.526  1.00  0.00     0.000 C 
BRANCH   9  10
ATOM     10  C   UNL     1       9.475  -7.397  -8.975  1.00  0.00     0.000 C 
BRANCH  10  11
ATOM     11  C   UNL     1       9.590  -8.377  -7.797  1.00  0.00     0.000 C 
BRANCH  11  12
ATOM     12  C   UNL     1       8.347  -9.266  -7.638  1.00  0.00     0.006 C 
BRANCH  12  13
ATOM     13  C   UNL     1       7.853  -9.268  -6.189  1.00  0.00     0.053 C 
BRANCH  13  14
ATOM     14  C   UNL     1       7.111  -8.006  -5.878  1.00  0.00     0.041 C 
ATOM     15  O   UNL     1       7.682  -7.072  -5.255  1.00  0.00    -0.550 OA
ATOM     16  O   UNL     1       5.791  -7.855  -6.288  1.00  0.00    -0.550 OA
ENDBRANCH  13  14
ENDBRANCH  12  13
ENDBRANCH  11  12
ENDBRANCH  10  11
ENDBRANCH   9  10
ENDBRANCH   8   9
ENDBRANCH   7   8
ENDBRANCH   6   7
ENDBRANCH   5   6
ENDBRANCH   4   5
ENDBRANCH   3   4
ENDBRANCH   2   3
ENDBRANCH   1   2
BRANCH   1  17
ATOM     17  C   UNL     1       4.483  -4.015  -9.480  1.00  0.00     0.000 C 
BRANCH  17  18
ATOM     18  C   UNL     1       3.748  -4.662  -8.289  1.00  0.00     0.000 C 
BRANCH  18  19
ATOM     19  C   UNL     1       4.598  -4.832  -7.017  1.00  0.00     0.000 C 
BRANCH  19  20
ATOM     20  C   UNL     1       4.355  -3.720  -5.986  1.00  0.00     0.000 C 
BRANCH  20  21
ATOM     21  C   UNL     1       2.867  -3.610  -5.633  1.00  0.00     0.000 C 
BRANCH  21  22
ATOM     22  C   UNL     1       2.619  -2.427  -4.684  1.00  0.00    -0.000 C 
BRANCH  22  23
ATOM     23  C   UNL     1       1.850  -2.833  -3.416  1.00  0.00    -0.000 C 
BRANCH  23  24
ATOM     24  C   UNL     1       2.617  -2.493  -2.127  1.00  0.00    -0.000 C 
BRANCH  24  25
ATOM     25  C   UNL     1       2.168  -1.155  -1.517  1.00  0.00    -0.000 C 
BRANCH  25  26
ATOM     26  C   UNL     1       3.358  -0.277  -1.090  1.00  0.00    -0.000 C 
BRANCH  26  27
ATOM     27  C   UNL     1       3.021   1.223  -1.092  1.00  0.00    -0.000 C 
BRANCH  27  28
ATOM     28  C   UNL     1       2.865   1.850   0.308  1.00  0.00    -0.000 C 
BRANCH  28  29
ATOM     29  C   UNL     1       2.969   3.390   0.311  1.00  0.00    -0.003 C 
ATOM     30  C   UNL     1       2.252   4.027  -0.880  1.00  0.00     0.004 C 
ENDBRANCH  28  29
ENDBRANCH  27  28
ENDBRANCH  26  27
ENDBRANCH  25  26
ENDBRANCH  24  25
ENDBRANCH  23  24
ENDBRANCH  22  23
ENDBRANCH  21  22
ENDBRANCH  20  21
ENDBRANCH  19  20
ENDBRANCH  18  19
ENDBRANCH  17  18
ENDBRANCH   1  17
TORSDOF 26
ENDMDL
MODEL 7
REMARK VINA RESULT:    -1.368      2.902      7.390
REMARK INTER + INTRA:          -6.812
REMARK INTER:                  -3.631
REMARK INTRA:                  -3.182
REMARK UNBOUND:                -3.366
REMARK SMILES CCCCCCCCCCCCCCCCCCCCCCCCCCCC(=O)[O-]
REMARK SMILES IDX 15 1 16 2 17 3 18 4 19 5 20 6 21 7 22 8 23 9 24 10 25 11
REMARK SMILES IDX 26 12 27 13 28 14 29 15 30 16 14 17 13 18 12 19 11 20 10 21
REMARK SMILES IDX 9 22 8 23 7 24 6 25 5 26 4 27 3 28 2 29 1 30
REMARK H PARENT
REMARK Flexibility Score: inf
ROOT
ATOM      1  C   UNL     1       4.805  -3.477  -9.250  1.00  0.00     0.000 C 
ENDROOT
BRANCH   1   2
ATOM      2  C   UNL     1       4.761  -4.103  -7.845  1.00  0.00     0.000 C 
BRANCH   2   3
ATOM      3  C   UNL     1       3.438  -4.827  -7.559  1.00  0.00     0.000 C 
BRANCH   3   4
ATOM      4  C   UNL     1       2.583  -4.042  -6.556  1.00  0.00     0.000 C 
BRANCH   4   5
ATOM      5  C   UNL     1       3.458  -3.397  -5.476  1.00  0.00     0.000 C 
BRANCH   5   6
ATOM      6  C   UNL     1       2.631  -2.457  -4.585  1.00  0.00     0.000 C 
BRANCH   6   7
ATOM      7  C   UNL     1       1.812  -3.211  -3.524  1.00  0.00     0.000 C 
BRANCH   7   8
ATOM      8  C   UNL     1       2.315  -2.947  -2.093  1.00  0.00     0.000 C 
BRANCH   8   9
ATOM      9  C   UNL     1       1.381  -3.535  -1.022  1.00  0.00     0.000 C 
BRANCH   9  10
ATOM     10  C   UNL     1       1.848  -4.916  -0.528  1.00  0.00     0.000 C 
BRANCH  10  11
ATOM     11  C   UNL     1       1.073  -5.399   0.707  1.00  0.00     0.000 C 
BRANCH  11  12
ATOM     12  C   UNL     1       1.461  -6.823   1.134  1.00  0.00     0.006 C 
BRANCH  12  13
ATOM     13  C   UNL     1       1.063  -7.846   0.066  1.00  0.00     0.053 C 
BRANCH  13  14
ATOM     14  C   UNL     1       2.027  -8.991   0.040  1.00  0.00     0.041 C 
ATOM     15  O   UNL     1       2.351  -9.522  -1.055  1.00  0.00    -0.550 OA
ATOM     16  O   UNL     1       2.578  -9.464   1.225  1.00  0.00    -0.550 OA
ENDBRANCH  13  14
ENDBRANCH  12  13
ENDBRANCH  11  12
ENDBRANCH  10  11
ENDBRANCH   9  10
ENDBRANCH   8   9
ENDBRANCH   7   8
ENDBRANCH   6   7
ENDBRANCH   5   6
ENDBRANCH   4   5
ENDBRANCH   3   4
ENDBRANCH   2   3
ENDBRANCH   1   2
BRANCH   1  17
ATOM     17  C   UNL     1       6.134  -2.781  -9.610  1.00  0.00     0.000 C 
BRANCH  17  18
ATOM     18  C   UNL     1       7.143  -2.658  -8.450  1.00  0.00     0.000 C 
BRANCH  18  19
ATOM     19  C   UNL     1       8.338  -1.729  -8.725  1.00  0.00     0.000 C 
BRANCH  19  20
ATOM     20  C   UNL     1       9.672  -2.316  -8.242  1.00  0.00     0.000 C 
BRANCH  20  21
ATOM     21  C   UNL     1       9.721  -3.832  -8.463  1.00  0.00     0.000 C 
BRANCH  21  22
ATOM     22  C   UNL     1       9.978  -4.568  -7.139  1.00  0.00    -0.000 C 
BRANCH  22  23
ATOM     23  C   UNL     1       9.587  -6.054  -7.199  1.00  0.00    -0.000 C 
BRANCH  23  24
ATOM     24  C   UNL     1       8.801  -6.507  -5.958  1.00  0.00    -0.000 C 
BRANCH  24  25
ATOM     25  C   UNL     1       7.415  -5.848  -5.870  1.00  0.00    -0.000 C 
BRANCH  25  26
ATOM     26  C   UNL     1       6.271  -6.875  -5.951  1.00  0.00    -0.000 C 
BRANCH  26  27
ATOM     27  C   UNL     1       6.474  -7.903  -7.075  1.00  0.00    -0.000 C 
BRANCH  27  28
ATOM     28  C   UNL     1       5.637  -7.646  -8.343  1.00  0.00    -0.000 C 
BRANCH  28  29
ATOM     29  C   UNL     1       6.460  -7.684  -9.648  1.00  0.00    -0.003 C 
ATOM     30  C   UNL     1       7.187  -6.366  -9.919  1.00  0.00     0.004 C 
ENDBRANCH  28  29
ENDBRANCH  27  28
ENDBRANCH  26  27
ENDBRANCH  25  26
ENDBRANCH  24  25
ENDBRANCH  23  24
ENDBRANCH  22  23
ENDBRANCH  21  22
ENDBRANCH  20  21
ENDBRANCH  19  20
ENDBRANCH  18  19
ENDBRANCH  17  18
ENDBRANCH   1  17
TORSDOF 26
ENDMDL
MODEL 8
REMARK VINA RESULT:    -1.305      2.694      5.443
REMARK INTER + INTRA:          -6.655
REMARK INTER:                  -3.338
REMARK INTRA:                  -3.317
REMARK UNBOUND:                -3.366
REMARK SMILES CCCCCCCCCCCCCCCCCCCCCCCCCCCC(=O)[O-]
REMARK SMILES IDX 15 1 16 2 17 3 18 4 19 5 20 6 21 7 22 8 23 9 24 10 25 11
REMARK SMILES IDX 26 12 27 13 28 14 29 15 30 16 14 17 13 18 12 19 11 20 10 21
REMARK SMILES IDX 9 22 8 23 7 24 6 25 5 26 4 27 3 28 2 29 1 30
REMARK H PARENT
REMARK Flexibility Score: inf
ROOT
ATOM      1  C   UNL     1       6.769  -3.230 -10.068  1.00  0.00     0.000 C 
ENDROOT
BRANCH   1   2
ATOM      2  C   UNL     1       8.301  -3.095 -10.007  1.00  0.00     0.000 C 
BRANCH   2   3
ATOM      3  C   UNL     1       8.846  -3.162  -8.574  1.00  0.00     0.000 C 
BRANCH   3   4
ATOM      4  C   UNL     1       7.954  -2.375  -7.606  1.00  0.00     0.000 C 
BRANCH   4   5
ATOM      5  C   UNL     1       7.561  -3.236  -6.400  1.00  0.00     0.000 C 
BRANCH   5   6
ATOM      6  C   UNL     1       8.036  -4.685  -6.578  1.00  0.00     0.000 C 
BRANCH   6   7
ATOM      7  C   UNL     1       7.031  -5.712  -6.032  1.00  0.00     0.000 C 
BRANCH   7   8
ATOM      8  C   UNL     1       7.317  -7.141  -6.528  1.00  0.00     0.000 C 
BRANCH   8   9
ATOM      9  C   UNL     1       8.014  -7.160  -7.898  1.00  0.00     0.000 C 
BRANCH   9  10
ATOM     10  C   UNL     1       8.109  -8.579  -8.490  1.00  0.00     0.000 C 
BRANCH  10  11
ATOM     11  C   UNL     1       6.737  -9.255  -8.635  1.00  0.00     0.000 C 
BRANCH  11  12
ATOM     12  C   UNL     1       5.658  -8.303  -9.175  1.00  0.00     0.006 C 
BRANCH  12  13
ATOM     13  C   UNL     1       4.475  -9.084  -9.755  1.00  0.00     0.053 C 
BRANCH  13  14
ATOM     14  C   UNL     1       3.204  -8.722  -9.054  1.00  0.00     0.041 C 
ATOM     15  O   UNL     1       2.122  -9.284  -9.372  1.00  0.00    -0.550 OA
ATOM     16  O   UNL     1       3.214  -7.771  -8.040  1.00  0.00    -0.550 OA
ENDBRANCH  13  14
ENDBRANCH  12  13
ENDBRANCH  11  12
ENDBRANCH  10  11
ENDBRANCH   9  10
ENDBRANCH   8   9
ENDBRANCH   7   8
ENDBRANCH   6   7
ENDBRANCH   5   6
ENDBRANCH   4   5
ENDBRANCH   3   4
ENDBRANCH   2   3
ENDBRANCH   1   2
BRANCH   1  17
ATOM     17  C   UNL     1       6.241  -4.678 -10.009  1.00  0.00     0.000 C 
BRANCH  17  18
ATOM     18  C   UNL     1       4.915  -4.860  -9.245  1.00  0.00     0.000 C 
BRANCH  18  19
ATOM     19  C   UNL     1       4.576  -3.732  -8.254  1.00  0.00     0.000 C 
BRANCH  19  20
ATOM     20  C   UNL     1       3.864  -4.241  -6.993  1.00  0.00     0.000 C 
BRANCH  20  21
ATOM     21  C   UNL     1       3.241  -3.082  -6.205  1.00  0.00     0.000 C 
BRANCH  21  22
ATOM     22  C   UNL     1       3.229  -3.392  -4.700  1.00  0.00    -0.000 C 
BRANCH  22  23
ATOM     23  C   UNL     1       2.214  -2.537  -3.925  1.00  0.00    -0.000 C 
BRANCH  23  24
ATOM     24  C   UNL     1       2.312  -2.738  -2.404  1.00  0.00    -0.000 C 
BRANCH  24  25
ATOM     25  C   UNL     1       2.549  -1.417  -1.653  1.00  0.00    -0.000 C 
BRANCH  25  26
ATOM     26  C   UNL     1       1.343  -1.012  -0.786  1.00  0.00    -0.000 C 
BRANCH  26  27
ATOM     27  C   UNL     1       1.529   0.358  -0.114  1.00  0.00    -0.000 C 
BRANCH  27  28
ATOM     28  C   UNL     1       2.850   1.072  -0.461  1.00  0.00    -0.000 C 
BRANCH  28  29
ATOM     29  C   UNL     1       2.934   2.517   0.078  1.00  0.00    -0.003 C 
ATOM     30  C   UNL     1       2.184   3.514  -0.805  1.00  0.00     0.004 C 
ENDBRANCH  28  29
ENDBRANCH  27  28
ENDBRANCH  26  27
ENDBRANCH  25  26
ENDBRANCH  24  25
ENDBRANCH  23  24
ENDBRANCH  22  23
ENDBRANCH  21  22
ENDBRANCH  20  21
ENDBRANCH  19  20
ENDBRANCH  18  19
ENDBRANCH  17  18
ENDBRANCH   1  17
TORSDOF 26
ENDMDL
