MODEL 1
REMARK VINA RESULT:    -4.184      0.000      0.000
REMARK INTER + INTRA:          -5.800
REMARK INTER:                  -5.407
REMARK INTRA:                  -0.393
REMARK UNBOUND:                -0.393
REMARK SMILES CCO[C@H]1O[C@H](CO)[C@H](O)[C@@H](O)[C@@H]1O
REMARK SMILES IDX 4 1 13 2 11 3 9 4 6 5 5 6 3 7 2 8 1 9 14 10 12 12 7 14 8 15
REMARK SMILES IDX 10 17
REMARK H PARENT 14 11 12 13 8 16 10 18
REMARK Flexibility Score: inf
ROOT
ATOM      1  C   UNL     1      20.313  25.992  45.383  1.00  0.00     0.281 C 
ATOM      2  C   UNL     1      18.890  25.409  45.190  1.00  0.00     0.202 C 
ATOM      3  C   UNL     1      17.949  26.414  44.474  1.00  0.00     0.179 C 
ATOM      4  C   UNL     1      18.397  27.859  44.735  1.00  0.00     0.177 C 
ATOM      5  C   UNL     1      19.880  28.036  44.279  1.00  0.00     0.178 C 
ATOM      6  O   UNL     1      20.644  26.831  44.292  1.00  0.00    -0.341 OA
ENDROOT
BRANCH   1   7
ATOM      7  O   UNL     1      21.252  24.929  45.408  1.00  0.00    -0.350 OA
BRANCH   7   8
ATOM      8  C   UNL     1      21.852  24.805  46.681  1.00  0.00     0.160 C 
ATOM      9  C   UNL     1      21.735  23.363  47.149  1.00  0.00     0.035 C 
ENDBRANCH   7   8
ENDBRANCH   1   7
BRANCH   2  10
ATOM     10  O   UNL     1      18.360  25.071  46.447  1.00  0.00    -0.385 OA
ATOM     11  H   UNL     1      18.385  25.894  47.001  1.00  0.00     0.211 HD
ENDBRANCH   2  10
BRANCH   3  12
ATOM     12  O   UNL     1      17.954  26.177  43.088  1.00  0.00    -0.387 OA
ATOM     13  H   UNL     1      18.857  26.424  42.758  1.00  0.00     0.211 HD
ENDBRANCH   3  12
BRANCH   5  14
ATOM     14  C   UNL     1      20.625  29.162  45.020  1.00  0.00     0.191 C 
BRANCH  14  15
ATOM     15  O   UNL     1      19.878  30.348  44.987  1.00  0.00    -0.394 OA
ATOM     16  H   UNL     1      18.923  30.086  45.062  1.00  0.00     0.210 HD
ENDBRANCH  14  15
ENDBRANCH   5  14
BRANCH   4  17
ATOM     17  O   UNL     1      18.238  28.145  46.104  1.00  0.00    -0.387 OA
ATOM     18  H   UNL     1      18.899  28.850  46.335  1.00  0.00     0.211 HD
ENDBRANCH   4  17
TORSDOF 7
ENDMDL
MODEL 2
REMARK VINA RESULT:    -4.140      1.759      3.934
REMARK INTER + INTRA:          -5.742
REMARK INTER:                  -5.368
REMARK INTRA:                  -0.375
REMARK UNBOUND:                -0.393
REMARK SMILES CCO[C@H]1O[C@H](CO)[C@H](O)[C@@H](O)[C@@H]1O
REMARK SMILES IDX 4 1 13 2 11 3 9 4 6 5 5 6 3 7 2 8 1 9 14 10 12 12 7 14 8 15
REMARK SMILES IDX 10 17
REMARK H PARENT 14 11 12 13 8 16 10 18
REMARK Flexibility Score: inf
ROOT
ATOM      1  C   UNL     1      19.684  27.677  45.282  1.00  0.00     0.281 C 
ATOM      2  C   UNL     1      20.351  26.369  44.783  1.00  0.00     0.202 C 
ATOM      3  C   UNL     1      19.300  25.347  44.274  1.00  0.00     0.179 C 
ATOM      4  C   UNL     1      17.949  25.563  44.969  1.00  0.00     0.177 C 
ATOM      5  C   UNL     1      17.475  27.033  44.743  1.00  0.00     0.178 C 
ATOM      6  O   UNL     1      18.533  27.959  44.506  1.00  0.00    -0.341 OA
ENDROOT
BRANCH   1   7
ATOM      7  O   UNL     1      20.591  28.755  45.113  1.00  0.00    -0.350 OA
BRANCH   7   8
ATOM      8  C   UNL     1      20.107  29.688  44.170  1.00  0.00     0.160 C 
ATOM      9  C   UNL     1      20.263  31.092  44.731  1.00  0.00     0.035 C 
ENDBRANCH   7   8
ENDBRANCH   1   7
BRANCH   2  10
ATOM     10  O   UNL     1      21.095  25.807  45.833  1.00  0.00    -0.385 OA
ATOM     11  H   UNL     1      21.899  26.376  45.955  1.00  0.00     0.211 HD
ENDBRANCH   2  10
BRANCH   3  12
ATOM     12  O   UNL     1      19.126  25.483  42.885  1.00  0.00    -0.387 OA
ATOM     13  H   UNL     1      19.176  24.569  42.499  1.00  0.00     0.211 HD
ENDBRANCH   3  12
BRANCH   5  14
ATOM     14  C   UNL     1      16.530  27.555  45.841  1.00  0.00     0.191 C 
BRANCH  14  15
ATOM     15  O   UNL     1      15.415  26.714  45.968  1.00  0.00    -0.394 OA
ATOM     16  H   UNL     1      15.005  26.646  45.066  1.00  0.00     0.210 HD
ENDBRANCH  14  15
ENDBRANCH   5  14
BRANCH   4  17
ATOM     17  O   UNL     1      18.089  25.269  46.339  1.00  0.00    -0.387 OA
ATOM     18  H   UNL     1      17.174  25.196  46.718  1.00  0.00     0.211 HD
ENDBRANCH   4  17
TORSDOF 7
ENDMDL
MODEL 3
REMARK VINA RESULT:    -4.129      1.831      4.285
REMARK INTER + INTRA:          -5.729
REMARK INTER:                  -5.395
REMARK INTRA:                  -0.333
REMARK UNBOUND:                -0.393
REMARK SMILES CCO[C@H]1O[C@H](CO)[C@H](O)[C@@H](O)[C@@H]1O
REMARK SMILES IDX 4 1 13 2 11 3 9 4 6 5 5 6 3 7 2 8 1 9 14 10 12 12 7 14 8 15
REMARK SMILES IDX 10 17
REMARK H PARENT 14 11 12 13 8 16 10 18
REMARK Flexibility Score: inf
ROOT
ATOM      1  C   UNL     1      18.090  28.283  45.219  1.00  0.00     0.281 C 
ATOM      2  C   UNL     1      16.710  27.602  45.406  1.00  0.00     0.202 C 
ATOM      3  C   UNL     1      16.854  26.094  45.742  1.00  0.00     0.179 C 
ATOM      4  C   UNL     1      18.163  25.531  45.170  1.00  0.00     0.177 C 
ATOM      5  C   UNL     1      19.369  26.359  45.716  1.00  0.00     0.178 C 
ATOM      6  O   UNL     1      19.041  27.696  46.088  1.00  0.00    -0.341 OA
ENDROOT
BRANCH   1   7
ATOM      7  O   UNL     1      17.983  29.654  45.563  1.00  0.00    -0.350 OA
BRANCH   7   8
ATOM      8  C   UNL     1      19.254  30.266  45.629  1.00  0.00     0.160 C 
ATOM      9  C   UNL     1      19.825  30.384  44.225  1.00  0.00     0.035 C 
ENDBRANCH   7   8
ENDBRANCH   1   7
BRANCH   2  10
ATOM     10  O   UNL     1      15.960  27.759  44.229  1.00  0.00    -0.385 OA
ATOM     11  H   UNL     1      15.158  28.293  44.467  1.00  0.00     0.211 HD
ENDBRANCH   2  10
BRANCH   3  12
ATOM     12  O   UNL     1      16.847  25.906  47.136  1.00  0.00    -0.387 OA
ATOM     13  H   UNL     1      15.907  25.723  47.396  1.00  0.00     0.211 HD
ENDBRANCH   3  12
BRANCH   5  14
ATOM     14  C   UNL     1      20.602  26.337  44.793  1.00  0.00     0.191 C 
BRANCH  14  15
ATOM     15  O   UNL     1      20.730  25.085  44.175  1.00  0.00    -0.394 OA
ATOM     16  H   UNL     1      19.811  24.725  44.068  1.00  0.00     0.210 HD
ENDBRANCH  14  15
ENDBRANCH   5  14
BRANCH   4  17
ATOM     17  O   UNL     1      18.100  25.573  43.764  1.00  0.00    -0.387 OA
ATOM     18  H   UNL     1      18.931  26.014  43.446  1.00  0.00     0.211 HD
ENDBRANCH   4  17
TORSDOF 7
ENDMDL
MODEL 4
REMARK VINA RESULT:    -4.119     11.285     12.837
REMARK INTER + INTRA:          -5.715
REMARK INTER:                  -5.503
REMARK INTRA:                  -0.212
REMARK UNBOUND:                -0.393
REMARK SMILES CCO[C@H]1O[C@H](CO)[C@H](O)[C@@H](O)[C@@H]1O
REMARK SMILES IDX 4 1 13 2 11 3 9 4 6 5 5 6 3 7 2 8 1 9 14 10 12 12 7 14 8 15
REMARK SMILES IDX 10 17
REMARK H PARENT 14 11 12 13 8 16 10 18
REMARK Flexibility Score: inf
ROOT
ATOM      1  C   UNL     1      21.895  26.674  33.374  1.00  0.00     0.281 C 
ATOM      2  C   UNL     1      22.142  27.938  32.511  1.00  0.00     0.202 C 
ATOM      3  C   UNL     1      20.950  28.228  31.561  1.00  0.00     0.179 C 
ATOM      4  C   UNL     1      20.196  26.934  31.224  1.00  0.00     0.177 C 
ATOM      5  C   UNL     1      19.724  26.245  32.544  1.00  0.00     0.178 C 
ATOM      6  O   UNL     1      20.518  26.563  33.685  1.00  0.00    -0.341 OA
ENDROOT
BRANCH   1   7
ATOM      7  O   UNL     1      22.603  26.800  34.597  1.00  0.00    -0.350 OA
BRANCH   7   8
ATOM      8  C   UNL     1      21.734  27.136  35.659  1.00  0.00     0.160 C 
ATOM      9  C   UNL     1      22.494  27.963  36.683  1.00  0.00     0.035 C 
ENDBRANCH   7   8
ENDBRANCH   1   7
BRANCH   2  10
ATOM     10  O   UNL     1      23.316  27.757  31.762  1.00  0.00    -0.385 OA
ATOM     11  H   UNL     1      23.436  28.573  31.210  1.00  0.00     0.211 HD
ENDBRANCH   2  10
BRANCH   3  12
ATOM     12  O   UNL     1      20.058  29.131  32.167  1.00  0.00    -0.387 OA
ATOM     13  H   UNL     1      20.424  30.042  32.015  1.00  0.00     0.211 HD
ENDBRANCH   3  12
BRANCH   5  14
ATOM     14  C   UNL     1      19.541  24.721  32.414  1.00  0.00     0.191 C 
BRANCH  14  15
ATOM     15  O   UNL     1      19.517  24.122  33.682  1.00  0.00    -0.394 OA
ATOM     16  H   UNL     1      20.081  23.307  33.622  1.00  0.00     0.210 HD
ENDBRANCH  14  15
ENDBRANCH   5  14
BRANCH   4  17
ATOM     17  O   UNL     1      21.044  26.095  30.476  1.00  0.00    -0.387 OA
ATOM     18  H   UNL     1      20.485  25.355  30.121  1.00  0.00     0.211 HD
ENDBRANCH   4  17
TORSDOF 7
ENDMDL
MODEL 5
REMARK VINA RESULT:    -4.106      1.985      2.742
REMARK INTER + INTRA:          -5.699
REMARK INTER:                  -5.424
REMARK INTRA:                  -0.275
REMARK UNBOUND:                -0.393
REMARK SMILES CCO[C@H]1O[C@H](CO)[C@H](O)[C@@H](O)[C@@H]1O
REMARK SMILES IDX 4 1 13 2 11 3 9 4 6 5 5 6 3 7 2 8 1 9 14 10 12 12 7 14 8 15
REMARK SMILES IDX 10 17
REMARK H PARENT 14 11 12 13 8 16 10 18
REMARK Flexibility Score: inf
ROOT
ATOM      1  C   UNL     1      17.939  26.508  45.213  1.00  0.00     0.281 C 
ATOM      2  C   UNL     1      16.611  26.204  45.953  1.00  0.00     0.202 C 
ATOM      3  C   UNL     1      15.832  27.502  46.295  1.00  0.00     0.179 C 
ATOM      4  C   UNL     1      16.793  28.690  46.439  1.00  0.00     0.177 C 
ATOM      5  C   UNL     1      17.627  28.850  45.129  1.00  0.00     0.178 C 
ATOM      6  O   UNL     1      17.779  27.644  44.382  1.00  0.00    -0.341 OA
ENDROOT
BRANCH   1   7
ATOM      7  O   UNL     1      18.269  25.409  44.380  1.00  0.00    -0.350 OA
BRANCH   7   8
ATOM      8  C   UNL     1      19.551  25.568  43.808  1.00  0.00     0.160 C 
ATOM      9  C   UNL     1      20.588  25.631  44.918  1.00  0.00     0.035 C 
ENDBRANCH   7   8
ENDBRANCH   1   7
BRANCH   2  10
ATOM     10  O   UNL     1      16.897  25.495  47.132  1.00  0.00    -0.385 OA
ATOM     11  H   UNL     1      17.852  25.662  47.344  1.00  0.00     0.211 HD
ENDBRANCH   2  10
BRANCH   3  12
ATOM     12  O   UNL     1      14.901  27.788  45.280  1.00  0.00    -0.387 OA
ATOM     13  H   UNL     1      14.065  27.305  45.514  1.00  0.00     0.211 HD
ENDBRANCH   3  12
BRANCH   5  14
ATOM     14  C   UNL     1      18.990  29.534  45.342  1.00  0.00     0.191 C 
BRANCH  14  15
ATOM     15  O   UNL     1      19.824  29.321  44.235  1.00  0.00    -0.394 OA
ATOM     16  H   UNL     1      19.561  28.448  43.844  1.00  0.00     0.210 HD
ENDBRANCH  14  15
ENDBRANCH   5  14
BRANCH   4  17
ATOM     17  O   UNL     1      17.620  28.474  47.557  1.00  0.00    -0.387 OA
ATOM     18  H   UNL     1      17.198  28.936  48.328  1.00  0.00     0.211 HD
ENDBRANCH   4  17
TORSDOF 7
ENDMDL
MODEL 6
REMARK VINA RESULT:    -4.087     12.004     13.496
REMARK INTER + INTRA:          -5.674
REMARK INTER:                  -5.226
REMARK INTRA:                  -0.448
REMARK UNBOUND:                -0.393
REMARK SMILES CCO[C@H]1O[C@H](CO)[C@H](O)[C@@H](O)[C@@H]1O
REMARK SMILES IDX 4 1 13 2 11 3 9 4 6 5 5 6 3 7 2 8 1 9 14 10 12 12 7 14 8 15
REMARK SMILES IDX 10 17
REMARK H PARENT 14 11 12 13 8 16 10 18
REMARK Flexibility Score: inf
ROOT
ATOM      1  C   UNL     1      22.358  26.875  31.709  1.00  0.00     0.281 C 
ATOM      2  C   UNL     1      20.943  26.856  31.075  1.00  0.00     0.202 C 
ATOM      3  C   UNL     1      19.841  27.179  32.118  1.00  0.00     0.179 C 
ATOM      4  C   UNL     1      20.295  26.782  33.530  1.00  0.00     0.177 C 
ATOM      5  C   UNL     1      21.637  27.506  33.869  1.00  0.00     0.178 C 
ATOM      6  O   UNL     1      22.418  27.856  32.728  1.00  0.00    -0.341 OA
ENDROOT
BRANCH   1   7
ATOM      7  O   UNL     1      23.307  27.227  30.716  1.00  0.00    -0.350 OA
BRANCH   7   8
ATOM      8  C   UNL     1      22.949  28.431  30.071  1.00  0.00     0.160 C 
ATOM      9  C   UNL     1      24.134  29.385  30.100  1.00  0.00     0.035 C 
ENDBRANCH   7   8
ENDBRANCH   1   7
BRANCH   2  10
ATOM     10  O   UNL     1      20.711  25.590  30.512  1.00  0.00    -0.385 OA
ATOM     11  H   UNL     1      20.785  24.929  31.248  1.00  0.00     0.211 HD
ENDBRANCH   2  10
BRANCH   3  12
ATOM     12  O   UNL     1      19.548  28.555  32.103  1.00  0.00    -0.387 OA
ATOM     13  H   UNL     1      20.365  29.018  31.779  1.00  0.00     0.211 HD
ENDBRANCH   3  12
BRANCH   5  14
ATOM     14  C   UNL     1      22.495  26.762  34.909  1.00  0.00     0.191 C 
BRANCH  14  15
ATOM     15  O   UNL     1      21.739  26.478  36.055  1.00  0.00    -0.394 OA
ATOM     16  H   UNL     1      22.297  25.889  36.627  1.00  0.00     0.210 HD
ENDBRANCH  14  15
ENDBRANCH   5  14
BRANCH   4  17
ATOM     17  O   UNL     1      20.433  25.383  33.587  1.00  0.00    -0.387 OA
ATOM     18  H   UNL     1      21.382  25.173  33.383  1.00  0.00     0.211 HD
ENDBRANCH   4  17
TORSDOF 7
ENDMDL
MODEL 7
REMARK VINA RESULT:    -3.957     11.997     13.858
REMARK INTER + INTRA:          -5.506
REMARK INTER:                  -5.161
REMARK INTRA:                  -0.345
REMARK UNBOUND:                -0.393
REMARK SMILES CCO[C@H]1O[C@H](CO)[C@H](O)[C@@H](O)[C@@H]1O
REMARK SMILES IDX 4 1 13 2 11 3 9 4 6 5 5 6 3 7 2 8 1 9 14 10 12 12 7 14 8 15
REMARK SMILES IDX 10 17
REMARK H PARENT 14 11 12 13 8 16 10 18
REMARK Flexibility Score: inf
ROOT
ATOM      1  C   UNL     1      18.931  26.642  31.914  1.00  0.00     0.281 C 
ATOM      2  C   UNL     1      19.819  27.112  33.096  1.00  0.00     0.202 C 
ATOM      3  C   UNL     1      21.037  26.174  33.307  1.00  0.00     0.179 C 
ATOM      4  C   UNL     1      20.726  24.756  32.809  1.00  0.00     0.177 C 
ATOM      5  C   UNL     1      20.299  24.812  31.308  1.00  0.00     0.178 C 
ATOM      6  O   UNL     1      19.737  26.060  30.906  1.00  0.00    -0.341 OA
ENDROOT
BRANCH   1   7
ATOM      7  O   UNL     1      18.279  27.767  31.347  1.00  0.00    -0.350 OA
BRANCH   7   8
ATOM      8  C   UNL     1      16.882  27.569  31.284  1.00  0.00     0.160 C 
ATOM      9  C   UNL     1      16.213  28.384  32.380  1.00  0.00     0.035 C 
ENDBRANCH   7   8
ENDBRANCH   1   7
BRANCH   2  10
ATOM     10  O   UNL     1      19.039  27.153  34.264  1.00  0.00    -0.385 OA
ATOM     11  H   UNL     1      19.033  28.095  34.573  1.00  0.00     0.211 HD
ENDBRANCH   2  10
BRANCH   3  12
ATOM     12  O   UNL     1      22.154  26.668  32.610  1.00  0.00    -0.387 OA
ATOM     13  H   UNL     1      22.383  27.544  33.018  1.00  0.00     0.211 HD
ENDBRANCH   3  12
BRANCH   5  14
ATOM     14  C   UNL     1      19.392  23.643  30.880  1.00  0.00     0.191 C 
BRANCH  14  15
ATOM     15  O   UNL     1      20.089  22.429  30.956  1.00  0.00    -0.394 OA
ATOM     16  H   UNL     1      20.278  22.269  31.918  1.00  0.00     0.210 HD
ENDBRANCH  14  15
ENDBRANCH   5  14
BRANCH   4  17
ATOM     17  O   UNL     1      19.713  24.202  33.616  1.00  0.00    -0.387 OA
ATOM     18  H   UNL     1      19.324  23.439  33.114  1.00  0.00     0.211 HD
ENDBRANCH   4  17
TORSDOF 7
ENDMDL
MODEL 8
REMARK VINA RESULT:    -3.951      5.484      7.865
REMARK INTER + INTRA:          -5.498
REMARK INTER:                  -5.157
REMARK INTRA:                  -0.341
REMARK UNBOUND:                -0.393
REMARK SMILES CCO[C@H]1O[C@H](CO)[C@H](O)[C@@H](O)[C@@H]1O
REMARK SMILES IDX 4 1 13 2 11 3 9 4 6 5 5 6 3 7 2 8 1 9 14 10 12 12 7 14 8 15
REMARK SMILES IDX 10 17
REMARK H PARENT 14 11 12 13 8 16 10 18
REMARK Flexibility Score: inf
ROOT
ATOM      1  C   UNL     1      23.892  24.011  48.680  1.00  0.00     0.281 C 
ATOM      2  C   UNL     1      22.621  23.312  48.132  1.00  0.00     0.202 C 
ATOM      3  C   UNL     1      22.583  21.808  48.512  1.00  0.00     0.179 C 
ATOM      4  C   UNL     1      24.004  21.260  48.707  1.00  0.00     0.177 C 
ATOM      5  C   UNL     1      24.745  22.107  49.790  1.00  0.00     0.178 C 
ATOM      6  O   UNL     1      24.259  23.441  49.923  1.00  0.00    -0.341 OA
ENDROOT
BRANCH   1   7
ATOM      7  O   UNL     1      23.609  25.383  48.902  1.00  0.00    -0.350 OA
BRANCH   7   8
ATOM      8  C   UNL     1      24.243  25.852  50.074  1.00  0.00     0.160 C 
ATOM      9  C   UNL     1      24.576  27.326  49.905  1.00  0.00     0.035 C 
ENDBRANCH   7   8
ENDBRANCH   1   7
BRANCH   2  10
ATOM     10  O   UNL     1      22.588  23.453  46.735  1.00  0.00    -0.385 OA
ATOM     11  H   UNL     1      23.212  24.189  46.505  1.00  0.00     0.211 HD
ENDBRANCH   2  10
BRANCH   3  12
ATOM     12  O   UNL     1      21.856  21.627  49.702  1.00  0.00    -0.387 OA
ATOM     13  H   UNL     1      21.219  22.386  49.767  1.00  0.00     0.211 HD
ENDBRANCH   3  12
BRANCH   5  14
ATOM     14  C   UNL     1      26.278  22.097  49.640  1.00  0.00     0.191 C 
BRANCH  14  15
ATOM     15  O   UNL     1      26.718  20.845  49.189  1.00  0.00    -0.394 OA
ATOM     16  H   UNL     1      27.710  20.881  49.172  1.00  0.00     0.210 HD
ENDBRANCH  14  15
ENDBRANCH   5  14
BRANCH   4  17
ATOM     17  O   UNL     1      24.679  21.294  47.472  1.00  0.00    -0.387 OA
ATOM     18  H   UNL     1      24.731  20.359  47.141  1.00  0.00     0.211 HD
ENDBRANCH   4  17
TORSDOF 7
ENDMDL
MODEL 9
REMARK VINA RESULT:    -3.950      2.679      3.635
REMARK INTER + INTRA:          -5.497
REMARK INTER:                  -5.042
REMARK INTRA:                  -0.455
REMARK UNBOUND:                -0.393
REMARK SMILES CCO[C@H]1O[C@H](CO)[C@H](O)[C@@H](O)[C@@H]1O
REMARK SMILES IDX 4 1 13 2 11 3 9 4 6 5 5 6 3 7 2 8 1 9 14 10 12 12 7 14 8 15
REMARK SMILES IDX 10 17
REMARK H PARENT 14 11 12 13 8 16 10 18
REMARK Flexibility Score: inf
ROOT
ATOM      1  C   UNL     1      18.142  27.325  46.308  1.00  0.00     0.281 C 
ATOM      2  C   UNL     1      16.892  26.431  46.098  1.00  0.00     0.202 C 
ATOM      3  C   UNL     1      15.576  27.222  46.318  1.00  0.00     0.179 C 
ATOM      4  C   UNL     1      15.800  28.393  47.285  1.00  0.00     0.177 C 
ATOM      5  C   UNL     1      16.937  29.312  46.736  1.00  0.00     0.178 C 
ATOM      6  O   UNL     1      17.867  28.647  45.883  1.00  0.00    -0.341 OA
ENDROOT
BRANCH   1   7
ATOM      7  O   UNL     1      19.206  26.830  45.512  1.00  0.00    -0.350 OA
BRANCH   7   8
ATOM      8  C   UNL     1      18.837  26.761  44.150  1.00  0.00     0.160 C 
ATOM      9  C   UNL     1      19.537  25.576  43.503  1.00  0.00     0.035 C 
ENDBRANCH   7   8
ENDBRANCH   1   7
BRANCH   2  10
ATOM     10  O   UNL     1      16.952  25.346  46.988  1.00  0.00    -0.385 OA
ATOM     11  H   UNL     1      16.779  24.526  46.456  1.00  0.00     0.211 HD
ENDBRANCH   2  10
BRANCH   3  12
ATOM     12  O   UNL     1      15.103  27.725  45.093  1.00  0.00    -0.387 OA
ATOM     13  H   UNL     1      15.616  28.554  44.906  1.00  0.00     0.211 HD
ENDBRANCH   3  12
BRANCH   5  14
ATOM     14  C   UNL     1      17.674  30.106  47.831  1.00  0.00     0.191 C 
BRANCH  14  15
ATOM     15  O   UNL     1      16.754  30.739  48.680  1.00  0.00    -0.394 OA
ATOM     16  H   UNL     1      15.957  30.953  48.128  1.00  0.00     0.210 HD
ENDBRANCH  14  15
ENDBRANCH   5  14
BRANCH   4  17
ATOM     17  O   UNL     1      16.118  27.880  48.556  1.00  0.00    -0.387 OA
ATOM     18  H   UNL     1      15.409  27.226  48.794  1.00  0.00     0.211 HD
ENDBRANCH   4  17
TORSDOF 7
ENDMDL
