MODEL 1
REMARK VINA RESULT:    -5.945      0.000      0.000
REMARK INTER + INTRA:          -6.292
REMARK INTER:                  -6.292
REMARK INTRA:                   0.000
REMARK UNBOUND:                 0.000
REMARK SMILES O=c1ccc2cc(O)c(O)cc2o1
REMARK SMILES IDX 4 1 3 2 2 3 1 4 13 5 12 6 11 7 9 8 7 9 6 10 5 11 8 12 10 14
REMARK H PARENT 8 13 10 15
REMARK Flexibility Score: inf
ROOT
ATOM      1  C   UNL     1      27.279   6.294  32.512  1.00  0.00     0.019 A 
ATOM      2  C   UNL     1      26.898   7.549  32.988  1.00  0.00     0.094 A 
ATOM      3  C   UNL     1      27.878   8.530  33.171  1.00  0.00     0.336 A 
ATOM      4  O   UNL     1      27.555   9.669  33.601  1.00  0.00    -0.246 OA
ATOM      5  O   UNL     1      29.154   8.270  32.893  1.00  0.00    -0.423 OA
ATOM      6  C   UNL     1      29.559   7.087  32.437  1.00  0.00     0.142 A 
ATOM      7  C   UNL     1      30.912   6.871  32.162  1.00  0.00     0.098 A 
ATOM      8  C   UNL     1      31.345   5.626  31.680  1.00  0.00     0.161 A 
ATOM      9  C   UNL     1      30.419   4.594  31.473  1.00  0.00     0.158 A 
ATOM     10  C   UNL     1      29.058   4.805  31.746  1.00  0.00     0.062 A 
ATOM     11  C   UNL     1      28.625   6.048  32.228  1.00  0.00     0.022 A 
ENDROOT
BRANCH   9  12
ATOM     12  O   UNL     1      30.857   3.360  30.994  1.00  0.00    -0.504 OA
ATOM     13  H   UNL     1      31.388   3.284  30.134  1.00  0.00     0.293 HD
ENDBRANCH   9  12
BRANCH   8  14
ATOM     14  O   UNL     1      32.694   5.408  31.406  1.00  0.00    -0.504 OA
ATOM     15  H   UNL     1      32.996   4.666  30.786  1.00  0.00     0.293 HD
ENDBRANCH   8  14
TORSDOF 2
ENDMDL
MODEL 2
REMARK VINA RESULT:    -5.722      1.714      5.062
REMARK INTER + INTRA:          -6.057
REMARK INTER:                  -6.057
REMARK INTRA:                   0.000
REMARK UNBOUND:                 0.000
REMARK SMILES O=c1ccc2cc(O)c(O)cc2o1
REMARK SMILES IDX 4 1 3 2 2 3 1 4 13 5 12 6 11 7 9 8 7 9 6 10 5 11 8 12 10 14
REMARK H PARENT 8 13 10 15
REMARK Flexibility Score: inf
ROOT
ATOM      1  C   UNL     1      31.066   4.766  31.176  1.00  0.00     0.019 A 
ATOM      2  C   UNL     1      30.871   3.477  30.679  1.00  0.00     0.094 A 
ATOM      3  C   UNL     1      29.595   2.908  30.755  1.00  0.00     0.336 A 
ATOM      4  O   UNL     1      29.399   1.745  30.313  1.00  0.00    -0.246 OA
ATOM      5  O   UNL     1      28.585   3.587  31.292  1.00  0.00    -0.423 OA
ATOM      6  C   UNL     1      28.728   4.818  31.777  1.00  0.00     0.142 A 
ATOM      7  C   UNL     1      27.630   5.484  32.330  1.00  0.00     0.098 A 
ATOM      8  C   UNL     1      27.776   6.782  32.842  1.00  0.00     0.161 A 
ATOM      9  C   UNL     1      29.025   7.416  32.800  1.00  0.00     0.158 A 
ATOM     10  C   UNL     1      30.131   6.753  32.246  1.00  0.00     0.062 A 
ATOM     11  C   UNL     1      29.987   5.457  31.734  1.00  0.00     0.022 A 
ENDROOT
BRANCH   9  12
ATOM     12  O   UNL     1      29.161   8.706  33.311  1.00  0.00    -0.504 OA
ATOM     13  H   UNL     1      28.955   9.524  32.748  1.00  0.00     0.293 HD
ENDBRANCH   9  12
BRANCH   8  14
ATOM     14  O   UNL     1      26.682   7.447  33.394  1.00  0.00    -0.504 OA
ATOM     15  H   UNL     1      26.350   7.238  34.328  1.00  0.00     0.293 HD
ENDBRANCH   8  14
TORSDOF 2
ENDMDL
MODEL 3
REMARK VINA RESULT:    -5.533      1.312      4.575
REMARK INTER + INTRA:          -5.856
REMARK INTER:                  -5.856
REMARK INTRA:                   0.000
REMARK UNBOUND:                 0.000
REMARK SMILES O=c1ccc2cc(O)c(O)cc2o1
REMARK SMILES IDX 4 1 3 2 2 3 1 4 13 5 12 6 11 7 9 8 7 9 6 10 5 11 8 12 10 14
REMARK H PARENT 8 13 10 15
REMARK Flexibility Score: inf
ROOT
ATOM      1  C   UNL     1      28.477   3.772  31.109  1.00  0.00     0.019 A 
ATOM      2  C   UNL     1      29.598   3.208  30.499  1.00  0.00     0.094 A 
ATOM      3  C   UNL     1      30.813   3.900  30.543  1.00  0.00     0.336 A 
ATOM      4  O   UNL     1      31.836   3.409  29.998  1.00  0.00    -0.246 OA
ATOM      5  O   UNL     1      30.896   5.078  31.158  1.00  0.00    -0.423 OA
ATOM      6  C   UNL     1      29.852   5.650  31.752  1.00  0.00     0.142 A 
ATOM      7  C   UNL     1      29.999   6.888  32.384  1.00  0.00     0.098 A 
ATOM      8  C   UNL     1      28.901   7.496  33.012  1.00  0.00     0.161 A 
ATOM      9  C   UNL     1      27.651   6.861  33.007  1.00  0.00     0.158 A 
ATOM     10  C   UNL     1      27.498   5.617  32.376  1.00  0.00     0.062 A 
ATOM     11  C   UNL     1      28.593   5.010  31.748  1.00  0.00     0.022 A 
ENDROOT
BRANCH   9  12
ATOM     12  O   UNL     1      26.566   7.472  33.634  1.00  0.00    -0.504 OA
ATOM     13  H   UNL     1      25.866   7.980  33.106  1.00  0.00     0.293 HD
ENDBRANCH   9  12
BRANCH   8  14
ATOM     14  O   UNL     1      29.046   8.731  33.641  1.00  0.00    -0.504 OA
ATOM     15  H   UNL     1      28.583   9.562  33.292  1.00  0.00     0.293 HD
ENDBRANCH   8  14
TORSDOF 2
ENDMDL
MODEL 4
REMARK VINA RESULT:    -5.262      1.937      4.618
REMARK INTER + INTRA:          -5.570
REMARK INTER:                  -5.570
REMARK INTRA:                   0.000
REMARK UNBOUND:                 0.000
REMARK SMILES O=c1ccc2cc(O)c(O)cc2o1
REMARK SMILES IDX 4 1 3 2 2 3 1 4 13 5 12 6 11 7 9 8 7 9 6 10 5 11 8 12 10 14
REMARK H PARENT 8 13 10 15
REMARK Flexibility Score: inf
ROOT
ATOM      1  C   UNL     1      27.944   3.866  31.238  1.00  0.00     0.019 A 
ATOM      2  C   UNL     1      27.891   2.611  30.631  1.00  0.00     0.094 A 
ATOM      3  C   UNL     1      29.076   2.039  30.154  1.00  0.00     0.336 A 
ATOM      4  O   UNL     1      29.049   0.908  29.602  1.00  0.00    -0.246 OA
ATOM      5  O   UNL     1      30.233   2.683  30.278  1.00  0.00    -0.423 OA
ATOM      6  C   UNL     1      30.327   3.881  30.851  1.00  0.00     0.142 A 
ATOM      7  C   UNL     1      31.571   4.511  30.954  1.00  0.00     0.098 A 
ATOM      8  C   UNL     1      31.676   5.773  31.557  1.00  0.00     0.161 A 
ATOM      9  C   UNL     1      30.531   6.409  32.058  1.00  0.00     0.158 A 
ATOM     10  C   UNL     1      29.279   5.781  31.958  1.00  0.00     0.062 A 
ATOM     11  C   UNL     1      29.173   4.520  31.356  1.00  0.00     0.022 A 
ENDROOT
BRANCH   9  12
ATOM     12  O   UNL     1      30.644   7.663  32.655  1.00  0.00    -0.504 OA
ATOM     13  H   UNL     1      31.254   8.378  32.276  1.00  0.00     0.293 HD
ENDBRANCH   9  12
BRANCH   8  14
ATOM     14  O   UNL     1      32.915   6.403  31.660  1.00  0.00    -0.504 OA
ATOM     15  H   UNL     1      33.150   6.984  32.456  1.00  0.00     0.293 HD
ENDBRANCH   8  14
TORSDOF 2
ENDMDL
MODEL 5
REMARK VINA RESULT:    -5.249      3.214      4.998
REMARK INTER + INTRA:          -5.556
REMARK INTER:                  -5.556
REMARK INTRA:                   0.000
REMARK UNBOUND:                 0.000
REMARK SMILES O=c1ccc2cc(O)c(O)cc2o1
REMARK SMILES IDX 4 1 3 2 2 3 1 4 13 5 12 6 11 7 9 8 7 9 6 10 5 11 8 12 10 14
REMARK H PARENT 8 13 10 15
REMARK Flexibility Score: inf
ROOT
ATOM      1  C   UNL     1      31.759   3.980  29.507  1.00  0.00     0.019 A 
ATOM      2  C   UNL     1      32.308   4.852  30.447  1.00  0.00     0.094 A 
ATOM      3  C   UNL     1      31.520   5.266  31.527  1.00  0.00     0.336 A 
ATOM      4  O   UNL     1      31.996   6.054  32.386  1.00  0.00    -0.246 OA
ATOM      5  O   UNL     1      30.268   4.834  31.653  1.00  0.00    -0.423 OA
ATOM      6  C   UNL     1      29.707   4.002  30.779  1.00  0.00     0.142 A 
ATOM      7  C   UNL     1      28.386   3.581  30.963  1.00  0.00     0.098 A 
ATOM      8  C   UNL     1      27.790   2.704  30.044  1.00  0.00     0.161 A 
ATOM      9  C   UNL     1      28.519   2.247  28.937  1.00  0.00     0.158 A 
ATOM     10  C   UNL     1      29.845   2.665  28.748  1.00  0.00     0.062 A 
ATOM     11  C   UNL     1      30.442   3.542  29.664  1.00  0.00     0.022 A 
ENDROOT
BRANCH   9  12
ATOM     12  O   UNL     1      27.919   1.375  28.030  1.00  0.00    -0.504 OA
ATOM     13  H   UNL     1      28.298   1.234  27.100  1.00  0.00     0.293 HD
ENDBRANCH   9  12
BRANCH   8  14
ATOM     14  O   UNL     1      26.474   2.284  30.225  1.00  0.00    -0.504 OA
ATOM     15  H   UNL     1      25.713   2.670  29.679  1.00  0.00     0.293 HD
ENDBRANCH   8  14
TORSDOF 2
ENDMDL
MODEL 6
REMARK VINA RESULT:    -5.114      1.493      2.641
REMARK INTER + INTRA:          -5.413
REMARK INTER:                  -5.413
REMARK INTRA:                   0.000
REMARK UNBOUND:                 0.000
REMARK SMILES O=c1ccc2cc(O)c(O)cc2o1
REMARK SMILES IDX 4 1 3 2 2 3 1 4 13 5 12 6 11 7 9 8 7 9 6 10 5 11 8 12 10 14
REMARK H PARENT 8 13 10 15
REMARK Flexibility Score: inf
ROOT
ATOM      1  C   UNL     1      29.786   7.146  32.474  1.00  0.00     0.019 A 
ATOM      2  C   UNL     1      28.708   7.877  32.975  1.00  0.00     0.094 A 
ATOM      3  C   UNL     1      27.430   7.307  32.941  1.00  0.00     0.336 A 
ATOM      4  O   UNL     1      26.444   7.950  33.388  1.00  0.00    -0.246 OA
ATOM      5  O   UNL     1      27.248   6.088  32.439  1.00  0.00    -0.423 OA
ATOM      6  C   UNL     1      28.249   5.359  31.951  1.00  0.00     0.142 A 
ATOM      7  C   UNL     1      27.997   4.084  31.436  1.00  0.00     0.098 A 
ATOM      8  C   UNL     1      29.049   3.310  30.921  1.00  0.00     0.161 A 
ATOM      9  C   UNL     1      30.357   3.816  30.921  1.00  0.00     0.158 A 
ATOM     10  C   UNL     1      30.615   5.095  31.438  1.00  0.00     0.062 A 
ATOM     11  C   UNL     1      29.566   5.869  31.952  1.00  0.00     0.022 A 
ENDROOT
BRANCH   9  12
ATOM     12  O   UNL     1      31.395   3.041  30.408  1.00  0.00    -0.504 OA
ATOM     13  H   UNL     1      32.049   2.560  31.016  1.00  0.00     0.293 HD
ENDBRANCH   9  12
BRANCH   8  14
ATOM     14  O   UNL     1      28.800   2.039  30.406  1.00  0.00    -0.504 OA
ATOM     15  H   UNL     1      28.059   1.874  29.736  1.00  0.00     0.293 HD
ENDBRANCH   8  14
TORSDOF 2
ENDMDL
MODEL 7
REMARK VINA RESULT:    -5.097     11.582     12.960
REMARK INTER + INTRA:          -5.395
REMARK INTER:                  -5.395
REMARK INTRA:                   0.000
REMARK UNBOUND:                 0.000
REMARK SMILES O=c1ccc2cc(O)c(O)cc2o1
REMARK SMILES IDX 4 1 3 2 2 3 1 4 13 5 12 6 11 7 9 8 7 9 6 10 5 11 8 12 10 14
REMARK H PARENT 8 13 10 15
REMARK Flexibility Score: inf
ROOT
ATOM      1  C   UNL     1      21.542   2.173  25.351  1.00  0.00     0.019 A 
ATOM      2  C   UNL     1      22.310   1.102  25.807  1.00  0.00     0.094 A 
ATOM      3  C   UNL     1      23.165   0.450  24.911  1.00  0.00     0.336 A 
ATOM      4  O   UNL     1      23.866  -0.519  25.303  1.00  0.00    -0.246 OA
ATOM      5  O   UNL     1      23.242   0.847  23.643  1.00  0.00    -0.423 OA
ATOM      6  C   UNL     1      22.527   1.864  23.167  1.00  0.00     0.142 A 
ATOM      7  C   UNL     1      22.649   2.238  21.826  1.00  0.00     0.098 A 
ATOM      8  C   UNL     1      21.898   3.309  21.320  1.00  0.00     0.161 A 
ATOM      9  C   UNL     1      21.021   4.009  22.159  1.00  0.00     0.158 A 
ATOM     10  C   UNL     1      20.894   3.640  23.507  1.00  0.00     0.062 A 
ATOM     11  C   UNL     1      21.644   2.569  24.014  1.00  0.00     0.022 A 
ENDROOT
BRANCH   9  12
ATOM     12  O   UNL     1      20.278   5.073  21.649  1.00  0.00    -0.504 OA
ATOM     13  H   UNL     1      19.381   4.926  21.200  1.00  0.00     0.293 HD
ENDBRANCH   9  12
BRANCH   8  14
ATOM     14  O   UNL     1      22.018   3.683  19.982  1.00  0.00    -0.504 OA
ATOM     15  H   UNL     1      22.495   3.096  19.308  1.00  0.00     0.293 HD
ENDBRANCH   8  14
TORSDOF 2
ENDMDL
MODEL 8
REMARK VINA RESULT:    -5.035      2.932      4.918
REMARK INTER + INTRA:          -5.329
REMARK INTER:                  -5.329
REMARK INTRA:                   0.000
REMARK UNBOUND:                 0.000
REMARK SMILES O=c1ccc2cc(O)c(O)cc2o1
REMARK SMILES IDX 4 1 3 2 2 3 1 4 13 5 12 6 11 7 9 8 7 9 6 10 5 11 8 12 10 14
REMARK H PARENT 8 13 10 15
REMARK Flexibility Score: inf
ROOT
ATOM      1  C   UNL     1      29.788   2.263  28.687  1.00  0.00     0.019 A 
ATOM      2  C   UNL     1      28.479   1.792  28.792  1.00  0.00     0.094 A 
ATOM      3  C   UNL     1      27.642   2.330  29.776  1.00  0.00     0.336 A 
ATOM      4  O   UNL     1      26.458   1.917  29.888  1.00  0.00    -0.246 OA
ATOM      5  O   UNL     1      28.090   3.276  30.598  1.00  0.00    -0.423 OA
ATOM      6  C   UNL     1      29.331   3.753  30.531  1.00  0.00     0.142 A 
ATOM      7  C   UNL     1      29.745   4.749  31.421  1.00  0.00     0.098 A 
ATOM      8  C   UNL     1      31.052   5.255  31.354  1.00  0.00     0.161 A 
ATOM      9  C   UNL     1      31.947   4.764  30.394  1.00  0.00     0.158 A 
ATOM     10  C   UNL     1      31.536   3.765  29.497  1.00  0.00     0.062 A 
ATOM     11  C   UNL     1      30.231   3.258  29.563  1.00  0.00     0.022 A 
ENDROOT
BRANCH   9  12
ATOM     12  O   UNL     1      33.243   5.273  30.334  1.00  0.00    -0.504 OA
ATOM     13  H   UNL     1      34.044   4.718  30.615  1.00  0.00     0.293 HD
ENDBRANCH   9  12
BRANCH   8  14
ATOM     14  O   UNL     1      31.468   6.247  32.241  1.00  0.00    -0.504 OA
ATOM     15  H   UNL     1      31.090   7.186  32.203  1.00  0.00     0.293 HD
ENDBRANCH   8  14
TORSDOF 2
ENDMDL
MODEL 9
REMARK VINA RESULT:    -4.831     13.855     14.946
REMARK INTER + INTRA:          -5.113
REMARK INTER:                  -5.113
REMARK INTRA:                   0.000
REMARK UNBOUND:                 0.000
REMARK SMILES O=c1ccc2cc(O)c(O)cc2o1
REMARK SMILES IDX 4 1 3 2 2 3 1 4 13 5 12 6 11 7 9 8 7 9 6 10 5 11 8 12 10 14
REMARK H PARENT 8 13 10 15
REMARK Flexibility Score: inf
ROOT
ATOM      1  C   UNL     1      22.740   5.257  21.836  1.00  0.00     0.019 A 
ATOM      2  C   UNL     1      23.078   4.269  22.762  1.00  0.00     0.094 A 
ATOM      3  C   UNL     1      22.287   3.117  22.841  1.00  0.00     0.336 A 
ATOM      4  O   UNL     1      22.575   2.214  23.670  1.00  0.00    -0.246 OA
ATOM      5  O   UNL     1      21.231   2.968  22.045  1.00  0.00    -0.423 OA
ATOM      6  C   UNL     1      20.875   3.886  21.150  1.00  0.00     0.142 A 
ATOM      7  C   UNL     1      19.755   3.675  20.340  1.00  0.00     0.098 A 
ATOM      8  C   UNL     1      19.376   4.639  19.394  1.00  0.00     0.161 A 
ATOM      9  C   UNL     1      20.120   5.819  19.258  1.00  0.00     0.158 A 
ATOM     10  C   UNL     1      21.246   6.036  20.067  1.00  0.00     0.062 A 
ATOM     11  C   UNL     1      21.626   5.074  21.013  1.00  0.00     0.022 A 
ENDROOT
BRANCH   9  12
ATOM     12  O   UNL     1      19.737   6.771  18.315  1.00  0.00    -0.504 OA
ATOM     13  H   UNL     1      20.269   6.920  17.465  1.00  0.00     0.293 HD
ENDBRANCH   9  12
BRANCH   8  14
ATOM     14  O   UNL     1      18.259   4.430  18.586  1.00  0.00    -0.504 OA
ATOM     15  H   UNL     1      18.174   4.866  17.675  1.00  0.00     0.293 HD
ENDBRANCH   8  14
TORSDOF 2
ENDMDL
