MODEL 1
REMARK VINA RESULT:    -5.460      0.000      0.000
REMARK INTER + INTRA:          -6.014
REMARK INTER:                  -5.939
REMARK INTRA:                  -0.075
REMARK UNBOUND:                -0.075
REMARK SMILES O=C([O-])c1ccccc1O
REMARK SMILES IDX 4 1 9 2 5 3 8 4 6 5 7 6 2 7 1 8 3 9 10 10
REMARK H PARENT 10 11
REMARK Flexibility Score: inf
ROOT
ATOM      1  C   UNL     1       1.186  -0.051  -1.211  1.00  0.00     0.039 A 
ATOM      2  C   UNL     1       1.014  -1.329  -0.617  1.00  0.00     0.124 A 
ATOM      3  C   UNL     1       0.879   1.097  -0.456  1.00  0.00     0.014 A 
ATOM      4  C   UNL     1       0.486  -1.426   0.677  1.00  0.00     0.047 A 
ATOM      5  C   UNL     1       0.373   0.982   0.840  1.00  0.00     0.001 A 
ATOM      6  C   UNL     1       0.168  -0.277   1.403  1.00  0.00     0.004 A 
ENDROOT
BRANCH   1   7
ATOM      7  C   UNL     1       1.645   0.130  -2.607  1.00  0.00     0.075 C 
ATOM      8  O   UNL     1       0.837   0.053  -3.569  1.00  0.00    -0.545 OA
ATOM      9  O   UNL     1       2.970   0.459  -2.865  1.00  0.00    -0.545 OA
ENDBRANCH   1   7
BRANCH   2  10
ATOM     10  O   UNL     1       1.384  -2.514  -1.257  1.00  0.00    -0.507 OA
ATOM     11  H   UNL     1       1.721  -2.554  -2.209  1.00  0.00     0.293 HD
ENDBRANCH   2  10
TORSDOF 2
ENDMDL
MODEL 2
REMARK VINA RESULT:    -5.246      1.375      2.558
REMARK INTER + INTRA:          -5.782
REMARK INTER:                  -5.546
REMARK INTRA:                  -0.236
REMARK UNBOUND:                -0.075
REMARK SMILES O=C([O-])c1ccccc1O
REMARK SMILES IDX 4 1 9 2 5 3 8 4 6 5 7 6 2 7 1 8 3 9 10 10
REMARK H PARENT 10 11
REMARK Flexibility Score: inf
ROOT
ATOM      1  C   UNL     1       0.673  -0.819  -0.339  1.00  0.00     0.039 A 
ATOM      2  C   UNL     1       0.544   0.584  -0.514  1.00  0.00     0.124 A 
ATOM      3  C   UNL     1       0.488  -1.363   0.946  1.00  0.00     0.014 A 
ATOM      4  C   UNL     1       0.300   1.402   0.597  1.00  0.00     0.047 A 
ATOM      5  C   UNL     1       0.224  -0.536   2.039  1.00  0.00     0.001 A 
ATOM      6  C   UNL     1       0.139   0.845   1.867  1.00  0.00     0.004 A 
ENDROOT
BRANCH   1   7
ATOM      7  C   UNL     1       1.027  -1.737  -1.445  1.00  0.00     0.075 C 
ATOM      8  O   UNL     1       0.723  -1.462  -2.635  1.00  0.00    -0.545 OA
ATOM      9  O   UNL     1       1.764  -2.886  -1.185  1.00  0.00    -0.545 OA
ENDBRANCH   1   7
BRANCH   2  10
ATOM     10  O   UNL     1       0.616   1.198  -1.767  1.00  0.00    -0.507 OA
ATOM     11  H   UNL     1       0.923   2.151  -1.906  1.00  0.00     0.293 HD
ENDBRANCH   2  10
TORSDOF 2
ENDMDL
MODEL 3
REMARK VINA RESULT:    -5.174      2.619      3.781
REMARK INTER + INTRA:          -5.703
REMARK INTER:                  -5.624
REMARK INTRA:                  -0.080
REMARK UNBOUND:                -0.075
REMARK SMILES O=C([O-])c1ccccc1O
REMARK SMILES IDX 4 1 9 2 5 3 8 4 6 5 7 6 2 7 1 8 3 9 10 10
REMARK H PARENT 10 11
REMARK Flexibility Score: inf
ROOT
ATOM      1  C   UNL     1       0.546   0.075   0.151  1.00  0.00     0.039 A 
ATOM      2  C   UNL     1      -0.315  -0.538  -0.797  1.00  0.00     0.124 A 
ATOM      3  C   UNL     1       1.833   0.472  -0.258  1.00  0.00     0.014 A 
ATOM      4  C   UNL     1       0.150  -0.792  -2.094  1.00  0.00     0.047 A 
ATOM      5  C   UNL     1       2.273   0.231  -1.561  1.00  0.00     0.001 A 
ATOM      6  C   UNL     1       1.436  -0.409  -2.475  1.00  0.00     0.004 A 
ENDROOT
BRANCH   1   7
ATOM      7  C   UNL     1       0.163   0.287   1.565  1.00  0.00     0.075 C 
ATOM      8  O   UNL     1      -0.460   1.323   1.917  1.00  0.00    -0.545 OA
ATOM      9  O   UNL     1       0.429  -0.694   2.512  1.00  0.00    -0.545 OA
ENDBRANCH   1   7
BRANCH   2  10
ATOM     10  O   UNL     1      -1.639  -0.876  -0.505  1.00  0.00    -0.507 OA
ATOM     11  H   UNL     1      -2.178  -1.541  -1.043  1.00  0.00     0.293 HD
ENDBRANCH   2  10
TORSDOF 2
ENDMDL
MODEL 4
REMARK VINA RESULT:    -5.107      9.135     10.278
REMARK INTER + INTRA:          -5.630
REMARK INTER:                  -5.381
REMARK INTRA:                  -0.249
REMARK UNBOUND:                -0.075
REMARK SMILES O=C([O-])c1ccccc1O
REMARK SMILES IDX 4 1 9 2 5 3 8 4 6 5 7 6 2 7 1 8 3 9 10 10
REMARK H PARENT 10 11
REMARK Flexibility Score: inf
ROOT
ATOM      1  C   UNL     1      -3.640   8.155  -0.510  1.00  0.00     0.039 A 
ATOM      2  C   UNL     1      -4.131   8.481  -1.802  1.00  0.00     0.124 A 
ATOM      3  C   UNL     1      -4.357   8.595   0.619  1.00  0.00     0.014 A 
ATOM      4  C   UNL     1      -5.274   9.280  -1.929  1.00  0.00     0.047 A 
ATOM      5  C   UNL     1      -5.507   9.373   0.475  1.00  0.00     0.001 A 
ATOM      6  C   UNL     1      -5.959   9.724  -0.797  1.00  0.00     0.004 A 
ENDROOT
BRANCH   1   7
ATOM      7  C   UNL     1      -2.387   7.399  -0.294  1.00  0.00     0.075 C 
ATOM      8  O   UNL     1      -2.112   6.390  -0.995  1.00  0.00    -0.545 OA
ATOM      9  O   UNL     1      -1.463   7.839   0.645  1.00  0.00    -0.545 OA
ENDBRANCH   1   7
BRANCH   2  10
ATOM     10  O   UNL     1      -3.538   8.006  -2.976  1.00  0.00    -0.507 OA
ATOM     11  H   UNL     1      -2.843   8.521  -3.498  1.00  0.00     0.293 HD
ENDBRANCH   2  10
TORSDOF 2
ENDMDL
MODEL 5
REMARK VINA RESULT:    -4.993      1.363      2.165
REMARK INTER + INTRA:          -5.506
REMARK INTER:                  -5.264
REMARK INTRA:                  -0.242
REMARK UNBOUND:                -0.075
REMARK SMILES O=C([O-])c1ccccc1O
REMARK SMILES IDX 4 1 9 2 5 3 8 4 6 5 7 6 2 7 1 8 3 9 10 10
REMARK H PARENT 10 11
REMARK Flexibility Score: inf
ROOT
ATOM      1  C   UNL     1       0.684  -0.450  -0.466  1.00  0.00     0.039 A 
ATOM      2  C   UNL     1      -0.050  -0.771   0.706  1.00  0.00     0.124 A 
ATOM      3  C   UNL     1       1.153   0.867  -0.635  1.00  0.00     0.014 A 
ATOM      4  C   UNL     1      -0.347   0.234   1.635  1.00  0.00     0.047 A 
ATOM      5  C   UNL     1       0.866   1.852   0.312  1.00  0.00     0.001 A 
ATOM      6  C   UNL     1       0.109   1.539   1.441  1.00  0.00     0.004 A 
ENDROOT
BRANCH   1   7
ATOM      7  C   UNL     1       0.954  -1.433  -1.539  1.00  0.00     0.075 C 
ATOM      8  O   UNL     1       1.477  -2.548  -1.278  1.00  0.00    -0.545 OA
ATOM      9  O   UNL     1       0.565  -1.160  -2.845  1.00  0.00    -0.545 OA
ENDBRANCH   1   7
BRANCH   2  10
ATOM     10  O   UNL     1      -0.469  -2.071   1.001  1.00  0.00    -0.507 OA
ATOM     11  H   UNL     1       0.081  -2.728   1.538  1.00  0.00     0.293 HD
ENDBRANCH   2  10
TORSDOF 2
ENDMDL
MODEL 6
REMARK VINA RESULT:    -4.992      9.492     10.652
REMARK INTER + INTRA:          -5.505
REMARK INTER:                  -5.260
REMARK INTRA:                  -0.246
REMARK UNBOUND:                -0.075
REMARK SMILES O=C([O-])c1ccccc1O
REMARK SMILES IDX 4 1 9 2 5 3 8 4 6 5 7 6 2 7 1 8 3 9 10 10
REMARK H PARENT 10 11
REMARK Flexibility Score: inf
ROOT
ATOM      1  C   UNL     1      -3.645   9.085   0.572  1.00  0.00     0.039 A 
ATOM      2  C   UNL     1      -2.881   8.001   0.066  1.00  0.00     0.124 A 
ATOM      3  C   UNL     1      -2.991  10.098   1.298  1.00  0.00     0.014 A 
ATOM      4  C   UNL     1      -1.511   7.927   0.349  1.00  0.00     0.047 A 
ATOM      5  C   UNL     1      -1.620  10.020   1.553  1.00  0.00     0.001 A 
ATOM      6  C   UNL     1      -0.883   8.931   1.088  1.00  0.00     0.004 A 
ENDROOT
BRANCH   1   7
ATOM      7  C   UNL     1      -5.112   9.183   0.399  1.00  0.00     0.075 C 
ATOM      8  O   UNL     1      -5.640   9.036  -0.735  1.00  0.00    -0.545 OA
ATOM      9  O   UNL     1      -5.932   9.370   1.505  1.00  0.00    -0.545 OA
ENDBRANCH   1   7
BRANCH   2  10
ATOM     10  O   UNL     1      -3.430   7.004  -0.744  1.00  0.00    -0.507 OA
ATOM     11  H   UNL     1      -4.376   6.662  -0.646  1.00  0.00     0.293 HD
ENDBRANCH   2  10
TORSDOF 2
ENDMDL
MODEL 7
REMARK VINA RESULT:    -4.900      8.010      9.229
REMARK INTER + INTRA:          -5.405
REMARK INTER:                  -5.153
REMARK INTRA:                  -0.252
REMARK UNBOUND:                -0.075
REMARK SMILES O=C([O-])c1ccccc1O
REMARK SMILES IDX 4 1 9 2 5 3 8 4 6 5 7 6 2 7 1 8 3 9 10 10
REMARK H PARENT 10 11
REMARK Flexibility Score: inf
ROOT
ATOM      1  C   UNL     1      -0.954   7.666   0.578  1.00  0.00     0.039 A 
ATOM      2  C   UNL     1      -1.451   8.943   0.950  1.00  0.00     0.124 A 
ATOM      3  C   UNL     1      -1.805   6.779  -0.109  1.00  0.00     0.014 A 
ATOM      4  C   UNL     1      -2.787   9.271   0.686  1.00  0.00     0.047 A 
ATOM      5  C   UNL     1      -3.129   7.130  -0.383  1.00  0.00     0.001 A 
ATOM      6  C   UNL     1      -3.622   8.370   0.022  1.00  0.00     0.004 A 
ENDROOT
BRANCH   1   7
ATOM      7  C   UNL     1       0.414   7.209   0.908  1.00  0.00     0.075 C 
ATOM      8  O   UNL     1       0.637   6.012   1.229  1.00  0.00    -0.545 OA
ATOM      9  O   UNL     1       1.485   8.088   0.800  1.00  0.00    -0.545 OA
ENDBRANCH   1   7
BRANCH   2  10
ATOM     10  O   UNL     1      -0.650   9.920   1.546  1.00  0.00    -0.507 OA
ATOM     11  H   UNL     1      -1.004  10.805   1.881  1.00  0.00     0.293 HD
ENDBRANCH   2  10
TORSDOF 2
ENDMDL
MODEL 8
REMARK VINA RESULT:    -4.791      9.315     10.478
REMARK INTER + INTRA:          -5.287
REMARK INTER:                  -5.082
REMARK INTRA:                  -0.205
REMARK UNBOUND:                -0.075
REMARK SMILES O=C([O-])c1ccccc1O
REMARK SMILES IDX 4 1 9 2 5 3 8 4 6 5 7 6 2 7 1 8 3 9 10 10
REMARK H PARENT 10 11
REMARK Flexibility Score: inf
ROOT
ATOM      1  C   UNL     1      -3.602   8.460   0.326  1.00  0.00     0.039 A 
ATOM      2  C   UNL     1      -2.441   8.983   0.955  1.00  0.00     0.124 A 
ATOM      3  C   UNL     1      -3.503   7.249  -0.384  1.00  0.00     0.014 A 
ATOM      4  C   UNL     1      -1.214   8.323   0.805  1.00  0.00     0.047 A 
ATOM      5  C   UNL     1      -2.276   6.593  -0.507  1.00  0.00     0.001 A 
ATOM      6  C   UNL     1      -1.132   7.134   0.079  1.00  0.00     0.004 A 
ENDROOT
BRANCH   1   7
ATOM      7  C   UNL     1      -4.911   9.150   0.357  1.00  0.00     0.075 C 
ATOM      8  O   UNL     1      -5.490   9.487  -0.709  1.00  0.00    -0.545 OA
ATOM      9  O   UNL     1      -5.551   9.372   1.570  1.00  0.00    -0.545 OA
ENDBRANCH   1   7
BRANCH   2  10
ATOM     10  O   UNL     1      -2.468  10.125   1.759  1.00  0.00    -0.507 OA
ATOM     11  H   UNL     1      -1.871  10.256   2.565  1.00  0.00     0.293 HD
ENDBRANCH   2  10
TORSDOF 2
ENDMDL
MODEL 9
REMARK VINA RESULT:    -4.699      9.878     10.978
REMARK INTER + INTRA:          -5.187
REMARK INTER:                  -4.938
REMARK INTRA:                  -0.249
REMARK UNBOUND:                -0.075
REMARK SMILES O=C([O-])c1ccccc1O
REMARK SMILES IDX 4 1 9 2 5 3 8 4 6 5 7 6 2 7 1 8 3 9 10 10
REMARK H PARENT 10 11
REMARK Flexibility Score: inf
ROOT
ATOM      1  C   UNL     1      -3.082   9.044  -0.039  1.00  0.00     0.039 A 
ATOM      2  C   UNL     1      -4.351   9.462   0.441  1.00  0.00     0.124 A 
ATOM      3  C   UNL     1      -2.963   8.635  -1.380  1.00  0.00     0.014 A 
ATOM      4  C   UNL     1      -5.466   9.401  -0.405  1.00  0.00     0.047 A 
ATOM      5  C   UNL     1      -4.081   8.600  -2.216  1.00  0.00     0.001 A 
ATOM      6  C   UNL     1      -5.333   8.973  -1.727  1.00  0.00     0.004 A 
ENDROOT
BRANCH   1   7
ATOM      7  C   UNL     1      -1.878   8.987   0.820  1.00  0.00     0.075 C 
ATOM      8  O   UNL     1      -1.604   9.926   1.613  1.00  0.00    -0.545 OA
ATOM      9  O   UNL     1      -1.069   7.857   0.810  1.00  0.00    -0.545 OA
ENDBRANCH   1   7
BRANCH   2  10
ATOM     10  O   UNL     1      -4.540   9.974   1.727  1.00  0.00    -0.507 OA
ATOM     11  H   UNL     1      -5.023   9.475   2.462  1.00  0.00     0.293 HD
ENDBRANCH   2  10
TORSDOF 2
ENDMDL
