MODEL 1
REMARK VINA RESULT:    -4.422      0.000      0.000
REMARK INTER + INTRA:          -6.224
REMARK INTER:                  -5.973
REMARK INTRA:                  -0.251
REMARK UNBOUND:                -0.251
REMARK SMILES CCCCCCCC(=O)[O-]
REMARK SMILES IDX 5 1 6 2 7 3 8 4 9 5 10 6 4 7 3 8 2 9 1 10
REMARK H PARENT
REMARK Flexibility Score: inf
ROOT
ATOM      1  C   UNL     1      -1.063 -26.550  10.368  1.00  0.00     0.000 C 
ENDROOT
BRANCH   1   2
ATOM      2  C   UNL     1      -1.312 -26.967   8.909  1.00  0.00     0.006 C 
BRANCH   2   3
ATOM      3  C   UNL     1      -0.052 -26.864   8.040  1.00  0.00     0.053 C 
BRANCH   3   4
ATOM      4  C   UNL     1      -0.271 -27.535   6.721  1.00  0.00     0.041 C 
ATOM      5  O   UNL     1      -0.452 -26.846   5.682  1.00  0.00    -0.550 OA
ATOM      6  O   UNL     1      -0.325 -28.920   6.645  1.00  0.00    -0.550 OA
ENDBRANCH   3   4
ENDBRANCH   2   3
ENDBRANCH   1   2
BRANCH   1   7
ATOM      7  C   UNL     1      -2.272 -25.832  10.991  1.00  0.00     0.000 C 
BRANCH   7   8
ATOM      8  C   UNL     1      -3.594 -26.186  10.290  1.00  0.00    -0.000 C 
BRANCH   8   9
ATOM      9  C   UNL     1      -4.663 -25.096  10.456  1.00  0.00    -0.003 C 
ATOM     10  C   UNL     1      -4.164 -23.968  11.355  1.00  0.00     0.004 C 
ENDBRANCH   8   9
ENDBRANCH   7   8
ENDBRANCH   1   7
TORSDOF 6
ENDMDL
MODEL 2
REMARK VINA RESULT:    -4.290      3.162      5.309
REMARK INTER + INTRA:          -6.045
REMARK INTER:                  -5.820
REMARK INTRA:                  -0.225
REMARK UNBOUND:                -0.251
REMARK SMILES CCCCCCCC(=O)[O-]
REMARK SMILES IDX 5 1 6 2 7 3 8 4 9 5 10 6 4 7 3 8 2 9 1 10
REMARK H PARENT
REMARK Flexibility Score: inf
ROOT
ATOM      1  C   UNL     1      -0.705 -26.539   9.861  1.00  0.00     0.000 C 
ENDROOT
BRANCH   1   2
ATOM      2  C   UNL     1      -2.241 -26.535   9.918  1.00  0.00     0.006 C 
BRANCH   2   3
ATOM      3  C   UNL     1      -2.795 -25.509  10.917  1.00  0.00     0.053 C 
BRANCH   3   4
ATOM      4  C   UNL     1      -4.214 -25.172  10.586  1.00  0.00     0.041 C 
ATOM      5  O   UNL     1      -4.698 -24.060  10.930  1.00  0.00    -0.550 OA
ATOM      6  O   UNL     1      -5.020 -26.103   9.944  1.00  0.00    -0.550 OA
ENDBRANCH   3   4
ENDBRANCH   2   3
ENDBRANCH   1   2
BRANCH   1   7
ATOM      7  C   UNL     1      -0.168 -26.891   8.464  1.00  0.00     0.000 C 
BRANCH   7   8
ATOM      8  C   UNL     1      -0.702 -28.238   7.949  1.00  0.00    -0.000 C 
BRANCH   8   9
ATOM      9  C   UNL     1      -0.446 -28.442   6.448  1.00  0.00    -0.003 C 
ATOM     10  C   UNL     1      -0.290 -27.104   5.730  1.00  0.00     0.004 C 
ENDBRANCH   8   9
ENDBRANCH   7   8
ENDBRANCH   1   7
TORSDOF 6
ENDMDL
MODEL 3
REMARK VINA RESULT:    -4.240      6.134      7.941
REMARK INTER + INTRA:          -5.978
REMARK INTER:                  -5.795
REMARK INTRA:                  -0.183
REMARK UNBOUND:                -0.251
REMARK SMILES CCCCCCCC(=O)[O-]
REMARK SMILES IDX 5 1 6 2 7 3 8 4 9 5 10 6 4 7 3 8 2 9 1 10
REMARK H PARENT
REMARK Flexibility Score: inf
ROOT
ATOM      1  C   UNL     1      -1.297 -25.183   2.420  1.00  0.00     0.000 C 
ENDROOT
BRANCH   1   2
ATOM      2  C   UNL     1      -2.293 -25.942   1.530  1.00  0.00     0.006 C 
BRANCH   2   3
ATOM      3  C   UNL     1      -1.820 -26.058   0.075  1.00  0.00     0.053 C 
BRANCH   3   4
ATOM      4  C   UNL     1      -2.644 -25.181  -0.814  1.00  0.00     0.041 C 
ATOM      5  O   UNL     1      -3.518 -25.685  -1.567  1.00  0.00    -0.550 OA
ATOM      6  O   UNL     1      -2.412 -23.812  -0.849  1.00  0.00    -0.550 OA
ENDBRANCH   3   4
ENDBRANCH   2   3
ENDBRANCH   1   2
BRANCH   1   7
ATOM      7  C   UNL     1      -1.298 -25.689   3.873  1.00  0.00     0.000 C 
BRANCH   7   8
ATOM      8  C   UNL     1      -0.797 -27.138   3.993  1.00  0.00    -0.000 C 
BRANCH   8   9
ATOM      9  C   UNL     1      -0.347 -27.493   5.418  1.00  0.00    -0.003 C 
ATOM     10  C   UNL     1      -0.210 -29.004   5.591  1.00  0.00     0.004 C 
ENDBRANCH   8   9
ENDBRANCH   7   8
ENDBRANCH   1   7
TORSDOF 6
ENDMDL
MODEL 4
REMARK VINA RESULT:    -4.237      7.156      8.811
REMARK INTER + INTRA:          -5.973
REMARK INTER:                  -5.525
REMARK INTRA:                  -0.448
REMARK UNBOUND:                -0.251
REMARK SMILES CCCCCCCC(=O)[O-]
REMARK SMILES IDX 5 1 6 2 7 3 8 4 9 5 10 6 4 7 3 8 2 9 1 10
REMARK H PARENT
REMARK Flexibility Score: inf
ROOT
ATOM      1  C   UNL     1      -0.657 -24.935   2.159  1.00  0.00     0.000 C 
ENDROOT
BRANCH   1   2
ATOM      2  C   UNL     1      -1.702 -24.455   1.139  1.00  0.00     0.006 C 
BRANCH   2   3
ATOM      3  C   UNL     1      -2.201 -25.582   0.225  1.00  0.00     0.053 C 
BRANCH   3   4
ATOM      4  C   UNL     1      -2.769 -25.018  -1.038  1.00  0.00     0.041 C 
ATOM      5  O   UNL     1      -3.553 -25.707  -1.743  1.00  0.00    -0.550 OA
ATOM      6  O   UNL     1      -2.393 -23.750  -1.465  1.00  0.00    -0.550 OA
ENDBRANCH   3   4
ENDBRANCH   2   3
ENDBRANCH   1   2
BRANCH   1   7
ATOM      7  C   UNL     1      -1.296 -25.610   3.385  1.00  0.00     0.000 C 
BRANCH   7   8
ATOM      8  C   UNL     1      -0.890 -27.086   3.525  1.00  0.00    -0.000 C 
BRANCH   8   9
ATOM      9  C   UNL     1       0.208 -27.496   2.532  1.00  0.00    -0.003 C 
ATOM     10  C   UNL     1      -0.245 -28.666   1.663  1.00  0.00     0.004 C 
ENDBRANCH   8   9
ENDBRANCH   7   8
ENDBRANCH   1   7
TORSDOF 6
ENDMDL
MODEL 5
REMARK VINA RESULT:    -4.185      7.845      9.290
REMARK INTER + INTRA:          -5.903
REMARK INTER:                  -5.641
REMARK INTRA:                  -0.262
REMARK UNBOUND:                -0.251
REMARK SMILES CCCCCCCC(=O)[O-]
REMARK SMILES IDX 5 1 6 2 7 3 8 4 9 5 10 6 4 7 3 8 2 9 1 10
REMARK H PARENT
REMARK Flexibility Score: inf
ROOT
ATOM      1  C   UNL     1      -2.093 -26.518   2.016  1.00  0.00     0.000 C 
ENDROOT
BRANCH   1   2
ATOM      2  C   UNL     1      -1.835 -26.356   0.510  1.00  0.00     0.006 C 
BRANCH   2   3
ATOM      3  C   UNL     1      -1.557 -24.901   0.109  1.00  0.00     0.053 C 
BRANCH   3   4
ATOM      4  C   UNL     1      -2.420 -24.504  -1.047  1.00  0.00     0.041 C 
ATOM      5  O   UNL     1      -2.147 -23.471  -1.715  1.00  0.00    -0.550 OA
ATOM      6  O   UNL     1      -3.553 -25.244  -1.356  1.00  0.00    -0.550 OA
ENDBRANCH   3   4
ENDBRANCH   2   3
ENDBRANCH   1   2
BRANCH   1   7
ATOM      7  C   UNL     1      -1.221 -27.616   2.649  1.00  0.00     0.000 C 
BRANCH   7   8
ATOM      8  C   UNL     1      -0.044 -28.027   1.749  1.00  0.00    -0.000 C 
BRANCH   8   9
ATOM      9  C   UNL     1       0.038 -29.545   1.536  1.00  0.00    -0.003 C 
ATOM     10  C   UNL     1       0.661 -30.238   2.744  1.00  0.00     0.004 C 
ENDBRANCH   8   9
ENDBRANCH   7   8
ENDBRANCH   1   7
TORSDOF 6
ENDMDL
MODEL 6
REMARK VINA RESULT:    -4.176      1.249      2.195
REMARK INTER + INTRA:          -5.891
REMARK INTER:                  -5.661
REMARK INTRA:                  -0.230
REMARK UNBOUND:                -0.251
REMARK SMILES CCCCCCCC(=O)[O-]
REMARK SMILES IDX 5 1 6 2 7 3 8 4 9 5 10 6 4 7 3 8 2 9 1 10
REMARK H PARENT
REMARK Flexibility Score: inf
ROOT
ATOM      1  C   UNL     1       0.499 -26.847   8.256  1.00  0.00     0.000 C 
ENDROOT
BRANCH   1   2
ATOM      2  C   UNL     1      -0.519 -27.341   7.216  1.00  0.00     0.006 C 
BRANCH   2   3
ATOM      3  C   UNL     1      -0.091 -27.033   5.775  1.00  0.00     0.053 C 
BRANCH   3   4
ATOM      4  C   UNL     1      -0.263 -28.241   4.909  1.00  0.00     0.041 C 
ATOM      5  O   UNL     1      -0.557 -28.111   3.691  1.00  0.00    -0.550 OA
ATOM      6  O   UNL     1      -0.150 -29.512   5.458  1.00  0.00    -0.550 OA
ENDBRANCH   3   4
ENDBRANCH   2   3
ENDBRANCH   1   2
BRANCH   1   7
ATOM      7  C   UNL     1      -0.141 -26.586   9.630  1.00  0.00     0.000 C 
BRANCH   7   8
ATOM      8  C   UNL     1      -1.670 -26.746   9.609  1.00  0.00    -0.000 C 
BRANCH   8   9
ATOM      9  C   UNL     1      -2.365 -25.950  10.724  1.00  0.00    -0.003 C 
ATOM     10  C   UNL     1      -3.781 -25.554  10.316  1.00  0.00     0.004 C 
ENDBRANCH   8   9
ENDBRANCH   7   8
ENDBRANCH   1   7
TORSDOF 6
ENDMDL
MODEL 7
REMARK VINA RESULT:    -4.162      6.814      8.439
REMARK INTER + INTRA:          -5.873
REMARK INTER:                  -5.457
REMARK INTRA:                  -0.416
REMARK UNBOUND:                -0.251
REMARK SMILES CCCCCCCC(=O)[O-]
REMARK SMILES IDX 5 1 6 2 7 3 8 4 9 5 10 6 4 7 3 8 2 9 1 10
REMARK H PARENT
REMARK Flexibility Score: inf
ROOT
ATOM      1  C   UNL     1      -1.927 -27.503   1.638  1.00  0.00     0.000 C 
ENDROOT
BRANCH   1   2
ATOM      2  C   UNL     1      -1.542 -26.568   0.481  1.00  0.00     0.006 C 
BRANCH   2   3
ATOM      3  C   UNL     1      -2.366 -25.274   0.464  1.00  0.00     0.053 C 
BRANCH   3   4
ATOM      4  C   UNL     1      -2.717 -24.896  -0.941  1.00  0.00     0.041 C 
ATOM      5  O   UNL     1      -2.328 -23.796  -1.417  1.00  0.00    -0.550 OA
ATOM      6  O   UNL     1      -3.516 -25.734  -1.708  1.00  0.00    -0.550 OA
ENDBRANCH   3   4
ENDBRANCH   2   3
ENDBRANCH   1   2
BRANCH   1   7
ATOM      7  C   UNL     1      -0.705 -27.984   2.439  1.00  0.00     0.000 C 
BRANCH   7   8
ATOM      8  C   UNL     1      -0.755 -27.545   3.912  1.00  0.00    -0.000 C 
BRANCH   8   9
ATOM      9  C   UNL     1      -0.807 -26.019   4.074  1.00  0.00    -0.003 C 
ATOM     10  C   UNL     1       0.412 -25.356   3.440  1.00  0.00     0.004 C 
ENDBRANCH   8   9
ENDBRANCH   7   8
ENDBRANCH   1   7
TORSDOF 6
ENDMDL
MODEL 8
REMARK VINA RESULT:    -4.114      6.423      8.078
REMARK INTER + INTRA:          -5.807
REMARK INTER:                  -5.372
REMARK INTRA:                  -0.434
REMARK UNBOUND:                -0.251
REMARK SMILES CCCCCCCC(=O)[O-]
REMARK SMILES IDX 5 1 6 2 7 3 8 4 9 5 10 6 4 7 3 8 2 9 1 10
REMARK H PARENT
REMARK Flexibility Score: inf
ROOT
ATOM      1  C   UNL     1      -1.043 -24.928   3.202  1.00  0.00     0.000 C 
ENDROOT
BRANCH   1   2
ATOM      2  C   UNL     1      -1.190 -26.439   3.444  1.00  0.00     0.006 C 
BRANCH   2   3
ATOM      3  C   UNL     1      -0.141 -27.265   2.688  1.00  0.00     0.053 C 
BRANCH   3   4
ATOM      4  C   UNL     1      -0.800 -28.355   1.904  1.00  0.00     0.041 C 
ATOM      5  O   UNL     1      -2.050 -28.355   1.745  1.00  0.00    -0.550 OA
ATOM      6  O   UNL     1      -0.042 -29.400   1.392  1.00  0.00    -0.550 OA
ENDBRANCH   3   4
ENDBRANCH   2   3
ENDBRANCH   1   2
BRANCH   1   7
ATOM      7  C   UNL     1      -0.652 -24.598   1.752  1.00  0.00     0.000 C 
BRANCH   7   8
ATOM      8  C   UNL     1      -1.873 -24.476   0.825  1.00  0.00    -0.000 C 
BRANCH   8   9
ATOM      9  C   UNL     1      -1.901 -25.559  -0.264  1.00  0.00    -0.003 C 
ATOM     10  C   UNL     1      -3.137 -25.419  -1.148  1.00  0.00     0.004 C 
ENDBRANCH   8   9
ENDBRANCH   7   8
ENDBRANCH   1   7
TORSDOF 6
ENDMDL
MODEL 9
REMARK VINA RESULT:    -4.050      3.008      5.310
REMARK INTER + INTRA:          -5.721
REMARK INTER:                  -5.426
REMARK INTRA:                  -0.294
REMARK UNBOUND:                -0.251
REMARK SMILES CCCCCCCC(=O)[O-]
REMARK SMILES IDX 5 1 6 2 7 3 8 4 9 5 10 6 4 7 3 8 2 9 1 10
REMARK H PARENT
REMARK Flexibility Score: inf
ROOT
ATOM      1  C   UNL     1       0.268 -26.999   7.976  1.00  0.00     0.000 C 
ENDROOT
BRANCH   1   2
ATOM      2  C   UNL     1      -0.279 -26.576   9.349  1.00  0.00     0.006 C 
BRANCH   2   3
ATOM      3  C   UNL     1      -1.766 -26.913   9.523  1.00  0.00     0.053 C 
BRANCH   3   4
ATOM      4  C   UNL     1      -2.355 -26.114  10.643  1.00  0.00     0.041 C 
ATOM      5  O   UNL     1      -3.540 -25.694  10.567  1.00  0.00    -0.550 OA
ATOM      6  O   UNL     1      -1.579 -25.788  11.748  1.00  0.00    -0.550 OA
ENDBRANCH   3   4
ENDBRANCH   2   3
ENDBRANCH   1   2
BRANCH   1   7
ATOM      7  C   UNL     1      -0.495 -28.193   7.379  1.00  0.00     0.000 C 
BRANCH   7   8
ATOM      8  C   UNL     1      -0.463 -28.206   5.842  1.00  0.00    -0.000 C 
BRANCH   8   9
ATOM      9  C   UNL     1       0.036 -26.880   5.249  1.00  0.00    -0.003 C 
ATOM     10  C   UNL     1      -0.976 -26.305   4.261  1.00  0.00     0.004 C 
ENDBRANCH   8   9
ENDBRANCH   7   8
ENDBRANCH   1   7
TORSDOF 6
ENDMDL
