MODEL 1
REMARK VINA RESULT:    -5.503      0.000      0.000
REMARK INTER + INTRA:         -10.439
REMARK INTER:                  -8.398
REMARK INTRA:                  -2.042
REMARK UNBOUND:                -2.042
REMARK SMILES CC(=O)CCC=C(C)CCC=C(C)CCC=C(C)C
REMARK SMILES IDX 10 1 11 2 12 3 13 4 14 5 15 6 16 7 18 8 17 9 19 10 9 11 7 12
REMARK SMILES IDX 6 13 8 14 5 15 4 16 2 17 3 18 1 19
REMARK H PARENT
REMARK Flexibility Score: inf
ROOT
ATOM      1  C   UNL     1      17.958  15.137  26.419  1.00  0.00     0.032 C 
ENDROOT
BRANCH   1   2
ATOM      2  C   UNL     1      18.384  13.688  26.353  1.00  0.00    -0.028 C 
ATOM      3  C   UNL     1      18.722  13.011  25.230  1.00  0.00    -0.077 C 
ATOM      4  C   UNL     1      19.072  11.550  25.367  1.00  0.00     0.039 C 
BRANCH   3   5
ATOM      5  C   UNL     1      18.781  13.648  23.850  1.00  0.00     0.034 C 
BRANCH   5   6
ATOM      6  C   UNL     1      20.022  14.533  23.648  1.00  0.00     0.032 C 
BRANCH   6   7
ATOM      7  C   UNL     1      19.662  15.972  23.358  1.00  0.00    -0.028 C 
ATOM      8  C   UNL     1      20.947  16.873  25.311  1.00  0.00     0.039 C 
ATOM      9  C   UNL     1      20.092  17.033  24.076  1.00  0.00    -0.080 C 
ATOM     10  C   UNL     1      19.679  18.412  23.632  1.00  0.00     0.039 C 
ENDBRANCH   6   7
ENDBRANCH   5   6
ENDBRANCH   3   5
ENDBRANCH   1   2
BRANCH   1  11
ATOM     11  C   UNL     1      16.484  15.268  26.824  1.00  0.00     0.034 C 
BRANCH  11  12
ATOM     12  C   UNL     1      15.611  15.687  25.660  1.00  0.00    -0.077 C 
ATOM     13  C   UNL     1      16.185  16.236  24.564  1.00  0.00    -0.028 C 
ATOM     14  C   UNL     1      14.127  15.413  25.732  1.00  0.00     0.039 C 
BRANCH  13  15
ATOM     15  C   UNL     1      15.425  16.703  23.348  1.00  0.00     0.035 C 
BRANCH  15  16
ATOM     16  C   UNL     1      15.933  18.071  22.882  1.00  0.00     0.079 C 
BRANCH  16  17
ATOM     17  C   UNL     1      14.797  18.910  22.360  1.00  0.00     0.130 C 
ATOM     18  O   UNL     1      14.668  19.065  21.155  1.00  0.00    -0.300 OA
ATOM     19  C   UNL     1      13.809  19.553  23.288  1.00  0.00     0.087 C 
ENDBRANCH  16  17
ENDBRANCH  15  16
ENDBRANCH  13  15
ENDBRANCH  11  12
ENDBRANCH   1  11
TORSDOF 9
ENDMDL
MODEL 2
REMARK VINA RESULT:    -5.473      0.816      1.236
REMARK INTER + INTRA:         -10.394
REMARK INTER:                  -8.597
REMARK INTRA:                  -1.797
REMARK UNBOUND:                -2.042
REMARK SMILES CC(=O)CCC=C(C)CCC=C(C)CCC=C(C)C
REMARK SMILES IDX 10 1 11 2 12 3 13 4 14 5 15 6 16 7 18 8 17 9 19 10 9 11 7 12
REMARK SMILES IDX 6 13 8 14 5 15 4 16 2 17 3 18 1 19
REMARK H PARENT
REMARK Flexibility Score: inf
ROOT
ATOM      1  C   UNL     1      17.666  15.172  26.569  1.00  0.00     0.032 C 
ENDROOT
BRANCH   1   2
ATOM      2  C   UNL     1      17.872  13.749  26.099  1.00  0.00    -0.028 C 
ATOM      3  C   UNL     1      19.063  13.116  25.991  1.00  0.00    -0.077 C 
ATOM      4  C   UNL     1      19.064  11.706  25.453  1.00  0.00     0.039 C 
BRANCH   3   5
ATOM      5  C   UNL     1      20.389  13.742  26.394  1.00  0.00     0.034 C 
BRANCH   5   6
ATOM      6  C   UNL     1      21.142  14.372  25.211  1.00  0.00     0.032 C 
BRANCH   6   7
ATOM      7  C   UNL     1      21.076  15.882  25.226  1.00  0.00    -0.028 C 
ATOM      8  C   UNL     1      19.362  16.002  23.401  1.00  0.00     0.039 C 
ATOM      9  C   UNL     1      20.264  16.624  24.442  1.00  0.00    -0.080 C 
ATOM     10  C   UNL     1      20.283  18.122  24.606  1.00  0.00     0.039 C 
ENDBRANCH   6   7
ENDBRANCH   5   6
ENDBRANCH   3   5
ENDBRANCH   1   2
BRANCH   1  11
ATOM     11  C   UNL     1      16.193  15.441  26.905  1.00  0.00     0.034 C 
BRANCH  11  12
ATOM     12  C   UNL     1      15.374  15.742  25.668  1.00  0.00    -0.077 C 
ATOM     13  C   UNL     1      15.927  16.467  24.666  1.00  0.00    -0.028 C 
ATOM     14  C   UNL     1      13.983  15.164  25.561  1.00  0.00     0.039 C 
BRANCH  13  15
ATOM     15  C   UNL     1      15.214  16.841  23.391  1.00  0.00     0.035 C 
BRANCH  15  16
ATOM     16  C   UNL     1      15.712  18.192  22.867  1.00  0.00     0.079 C 
BRANCH  16  17
ATOM     17  C   UNL     1      14.553  19.069  22.474  1.00  0.00     0.130 C 
ATOM     18  O   UNL     1      14.342  19.292  21.291  1.00  0.00    -0.300 OA
ATOM     19  C   UNL     1      13.641  19.669  23.503  1.00  0.00     0.087 C 
ENDBRANCH  16  17
ENDBRANCH  15  16
ENDBRANCH  13  15
ENDBRANCH  11  12
ENDBRANCH   1  11
TORSDOF 9
ENDMDL
MODEL 3
REMARK VINA RESULT:    -5.320      1.227      1.534
REMARK INTER + INTRA:         -10.160
REMARK INTER:                  -7.624
REMARK INTRA:                  -2.536
REMARK UNBOUND:                -2.042
REMARK SMILES CC(=O)CCC=C(C)CCC=C(C)CCC=C(C)C
REMARK SMILES IDX 10 1 11 2 12 3 13 4 14 5 15 6 16 7 18 8 17 9 19 10 9 11 7 12
REMARK SMILES IDX 6 13 8 14 5 15 4 16 2 17 3 18 1 19
REMARK H PARENT
REMARK Flexibility Score: inf
ROOT
ATOM      1  C   UNL     1      17.990  13.842  26.226  1.00  0.00     0.032 C 
ENDROOT
BRANCH   1   2
ATOM      2  C   UNL     1      19.412  13.801  26.737  1.00  0.00    -0.028 C 
ATOM      3  C   UNL     1      20.525  13.694  25.974  1.00  0.00    -0.077 C 
ATOM      4  C   UNL     1      21.857  13.619  26.679  1.00  0.00     0.039 C 
BRANCH   3   5
ATOM      5  C   UNL     1      20.503  13.663  24.454  1.00  0.00     0.034 C 
BRANCH   5   6
ATOM      6  C   UNL     1      21.254  14.843  23.816  1.00  0.00     0.032 C 
BRANCH   6   7
ATOM      7  C   UNL     1      20.321  15.944  23.367  1.00  0.00    -0.028 C 
ATOM      8  C   UNL     1      20.707  17.345  25.408  1.00  0.00     0.039 C 
ATOM      9  C   UNL     1      20.088  17.083  24.056  1.00  0.00    -0.080 C 
ATOM     10  C   UNL     1      19.162  18.107  23.452  1.00  0.00     0.039 C 
ENDBRANCH   6   7
ENDBRANCH   5   6
ENDBRANCH   3   5
ENDBRANCH   1   2
BRANCH   1  11
ATOM     11  C   UNL     1      17.480  15.285  26.107  1.00  0.00     0.034 C 
BRANCH  11  12
ATOM     12  C   UNL     1      16.712  15.511  24.822  1.00  0.00    -0.077 C 
ATOM     13  C   UNL     1      15.846  16.549  24.741  1.00  0.00    -0.028 C 
ATOM     14  C   UNL     1      16.990  14.610  23.643  1.00  0.00     0.039 C 
BRANCH  13  15
ATOM     15  C   UNL     1      15.016  16.873  23.525  1.00  0.00     0.035 C 
BRANCH  15  16
ATOM     16  C   UNL     1      15.594  18.081  22.780  1.00  0.00     0.079 C 
BRANCH  16  17
ATOM     17  C   UNL     1      14.490  18.973  22.277  1.00  0.00     0.130 C 
ATOM     18  O   UNL     1      14.485  19.323  21.106  1.00  0.00    -0.300 OA
ATOM     19  C   UNL     1      13.385  19.435  23.181  1.00  0.00     0.087 C 
ENDBRANCH  16  17
ENDBRANCH  15  16
ENDBRANCH  13  15
ENDBRANCH  11  12
ENDBRANCH   1  11
TORSDOF 9
ENDMDL
MODEL 4
REMARK VINA RESULT:    -5.267      2.438      5.205
REMARK INTER + INTRA:         -10.080
REMARK INTER:                  -8.564
REMARK INTRA:                  -1.516
REMARK UNBOUND:                -2.042
REMARK SMILES CC(=O)CCC=C(C)CCC=C(C)CCC=C(C)C
REMARK SMILES IDX 10 1 11 2 12 3 13 4 14 5 15 6 16 7 18 8 17 9 19 10 9 11 7 12
REMARK SMILES IDX 6 13 8 14 5 15 4 16 2 17 3 18 1 19
REMARK H PARENT
REMARK Flexibility Score: inf
ROOT
ATOM      1  C   UNL     1      17.065  14.412  24.171  1.00  0.00     0.032 C 
ENDROOT
BRANCH   1   2
ATOM      2  C   UNL     1      17.989  15.566  23.855  1.00  0.00    -0.028 C 
ATOM      3  C   UNL     1      17.605  16.812  23.491  1.00  0.00    -0.077 C 
ATOM      4  C   UNL     1      18.684  17.815  23.168  1.00  0.00     0.039 C 
BRANCH   3   5
ATOM      5  C   UNL     1      16.152  17.253  23.407  1.00  0.00     0.034 C 
BRANCH   5   6
ATOM      6  C   UNL     1      15.958  18.531  22.575  1.00  0.00     0.032 C 
BRANCH   6   7
ATOM      7  C   UNL     1      14.669  18.514  21.786  1.00  0.00    -0.028 C 
ATOM      8  C   UNL     1      13.457  20.006  23.393  1.00  0.00     0.039 C 
ATOM      9  C   UNL     1      13.550  19.192  22.124  1.00  0.00    -0.080 C 
ATOM     10  C   UNL     1      12.357  19.107  21.207  1.00  0.00     0.039 C 
ENDBRANCH   6   7
ENDBRANCH   5   6
ENDBRANCH   3   5
ENDBRANCH   1   2
BRANCH   1  11
ATOM     11  C   UNL     1      16.736  14.353  25.669  1.00  0.00     0.034 C 
BRANCH  11  12
ATOM     12  C   UNL     1      15.475  15.120  26.004  1.00  0.00    -0.077 C 
ATOM     13  C   UNL     1      14.318  14.801  25.376  1.00  0.00    -0.028 C 
ATOM     14  C   UNL     1      15.533  16.175  27.083  1.00  0.00     0.039 C 
BRANCH  13  15
ATOM     15  C   UNL     1      13.001  15.495  25.614  1.00  0.00     0.035 C 
BRANCH  15  16
ATOM     16  C   UNL     1      11.833  14.520  25.433  1.00  0.00     0.079 C 
BRANCH  16  17
ATOM     17  C   UNL     1      11.051  14.852  24.190  1.00  0.00     0.130 C 
ATOM     18  O   UNL     1       9.977  14.304  23.990  1.00  0.00    -0.300 OA
ATOM     19  C   UNL     1      11.556  15.853  23.192  1.00  0.00     0.087 C 
ENDBRANCH  16  17
ENDBRANCH  15  16
ENDBRANCH  13  15
ENDBRANCH  11  12
ENDBRANCH   1  11
TORSDOF 9
ENDMDL
MODEL 5
REMARK VINA RESULT:    -5.222      2.304      3.305
REMARK INTER + INTRA:         -10.012
REMARK INTER:                  -8.108
REMARK INTRA:                  -1.904
REMARK UNBOUND:                -2.042
REMARK SMILES CC(=O)CCC=C(C)CCC=C(C)CCC=C(C)C
REMARK SMILES IDX 10 1 11 2 12 3 13 4 14 5 15 6 16 7 18 8 17 9 19 10 9 11 7 12
REMARK SMILES IDX 6 13 8 14 5 15 4 16 2 17 3 18 1 19
REMARK H PARENT
REMARK Flexibility Score: inf
ROOT
ATOM      1  C   UNL     1      17.343  14.832  26.669  1.00  0.00     0.032 C 
ENDROOT
BRANCH   1   2
ATOM      2  C   UNL     1      17.737  13.538  25.995  1.00  0.00    -0.028 C 
ATOM      3  C   UNL     1      18.966  12.972  26.024  1.00  0.00    -0.077 C 
ATOM      4  C   UNL     1      19.173  11.698  25.243  1.00  0.00     0.039 C 
BRANCH   3   5
ATOM      5  C   UNL     1      20.137  13.543  26.809  1.00  0.00     0.034 C 
BRANCH   5   6
ATOM      6  C   UNL     1      21.220  14.161  25.910  1.00  0.00     0.032 C 
BRANCH   6   7
ATOM      7  C   UNL     1      21.117  15.667  25.835  1.00  0.00    -0.028 C 
ATOM      8  C   UNL     1      20.165  15.665  23.518  1.00  0.00     0.039 C 
ATOM      9  C   UNL     1      20.620  16.353  24.783  1.00  0.00    -0.080 C 
ATOM     10  C   UNL     1      20.542  17.855  24.879  1.00  0.00     0.039 C 
ENDBRANCH   6   7
ENDBRANCH   5   6
ENDBRANCH   3   5
ENDBRANCH   1   2
BRANCH   1  11
ATOM     11  C   UNL     1      17.105  15.947  25.642  1.00  0.00     0.034 C 
BRANCH  11  12
ATOM     12  C   UNL     1      15.645  16.064  25.258  1.00  0.00    -0.077 C 
ATOM     13  C   UNL     1      14.698  15.986  26.222  1.00  0.00    -0.028 C 
ATOM     14  C   UNL     1      15.295  16.334  23.814  1.00  0.00     0.039 C 
BRANCH  13  15
ATOM     15  C   UNL     1      13.214  16.077  25.968  1.00  0.00     0.035 C 
BRANCH  15  16
ATOM     16  C   UNL     1      12.596  14.680  25.852  1.00  0.00     0.079 C 
BRANCH  16  17
ATOM     17  C   UNL     1      11.512  14.663  24.808  1.00  0.00     0.130 C 
ATOM     18  O   UNL     1      10.542  13.935  24.959  1.00  0.00    -0.300 OA
ATOM     19  C   UNL     1      11.588  15.533  23.587  1.00  0.00     0.087 C 
ENDBRANCH  16  17
ENDBRANCH  15  16
ENDBRANCH  13  15
ENDBRANCH  11  12
ENDBRANCH   1  11
TORSDOF 9
ENDMDL
MODEL 6
REMARK VINA RESULT:    -5.220      2.885      6.374
REMARK INTER + INTRA:         -10.009
REMARK INTER:                  -7.699
REMARK INTRA:                  -2.310
REMARK UNBOUND:                -2.042
REMARK SMILES CC(=O)CCC=C(C)CCC=C(C)CCC=C(C)C
REMARK SMILES IDX 10 1 11 2 12 3 13 4 14 5 15 6 16 7 18 8 17 9 19 10 9 11 7 12
REMARK SMILES IDX 6 13 8 14 5 15 4 16 2 17 3 18 1 19
REMARK H PARENT
REMARK Flexibility Score: inf
ROOT
ATOM      1  C   UNL     1      12.214  14.276  25.360  1.00  0.00     0.032 C 
ENDROOT
BRANCH   1   2
ATOM      2  C   UNL     1      10.799  14.458  24.859  1.00  0.00    -0.028 C 
ATOM      3  C   UNL     1      10.444  14.939  23.644  1.00  0.00    -0.077 C 
ATOM      4  C   UNL     1       8.973  15.092  23.350  1.00  0.00     0.039 C 
BRANCH   3   5
ATOM      5  C   UNL     1      11.446  15.316  22.564  1.00  0.00     0.034 C 
BRANCH   5   6
ATOM      6  C   UNL     1      11.837  16.803  22.598  1.00  0.00     0.032 C 
BRANCH   6   7
ATOM      7  C   UNL     1      13.332  17.007  22.502  1.00  0.00    -0.028 C 
ATOM      8  C   UNL     1      13.348  18.949  24.085  1.00  0.00     0.039 C 
ATOM      9  C   UNL     1      14.026  17.945  23.183  1.00  0.00    -0.080 C 
ATOM     10  C   UNL     1      15.522  17.993  23.012  1.00  0.00     0.039 C 
ENDBRANCH   6   7
ENDBRANCH   5   6
ENDBRANCH   3   5
ENDBRANCH   1   2
BRANCH   1  11
ATOM     11  C   UNL     1      12.749  15.564  26.000  1.00  0.00     0.034 C 
BRANCH  11  12
ATOM     12  C   UNL     1      14.262  15.583  26.058  1.00  0.00    -0.077 C 
ATOM     13  C   UNL     1      14.967  14.750  25.256  1.00  0.00    -0.028 C 
ATOM     14  C   UNL     1      14.940  16.583  26.964  1.00  0.00     0.039 C 
BRANCH  13  15
ATOM     15  C   UNL     1      16.472  14.666  25.227  1.00  0.00     0.035 C 
BRANCH  15  16
ATOM     16  C   UNL     1      16.984  14.591  23.785  1.00  0.00     0.079 C 
BRANCH  16  17
ATOM     17  C   UNL     1      18.488  14.514  23.759  1.00  0.00     0.130 C 
ATOM     18  O   UNL     1      19.138  15.523  23.529  1.00  0.00    -0.300 OA
ATOM     19  C   UNL     1      19.210  13.225  24.021  1.00  0.00     0.087 C 
ENDBRANCH  16  17
ENDBRANCH  15  16
ENDBRANCH  13  15
ENDBRANCH  11  12
ENDBRANCH   1  11
TORSDOF 9
ENDMDL
MODEL 7
REMARK VINA RESULT:    -5.212      1.528      2.891
REMARK INTER + INTRA:          -9.996
REMARK INTER:                  -8.102
REMARK INTRA:                  -1.893
REMARK UNBOUND:                -2.042
REMARK SMILES CC(=O)CCC=C(C)CCC=C(C)CCC=C(C)C
REMARK SMILES IDX 10 1 11 2 12 3 13 4 14 5 15 6 16 7 18 8 17 9 19 10 9 11 7 12
REMARK SMILES IDX 6 13 8 14 5 15 4 16 2 17 3 18 1 19
REMARK H PARENT
REMARK Flexibility Score: inf
ROOT
ATOM      1  C   UNL     1      16.491  15.489  26.643  1.00  0.00     0.032 C 
ENDROOT
BRANCH   1   2
ATOM      2  C   UNL     1      17.265  16.218  25.569  1.00  0.00    -0.028 C 
ATOM      3  C   UNL     1      17.598  15.719  24.356  1.00  0.00    -0.077 C 
ATOM      4  C   UNL     1      18.420  16.589  23.438  1.00  0.00     0.039 C 
BRANCH   3   5
ATOM      5  C   UNL     1      17.176  14.342  23.868  1.00  0.00     0.034 C 
BRANCH   5   6
ATOM      6  C   UNL     1      18.346  13.348  23.785  1.00  0.00     0.032 C 
BRANCH   6   7
ATOM      7  C   UNL     1      18.946  13.052  25.141  1.00  0.00    -0.028 C 
ATOM      8  C   UNL     1      21.063  14.310  24.676  1.00  0.00     0.039 C 
ATOM      9  C   UNL     1      20.149  13.499  25.565  1.00  0.00    -0.080 C 
ATOM     10  C   UNL     1      20.589  13.154  26.964  1.00  0.00     0.039 C 
ENDBRANCH   6   7
ENDBRANCH   5   6
ENDBRANCH   3   5
ENDBRANCH   1   2
BRANCH   1  11
ATOM     11  C   UNL     1      15.144  16.170  26.921  1.00  0.00     0.034 C 
BRANCH  11  12
ATOM     12  C   UNL     1      14.213  16.094  25.730  1.00  0.00    -0.077 C 
ATOM     13  C   UNL     1      14.200  17.107  24.832  1.00  0.00    -0.028 C 
ATOM     14  C   UNL     1      13.374  14.852  25.544  1.00  0.00     0.039 C 
BRANCH  13  15
ATOM     15  C   UNL     1      13.313  17.155  23.613  1.00  0.00     0.035 C 
BRANCH  15  16
ATOM     16  C   UNL     1      14.134  16.948  22.336  1.00  0.00     0.079 C 
BRANCH  16  17
ATOM     17  C   UNL     1      14.677  18.259  21.835  1.00  0.00     0.130 C 
ATOM     18  O   UNL     1      15.826  18.577  22.104  1.00  0.00    -0.300 OA
ATOM     19  C   UNL     1      13.841  19.184  20.999  1.00  0.00     0.087 C 
ENDBRANCH  16  17
ENDBRANCH  15  16
ENDBRANCH  13  15
ENDBRANCH  11  12
ENDBRANCH   1  11
TORSDOF 9
ENDMDL
MODEL 8
REMARK VINA RESULT:    -5.156      1.538      2.344
REMARK INTER + INTRA:          -9.911
REMARK INTER:                  -8.119
REMARK INTRA:                  -1.791
REMARK UNBOUND:                -2.042
REMARK SMILES CC(=O)CCC=C(C)CCC=C(C)CCC=C(C)C
REMARK SMILES IDX 10 1 11 2 12 3 13 4 14 5 15 6 16 7 18 8 17 9 19 10 9 11 7 12
REMARK SMILES IDX 6 13 8 14 5 15 4 16 2 17 3 18 1 19
REMARK H PARENT
REMARK Flexibility Score: inf
ROOT
ATOM      1  C   UNL     1      17.208  14.316  23.735  1.00  0.00     0.032 C 
ENDROOT
BRANCH   1   2
ATOM      2  C   UNL     1      18.629  14.259  24.248  1.00  0.00    -0.028 C 
ATOM      3  C   UNL     1      19.377  15.321  24.628  1.00  0.00    -0.077 C 
ATOM      4  C   UNL     1      20.797  15.062  25.065  1.00  0.00     0.039 C 
BRANCH   3   5
ATOM      5  C   UNL     1      18.858  16.751  24.651  1.00  0.00     0.034 C 
BRANCH   5   6
ATOM      6  C   UNL     1      18.855  17.412  23.263  1.00  0.00     0.032 C 
BRANCH   6   7
ATOM      7  C   UNL     1      19.979  18.409  23.098  1.00  0.00    -0.028 C 
ATOM      8  C   UNL     1      21.429  16.830  21.800  1.00  0.00     0.039 C 
ATOM      9  C   UNL     1      21.125  18.173  22.422  1.00  0.00    -0.080 C 
ATOM     10  C   UNL     1      22.133  19.288  22.310  1.00  0.00     0.039 C 
ENDBRANCH   6   7
ENDBRANCH   5   6
ENDBRANCH   3   5
ENDBRANCH   1   2
BRANCH   1  11
ATOM     11  C   UNL     1      16.202  14.432  24.889  1.00  0.00     0.034 C 
BRANCH  11  12
ATOM     12  C   UNL     1      15.483  15.764  24.883  1.00  0.00    -0.077 C 
ATOM     13  C   UNL     1      15.289  16.408  23.709  1.00  0.00    -0.028 C 
ATOM     14  C   UNL     1      14.943  16.301  26.187  1.00  0.00     0.039 C 
BRANCH  13  15
ATOM     15  C   UNL     1      14.598  17.742  23.572  1.00  0.00     0.035 C 
BRANCH  15  16
ATOM     16  C   UNL     1      15.341  18.639  22.577  1.00  0.00     0.079 C 
BRANCH  16  17
ATOM     17  C   UNL     1      14.513  18.859  21.339  1.00  0.00     0.130 C 
ATOM     18  O   UNL     1      14.995  18.616  20.242  1.00  0.00    -0.300 OA
ATOM     19  C   UNL     1      13.101  19.359  21.420  1.00  0.00     0.087 C 
ENDBRANCH  16  17
ENDBRANCH  15  16
ENDBRANCH  13  15
ENDBRANCH  11  12
ENDBRANCH   1  11
TORSDOF 9
ENDMDL
MODEL 9
REMARK VINA RESULT:    -5.128      2.883      6.980
REMARK INTER + INTRA:          -9.868
REMARK INTER:                  -8.180
REMARK INTRA:                  -1.688
REMARK UNBOUND:                -2.042
REMARK SMILES CC(=O)CCC=C(C)CCC=C(C)CCC=C(C)C
REMARK SMILES IDX 10 1 11 2 12 3 13 4 14 5 15 6 16 7 18 8 17 9 19 10 9 11 7 12
REMARK SMILES IDX 6 13 8 14 5 15 4 16 2 17 3 18 1 19
REMARK H PARENT
REMARK Flexibility Score: inf
ROOT
ATOM      1  C   UNL     1      13.683  16.377  24.876  1.00  0.00     0.032 C 
ENDROOT
BRANCH   1   2
ATOM      2  C   UNL     1      13.407  17.847  24.656  1.00  0.00    -0.028 C 
ATOM      3  C   UNL     1      13.816  18.580  23.593  1.00  0.00    -0.077 C 
ATOM      4  C   UNL     1      13.481  20.050  23.582  1.00  0.00     0.039 C 
BRANCH   3   5
ATOM      5  C   UNL     1      14.576  17.997  22.412  1.00  0.00     0.034 C 
BRANCH   5   6
ATOM      6  C   UNL     1      13.694  17.134  21.495  1.00  0.00     0.032 C 
BRANCH   6   7
ATOM      7  C   UNL     1      12.381  17.804  21.163  1.00  0.00    -0.028 C 
ATOM      8  C   UNL     1      10.999  16.089  22.358  1.00  0.00     0.039 C 
ATOM      9  C   UNL     1      11.168  17.364  21.567  1.00  0.00    -0.080 C 
ATOM     10  C   UNL     1       9.952  18.170  21.190  1.00  0.00     0.039 C 
ENDBRANCH   6   7
ENDBRANCH   5   6
ENDBRANCH   3   5
ENDBRANCH   1   2
BRANCH   1  11
ATOM     11  C   UNL     1      14.481  16.145  26.165  1.00  0.00     0.034 C 
BRANCH  11  12
ATOM     12  C   UNL     1      15.913  15.745  25.882  1.00  0.00    -0.077 C 
ATOM     13  C   UNL     1      16.361  15.743  24.604  1.00  0.00    -0.028 C 
ATOM     14  C   UNL     1      16.820  15.425  27.046  1.00  0.00     0.039 C 
BRANCH  13  15
ATOM     15  C   UNL     1      17.759  15.355  24.192  1.00  0.00     0.035 C 
BRANCH  15  16
ATOM     16  C   UNL     1      17.783  13.932  23.625  1.00  0.00     0.079 C 
BRANCH  16  17
ATOM     17  C   UNL     1      18.860  13.114  24.286  1.00  0.00     0.130 C 
ATOM     18  O   UNL     1      19.934  12.964  23.722  1.00  0.00    -0.300 OA
ATOM     19  C   UNL     1      18.650  12.487  25.633  1.00  0.00     0.087 C 
ENDBRANCH  16  17
ENDBRANCH  15  16
ENDBRANCH  13  15
ENDBRANCH  11  12
ENDBRANCH   1  11
TORSDOF 9
ENDMDL
