MODEL 1
REMARK VINA RESULT:    -7.009      0.000      0.000
REMARK INTER + INTRA:          -8.509
REMARK INTER:                  -8.239
REMARK INTRA:                  -0.271
REMARK UNBOUND:                -0.271
REMARK SMILES O=c1c(O)c(-c2ccc(O)c(O)c2)oc2cc(O)ccc12
REMARK SMILES IDX 5 1 3 2 2 3 1 4 21 5 15 6 14 7 16 8 17 9 19 10 20 11 6 12
REMARK SMILES IDX 7 13 8 14 9 15 13 16 11 17 10 18 12 20 4 22 18 24
REMARK H PARENT 10 19 12 21 4 23 18 25
REMARK Flexibility Score: inf
ROOT
ATOM      1  C   UNL     1      45.969 -29.208  17.953  1.00  0.00     0.180 A 
ATOM      2  C   UNL     1      46.479 -29.460  19.244  1.00  0.00     0.208 A 
ATOM      3  C   UNL     1      45.863 -30.444  20.033  1.00  0.00     0.235 A 
ATOM      4  O   UNL     1      46.307 -30.695  21.187  1.00  0.00    -0.285 OA
ATOM      5  C   UNL     1      44.751 -31.138  19.530  1.00  0.00     0.069 A 
ATOM      6  C   UNL     1      44.288 -30.811  18.237  1.00  0.00     0.142 A 
ATOM      7  O   UNL     1      44.904 -29.878  17.519  1.00  0.00    -0.452 OA
ATOM      8  C   UNL     1      43.176 -31.472  17.704  1.00  0.00     0.094 A 
ATOM      9  C   UNL     1      42.520 -32.461  18.449  1.00  0.00     0.119 A 
ATOM     10  C   UNL     1      42.978 -32.788  19.730  1.00  0.00     0.047 A 
ATOM     11  C   UNL     1      44.087 -32.131  20.271  1.00  0.00     0.020 A 
ENDROOT
BRANCH   1  12
ATOM     12  C   UNL     1      46.573 -28.200  17.053  1.00  0.00     0.025 A 
ATOM     13  C   UNL     1      46.010 -26.920  16.902  1.00  0.00     0.016 A 
ATOM     14  C   UNL     1      46.613 -25.977  16.065  1.00  0.00     0.051 A 
ATOM     15  C   UNL     1      47.792 -26.294  15.377  1.00  0.00     0.157 A 
ATOM     16  C   UNL     1      47.768 -28.504  16.378  1.00  0.00     0.062 A 
ATOM     17  C   UNL     1      48.372 -27.559  15.536  1.00  0.00     0.158 A 
BRANCH  15  18
ATOM     18  O   UNL     1      48.394 -25.357  14.540  1.00  0.00    -0.504 OA
ATOM     19  H   UNL     1      48.582 -25.559  13.566  1.00  0.00     0.293 HD
ENDBRANCH  15  18
BRANCH  17  20
ATOM     20  O   UNL     1      49.549 -27.868  14.856  1.00  0.00    -0.504 OA
ATOM     21  H   UNL     1      50.240 -28.495  15.252  1.00  0.00     0.293 HD
ENDBRANCH  17  20
ENDBRANCH   1  12
BRANCH   2  22
ATOM     22  O   UNL     1      47.556 -28.720  19.736  1.00  0.00    -0.502 OA
ATOM     23  H   UNL     1      48.398 -29.159  20.089  1.00  0.00     0.293 HD
ENDBRANCH   2  22
BRANCH   9  24
ATOM     24  O   UNL     1      41.412 -33.125  17.926  1.00  0.00    -0.508 OA
ATOM     25  H   UNL     1      40.863 -33.763  18.490  1.00  0.00     0.293 HD
ENDBRANCH   9  24
TORSDOF 5
ENDMDL
MODEL 2
REMARK VINA RESULT:    -6.730      3.465      7.706
REMARK INTER + INTRA:          -8.181
REMARK INTER:                  -7.862
REMARK INTRA:                  -0.318
REMARK UNBOUND:                -0.271
REMARK SMILES O=c1c(O)c(-c2ccc(O)c(O)c2)oc2cc(O)ccc12
REMARK SMILES IDX 5 1 3 2 2 3 1 4 21 5 15 6 14 7 16 8 17 9 19 10 20 11 6 12
REMARK SMILES IDX 7 13 8 14 9 15 13 16 11 17 10 18 12 20 4 22 18 24
REMARK H PARENT 10 19 12 21 4 23 18 25
REMARK Flexibility Score: inf
ROOT
ATOM      1  C   UNL     1      47.444 -26.524  18.137  1.00  0.00     0.180 A 
ATOM      2  C   UNL     1      47.998 -26.032  16.936  1.00  0.00     0.208 A 
ATOM      3  C   UNL     1      48.857 -24.924  16.992  1.00  0.00     0.235 A 
ATOM      4  O   UNL     1      49.374 -24.472  15.933  1.00  0.00    -0.285 OA
ATOM      5  C   UNL     1      49.130 -24.323  18.231  1.00  0.00     0.069 A 
ATOM      6  C   UNL     1      48.518 -24.861  19.384  1.00  0.00     0.142 A 
ATOM      7  O   UNL     1      47.716 -25.916  19.289  1.00  0.00    -0.452 OA
ATOM      8  C   UNL     1      48.756 -24.284  20.637  1.00  0.00     0.094 A 
ATOM      9  C   UNL     1      49.603 -23.173  20.752  1.00  0.00     0.119 A 
ATOM     10  C   UNL     1      50.212 -22.640  19.611  1.00  0.00     0.047 A 
ATOM     11  C   UNL     1      49.978 -23.209  18.356  1.00  0.00     0.020 A 
ENDROOT
BRANCH   1  12
ATOM     12  C   UNL     1      46.544 -27.699  18.163  1.00  0.00     0.025 A 
ATOM     13  C   UNL     1      47.051 -29.009  18.215  1.00  0.00     0.016 A 
ATOM     14  C   UNL     1      46.180 -30.102  18.263  1.00  0.00     0.051 A 
ATOM     15  C   UNL     1      44.794 -29.901  18.274  1.00  0.00     0.157 A 
ATOM     16  C   UNL     1      45.153 -27.503  18.196  1.00  0.00     0.062 A 
ATOM     17  C   UNL     1      44.279 -28.599  18.244  1.00  0.00     0.158 A 
BRANCH  15  18
ATOM     18  O   UNL     1      43.924 -30.988  18.320  1.00  0.00    -0.504 OA
ATOM     19  H   UNL     1      43.847 -31.640  17.548  1.00  0.00     0.293 HD
ENDBRANCH  15  18
BRANCH  17  20
ATOM     20  O   UNL     1      42.900 -28.402  18.262  1.00  0.00    -0.504 OA
ATOM     21  H   UNL     1      42.497 -27.477  18.370  1.00  0.00     0.293 HD
ENDBRANCH  17  20
ENDBRANCH   1  12
BRANCH   2  22
ATOM     22  O   UNL     1      47.670 -26.621  15.712  1.00  0.00    -0.502 OA
ATOM     23  H   UNL     1      47.076 -27.439  15.647  1.00  0.00     0.293 HD
ENDBRANCH   2  22
BRANCH   9  24
ATOM     24  O   UNL     1      49.846 -22.593  21.995  1.00  0.00    -0.508 OA
ATOM     25  H   UNL     1      49.418 -22.953  22.841  1.00  0.00     0.293 HD
ENDBRANCH   9  24
TORSDOF 5
ENDMDL
MODEL 3
REMARK VINA RESULT:    -6.587      1.612      6.681
REMARK INTER + INTRA:          -8.013
REMARK INTER:                  -8.165
REMARK INTRA:                   0.152
REMARK UNBOUND:                -0.271
REMARK SMILES O=c1c(O)c(-c2ccc(O)c(O)c2)oc2cc(O)ccc12
REMARK SMILES IDX 5 1 3 2 2 3 1 4 21 5 15 6 14 7 16 8 17 9 19 10 20 11 6 12
REMARK SMILES IDX 7 13 8 14 9 15 13 16 11 17 10 18 12 20 4 22 18 24
REMARK H PARENT 10 19 12 21 4 23 18 25
REMARK Flexibility Score: inf
ROOT
ATOM      1  C   UNL     1      45.610 -28.504  18.525  1.00  0.00     0.180 A 
ATOM      2  C   UNL     1      46.138 -27.688  19.547  1.00  0.00     0.208 A 
ATOM      3  C   UNL     1      46.907 -26.570  19.189  1.00  0.00     0.235 A 
ATOM      4  O   UNL     1      47.382 -25.818  20.084  1.00  0.00    -0.285 OA
ATOM      5  C   UNL     1      47.146 -26.301  17.831  1.00  0.00     0.069 A 
ATOM      6  C   UNL     1      46.600 -27.180  16.870  1.00  0.00     0.142 A 
ATOM      7  O   UNL     1      45.871 -28.224  17.251  1.00  0.00    -0.452 OA
ATOM      8  C   UNL     1      46.825 -26.953  15.508  1.00  0.00     0.094 A 
ATOM      9  C   UNL     1      47.588 -25.854  15.092  1.00  0.00     0.119 A 
ATOM     10  C   UNL     1      48.128 -24.981  16.043  1.00  0.00     0.047 A 
ATOM     11  C   UNL     1      47.911 -25.201  17.406  1.00  0.00     0.020 A 
ENDROOT
BRANCH   1  12
ATOM     12  C   UNL     1      44.774 -29.690  18.821  1.00  0.00     0.025 A 
ATOM     13  C   UNL     1      43.637 -29.996  18.052  1.00  0.00     0.016 A 
ATOM     14  C   UNL     1      42.879 -31.135  18.336  1.00  0.00     0.051 A 
ATOM     15  C   UNL     1      43.251 -31.990  19.381  1.00  0.00     0.157 A 
ATOM     16  C   UNL     1      45.155 -30.563  19.854  1.00  0.00     0.062 A 
ATOM     17  C   UNL     1      44.393 -31.705  20.140  1.00  0.00     0.158 A 
BRANCH  15  18
ATOM     18  O   UNL     1      42.494 -33.125  19.668  1.00  0.00    -0.504 OA
ATOM     19  H   UNL     1      42.875 -34.057  19.558  1.00  0.00     0.293 HD
ENDBRANCH  15  18
BRANCH  17  20
ATOM     20  O   UNL     1      44.764 -32.562  21.175  1.00  0.00    -0.504 OA
ATOM     21  H   UNL     1      44.688 -33.569  21.083  1.00  0.00     0.293 HD
ENDBRANCH  17  20
ENDBRANCH   1  12
BRANCH   2  22
ATOM     22  O   UNL     1      45.925 -28.008  20.890  1.00  0.00    -0.502 OA
ATOM     23  H   UNL     1      45.012 -28.262  21.247  1.00  0.00     0.293 HD
ENDBRANCH   2  22
BRANCH   9  24
ATOM     24  O   UNL     1      47.816 -25.620  13.738  1.00  0.00    -0.508 OA
ATOM     25  H   UNL     1      48.386 -24.843  13.423  1.00  0.00     0.293 HD
ENDBRANCH   9  24
TORSDOF 5
ENDMDL
MODEL 4
REMARK VINA RESULT:    -6.503      2.693      7.369
REMARK INTER + INTRA:          -7.914
REMARK INTER:                  -7.660
REMARK INTRA:                  -0.254
REMARK UNBOUND:                -0.271
REMARK SMILES O=c1c(O)c(-c2ccc(O)c(O)c2)oc2cc(O)ccc12
REMARK SMILES IDX 5 1 3 2 2 3 1 4 21 5 15 6 14 7 16 8 17 9 19 10 20 11 6 12
REMARK SMILES IDX 7 13 8 14 9 15 13 16 11 17 10 18 12 20 4 22 18 24
REMARK H PARENT 10 19 12 21 4 23 18 25
REMARK Flexibility Score: inf
ROOT
ATOM      1  C   UNL     1      46.210 -28.160  18.812  1.00  0.00     0.180 A 
ATOM      2  C   UNL     1      45.935 -27.687  17.512  1.00  0.00     0.208 A 
ATOM      3  C   UNL     1      46.461 -26.446  17.119  1.00  0.00     0.235 A 
ATOM      4  O   UNL     1      46.238 -26.005  15.958  1.00  0.00    -0.285 OA
ATOM      5  C   UNL     1      47.229 -25.702  18.029  1.00  0.00     0.069 A 
ATOM      6  C   UNL     1      47.439 -26.235  19.320  1.00  0.00     0.142 A 
ATOM      7  O   UNL     1      46.930 -27.417  19.650  1.00  0.00    -0.452 OA
ATOM      8  C   UNL     1      48.190 -25.519  20.259  1.00  0.00     0.094 A 
ATOM      9  C   UNL     1      48.736 -24.273  19.923  1.00  0.00     0.119 A 
ATOM     10  C   UNL     1      48.530 -23.743  18.644  1.00  0.00     0.047 A 
ATOM     11  C   UNL     1      47.780 -24.451  17.700  1.00  0.00     0.020 A 
ENDROOT
BRANCH   1  12
ATOM     12  C   UNL     1      45.707 -29.466  19.295  1.00  0.00     0.025 A 
ATOM     13  C   UNL     1      46.562 -30.573  19.438  1.00  0.00     0.016 A 
ATOM     14  C   UNL     1      46.068 -31.789  19.919  1.00  0.00     0.051 A 
ATOM     15  C   UNL     1      44.719 -31.913  20.274  1.00  0.00     0.157 A 
ATOM     16  C   UNL     1      44.360 -29.590  19.674  1.00  0.00     0.062 A 
ATOM     17  C   UNL     1      43.864 -30.811  20.155  1.00  0.00     0.158 A 
BRANCH  15  18
ATOM     18  O   UNL     1      44.223 -33.125  20.752  1.00  0.00    -0.504 OA
ATOM     19  H   UNL     1      44.588 -34.012  20.427  1.00  0.00     0.293 HD
ENDBRANCH  15  18
BRANCH  17  20
ATOM     20  O   UNL     1      42.523 -30.935  20.516  1.00  0.00    -0.504 OA
ATOM     21  H   UNL     1      42.221 -30.825  21.478  1.00  0.00     0.293 HD
ENDBRANCH  17  20
ENDBRANCH   1  12
BRANCH   2  22
ATOM     22  O   UNL     1      45.127 -28.427  16.645  1.00  0.00    -0.502 OA
ATOM     23  H   UNL     1      45.461 -29.258  16.173  1.00  0.00     0.293 HD
ENDBRANCH   2  22
BRANCH   9  24
ATOM     24  O   UNL     1      49.485 -23.554  20.852  1.00  0.00    -0.508 OA
ATOM     25  H   UNL     1      50.448 -23.795  21.057  1.00  0.00     0.293 HD
ENDBRANCH   9  24
TORSDOF 5
ENDMDL
MODEL 5
REMARK VINA RESULT:    -6.417      1.949      2.342
REMARK INTER + INTRA:          -7.813
REMARK INTER:                  -7.540
REMARK INTRA:                  -0.273
REMARK UNBOUND:                -0.271
REMARK SMILES O=c1c(O)c(-c2ccc(O)c(O)c2)oc2cc(O)ccc12
REMARK SMILES IDX 5 1 3 2 2 3 1 4 21 5 15 6 14 7 16 8 17 9 19 10 20 11 6 12
REMARK SMILES IDX 7 13 8 14 9 15 13 16 11 17 10 18 12 20 4 22 18 24
REMARK H PARENT 10 19 12 21 4 23 18 25
REMARK Flexibility Score: inf
ROOT
ATOM      1  C   UNL     1      47.037 -28.817  17.419  1.00  0.00     0.180 A 
ATOM      2  C   UNL     1      47.886 -29.942  17.471  1.00  0.00     0.208 A 
ATOM      3  C   UNL     1      47.461 -31.078  18.178  1.00  0.00     0.235 A 
ATOM      4  O   UNL     1      48.198 -32.101  18.230  1.00  0.00    -0.285 OA
ATOM      5  C   UNL     1      46.217 -31.062  18.828  1.00  0.00     0.069 A 
ATOM      6  C   UNL     1      45.435 -29.889  18.747  1.00  0.00     0.142 A 
ATOM      7  O   UNL     1      45.871 -28.837  18.062  1.00  0.00    -0.452 OA
ATOM      8  C   UNL     1      44.194 -29.829  19.391  1.00  0.00     0.094 A 
ATOM      9  C   UNL     1      43.721 -30.932  20.114  1.00  0.00     0.119 A 
ATOM     10  C   UNL     1      44.493 -32.097  20.194  1.00  0.00     0.047 A 
ATOM     11  C   UNL     1      45.735 -32.164  19.556  1.00  0.00     0.020 A 
ENDROOT
BRANCH   1  12
ATOM     12  C   UNL     1      47.405 -27.589  16.680  1.00  0.00     0.025 A 
ATOM     13  C   UNL     1      48.315 -26.658  17.211  1.00  0.00     0.016 A 
ATOM     14  C   UNL     1      48.664 -25.518  16.483  1.00  0.00     0.051 A 
ATOM     15  C   UNL     1      48.121 -25.298  15.211  1.00  0.00     0.157 A 
ATOM     16  C   UNL     1      46.880 -27.374  15.394  1.00  0.00     0.062 A 
ATOM     17  C   UNL     1      47.230 -26.229  14.663  1.00  0.00     0.158 A 
BRANCH  15  18
ATOM     18  O   UNL     1      48.467 -24.160  14.483  1.00  0.00    -0.504 OA
ATOM     19  H   UNL     1      48.534 -23.250  14.922  1.00  0.00     0.293 HD
ENDBRANCH  15  18
BRANCH  17  20
ATOM     20  O   UNL     1      46.697 -26.011  13.394  1.00  0.00    -0.504 OA
ATOM     21  H   UNL     1      46.207 -25.153  13.165  1.00  0.00     0.293 HD
ENDBRANCH  17  20
ENDBRANCH   1  12
BRANCH   2  22
ATOM     22  O   UNL     1      49.140 -29.912  16.856  1.00  0.00    -0.502 OA
ATOM     23  H   UNL     1      49.270 -29.578  15.908  1.00  0.00     0.293 HD
ENDBRANCH   2  22
BRANCH   9  24
ATOM     24  O   UNL     1      42.486 -30.882  20.756  1.00  0.00    -0.508 OA
ATOM     25  H   UNL     1      41.713 -31.471  20.466  1.00  0.00     0.293 HD
ENDBRANCH   9  24
TORSDOF 5
ENDMDL
MODEL 6
REMARK VINA RESULT:    -6.379      3.757      5.314
REMARK INTER + INTRA:          -7.768
REMARK INTER:                  -8.239
REMARK INTRA:                   0.470
REMARK UNBOUND:                -0.271
REMARK SMILES O=c1c(O)c(-c2ccc(O)c(O)c2)oc2cc(O)ccc12
REMARK SMILES IDX 5 1 3 2 2 3 1 4 21 5 15 6 14 7 16 8 17 9 19 10 20 11 6 12
REMARK SMILES IDX 7 13 8 14 9 15 13 16 11 17 10 18 12 20 4 22 18 24
REMARK H PARENT 10 19 12 21 4 23 18 25
REMARK Flexibility Score: inf
ROOT
ATOM      1  C   UNL     1      47.893 -25.779  18.225  1.00  0.00     0.180 A 
ATOM      2  C   UNL     1      47.944 -26.304  16.917  1.00  0.00     0.208 A 
ATOM      3  C   UNL     1      47.080 -27.357  16.577  1.00  0.00     0.235 A 
ATOM      4  O   UNL     1      47.099 -27.837  15.410  1.00  0.00    -0.285 OA
ATOM      5  C   UNL     1      46.203 -27.871  17.545  1.00  0.00     0.069 A 
ATOM      6  C   UNL     1      46.229 -27.306  18.839  1.00  0.00     0.142 A 
ATOM      7  O   UNL     1      47.058 -26.305  19.118  1.00  0.00    -0.452 OA
ATOM      8  C   UNL     1      45.379 -27.798  19.835  1.00  0.00     0.094 A 
ATOM      9  C   UNL     1      44.498 -28.850  19.553  1.00  0.00     0.119 A 
ATOM     10  C   UNL     1      44.469 -29.411  18.271  1.00  0.00     0.047 A 
ATOM     11  C   UNL     1      45.316 -28.927  17.271  1.00  0.00     0.020 A 
ENDROOT
BRANCH   1  12
ATOM     12  C   UNL     1      48.758 -24.657  18.655  1.00  0.00     0.025 A 
ATOM     13  C   UNL     1      49.741 -24.121  17.804  1.00  0.00     0.016 A 
ATOM     14  C   UNL     1      50.529 -23.046  18.225  1.00  0.00     0.051 A 
ATOM     15  C   UNL     1      50.339 -22.485  19.494  1.00  0.00     0.157 A 
ATOM     16  C   UNL     1      48.558 -24.076  19.919  1.00  0.00     0.062 A 
ATOM     17  C   UNL     1      49.349 -22.998  20.341  1.00  0.00     0.158 A 
BRANCH  15  18
ATOM     18  O   UNL     1      51.125 -21.414  19.916  1.00  0.00    -0.504 OA
ATOM     19  H   UNL     1      52.056 -21.555  20.290  1.00  0.00     0.293 HD
ENDBRANCH  15  18
BRANCH  17  20
ATOM     20  O   UNL     1      49.158 -22.432  21.600  1.00  0.00    -0.504 OA
ATOM     21  H   UNL     1      49.361 -22.948  22.450  1.00  0.00     0.293 HD
ENDBRANCH  17  20
ENDBRANCH   1  12
BRANCH   2  22
ATOM     22  O   UNL     1      48.861 -25.804  15.989  1.00  0.00    -0.502 OA
ATOM     23  H   UNL     1      48.691 -24.956  15.463  1.00  0.00     0.293 HD
ENDBRANCH   2  22
BRANCH   9  24
ATOM     24  O   UNL     1      43.646 -29.346  20.539  1.00  0.00    -0.508 OA
ATOM     25  H   UNL     1      43.544 -30.341  20.698  1.00  0.00     0.293 HD
ENDBRANCH   9  24
TORSDOF 5
ENDMDL
MODEL 7
REMARK VINA RESULT:    -6.356      4.605      7.250
REMARK INTER + INTRA:          -7.742
REMARK INTER:                  -7.485
REMARK INTRA:                  -0.257
REMARK UNBOUND:                -0.271
REMARK SMILES O=c1c(O)c(-c2ccc(O)c(O)c2)oc2cc(O)ccc12
REMARK SMILES IDX 5 1 3 2 2 3 1 4 21 5 15 6 14 7 16 8 17 9 19 10 20 11 6 12
REMARK SMILES IDX 7 13 8 14 9 15 13 16 11 17 10 18 12 20 4 22 18 24
REMARK H PARENT 10 19 12 21 4 23 18 25
REMARK Flexibility Score: inf
ROOT
ATOM      1  C   UNL     1      48.185 -25.873  17.977  1.00  0.00     0.180 A 
ATOM      2  C   UNL     1      47.772 -26.430  19.205  1.00  0.00     0.208 A 
ATOM      3  C   UNL     1      48.054 -25.736  20.392  1.00  0.00     0.235 A 
ATOM      4  O   UNL     1      47.685 -26.208  21.502  1.00  0.00    -0.285 OA
ATOM      5  C   UNL     1      48.753 -24.520  20.332  1.00  0.00     0.069 A 
ATOM      6  C   UNL     1      49.153 -24.040  19.065  1.00  0.00     0.142 A 
ATOM      7  O   UNL     1      48.859 -24.724  17.964  1.00  0.00    -0.452 OA
ATOM      8  C   UNL     1      49.861 -22.838  18.963  1.00  0.00     0.094 A 
ATOM      9  C   UNL     1      50.174 -22.104  20.116  1.00  0.00     0.119 A 
ATOM     10  C   UNL     1      49.777 -22.577  21.372  1.00  0.00     0.047 A 
ATOM     11  C   UNL     1      49.071 -23.778  21.483  1.00  0.00     0.020 A 
ENDROOT
BRANCH   1  12
ATOM     12  C   UNL     1      47.909 -26.534  16.682  1.00  0.00     0.025 A 
ATOM     13  C   UNL     1      48.634 -27.665  16.267  1.00  0.00     0.016 A 
ATOM     14  C   UNL     1      48.338 -28.286  15.051  1.00  0.00     0.051 A 
ATOM     15  C   UNL     1      47.308 -27.795  14.239  1.00  0.00     0.157 A 
ATOM     16  C   UNL     1      46.863 -26.059  15.873  1.00  0.00     0.062 A 
ATOM     17  C   UNL     1      46.567 -26.682  14.652  1.00  0.00     0.158 A 
BRANCH  15  18
ATOM     18  O   UNL     1      47.013 -28.411  13.024  1.00  0.00    -0.504 OA
ATOM     19  H   UNL     1      46.095 -28.338  12.601  1.00  0.00     0.293 HD
ENDBRANCH  15  18
BRANCH  17  20
ATOM     20  O   UNL     1      45.537 -26.200  13.845  1.00  0.00    -0.504 OA
ATOM     21  H   UNL     1      44.837 -25.560  14.204  1.00  0.00     0.293 HD
ENDBRANCH  17  20
ENDBRANCH   1  12
BRANCH   2  22
ATOM     22  O   UNL     1      47.121 -27.666  19.238  1.00  0.00    -0.502 OA
ATOM     23  H   UNL     1      46.329 -27.844  19.844  1.00  0.00     0.293 HD
ENDBRANCH   2  22
BRANCH   9  24
ATOM     24  O   UNL     1      50.878 -20.905  20.024  1.00  0.00    -0.508 OA
ATOM     25  H   UNL     1      51.889 -20.880  20.075  1.00  0.00     0.293 HD
ENDBRANCH   9  24
TORSDOF 5
ENDMDL
MODEL 8
REMARK VINA RESULT:    -6.268      4.041      5.220
REMARK INTER + INTRA:          -7.638
REMARK INTER:                  -7.407
REMARK INTRA:                  -0.232
REMARK UNBOUND:                -0.271
REMARK SMILES O=c1c(O)c(-c2ccc(O)c(O)c2)oc2cc(O)ccc12
REMARK SMILES IDX 5 1 3 2 2 3 1 4 21 5 15 6 14 7 16 8 17 9 19 10 20 11 6 12
REMARK SMILES IDX 7 13 8 14 9 15 13 16 11 17 10 18 12 20 4 22 18 24
REMARK H PARENT 10 19 12 21 4 23 18 25
REMARK Flexibility Score: inf
ROOT
ATOM      1  C   UNL     1      48.598 -26.131  18.774  1.00  0.00     0.180 A 
ATOM      2  C   UNL     1      49.315 -27.316  18.507  1.00  0.00     0.208 A 
ATOM      3  C   UNL     1      48.599 -28.491  18.226  1.00  0.00     0.235 A 
ATOM      4  O   UNL     1      49.217 -29.561  17.973  1.00  0.00    -0.285 OA
ATOM      5  C   UNL     1      47.196 -28.463  18.233  1.00  0.00     0.069 A 
ATOM      6  C   UNL     1      46.553 -27.242  18.531  1.00  0.00     0.142 A 
ATOM      7  O   UNL     1      47.267 -26.150  18.785  1.00  0.00    -0.452 OA
ATOM      8  C   UNL     1      45.155 -27.175  18.560  1.00  0.00     0.094 A 
ATOM      9  C   UNL     1      44.389 -28.317  18.290  1.00  0.00     0.119 A 
ATOM     10  C   UNL     1      45.024 -29.528  17.992  1.00  0.00     0.047 A 
ATOM     11  C   UNL     1      46.420 -29.604  17.963  1.00  0.00     0.020 A 
ENDROOT
BRANCH   1  12
ATOM     12  C   UNL     1      49.280 -24.849  19.061  1.00  0.00     0.025 A 
ATOM     13  C   UNL     1      49.984 -24.153  18.063  1.00  0.00     0.016 A 
ATOM     14  C   UNL     1      50.599 -22.932  18.353  1.00  0.00     0.051 A 
ATOM     15  C   UNL     1      50.509 -22.384  19.639  1.00  0.00     0.157 A 
ATOM     16  C   UNL     1      49.174 -24.283  20.343  1.00  0.00     0.062 A 
ATOM     17  C   UNL     1      49.792 -23.058  20.635  1.00  0.00     0.158 A 
BRANCH  15  18
ATOM     18  O   UNL     1      51.123 -21.167  19.932  1.00  0.00    -0.504 OA
ATOM     19  H   UNL     1      51.371 -20.913  20.881  1.00  0.00     0.293 HD
ENDBRANCH  15  18
BRANCH  17  20
ATOM     20  O   UNL     1      49.698 -22.506  21.911  1.00  0.00    -0.504 OA
ATOM     21  H   UNL     1      50.494 -22.065  22.358  1.00  0.00     0.293 HD
ENDBRANCH  17  20
ENDBRANCH   1  12
BRANCH   2  22
ATOM     22  O   UNL     1      50.711 -27.325  18.555  1.00  0.00    -0.502 OA
ATOM     23  H   UNL     1      51.223 -27.368  19.428  1.00  0.00     0.293 HD
ENDBRANCH   2  22
BRANCH   9  24
ATOM     24  O   UNL     1      42.998 -28.260  18.314  1.00  0.00    -0.508 OA
ATOM     25  H   UNL     1      42.491 -28.045  19.166  1.00  0.00     0.293 HD
ENDBRANCH   9  24
TORSDOF 5
ENDMDL
MODEL 9
REMARK VINA RESULT:    -6.251      5.174      6.693
REMARK INTER + INTRA:          -7.618
REMARK INTER:                  -7.356
REMARK INTRA:                  -0.262
REMARK UNBOUND:                -0.271
REMARK SMILES O=c1c(O)c(-c2ccc(O)c(O)c2)oc2cc(O)ccc12
REMARK SMILES IDX 5 1 3 2 2 3 1 4 21 5 15 6 14 7 16 8 17 9 19 10 20 11 6 12
REMARK SMILES IDX 7 13 8 14 9 15 13 16 11 17 10 18 12 20 4 22 18 24
REMARK H PARENT 10 19 12 21 4 23 18 25
REMARK Flexibility Score: inf
ROOT
ATOM      1  C   UNL     1      49.147 -26.166  17.505  1.00  0.00     0.180 A 
ATOM      2  C   UNL     1      48.366 -26.006  16.342  1.00  0.00     0.208 A 
ATOM      3  C   UNL     1      48.273 -27.076  15.437  1.00  0.00     0.235 A 
ATOM      4  O   UNL     1      47.572 -26.962  14.395  1.00  0.00    -0.285 OA
ATOM      5  C   UNL     1      48.970 -28.266  15.702  1.00  0.00     0.069 A 
ATOM      6  C   UNL     1      49.749 -28.338  16.877  1.00  0.00     0.142 A 
ATOM      7  O   UNL     1      49.804 -27.305  17.711  1.00  0.00    -0.452 OA
ATOM      8  C   UNL     1      50.467 -29.503  17.171  1.00  0.00     0.094 A 
ATOM      9  C   UNL     1      50.414 -30.601  16.302  1.00  0.00     0.119 A 
ATOM     10  C   UNL     1      49.641 -30.533  15.137  1.00  0.00     0.047 A 
ATOM     11  C   UNL     1      48.922 -29.373  14.835  1.00  0.00     0.020 A 
ENDROOT
BRANCH   1  12
ATOM     12  C   UNL     1      49.280 -25.092  18.515  1.00  0.00     0.025 A 
ATOM     13  C   UNL     1      50.094 -23.968  18.287  1.00  0.00     0.016 A 
ATOM     14  C   UNL     1      50.185 -22.956  19.246  1.00  0.00     0.051 A 
ATOM     15  C   UNL     1      49.455 -23.044  20.438  1.00  0.00     0.157 A 
ATOM     16  C   UNL     1      48.533 -25.164  19.703  1.00  0.00     0.062 A 
ATOM     17  C   UNL     1      48.625 -24.149  20.666  1.00  0.00     0.158 A 
BRANCH  15  18
ATOM     18  O   UNL     1      49.545 -22.037  21.398  1.00  0.00    -0.504 OA
ATOM     19  H   UNL     1      49.522 -21.057  21.141  1.00  0.00     0.293 HD
ENDBRANCH  15  18
BRANCH  17  20
ATOM     20  O   UNL     1      47.894 -24.231  21.850  1.00  0.00    -0.504 OA
ATOM     21  H   UNL     1      47.864 -25.085  22.397  1.00  0.00     0.293 HD
ENDBRANCH  17  20
ENDBRANCH   1  12
BRANCH   2  22
ATOM     22  O   UNL     1      47.723 -24.794  16.081  1.00  0.00    -0.502 OA
ATOM     23  H   UNL     1      47.444 -24.159  16.820  1.00  0.00     0.293 HD
ENDBRANCH   2  22
BRANCH   9  24
ATOM     24  O   UNL     1      51.125 -31.765  16.587  1.00  0.00    -0.508 OA
ATOM     25  H   UNL     1      50.668 -32.669  16.624  1.00  0.00     0.293 HD
ENDBRANCH   9  24
TORSDOF 5
ENDMDL
