MODEL 1
REMARK VINA RESULT:     0.516      0.000      0.000
REMARK INTER + INTRA:           0.466
REMARK INTER:                   0.968
REMARK INTRA:                  -0.502
REMARK UNBOUND:                -0.502
REMARK SMILES O=C([O-])CCCCCCCCCCCCCCC(=O)[O-]
REMARK SMILES IDX 10 1 9 2 8 3 7 4 6 5 5 6 4 7 2 8 1 9 3 10 11 11 12 12 13 13
REMARK SMILES IDX 14 14 15 15 16 16 17 17 18 18 19 19 20 20
REMARK H PARENT
REMARK Flexibility Score: inf
ROOT
ATOM      1  C   UNL     1       4.103  43.338  10.801  1.00  0.00     0.000 C 
ENDROOT
BRANCH   1   2
ATOM      2  C   UNL     1       4.607  44.795  10.751  1.00  0.00     0.000 C 
BRANCH   2   3
ATOM      3  C   UNL     1       5.851  45.021   9.876  1.00  0.00     0.000 C 
BRANCH   3   4
ATOM      4  C   UNL     1       7.147  45.122  10.694  1.00  0.00     0.000 C 
BRANCH   4   5
ATOM      5  C   UNL     1       7.993  43.852  10.542  1.00  0.00     0.000 C 
BRANCH   5   6
ATOM      6  C   UNL     1       7.980  43.023  11.835  1.00  0.00     0.006 C 
BRANCH   6   7
ATOM      7  C   UNL     1       6.902  43.497  12.818  1.00  0.00     0.053 C 
BRANCH   7   8
ATOM      8  C   UNL     1       6.543  42.431  13.807  1.00  0.00     0.041 C 
ATOM      9  O   UNL     1       7.304  41.441  13.975  1.00  0.00    -0.550 OA
ATOM     10  O   UNL     1       5.388  42.548  14.570  1.00  0.00    -0.550 OA
ENDBRANCH   7   8
ENDBRANCH   6   7
ENDBRANCH   5   6
ENDBRANCH   4   5
ENDBRANCH   3   4
ENDBRANCH   2   3
ENDBRANCH   1   2
BRANCH   1  11
ATOM     11  C   UNL     1       2.833  43.058   9.974  1.00  0.00     0.000 C 
BRANCH  11  12
ATOM     12  C   UNL     1       1.505  43.421  10.669  1.00  0.00     0.000 C 
BRANCH  12  13
ATOM     13  C   UNL     1       1.637  43.882  12.132  1.00  0.00     0.000 C 
BRANCH  13  14
ATOM     14  C   UNL     1       0.353  43.651  12.948  1.00  0.00     0.000 C 
BRANCH  14  15
ATOM     15  C   UNL     1      -0.079  44.898  13.737  1.00  0.00     0.000 C 
BRANCH  15  16
ATOM     16  C   UNL     1      -1.086  44.578  14.852  1.00  0.00     0.006 C 
BRANCH  16  17
ATOM     17  C   UNL     1      -2.318  43.864  14.288  1.00  0.00     0.053 C 
BRANCH  17  18
ATOM     18  C   UNL     1      -2.370  42.448  14.772  1.00  0.00     0.041 C 
ATOM     19  O   UNL     1      -1.474  42.008  15.541  1.00  0.00    -0.550 OA
ATOM     20  O   UNL     1      -3.382  41.600  14.337  1.00  0.00    -0.550 OA
ENDBRANCH  17  18
ENDBRANCH  16  17
ENDBRANCH  15  16
ENDBRANCH  14  15
ENDBRANCH  13  14
ENDBRANCH  12  13
ENDBRANCH  11  12
ENDBRANCH   1  11
TORSDOF 15
ENDMDL
MODEL 2
REMARK VINA RESULT:     0.597      1.149      7.465
REMARK INTER + INTRA:           0.619
REMARK INTER:                   1.190
REMARK INTRA:                  -0.571
REMARK UNBOUND:                -0.502
REMARK SMILES O=C([O-])CCCCCCCCCCCCCCC(=O)[O-]
REMARK SMILES IDX 10 1 9 2 8 3 7 4 6 5 5 6 4 7 2 8 1 9 3 10 11 11 12 12 13 13
REMARK SMILES IDX 14 14 15 15 16 16 17 17 18 18 19 19 20 20
REMARK H PARENT
REMARK Flexibility Score: inf
ROOT
ATOM      1  C   UNL     1       4.079  43.594  10.077  1.00  0.00     0.000 C 
ENDROOT
BRANCH   1   2
ATOM      2  C   UNL     1       2.539  43.517  10.060  1.00  0.00     0.000 C 
BRANCH   2   3
ATOM      3  C   UNL     1       1.902  42.954  11.341  1.00  0.00     0.000 C 
BRANCH   3   4
ATOM      4  C   UNL     1       2.040  43.901  12.543  1.00  0.00     0.000 C 
BRANCH   4   5
ATOM      5  C   UNL     1       0.782  44.764  12.709  1.00  0.00     0.000 C 
BRANCH   5   6
ATOM      6  C   UNL     1      -0.335  43.979  13.414  1.00  0.00     0.006 C 
BRANCH   6   7
ATOM      7  C   UNL     1      -1.129  44.854  14.392  1.00  0.00     0.053 C 
BRANCH   7   8
ATOM      8  C   UNL     1      -2.351  44.150  14.900  1.00  0.00     0.041 C 
ATOM      9  O   UNL     1      -3.183  44.765  15.618  1.00  0.00    -0.550 OA
ATOM     10  O   UNL     1      -2.589  42.827  14.549  1.00  0.00    -0.550 OA
ENDBRANCH   7   8
ENDBRANCH   6   7
ENDBRANCH   5   6
ENDBRANCH   4   5
ENDBRANCH   3   4
ENDBRANCH   2   3
ENDBRANCH   1   2
BRANCH   1  11
ATOM     11  C   UNL     1       4.660  45.018  10.161  1.00  0.00     0.000 C 
BRANCH  11  12
ATOM     12  C   UNL     1       6.175  45.125   9.896  1.00  0.00     0.000 C 
BRANCH  12  13
ATOM     13  C   UNL     1       7.076  44.550  11.005  1.00  0.00     0.000 C 
BRANCH  13  14
ATOM     14  C   UNL     1       7.899  43.339  10.536  1.00  0.00     0.000 C 
BRANCH  14  15
ATOM     15  C   UNL     1       7.725  42.115  11.451  1.00  0.00     0.000 C 
BRANCH  15  16
ATOM     16  C   UNL     1       8.044  42.420  12.922  1.00  0.00     0.006 C 
BRANCH  16  17
ATOM     17  C   UNL     1       7.030  41.748  13.853  1.00  0.00     0.053 C 
BRANCH  17  18
ATOM     18  C   UNL     1       5.875  42.662  14.118  1.00  0.00     0.041 C 
ATOM     19  O   UNL     1       4.930  42.289  14.863  1.00  0.00    -0.550 OA
ATOM     20  O   UNL     1       5.818  43.908  13.505  1.00  0.00    -0.550 OA
ENDBRANCH  17  18
ENDBRANCH  16  17
ENDBRANCH  15  16
ENDBRANCH  14  15
ENDBRANCH  13  14
ENDBRANCH  12  13
ENDBRANCH  11  12
ENDBRANCH   1  11
TORSDOF 15
ENDMDL
MODEL 3
REMARK VINA RESULT:     1.436      0.788      7.788
REMARK INTER + INTRA:           2.194
REMARK INTER:                   2.913
REMARK INTRA:                  -0.719
REMARK UNBOUND:                -0.502
REMARK SMILES O=C([O-])CCCCCCCCCCCCCCC(=O)[O-]
REMARK SMILES IDX 10 1 9 2 8 3 7 4 6 5 5 6 4 7 2 8 1 9 3 10 11 11 12 12 13 13
REMARK SMILES IDX 14 14 15 15 16 16 17 17 18 18 19 19 20 20
REMARK H PARENT
REMARK Flexibility Score: inf
ROOT
ATOM      1  C   UNL     1       1.957  42.826  10.769  1.00  0.00     0.000 C 
ENDROOT
BRANCH   1   2
ATOM      2  C   UNL     1       1.934  43.662  12.065  1.00  0.00     0.000 C 
BRANCH   2   3
ATOM      3  C   UNL     1       0.544  44.165  12.489  1.00  0.00     0.000 C 
BRANCH   3   4
ATOM      4  C   UNL     1       0.594  45.108  13.701  1.00  0.00     0.000 C 
BRANCH   4   5
ATOM      5  C   UNL     1      -0.583  44.847  14.649  1.00  0.00     0.000 C 
BRANCH   5   6
ATOM      6  C   UNL     1      -1.707  44.081  13.934  1.00  0.00     0.006 C 
BRANCH   6   7
ATOM      7  C   UNL     1      -2.717  43.479  14.920  1.00  0.00     0.053 C 
BRANCH   7   8
ATOM      8  C   UNL     1      -2.745  41.983  14.842  1.00  0.00     0.041 C 
ATOM      9  O   UNL     1      -1.832  41.304  15.382  1.00  0.00    -0.550 OA
ATOM     10  O   UNL     1      -3.798  41.338  14.205  1.00  0.00    -0.550 OA
ENDBRANCH   7   8
ENDBRANCH   6   7
ENDBRANCH   5   6
ENDBRANCH   4   5
ENDBRANCH   3   4
ENDBRANCH   2   3
ENDBRANCH   1   2
BRANCH   1  11
ATOM     11  C   UNL     1       3.232  42.978   9.917  1.00  0.00     0.000 C 
BRANCH  11  12
ATOM     12  C   UNL     1       3.826  44.401   9.876  1.00  0.00     0.000 C 
BRANCH  12  13
ATOM     13  C   UNL     1       4.850  44.716  10.982  1.00  0.00     0.000 C 
BRANCH  13  14
ATOM     14  C   UNL     1       6.224  45.125  10.424  1.00  0.00     0.000 C 
BRANCH  14  15
ATOM     15  C   UNL     1       7.216  43.952  10.375  1.00  0.00     0.000 C 
BRANCH  15  16
ATOM     16  C   UNL     1       6.685  42.692  11.076  1.00  0.00     0.006 C 
BRANCH  16  17
ATOM     17  C   UNL     1       7.623  42.258  12.206  1.00  0.00     0.053 C 
BRANCH  17  18
ATOM     18  C   UNL     1       6.894  42.241  13.514  1.00  0.00     0.041 C 
ATOM     19  O   UNL     1       7.259  41.459  14.432  1.00  0.00    -0.550 OA
ATOM     20  O   UNL     1       5.784  43.055  13.703  1.00  0.00    -0.550 OA
ENDBRANCH  17  18
ENDBRANCH  16  17
ENDBRANCH  15  16
ENDBRANCH  14  15
ENDBRANCH  13  14
ENDBRANCH  12  13
ENDBRANCH  11  12
ENDBRANCH   1  11
TORSDOF 15
ENDMDL
MODEL 4
REMARK VINA RESULT:     2.222      1.614      2.081
REMARK INTER + INTRA:           3.670
REMARK INTER:                   4.245
REMARK INTRA:                  -0.576
REMARK UNBOUND:                -0.502
REMARK SMILES O=C([O-])CCCCCCCCCCCCCCC(=O)[O-]
REMARK SMILES IDX 10 1 9 2 8 3 7 4 6 5 5 6 4 7 2 8 1 9 3 10 11 11 12 12 13 13
REMARK SMILES IDX 14 14 15 15 16 16 17 17 18 18 19 19 20 20
REMARK H PARENT
REMARK Flexibility Score: inf
ROOT
ATOM      1  C   UNL     1       3.573  42.734  10.236  1.00  0.00     0.000 C 
ENDROOT
BRANCH   1   2
ATOM      2  C   UNL     1       4.947  43.395  10.003  1.00  0.00     0.000 C 
BRANCH   2   3
ATOM      3  C   UNL     1       5.053  44.856  10.469  1.00  0.00     0.000 C 
BRANCH   3   4
ATOM      4  C   UNL     1       6.307  45.124  11.315  1.00  0.00     0.000 C 
BRANCH   4   5
ATOM      5  C   UNL     1       7.564  44.588  10.619  1.00  0.00     0.000 C 
BRANCH   5   6
ATOM      6  C   UNL     1       8.276  43.546  11.494  1.00  0.00     0.006 C 
BRANCH   6   7
ATOM      7  C   UNL     1       7.386  42.331  11.790  1.00  0.00     0.053 C 
BRANCH   7   8
ATOM      8  C   UNL     1       7.142  42.166  13.259  1.00  0.00     0.041 C 
ATOM      9  O   UNL     1       6.375  42.960  13.866  1.00  0.00    -0.550 OA
ATOM     10  O   UNL     1       7.732  41.115  13.949  1.00  0.00    -0.550 OA
ENDBRANCH   7   8
ENDBRANCH   6   7
ENDBRANCH   5   6
ENDBRANCH   4   5
ENDBRANCH   3   4
ENDBRANCH   2   3
ENDBRANCH   1   2
BRANCH   1  11
ATOM     11  C   UNL     1       2.375  43.703  10.226  1.00  0.00     0.000 C 
BRANCH  11  12
ATOM     12  C   UNL     1       1.178  43.274  11.099  1.00  0.00     0.000 C 
BRANCH  12  13
ATOM     13  C   UNL     1       0.116  42.421  10.381  1.00  0.00     0.000 C 
BRANCH  13  14
ATOM     14  C   UNL     1      -0.476  41.324  11.282  1.00  0.00     0.000 C 
BRANCH  14  15
ATOM     15  C   UNL     1      -1.683  41.816  12.098  1.00  0.00     0.000 C 
BRANCH  15  16
ATOM     16  C   UNL     1      -1.303  42.245  13.524  1.00  0.00     0.006 C 
BRANCH  16  17
ATOM     17  C   UNL     1      -2.511  42.835  14.257  1.00  0.00     0.053 C 
BRANCH  17  18
ATOM     18  C   UNL     1      -2.210  44.222  14.732  1.00  0.00     0.041 C 
ATOM     19  O   UNL     1      -1.144  44.794  14.382  1.00  0.00    -0.550 OA
ATOM     20  O   UNL     1      -3.084  44.866  15.600  1.00  0.00    -0.550 OA
ENDBRANCH  17  18
ENDBRANCH  16  17
ENDBRANCH  15  16
ENDBRANCH  14  15
ENDBRANCH  13  14
ENDBRANCH  12  13
ENDBRANCH  11  12
ENDBRANCH   1  11
TORSDOF 15
ENDMDL
MODEL 5
REMARK VINA RESULT:     2.374      1.825      2.378
REMARK INTER + INTRA:           3.955
REMARK INTER:                   5.013
REMARK INTRA:                  -1.059
REMARK UNBOUND:                -0.502
REMARK SMILES O=C([O-])CCCCCCCCCCCCCCC(=O)[O-]
REMARK SMILES IDX 10 1 9 2 8 3 7 4 6 5 5 6 4 7 2 8 1 9 3 10 11 11 12 12 13 13
REMARK SMILES IDX 14 14 15 15 16 16 17 17 18 18 19 19 20 20
REMARK H PARENT
REMARK Flexibility Score: inf
ROOT
ATOM      1  C   UNL     1       3.295  45.080  11.292  1.00  0.00     0.000 C 
ENDROOT
BRANCH   1   2
ATOM      2  C   UNL     1       4.657  44.959  12.005  1.00  0.00     0.000 C 
BRANCH   2   3
ATOM      3  C   UNL     1       4.711  43.912  13.130  1.00  0.00     0.000 C 
BRANCH   3   4
ATOM      4  C   UNL     1       6.100  43.276  13.290  1.00  0.00     0.000 C 
BRANCH   4   5
ATOM      5  C   UNL     1       7.165  44.088  12.543  1.00  0.00     0.000 C 
BRANCH   5   6
ATOM      6  C   UNL     1       8.334  43.194  12.106  1.00  0.00     0.006 C 
BRANCH   6   7
ATOM      7  C   UNL     1       8.256  42.821  10.620  1.00  0.00     0.053 C 
BRANCH   7   8
ATOM      8  C   UNL     1       7.076  41.945  10.328  1.00  0.00     0.041 C 
ATOM      9  O   UNL     1       7.147  40.702  10.521  1.00  0.00    -0.550 OA
ATOM     10  O   UNL     1       5.886  42.504   9.879  1.00  0.00    -0.550 OA
ENDBRANCH   7   8
ENDBRANCH   6   7
ENDBRANCH   5   6
ENDBRANCH   4   5
ENDBRANCH   3   4
ENDBRANCH   2   3
ENDBRANCH   1   2
BRANCH   1  11
ATOM     11  C   UNL     1       3.056  44.056  10.165  1.00  0.00     0.000 C 
BRANCH  11  12
ATOM     12  C   UNL     1       1.864  43.103  10.388  1.00  0.00     0.000 C 
BRANCH  12  13
ATOM     13  C   UNL     1       1.518  42.820  11.861  1.00  0.00     0.000 C 
BRANCH  13  14
ATOM     14  C   UNL     1       0.129  43.346  12.259  1.00  0.00     0.000 C 
BRANCH  14  15
ATOM     15  C   UNL     1       0.202  44.602  13.143  1.00  0.00     0.000 C 
BRANCH  15  16
ATOM     16  C   UNL     1      -0.415  44.389  14.534  1.00  0.00     0.006 C 
BRANCH  16  17
ATOM     17  C   UNL     1      -1.765  45.104  14.648  1.00  0.00     0.053 C 
BRANCH  17  18
ATOM     18  C   UNL     1      -2.844  44.132  15.006  1.00  0.00     0.041 C 
ATOM     19  O   UNL     1      -3.897  44.533  15.571  1.00  0.00    -0.550 OA
ATOM     20  O   UNL     1      -2.670  42.775  14.758  1.00  0.00    -0.550 OA
ENDBRANCH  17  18
ENDBRANCH  16  17
ENDBRANCH  15  16
ENDBRANCH  14  15
ENDBRANCH  13  14
ENDBRANCH  12  13
ENDBRANCH  11  12
ENDBRANCH   1  11
TORSDOF 15
ENDMDL
MODEL 6
REMARK VINA RESULT:     2.499      1.207      8.069
REMARK INTER + INTRA:           4.189
REMARK INTER:                   4.597
REMARK INTRA:                  -0.408
REMARK UNBOUND:                -0.502
REMARK SMILES O=C([O-])CCCCCCCCCCCCCCC(=O)[O-]
REMARK SMILES IDX 10 1 9 2 8 3 7 4 6 5 5 6 4 7 2 8 1 9 3 10 11 11 12 12 13 13
REMARK SMILES IDX 14 14 15 15 16 16 17 17 18 18 19 19 20 20
REMARK H PARENT
REMARK Flexibility Score: inf
ROOT
ATOM      1  C   UNL     1       0.984  43.212  11.149  1.00  0.00     0.000 C 
ENDROOT
BRANCH   1   2
ATOM      2  C   UNL     1       1.828  43.642  12.366  1.00  0.00     0.000 C 
BRANCH   2   3
ATOM      3  C   UNL     1       1.192  44.733  13.244  1.00  0.00     0.000 C 
BRANCH   3   4
ATOM      4  C   UNL     1      -0.337  44.611  13.335  1.00  0.00     0.000 C 
BRANCH   4   5
ATOM      5  C   UNL     1      -0.826  44.882  14.763  1.00  0.00     0.000 C 
BRANCH   5   6
ATOM      6  C   UNL     1      -2.217  44.274  14.994  1.00  0.00     0.006 C 
BRANCH   6   7
ATOM      7  C   UNL     1      -2.515  43.122  14.025  1.00  0.00     0.053 C 
BRANCH   7   8
ATOM      8  C   UNL     1      -2.831  41.851  14.753  1.00  0.00     0.041 C 
ATOM      9  O   UNL     1      -1.936  41.260  15.413  1.00  0.00    -0.550 OA
ATOM     10  O   UNL     1      -4.123  41.340  14.733  1.00  0.00    -0.550 OA
ENDBRANCH   7   8
ENDBRANCH   6   7
ENDBRANCH   5   6
ENDBRANCH   4   5
ENDBRANCH   3   4
ENDBRANCH   2   3
ENDBRANCH   1   2
BRANCH   1  11
ATOM     11  C   UNL     1       1.794  42.863   9.885  1.00  0.00     0.000 C 
BRANCH  11  12
ATOM     12  C   UNL     1       3.318  43.064  10.008  1.00  0.00     0.000 C 
BRANCH  12  13
ATOM     13  C   UNL     1       3.799  44.521   9.876  1.00  0.00     0.000 C 
BRANCH  13  14
ATOM     14  C   UNL     1       4.332  45.094  11.200  1.00  0.00     0.000 C 
BRANCH  14  15
ATOM     15  C   UNL     1       5.868  45.125  11.256  1.00  0.00     0.000 C 
BRANCH  15  16
ATOM     16  C   UNL     1       6.523  44.400  10.070  1.00  0.00     0.006 C 
BRANCH  16  17
ATOM     17  C   UNL     1       6.862  42.952  10.434  1.00  0.00     0.053 C 
BRANCH  17  18
ATOM     18  C   UNL     1       7.661  42.902  11.698  1.00  0.00     0.041 C 
ATOM     19  O   UNL     1       7.208  42.306  12.711  1.00  0.00    -0.550 OA
ATOM     20  O   UNL     1       8.886  43.554  11.775  1.00  0.00    -0.550 OA
ENDBRANCH  17  18
ENDBRANCH  16  17
ENDBRANCH  15  16
ENDBRANCH  14  15
ENDBRANCH  13  14
ENDBRANCH  12  13
ENDBRANCH  11  12
ENDBRANCH   1  11
TORSDOF 15
ENDMDL
MODEL 7
REMARK VINA RESULT:     3.036      1.124      1.801
REMARK INTER + INTRA:           5.196
REMARK INTER:                   5.854
REMARK INTRA:                  -0.658
REMARK UNBOUND:                -0.502
REMARK SMILES O=C([O-])CCCCCCCCCCCCCCC(=O)[O-]
REMARK SMILES IDX 10 1 9 2 8 3 7 4 6 5 5 6 4 7 2 8 1 9 3 10 11 11 12 12 13 13
REMARK SMILES IDX 14 14 15 15 16 16 17 17 18 18 19 19 20 20
REMARK H PARENT
REMARK Flexibility Score: inf
ROOT
ATOM      1  C   UNL     1       2.547  43.126  10.949  1.00  0.00     0.000 C 
ENDROOT
BRANCH   1   2
ATOM      2  C   UNL     1       3.559  43.579   9.877  1.00  0.00     0.000 C 
BRANCH   2   3
ATOM      3  C   UNL     1       4.644  44.548  10.376  1.00  0.00     0.000 C 
BRANCH   3   4
ATOM      4  C   UNL     1       6.068  44.061  10.067  1.00  0.00     0.000 C 
BRANCH   4   5
ATOM      5  C   UNL     1       7.111  44.919  10.793  1.00  0.00     0.000 C 
BRANCH   5   6
ATOM      6  C   UNL     1       8.074  44.042  11.608  1.00  0.00     0.006 C 
BRANCH   6   7
ATOM      7  C   UNL     1       7.539  42.618  11.801  1.00  0.00     0.053 C 
BRANCH   7   8
ATOM      8  C   UNL     1       6.952  42.425  13.166  1.00  0.00     0.041 C 
ATOM      9  O   UNL     1       7.362  41.491  13.906  1.00  0.00    -0.550 OA
ATOM     10  O   UNL     1       5.978  43.297  13.636  1.00  0.00    -0.550 OA
ENDBRANCH   7   8
ENDBRANCH   6   7
ENDBRANCH   5   6
ENDBRANCH   4   5
ENDBRANCH   3   4
ENDBRANCH   2   3
ENDBRANCH   1   2
BRANCH   1  11
ATOM     11  C   UNL     1       2.728  43.779  12.333  1.00  0.00     0.000 C 
BRANCH  11  12
ATOM     12  C   UNL     1       1.620  44.773  12.738  1.00  0.00     0.000 C 
BRANCH  12  13
ATOM     13  C   UNL     1       0.329  44.130  13.279  1.00  0.00     0.000 C 
BRANCH  13  14
ATOM     14  C   UNL     1      -0.554  45.125  14.050  1.00  0.00     0.000 C 
BRANCH  14  15
ATOM     15  C   UNL     1      -1.859  44.489  14.555  1.00  0.00     0.000 C 
BRANCH  15  16
ATOM     16  C   UNL     1      -1.668  43.049  15.055  1.00  0.00     0.006 C 
BRANCH  16  17
ATOM     17  C   UNL     1      -2.388  42.053  14.142  1.00  0.00     0.053 C 
BRANCH  17  18
ATOM     18  C   UNL     1      -3.792  41.832  14.612  1.00  0.00     0.041 C 
ATOM     19  O   UNL     1      -4.350  40.716  14.438  1.00  0.00    -0.550 OA
ATOM     20  O   UNL     1      -4.502  42.871  15.201  1.00  0.00    -0.550 OA
ENDBRANCH  17  18
ENDBRANCH  16  17
ENDBRANCH  15  16
ENDBRANCH  14  15
ENDBRANCH  13  14
ENDBRANCH  12  13
ENDBRANCH  11  12
ENDBRANCH   1  11
TORSDOF 15
ENDMDL
MODEL 8
REMARK VINA RESULT:     3.513      1.514      2.735
REMARK INTER + INTRA:           6.091
REMARK INTER:                   6.829
REMARK INTRA:                  -0.737
REMARK UNBOUND:                -0.502
REMARK SMILES O=C([O-])CCCCCCCCCCCCCCC(=O)[O-]
REMARK SMILES IDX 10 1 9 2 8 3 7 4 6 5 5 6 4 7 2 8 1 9 3 10 11 11 12 12 13 13
REMARK SMILES IDX 14 14 15 15 16 16 17 17 18 18 19 19 20 20
REMARK H PARENT
REMARK Flexibility Score: inf
ROOT
ATOM      1  C   UNL     1       1.628  43.192  10.875  1.00  0.00     0.000 C 
ENDROOT
BRANCH   1   2
ATOM      2  C   UNL     1       3.030  43.336  10.247  1.00  0.00     0.000 C 
BRANCH   2   3
ATOM      3  C   UNL     1       3.471  44.782   9.967  1.00  0.00     0.000 C 
BRANCH   3   4
ATOM      4  C   UNL     1       4.990  44.976  10.086  1.00  0.00     0.000 C 
BRANCH   4   5
ATOM      5  C   UNL     1       5.729  43.641   9.932  1.00  0.00     0.000 C 
BRANCH   5   6
ATOM      6  C   UNL     1       7.241  43.822  10.131  1.00  0.00     0.006 C 
BRANCH   6   7
ATOM      7  C   UNL     1       7.613  44.012  11.607  1.00  0.00     0.053 C 
BRANCH   7   8
ATOM      8  C   UNL     1       7.276  42.803  12.426  1.00  0.00     0.041 C 
ATOM      9  O   UNL     1       6.495  42.902  13.409  1.00  0.00    -0.550 OA
ATOM     10  O   UNL     1       7.795  41.561  12.081  1.00  0.00    -0.550 OA
ENDBRANCH   7   8
ENDBRANCH   6   7
ENDBRANCH   5   6
ENDBRANCH   4   5
ENDBRANCH   3   4
ENDBRANCH   2   3
ENDBRANCH   1   2
BRANCH   1  11
ATOM     11  C   UNL     1       1.359  44.110  12.083  1.00  0.00     0.000 C 
BRANCH  11  12
ATOM     12  C   UNL     1       0.133  43.726  12.937  1.00  0.00     0.000 C 
BRANCH  12  13
ATOM     13  C   UNL     1      -0.320  44.794  13.950  1.00  0.00     0.000 C 
BRANCH  13  14
ATOM     14  C   UNL     1      -1.673  44.463  14.601  1.00  0.00     0.000 C 
BRANCH  14  15
ATOM     15  C   UNL     1      -1.925  42.950  14.705  1.00  0.00     0.000 C 
BRANCH  15  16
ATOM     16  C   UNL     1      -3.414  42.585  14.610  1.00  0.00     0.006 C 
BRANCH  16  17
ATOM     17  C   UNL     1      -3.600  41.070  14.498  1.00  0.00     0.053 C 
BRANCH  17  18
ATOM     18  C   UNL     1      -4.968  40.674  14.961  1.00  0.00     0.041 C 
ATOM     19  O   UNL     1      -5.932  41.477  14.848  1.00  0.00    -0.550 OA
ATOM     20  O   UNL     1      -5.169  39.436  15.560  1.00  0.00    -0.550 OA
ENDBRANCH  17  18
ENDBRANCH  16  17
ENDBRANCH  15  16
ENDBRANCH  14  15
ENDBRANCH  13  14
ENDBRANCH  12  13
ENDBRANCH  11  12
ENDBRANCH   1  11
TORSDOF 15
ENDMDL
