MODEL 1
REMARK VINA RESULT:    -0.824      0.000      0.000
REMARK INTER + INTRA:          -1.061
REMARK INTER:                  -0.969
REMARK INTRA:                  -0.092
REMARK UNBOUND:                -0.092
REMARK SMILES O=C([O-])CCC(=O)[O-]
REMARK SMILES IDX 4 1 2 2 1 3 3 4 5 5 6 6 7 7 8 8
REMARK H PARENT
REMARK Flexibility Score: inf
ROOT
ATOM      1  C   UNL     1      15.592   5.991   8.604  1.00  0.00     0.059 C 
ENDROOT
BRANCH   1   2
ATOM      2  C   UNL     1      16.398   6.975   9.395  1.00  0.00     0.042 C 
ATOM      3  O   UNL     1      15.865   8.028   9.831  1.00  0.00    -0.550 OA
ATOM      4  O   UNL     1      17.751   6.744   9.616  1.00  0.00    -0.550 OA
ENDBRANCH   1   2
BRANCH   1   5
ATOM      5  C   UNL     1      15.889   6.095   7.104  1.00  0.00     0.059 C 
BRANCH   5   6
ATOM      6  C   UNL     1      16.752   4.964   6.631  1.00  0.00     0.042 C 
ATOM      7  O   UNL     1      16.275   4.078   5.876  1.00  0.00    -0.550 OA
ATOM      8  O   UNL     1      18.091   4.914   6.992  1.00  0.00    -0.550 OA
ENDBRANCH   5   6
ENDBRANCH   1   5
TORSDOF 3
ENDMDL
MODEL 2
REMARK VINA RESULT:    -0.807      0.071      3.747
REMARK INTER + INTRA:          -1.040
REMARK INTER:                  -0.938
REMARK INTRA:                  -0.102
REMARK UNBOUND:                -0.092
REMARK SMILES O=C([O-])CCC(=O)[O-]
REMARK SMILES IDX 4 1 2 2 1 3 3 4 5 5 6 6 7 7 8 8
REMARK H PARENT
REMARK Flexibility Score: inf
ROOT
ATOM      1  C   UNL     1      15.888   6.089   7.154  1.00  0.00     0.059 C 
ENDROOT
BRANCH   1   2
ATOM      2  C   UNL     1      16.746   4.983   6.623  1.00  0.00     0.042 C 
ATOM      3  O   UNL     1      16.253   4.099   5.875  1.00  0.00    -0.550 OA
ATOM      4  O   UNL     1      18.085   4.907   6.989  1.00  0.00    -0.550 OA
ENDBRANCH   1   2
BRANCH   1   5
ATOM      5  C   UNL     1      15.653   5.948   8.662  1.00  0.00     0.059 C 
BRANCH   5   6
ATOM      6  C   UNL     1      16.446   6.953   9.441  1.00  0.00     0.042 C 
ATOM      7  O   UNL     1      15.875   7.955   9.946  1.00  0.00    -0.550 OA
ATOM      8  O   UNL     1      17.806   6.761   9.644  1.00  0.00    -0.550 OA
ENDBRANCH   5   6
ENDBRANCH   1   5
TORSDOF 3
ENDMDL
MODEL 3
REMARK VINA RESULT:    -0.707      0.167      3.811
REMARK INTER + INTRA:          -0.923
REMARK INTER:                  -0.842
REMARK INTRA:                  -0.081
REMARK UNBOUND:                -0.092
REMARK SMILES O=C([O-])CCC(=O)[O-]
REMARK SMILES IDX 4 1 2 2 1 3 3 4 5 5 6 6 7 7 8 8
REMARK H PARENT
REMARK Flexibility Score: inf
ROOT
ATOM      1  C   UNL     1      15.935   6.008   7.020  1.00  0.00     0.059 C 
ENDROOT
BRANCH   1   2
ATOM      2  C   UNL     1      16.850   4.887   6.633  1.00  0.00     0.042 C 
ATOM      3  O   UNL     1      18.065   4.918   6.961  1.00  0.00    -0.550 OA
ATOM      4  O   UNL     1      16.368   3.827   5.876  1.00  0.00    -0.550 OA
ENDBRANCH   1   2
BRANCH   1   5
ATOM      5  C   UNL     1      15.529   5.922   8.496  1.00  0.00     0.059 C 
BRANCH   5   6
ATOM      6  C   UNL     1      16.283   6.909   9.335  1.00  0.00     0.042 C 
ATOM      7  O   UNL     1      15.679   7.874   9.871  1.00  0.00    -0.550 OA
ATOM      8  O   UNL     1      17.643   6.738   9.557  1.00  0.00    -0.550 OA
ENDBRANCH   5   6
ENDBRANCH   1   5
TORSDOF 3
ENDMDL
MODEL 4
REMARK VINA RESULT:    -0.021     25.661     26.523
REMARK INTER + INTRA:          -0.116
REMARK INTER:                  -0.083
REMARK INTRA:                  -0.033
REMARK UNBOUND:                -0.092
REMARK SMILES O=C([O-])CCC(=O)[O-]
REMARK SMILES IDX 4 1 2 2 1 3 3 4 5 5 6 6 7 7 8 8
REMARK H PARENT
REMARK Flexibility Score: inf
ROOT
ATOM      1  C   UNL     1       0.494  -4.332  25.223  1.00  0.00     0.059 C 
ENDROOT
BRANCH   1   2
ATOM      2  C   UNL     1       1.837  -4.029  25.813  1.00  0.00     0.042 C 
ATOM      3  O   UNL     1       2.619  -4.965  26.125  1.00  0.00    -0.550 OA
ATOM      4  O   UNL     1       2.208  -2.712  26.055  1.00  0.00    -0.550 OA
ENDBRANCH   1   2
BRANCH   1   5
ATOM      5  C   UNL     1      -0.297  -5.314  26.094  1.00  0.00     0.059 C 
BRANCH   5   6
ATOM      6  C   UNL     1      -1.418  -5.951  25.330  1.00  0.00     0.042 C 
ATOM      7  O   UNL     1      -1.786  -7.123  25.606  1.00  0.00    -0.550 OA
ATOM      8  O   UNL     1      -2.082  -5.235  24.343  1.00  0.00    -0.550 OA
ENDBRANCH   5   6
ENDBRANCH   1   5
TORSDOF 3
ENDMDL
MODEL 5
REMARK VINA RESULT:     0.073      1.773      3.938
REMARK INTER + INTRA:          -0.006
REMARK INTER:                   0.045
REMARK INTRA:                  -0.051
REMARK UNBOUND:                -0.092
REMARK SMILES O=C([O-])CCC(=O)[O-]
REMARK SMILES IDX 4 1 2 2 1 3 3 4 5 5 6 6 7 7 8 8
REMARK H PARENT
REMARK Flexibility Score: inf
ROOT
ATOM      1  C   UNL     1      15.925   6.349   9.244  1.00  0.00     0.059 C 
ENDROOT
BRANCH   1   2
ATOM      2  C   UNL     1      15.492   6.145   7.825  1.00  0.00     0.042 C 
ATOM      3  O   UNL     1      14.439   6.686   7.398  1.00  0.00    -0.550 OA
ATOM      4  O   UNL     1      16.233   5.323   6.985  1.00  0.00    -0.550 OA
ENDBRANCH   1   2
BRANCH   1   5
ATOM      5  C   UNL     1      15.905   7.832   9.632  1.00  0.00     0.059 C 
BRANCH   5   6
ATOM      6  C   UNL     1      17.279   8.337   9.954  1.00  0.00     0.042 C 
ATOM      7  O   UNL     1      18.124   7.573  10.489  1.00  0.00    -0.550 OA
ATOM      8  O   UNL     1      17.637   9.637   9.625  1.00  0.00    -0.550 OA
ENDBRANCH   5   6
ENDBRANCH   1   5
TORSDOF 3
ENDMDL
MODEL 6
REMARK VINA RESULT:     1.610     25.904     26.760
REMARK INTER + INTRA:           1.801
REMARK INTER:                   1.577
REMARK INTRA:                   0.224
REMARK UNBOUND:                -0.092
REMARK SMILES O=C([O-])CCC(=O)[O-]
REMARK SMILES IDX 4 1 2 2 1 3 3 4 5 5 6 6 7 7 8 8
REMARK H PARENT
REMARK Flexibility Score: inf
ROOT
ATOM      1  C   UNL     1       1.278  -4.702  25.388  1.00  0.00     0.059 C 
ENDROOT
BRANCH   1   2
ATOM      2  C   UNL     1       2.084  -5.851  25.909  1.00  0.00     0.042 C 
ATOM      3  O   UNL     1       3.317  -5.717  26.123  1.00  0.00    -0.550 OA
ATOM      4  O   UNL     1       1.479  -7.084  26.122  1.00  0.00    -0.550 OA
ENDBRANCH   1   2
BRANCH   1   5
ATOM      5  C   UNL     1      -0.060  -4.571  26.125  1.00  0.00     0.059 C 
BRANCH   5   6
ATOM      6  C   UNL     1      -1.117  -5.438  25.510  1.00  0.00     0.042 C 
ATOM      7  O   UNL     1      -1.656  -5.103  24.423  1.00  0.00    -0.550 OA
ATOM      8  O   UNL     1      -1.475  -6.634  26.117  1.00  0.00    -0.550 OA
ENDBRANCH   5   6
ENDBRANCH   1   5
TORSDOF 3
ENDMDL
