MODEL 1
REMARK VINA RESULT:    -3.949      0.000      0.000
REMARK INTER + INTRA:          -4.960
REMARK INTER:                  -4.642
REMARK INTRA:                  -0.318
REMARK UNBOUND:                -0.318
REMARK SMILES O=c1cc(-c2ccc(O)c(O)c2)oc2cc(O)cc(O)c12
REMARK SMILES IDX 4 1 3 2 2 3 1 4 21 5 19 6 18 7 16 8 15 9 14 10 13 11 5 12
REMARK SMILES IDX 6 13 7 14 8 15 12 16 10 17 9 18 11 20 20 22 17 24
REMARK H PARENT 9 19 11 21 20 23 17 25
REMARK Flexibility Score: inf
ROOT
ATOM      1  C   UNL     1      72.217  40.934  19.784  1.00  0.00     0.138 A 
ATOM      2  C   UNL     1      73.083  40.974  18.682  1.00  0.00     0.100 A 
ATOM      3  C   UNL     1      74.463  40.933  18.886  1.00  0.00     0.197 A 
ATOM      4  O   UNL     1      75.215  41.034  17.882  1.00  0.00    -0.289 OA
ATOM      5  C   UNL     1      74.977  40.818  20.199  1.00  0.00     0.107 A 
ATOM      6  C   UNL     1      76.363  40.726  20.524  1.00  0.00     0.134 A 
ATOM      7  C   UNL     1      76.760  40.732  21.867  1.00  0.00     0.093 A 
ATOM      8  C   UNL     1      75.815  40.767  22.897  1.00  0.00     0.123 A 
ATOM      9  C   UNL     1      74.457  40.803  22.589  1.00  0.00     0.094 A 
ATOM     10  C   UNL     1      74.032  40.832  21.260  1.00  0.00     0.146 A 
ATOM     11  O   UNL     1      72.728  40.880  21.010  1.00  0.00    -0.456 OA
ENDROOT
BRANCH   1  12
ATOM     12  C   UNL     1      70.742  40.974  19.624  1.00  0.00     0.021 A 
ATOM     13  C   UNL     1      70.189  41.071  18.338  1.00  0.00     0.016 A 
ATOM     14  C   UNL     1      68.805  41.118  18.163  1.00  0.00     0.051 A 
ATOM     15  C   UNL     1      67.943  41.080  19.264  1.00  0.00     0.157 A 
ATOM     16  C   UNL     1      69.876  40.951  20.734  1.00  0.00     0.062 A 
ATOM     17  C   UNL     1      68.487  41.001  20.568  1.00  0.00     0.158 A 
BRANCH  15  18
ATOM     18  O   UNL     1      66.569  41.125  19.020  1.00  0.00    -0.504 OA
ATOM     19  H   UNL     1      65.866  41.077  19.742  1.00  0.00     0.293 HD
ENDBRANCH  15  18
BRANCH  17  20
ATOM     20  O   UNL     1      67.692  40.975  21.715  1.00  0.00    -0.504 OA
ATOM     21  H   UNL     1      67.253  40.142  22.080  1.00  0.00     0.293 HD
ENDBRANCH  17  20
ENDBRANCH   1  12
BRANCH   6  22
ATOM     22  O   UNL     1      77.381  40.601  19.574  1.00  0.00    -0.507 OA
ATOM     23  H   UNL     1      77.319  40.053  18.730  1.00  0.00     0.293 HD
ENDBRANCH   6  22
BRANCH   8  24
ATOM     24  O   UNL     1      76.218  40.758  24.230  1.00  0.00    -0.508 OA
ATOM     25  H   UNL     1      77.141  40.441  24.503  1.00  0.00     0.293 HD
ENDBRANCH   8  24
TORSDOF 5
ENDMDL
MODEL 2
REMARK VINA RESULT:    -2.394      1.176      2.635
REMARK INTER + INTRA:          -3.132
REMARK INTER:                  -2.836
REMARK INTRA:                  -0.297
REMARK UNBOUND:                -0.318
REMARK SMILES O=c1cc(-c2ccc(O)c(O)c2)oc2cc(O)cc(O)c12
REMARK SMILES IDX 4 1 3 2 2 3 1 4 21 5 19 6 18 7 16 8 15 9 14 10 13 11 5 12
REMARK SMILES IDX 6 13 7 14 8 15 12 16 10 17 9 18 11 20 20 22 17 24
REMARK H PARENT 9 19 11 21 20 23 17 25
REMARK Flexibility Score: inf
ROOT
ATOM      1  C   UNL     1      72.118  40.619  20.189  1.00  0.00     0.138 A 
ATOM      2  C   UNL     1      72.438  40.258  21.505  1.00  0.00     0.100 A 
ATOM      3  C   UNL     1      73.776  40.158  21.888  1.00  0.00     0.197 A 
ATOM      4  O   UNL     1      74.032  39.772  23.058  1.00  0.00    -0.289 OA
ATOM      5  C   UNL     1      74.798  40.453  20.955  1.00  0.00     0.107 A 
ATOM      6  C   UNL     1      76.195  40.424  21.245  1.00  0.00     0.134 A 
ATOM      7  C   UNL     1      77.119  40.622  20.211  1.00  0.00     0.093 A 
ATOM      8  C   UNL     1      76.694  40.906  18.910  1.00  0.00     0.123 A 
ATOM      9  C   UNL     1      75.332  40.989  18.629  1.00  0.00     0.094 A 
ATOM     10  C   UNL     1      74.387  40.764  19.632  1.00  0.00     0.146 A 
ATOM     11  O   UNL     1      73.097  40.838  19.318  1.00  0.00    -0.456 OA
ENDROOT
BRANCH   1  12
ATOM     12  C   UNL     1      70.711  40.740  19.729  1.00  0.00     0.021 A 
ATOM     13  C   UNL     1      70.444  40.913  18.362  1.00  0.00     0.016 A 
ATOM     14  C   UNL     1      69.131  41.037  17.906  1.00  0.00     0.051 A 
ATOM     15  C   UNL     1      68.057  41.001  18.801  1.00  0.00     0.157 A 
ATOM     16  C   UNL     1      69.632  40.719  20.633  1.00  0.00     0.062 A 
ATOM     17  C   UNL     1      68.312  40.845  20.184  1.00  0.00     0.158 A 
BRANCH  15  18
ATOM     18  O   UNL     1      66.768  41.125  18.280  1.00  0.00    -0.504 OA
ATOM     19  H   UNL     1      66.369  40.489  17.605  1.00  0.00     0.293 HD
ENDBRANCH  15  18
BRANCH  17  20
ATOM     20  O   UNL     1      67.294  40.817  21.138  1.00  0.00    -0.504 OA
ATOM     21  H   UNL     1      66.971  41.628  21.645  1.00  0.00     0.293 HD
ENDBRANCH  17  20
ENDBRANCH   1  12
BRANCH   6  22
ATOM     22  O   UNL     1      76.724  40.234  22.525  1.00  0.00    -0.507 OA
ATOM     23  H   UNL     1      76.184  40.224  23.376  1.00  0.00     0.293 HD
ENDBRANCH   6  22
BRANCH   8  24
ATOM     24  O   UNL     1      77.620  41.116  17.890  1.00  0.00    -0.508 OA
ATOM     25  H   UNL     1      77.335  41.439  16.973  1.00  0.00     0.293 HD
ENDBRANCH   8  24
TORSDOF 5
ENDMDL
