MODEL 1
REMARK VINA RESULT:    -5.579      0.000      0.000
REMARK INTER + INTRA:          -6.428
REMARK INTER:                  -6.231
REMARK INTRA:                  -0.197
REMARK UNBOUND:                -0.197
REMARK SMILES O=C([O-])c1ccccc1C(=O)[O-]
REMARK SMILES IDX 4 1 9 2 5 3 8 4 6 5 7 6 2 7 1 8 3 9 10 10 11 11 12 12
REMARK H PARENT
REMARK Flexibility Score: inf
ROOT
ATOM      1  C   UNL     1       6.285  23.646  -8.272  1.00  0.00     0.006 A 
ATOM      2  C   UNL     1       5.844  23.592  -6.919  1.00  0.00     0.006 A 
ATOM      3  C   UNL     1       5.461  23.115  -9.281  1.00  0.00     0.010 A 
ATOM      4  C   UNL     1       4.568  23.069  -6.637  1.00  0.00     0.010 A 
ATOM      5  C   UNL     1       4.210  22.581  -8.975  1.00  0.00     0.001 A 
ATOM      6  C   UNL     1       3.759  22.568  -7.657  1.00  0.00     0.001 A 
ENDROOT
BRANCH   1   7
ATOM      7  C   UNL     1       7.549  24.299  -8.683  1.00  0.00     0.072 C 
ATOM      8  O   UNL     1       7.640  25.555  -8.731  1.00  0.00    -0.545 OA
ATOM      9  O   UNL     1       8.632  23.529  -9.088  1.00  0.00    -0.545 OA
ENDBRANCH   1   7
BRANCH   2  10
ATOM     10  C   UNL     1       6.692  23.999  -5.776  1.00  0.00     0.072 C 
ATOM     11  O   UNL     1       6.677  25.185  -5.352  1.00  0.00    -0.545 OA
ATOM     12  O   UNL     1       7.569  23.088  -5.198  1.00  0.00    -0.545 OA
ENDBRANCH   2  10
TORSDOF 2
ENDMDL
MODEL 2
REMARK VINA RESULT:    -5.568      0.073      2.885
REMARK INTER + INTRA:          -6.416
REMARK INTER:                  -6.214
REMARK INTRA:                  -0.202
REMARK UNBOUND:                -0.197
REMARK SMILES O=C([O-])c1ccccc1C(=O)[O-]
REMARK SMILES IDX 4 1 9 2 5 3 8 4 6 5 7 6 2 7 1 8 3 9 10 10 11 11 12 12
REMARK H PARENT
REMARK Flexibility Score: inf
ROOT
ATOM      1  C   UNL     1       5.796  23.553  -6.942  1.00  0.00     0.006 A 
ATOM      2  C   UNL     1       6.244  23.622  -8.292  1.00  0.00     0.006 A 
ATOM      3  C   UNL     1       4.521  23.025  -6.670  1.00  0.00     0.010 A 
ATOM      4  C   UNL     1       5.426  23.099  -9.310  1.00  0.00     0.010 A 
ATOM      5  C   UNL     1       3.718  22.534  -7.698  1.00  0.00     0.001 A 
ATOM      6  C   UNL     1       4.173  22.560  -9.015  1.00  0.00     0.001 A 
ENDROOT
BRANCH   1   7
ATOM      7  C   UNL     1       6.640  23.951  -5.790  1.00  0.00     0.072 C 
ATOM      8  O   UNL     1       6.557  25.108  -5.299  1.00  0.00    -0.545 OA
ATOM      9  O   UNL     1       7.584  23.069  -5.281  1.00  0.00    -0.545 OA
ENDBRANCH   1   7
BRANCH   2  10
ATOM     10  C   UNL     1       7.509  24.282  -8.691  1.00  0.00     0.072 C 
ATOM     11  O   UNL     1       7.597  25.537  -8.731  1.00  0.00    -0.545 OA
ATOM     12  O   UNL     1       8.597  23.517  -9.093  1.00  0.00    -0.545 OA
ENDBRANCH   2  10
TORSDOF 2
ENDMDL
MODEL 3
REMARK VINA RESULT:    -5.522      3.766      6.027
REMARK INTER + INTRA:          -6.365
REMARK INTER:                  -6.169
REMARK INTRA:                  -0.196
REMARK UNBOUND:                -0.197
REMARK SMILES O=C([O-])c1ccccc1C(=O)[O-]
REMARK SMILES IDX 4 1 9 2 5 3 8 4 6 5 7 6 2 7 1 8 3 9 10 10 11 11 12 12
REMARK H PARENT
REMARK Flexibility Score: inf
ROOT
ATOM      1  C   UNL     1      10.932  22.371  -7.698  1.00  0.00     0.006 A 
ATOM      2  C   UNL     1      10.322  23.219  -8.666  1.00  0.00     0.006 A 
ATOM      3  C   UNL     1      12.308  22.506  -7.441  1.00  0.00     0.010 A 
ATOM      4  C   UNL     1      11.099  24.213  -9.290  1.00  0.00     0.010 A 
ATOM      5  C   UNL     1      13.064  23.482  -8.089  1.00  0.00     0.001 A 
ATOM      6  C   UNL     1      12.458  24.342  -9.004  1.00  0.00     0.001 A 
ENDROOT
BRANCH   1   7
ATOM      7  C   UNL     1      10.171  21.390  -6.891  1.00  0.00     0.072 C 
ATOM      8  O   UNL     1       9.677  21.714  -5.778  1.00  0.00    -0.545 OA
ATOM      9  O   UNL     1      10.050  20.075  -7.324  1.00  0.00    -0.545 OA
ENDBRANCH   1   7
BRANCH   2  10
ATOM     10  C   UNL     1       8.915  23.066  -9.104  1.00  0.00     0.072 C 
ATOM     11  O   UNL     1       8.580  22.135  -9.883  1.00  0.00    -0.545 OA
ATOM     12  O   UNL     1       7.958  23.993  -8.709  1.00  0.00    -0.545 OA
ENDBRANCH   2  10
TORSDOF 2
ENDMDL
MODEL 4
REMARK VINA RESULT:    -5.514      3.789      5.631
REMARK INTER + INTRA:          -6.356
REMARK INTER:                  -6.158
REMARK INTRA:                  -0.197
REMARK UNBOUND:                -0.197
REMARK SMILES O=C([O-])c1ccccc1C(=O)[O-]
REMARK SMILES IDX 4 1 9 2 5 3 8 4 6 5 7 6 2 7 1 8 3 9 10 10 11 11 12 12
REMARK H PARENT
REMARK Flexibility Score: inf
ROOT
ATOM      1  C   UNL     1      10.360  23.245  -8.652  1.00  0.00     0.006 A 
ATOM      2  C   UNL     1      10.978  22.396  -7.690  1.00  0.00     0.006 A 
ATOM      3  C   UNL     1      11.127  24.244  -9.276  1.00  0.00     0.010 A 
ATOM      4  C   UNL     1      12.356  22.538  -7.440  1.00  0.00     0.010 A 
ATOM      5  C   UNL     1      12.486  24.381  -8.995  1.00  0.00     0.001 A 
ATOM      6  C   UNL     1      13.102  23.523  -8.087  1.00  0.00     0.001 A 
ENDROOT
BRANCH   1   7
ATOM      7  C   UNL     1       8.952  23.084  -9.083  1.00  0.00     0.072 C 
ATOM      8  O   UNL     1       8.620  22.158  -9.870  1.00  0.00    -0.545 OA
ATOM      9  O   UNL     1       7.989  23.998  -8.674  1.00  0.00    -0.545 OA
ENDBRANCH   1   7
BRANCH   2  10
ATOM     10  C   UNL     1      10.227  21.408  -6.882  1.00  0.00     0.072 C 
ATOM     11  O   UNL     1       9.729  21.727  -5.771  1.00  0.00    -0.545 OA
ATOM     12  O   UNL     1      10.121  20.091  -7.315  1.00  0.00    -0.545 OA
ENDBRANCH   2  10
TORSDOF 2
ENDMDL
MODEL 5
REMARK VINA RESULT:    -5.487      5.665      6.746
REMARK INTER + INTRA:          -6.326
REMARK INTER:                  -6.235
REMARK INTRA:                  -0.090
REMARK UNBOUND:                -0.197
REMARK SMILES O=C([O-])c1ccccc1C(=O)[O-]
REMARK SMILES IDX 4 1 9 2 5 3 8 4 6 5 7 6 2 7 1 8 3 9 10 10 11 11 12 12
REMARK H PARENT
REMARK Flexibility Score: inf
ROOT
ATOM      1  C   UNL     1      11.539  22.012  -8.457  1.00  0.00     0.006 A 
ATOM      2  C   UNL     1      12.547  22.852  -7.902  1.00  0.00     0.006 A 
ATOM      3  C   UNL     1      10.782  22.479  -9.546  1.00  0.00     0.010 A 
ATOM      4  C   UNL     1      12.802  24.099  -8.502  1.00  0.00     0.010 A 
ATOM      5  C   UNL     1      11.037  23.729 -10.109  1.00  0.00     0.001 A 
ATOM      6  C   UNL     1      12.052  24.533  -9.596  1.00  0.00     0.001 A 
ENDROOT
BRANCH   1   7
ATOM      7  C   UNL     1      11.290  20.630  -7.984  1.00  0.00     0.072 C 
ATOM      8  O   UNL     1      12.080  19.694  -8.280  1.00  0.00    -0.545 OA
ATOM      9  O   UNL     1      10.140  20.338  -7.261  1.00  0.00    -0.545 OA
ENDBRANCH   1   7
BRANCH   2  10
ATOM     10  C   UNL     1      13.302  22.507  -6.676  1.00  0.00     0.072 C 
ATOM     11  O   UNL     1      12.709  22.351  -5.576  1.00  0.00    -0.545 OA
ATOM     12  O   UNL     1      14.688  22.416  -6.714  1.00  0.00    -0.545 OA
ENDBRANCH   2  10
TORSDOF 2
ENDMDL
MODEL 6
REMARK VINA RESULT:    -5.465      5.638      6.842
REMARK INTER + INTRA:          -6.301
REMARK INTER:                  -6.213
REMARK INTRA:                  -0.088
REMARK UNBOUND:                -0.197
REMARK SMILES O=C([O-])c1ccccc1C(=O)[O-]
REMARK SMILES IDX 4 1 9 2 5 3 8 4 6 5 7 6 2 7 1 8 3 9 10 10 11 11 12 12
REMARK H PARENT
REMARK Flexibility Score: inf
ROOT
ATOM      1  C   UNL     1      12.605  22.933  -7.983  1.00  0.00     0.006 A 
ATOM      2  C   UNL     1      11.571  22.096  -8.491  1.00  0.00     0.006 A 
ATOM      3  C   UNL     1      12.842  24.177  -8.597  1.00  0.00     0.010 A 
ATOM      4  C   UNL     1      10.772  22.564  -9.550  1.00  0.00     0.010 A 
ATOM      5  C   UNL     1      12.051  24.610  -9.660  1.00  0.00     0.001 A 
ATOM      6  C   UNL     1      11.010  23.811 -10.129  1.00  0.00     0.001 A 
ENDROOT
BRANCH   1   7
ATOM      7  C   UNL     1      13.409  22.588  -6.788  1.00  0.00     0.072 C 
ATOM      8  O   UNL     1      12.863  22.456  -5.660  1.00  0.00    -0.545 OA
ATOM      9  O   UNL     1      14.790  22.473  -6.886  1.00  0.00    -0.545 OA
ENDBRANCH   1   7
BRANCH   2  10
ATOM     10  C   UNL     1      11.334  20.718  -8.003  1.00  0.00     0.072 C 
ATOM     11  O   UNL     1      12.129  19.785  -8.294  1.00  0.00    -0.545 OA
ATOM     12  O   UNL     1      10.190  20.425  -7.270  1.00  0.00    -0.545 OA
ENDBRANCH   2  10
TORSDOF 2
ENDMDL
MODEL 7
REMARK VINA RESULT:    -5.394      2.923      4.417
REMARK INTER + INTRA:          -6.222
REMARK INTER:                  -5.996
REMARK INTRA:                  -0.226
REMARK UNBOUND:                -0.197
REMARK SMILES O=C([O-])c1ccccc1C(=O)[O-]
REMARK SMILES IDX 4 1 9 2 5 3 8 4 6 5 7 6 2 7 1 8 3 9 10 10 11 11 12 12
REMARK H PARENT
REMARK Flexibility Score: inf
ROOT
ATOM      1  C   UNL     1       9.013  22.473  -6.779  1.00  0.00     0.006 A 
ATOM      2  C   UNL     1       8.623  23.156  -7.966  1.00  0.00     0.006 A 
ATOM      3  C   UNL     1       8.241  22.630  -5.614  1.00  0.00     0.010 A 
ATOM      4  C   UNL     1       7.438  23.915  -7.959  1.00  0.00     0.010 A 
ATOM      5  C   UNL     1       7.083  23.408  -5.624  1.00  0.00     0.001 A 
ATOM      6  C   UNL     1       6.676  24.040  -6.797  1.00  0.00     0.001 A 
ENDROOT
BRANCH   1   7
ATOM      7  C   UNL     1      10.164  21.542  -6.724  1.00  0.00     0.072 C 
ATOM      8  O   UNL     1      11.291  21.933  -6.318  1.00  0.00    -0.545 OA
ATOM      9  O   UNL     1      10.030  20.239  -7.187  1.00  0.00    -0.545 OA
ENDBRANCH   1   7
BRANCH   2  10
ATOM     10  C   UNL     1       9.440  23.162  -9.201  1.00  0.00     0.072 C 
ATOM     11  O   UNL     1       9.149  22.413 -10.171  1.00  0.00    -0.545 OA
ATOM     12  O   UNL     1      10.583  23.949  -9.276  1.00  0.00    -0.545 OA
ENDBRANCH   2  10
TORSDOF 2
ENDMDL
MODEL 8
REMARK VINA RESULT:    -5.386      2.917      3.666
REMARK INTER + INTRA:          -6.213
REMARK INTER:                  -5.989
REMARK INTRA:                  -0.223
REMARK UNBOUND:                -0.197
REMARK SMILES O=C([O-])c1ccccc1C(=O)[O-]
REMARK SMILES IDX 4 1 9 2 5 3 8 4 6 5 7 6 2 7 1 8 3 9 10 10 11 11 12 12
REMARK H PARENT
REMARK Flexibility Score: inf
ROOT
ATOM      1  C   UNL     1       8.645  23.181  -7.988  1.00  0.00     0.006 A 
ATOM      2  C   UNL     1       9.045  22.468  -6.822  1.00  0.00     0.006 A 
ATOM      3  C   UNL     1       7.446  23.916  -7.963  1.00  0.00     0.010 A 
ATOM      4  C   UNL     1       8.264  22.571  -5.657  1.00  0.00     0.010 A 
ATOM      5  C   UNL     1       6.675  23.985  -6.803  1.00  0.00     0.001 A 
ATOM      6  C   UNL     1       7.089  23.323  -5.648  1.00  0.00     0.001 A 
ENDROOT
BRANCH   1   7
ATOM      7  C   UNL     1       9.470  23.245  -9.217  1.00  0.00     0.072 C 
ATOM      8  O   UNL     1       9.189  22.535 -10.220  1.00  0.00    -0.545 OA
ATOM      9  O   UNL     1      10.606  24.043  -9.253  1.00  0.00    -0.545 OA
ENDBRANCH   1   7
BRANCH   2  10
ATOM     10  C   UNL     1      10.215  21.561  -6.792  1.00  0.00     0.072 C 
ATOM     11  O   UNL     1      11.338  21.969  -6.393  1.00  0.00    -0.545 OA
ATOM     12  O   UNL     1      10.102  20.260  -7.269  1.00  0.00    -0.545 OA
ENDBRANCH   2  10
TORSDOF 2
ENDMDL
MODEL 9
REMARK VINA RESULT:    -5.249      2.068      4.288
REMARK INTER + INTRA:          -6.060
REMARK INTER:                  -5.943
REMARK INTRA:                  -0.116
REMARK UNBOUND:                -0.197
REMARK SMILES O=C([O-])c1ccccc1C(=O)[O-]
REMARK SMILES IDX 4 1 9 2 5 3 8 4 6 5 7 6 2 7 1 8 3 9 10 10 11 11 12 12
REMARK H PARENT
REMARK Flexibility Score: inf
ROOT
ATOM      1  C   UNL     1       7.419  23.274  -6.162  1.00  0.00     0.006 A 
ATOM      2  C   UNL     1       8.049  23.300  -7.439  1.00  0.00     0.006 A 
ATOM      3  C   UNL     1       7.969  22.475  -5.144  1.00  0.00     0.010 A 
ATOM      4  C   UNL     1       9.241  22.577  -7.627  1.00  0.00     0.010 A 
ATOM      5  C   UNL     1       9.139  21.748  -5.360  1.00  0.00     0.001 A 
ATOM      6  C   UNL     1       9.781  21.808  -6.596  1.00  0.00     0.001 A 
ENDROOT
BRANCH   1   7
ATOM      7  C   UNL     1       6.240  24.107  -5.827  1.00  0.00     0.072 C 
ATOM      8  O   UNL     1       6.383  25.278  -5.384  1.00  0.00    -0.545 OA
ATOM      9  O   UNL     1       4.960  23.578  -5.934  1.00  0.00    -0.545 OA
ENDBRANCH   1   7
BRANCH   2  10
ATOM     10  C   UNL     1       7.474  24.001  -8.610  1.00  0.00     0.072 C 
ATOM     11  O   UNL     1       7.440  25.259  -8.656  1.00  0.00    -0.545 OA
ATOM     12  O   UNL     1       6.901  23.272  -9.646  1.00  0.00    -0.545 OA
ENDBRANCH   2  10
TORSDOF 2
ENDMDL
