MODEL 1
REMARK VINA RESULT:    -3.611      0.000      0.000
REMARK INTER + INTRA:          -4.281
REMARK INTER:                  -4.245
REMARK INTRA:                  -0.036
REMARK UNBOUND:                -0.036
REMARK SMILES O=C([O-])CCC(=O)[O-]
REMARK SMILES IDX 4 1 2 2 1 3 3 4 5 5 6 6 7 7 8 8
REMARK H PARENT
REMARK Flexibility Score: inf
ROOT
ATOM      1  C   UNL     1      27.365 -21.735 712.484  1.00  0.00     0.059 C 
ENDROOT
BRANCH   1   2
ATOM      2  C   UNL     1      27.669 -21.285 711.090  1.00  0.00     0.042 C 
ATOM      3  O   UNL     1      27.752 -22.125 710.157  1.00  0.00    -0.550 OA
ATOM      4  O   UNL     1      27.812 -19.931 710.813  1.00  0.00    -0.550 OA
ENDBRANCH   1   2
BRANCH   1   5
ATOM      5  C   UNL     1      26.658 -20.625 713.263  1.00  0.00     0.059 C 
BRANCH   5   6
ATOM      6  C   UNL     1      26.708 -20.903 714.733  1.00  0.00     0.042 C 
ATOM      7  O   UNL     1      26.535 -22.075 715.162  1.00  0.00    -0.550 OA
ATOM      8  O   UNL     1      26.996 -19.879 715.624  1.00  0.00    -0.550 OA
ENDBRANCH   5   6
ENDBRANCH   1   5
TORSDOF 3
ENDMDL
MODEL 2
REMARK VINA RESULT:    -3.462      0.893      4.006
REMARK INTER + INTRA:          -4.105
REMARK INTER:                  -4.042
REMARK INTRA:                  -0.063
REMARK UNBOUND:                -0.036
REMARK SMILES O=C([O-])CCC(=O)[O-]
REMARK SMILES IDX 4 1 2 2 1 3 3 4 5 5 6 6 7 7 8 8
REMARK H PARENT
REMARK Flexibility Score: inf
ROOT
ATOM      1  C   UNL     1      27.367 -22.060 713.112  1.00  0.00     0.059 C 
ENDROOT
BRANCH   1   2
ATOM      2  C   UNL     1      26.685 -21.471 714.306  1.00  0.00     0.042 C 
ATOM      3  O   UNL     1      26.609 -22.125 715.379  1.00  0.00    -0.550 OA
ATOM      4  O   UNL     1      26.178 -20.178 714.250  1.00  0.00    -0.550 OA
ENDBRANCH   1   2
BRANCH   1   5
ATOM      5  C   UNL     1      28.080 -20.970 712.311  1.00  0.00     0.059 C 
BRANCH   5   6
ATOM      6  C   UNL     1      27.662 -21.018 710.874  1.00  0.00     0.042 C 
ATOM      7  O   UNL     1      27.732 -22.098 710.230  1.00  0.00    -0.550 OA
ATOM      8  O   UNL     1      27.149 -19.883 710.261  1.00  0.00    -0.550 OA
ENDBRANCH   5   6
ENDBRANCH   1   5
TORSDOF 3
ENDMDL
MODEL 3
REMARK VINA RESULT:    -3.115     17.240     18.028
REMARK INTER + INTRA:          -3.697
REMARK INTER:                  -3.643
REMARK INTRA:                  -0.054
REMARK UNBOUND:                -0.036
REMARK SMILES O=C([O-])CCC(=O)[O-]
REMARK SMILES IDX 4 1 2 2 1 3 3 4 5 5 6 6 7 7 8 8
REMARK H PARENT
REMARK Flexibility Score: inf
ROOT
ATOM      1  C   UNL     1      14.556  -9.408 715.895  1.00  0.00     0.059 C 
ENDROOT
BRANCH   1   2
ATOM      2  C   UNL     1      14.352  -9.795 717.325  1.00  0.00     0.042 C 
ATOM      3  O   UNL     1      13.204  -9.740 717.839  1.00  0.00    -0.550 OA
ATOM      4  O   UNL     1      15.421 -10.266 718.078  1.00  0.00    -0.550 OA
ENDBRANCH   1   2
BRANCH   1   5
ATOM      5  C   UNL     1      14.675  -7.888 715.764  1.00  0.00     0.059 C 
BRANCH   5   6
ATOM      6  C   UNL     1      15.888  -7.525 714.966  1.00  0.00     0.042 C 
ATOM      7  O   UNL     1      17.016  -7.455 715.524  1.00  0.00    -0.550 OA
ATOM      8  O   UNL     1      15.782  -7.314 713.598  1.00  0.00    -0.550 OA
ENDBRANCH   5   6
ENDBRANCH   1   5
TORSDOF 3
ENDMDL
MODEL 4
REMARK VINA RESULT:    -3.111     17.254     18.015
REMARK INTER + INTRA:          -3.692
REMARK INTER:                  -3.635
REMARK INTRA:                  -0.057
REMARK UNBOUND:                -0.036
REMARK SMILES O=C([O-])CCC(=O)[O-]
REMARK SMILES IDX 4 1 2 2 1 3 3 4 5 5 6 6 7 7 8 8
REMARK H PARENT
REMARK Flexibility Score: inf
ROOT
ATOM      1  C   UNL     1      14.549  -9.354 715.869  1.00  0.00     0.059 C 
ENDROOT
BRANCH   1   2
ATOM      2  C   UNL     1      14.405  -9.809 717.287  1.00  0.00     0.042 C 
ATOM      3  O   UNL     1      15.411 -10.213 717.928  1.00  0.00    -0.550 OA
ATOM      4  O   UNL     1      13.169  -9.740 717.918  1.00  0.00    -0.550 OA
ENDBRANCH   1   2
BRANCH   1   5
ATOM      5  C   UNL     1      14.757  -7.840 715.812  1.00  0.00     0.059 C 
BRANCH   5   6
ATOM      6  C   UNL     1      15.942  -7.507 714.962  1.00  0.00     0.042 C 
ATOM      7  O   UNL     1      17.083  -7.386 715.484  1.00  0.00    -0.550 OA
ATOM      8  O   UNL     1      15.797  -7.379 713.587  1.00  0.00    -0.550 OA
ENDBRANCH   5   6
ENDBRANCH   1   5
TORSDOF 3
ENDMDL
MODEL 5
REMARK VINA RESULT:    -3.083     17.220     17.673
REMARK INTER + INTRA:          -3.660
REMARK INTER:                  -3.620
REMARK INTRA:                  -0.040
REMARK UNBOUND:                -0.036
REMARK SMILES O=C([O-])CCC(=O)[O-]
REMARK SMILES IDX 4 1 2 2 1 3 3 4 5 5 6 6 7 7 8 8
REMARK H PARENT
REMARK Flexibility Score: inf
ROOT
ATOM      1  C   UNL     1      14.786  -7.846 715.808  1.00  0.00     0.059 C 
ENDROOT
BRANCH   1   2
ATOM      2  C   UNL     1      15.935  -7.501 714.914  1.00  0.00     0.042 C 
ATOM      3  O   UNL     1      15.756  -7.368 713.675  1.00  0.00    -0.550 OA
ATOM      4  O   UNL     1      17.194  -7.275 715.456  1.00  0.00    -0.550 OA
ENDBRANCH   1   2
BRANCH   1   5
ATOM      5  C   UNL     1      14.602  -9.363 715.881  1.00  0.00     0.059 C 
BRANCH   5   6
ATOM      6  C   UNL     1      14.403  -9.798 717.299  1.00  0.00     0.042 C 
ATOM      7  O   UNL     1      13.251  -9.787 717.809  1.00  0.00    -0.550 OA
ATOM      8  O   UNL     1      15.480 -10.263 718.041  1.00  0.00    -0.550 OA
ENDBRANCH   5   6
ENDBRANCH   1   5
TORSDOF 3
ENDMDL
MODEL 6
REMARK VINA RESULT:    -3.080     17.251     17.728
REMARK INTER + INTRA:          -3.656
REMARK INTER:                  -3.577
REMARK INTRA:                  -0.078
REMARK UNBOUND:                -0.036
REMARK SMILES O=C([O-])CCC(=O)[O-]
REMARK SMILES IDX 4 1 2 2 1 3 3 4 5 5 6 6 7 7 8 8
REMARK H PARENT
REMARK Flexibility Score: inf
ROOT
ATOM      1  C   UNL     1      14.646  -7.852 715.771  1.00  0.00     0.059 C 
ENDROOT
BRANCH   1   2
ATOM      2  C   UNL     1      15.859  -7.501 714.969  1.00  0.00     0.042 C 
ATOM      3  O   UNL     1      16.998  -7.513 715.505  1.00  0.00    -0.550 OA
ATOM      4  O   UNL     1      15.738  -7.207 713.616  1.00  0.00    -0.550 OA
ENDBRANCH   1   2
BRANCH   1   5
ATOM      5  C   UNL     1      14.477  -9.371 715.847  1.00  0.00     0.059 C 
BRANCH   5   6
ATOM      6  C   UNL     1      14.411  -9.819 717.273  1.00  0.00     0.042 C 
ATOM      7  O   UNL     1      15.457 -10.190 717.869  1.00  0.00    -0.550 OA
ATOM      8  O   UNL     1      13.205  -9.780 717.959  1.00  0.00    -0.550 OA
ENDBRANCH   5   6
ENDBRANCH   1   5
TORSDOF 3
ENDMDL
MODEL 7
REMARK VINA RESULT:    -2.941     17.227     18.352
REMARK INTER + INTRA:          -3.493
REMARK INTER:                  -3.381
REMARK INTRA:                  -0.113
REMARK UNBOUND:                -0.036
REMARK SMILES O=C([O-])CCC(=O)[O-]
REMARK SMILES IDX 4 1 2 2 1 3 3 4 5 5 6 6 7 7 8 8
REMARK H PARENT
REMARK Flexibility Score: inf
ROOT
ATOM      1  C   UNL     1      14.940  -9.344 716.265  1.00  0.00     0.059 C 
ENDROOT
BRANCH   1   2
ATOM      2  C   UNL     1      14.423  -9.867 717.569  1.00  0.00     0.042 C 
ATOM      3  O   UNL     1      13.192  -9.821 717.826  1.00  0.00    -0.550 OA
ATOM      4  O   UNL     1      15.295 -10.451 718.479  1.00  0.00    -0.550 OA
ENDBRANCH   1   2
BRANCH   1   5
ATOM      5  C   UNL     1      13.929  -8.385 715.635  1.00  0.00     0.059 C 
BRANCH   5   6
ATOM      6  C   UNL     1      13.407  -8.946 714.350  1.00  0.00     0.042 C 
ATOM      7  O   UNL     1      13.996  -8.698 713.264  1.00  0.00    -0.550 OA
ATOM      8  O   UNL     1      12.299  -9.784 714.356  1.00  0.00    -0.550 OA
ENDBRANCH   5   6
ENDBRANCH   1   5
TORSDOF 3
ENDMDL
MODEL 8
REMARK VINA RESULT:    -2.869     17.508     18.762
REMARK INTER + INTRA:          -3.408
REMARK INTER:                  -3.274
REMARK INTRA:                  -0.134
REMARK UNBOUND:                -0.036
REMARK SMILES O=C([O-])CCC(=O)[O-]
REMARK SMILES IDX 4 1 2 2 1 3 3 4 5 5 6 6 7 7 8 8
REMARK H PARENT
REMARK Flexibility Score: inf
ROOT
ATOM      1  C   UNL     1      14.320  -9.405 715.750  1.00  0.00     0.059 C 
ENDROOT
BRANCH   1   2
ATOM      2  C   UNL     1      14.318  -9.772 717.201  1.00  0.00     0.042 C 
ATOM      3  O   UNL     1      13.242  -9.764 717.855  1.00  0.00    -0.550 OA
ATOM      4  O   UNL     1      15.497 -10.172 717.818  1.00  0.00    -0.550 OA
ENDBRANCH   1   2
BRANCH   1   5
ATOM      5  C   UNL     1      15.111  -8.115 715.526  1.00  0.00     0.059 C 
BRANCH   5   6
ATOM      6  C   UNL     1      14.235  -6.920 715.741  1.00  0.00     0.042 C 
ATOM      7  O   UNL     1      14.741  -5.816 716.076  1.00  0.00    -0.550 OA
ATOM      8  O   UNL     1      12.867  -7.013 715.522  1.00  0.00    -0.550 OA
ENDBRANCH   5   6
ENDBRANCH   1   5
TORSDOF 3
ENDMDL
