MODEL 1
REMARK VINA RESULT:    -4.078      0.000      0.000
REMARK INTER + INTRA:          -4.489
REMARK INTER:                  -4.317
REMARK INTRA:                  -0.172
REMARK UNBOUND:                -0.172
REMARK SMILES C=C(C)[C@H]1CC=C(C)CC1
REMARK SMILES IDX 8 1 7 2 6 3 5 4 4 5 10 6 9 7 2 8 1 9 3 10
REMARK H PARENT
REMARK Flexibility Score: inf
ROOT
ATOM      1  C   UNL     1      40.322  20.457  -0.117  1.00  0.00     0.039 C 
ATOM      2  C   UNL     1      41.233  20.131  -1.267  1.00  0.00    -0.077 C 
ATOM      3  C   UNL     1      40.720  19.771  -2.456  1.00  0.00    -0.027 C 
ATOM      4  C   UNL     1      41.646  19.496  -3.608  1.00  0.00     0.035 C 
ATOM      5  C   UNL     1      42.721  20.604  -3.711  1.00  0.00     0.018 C 
ATOM      6  C   UNL     1      43.322  21.023  -2.329  1.00  0.00     0.013 C 
ATOM      7  C   UNL     1      42.734  20.245  -1.137  1.00  0.00     0.031 C 
ENDROOT
BRANCH   5   8
ATOM      8  C   UNL     1      43.808  20.196  -4.695  1.00  0.00    -0.077 C 
ATOM      9  C   UNL     1      44.274  18.937  -4.710  1.00  0.00     0.008 C 
ATOM     10  C   UNL     1      44.398  21.201  -5.652  1.00  0.00     0.039 C 
ENDBRANCH   5   8
TORSDOF 1
ENDMDL
MODEL 2
REMARK VINA RESULT:    -4.032      0.688      2.029
REMARK INTER + INTRA:          -4.439
REMARK INTER:                  -4.268
REMARK INTRA:                  -0.171
REMARK UNBOUND:                -0.172
REMARK SMILES C=C(C)[C@H]1CC=C(C)CC1
REMARK SMILES IDX 8 1 7 2 6 3 5 4 4 5 10 6 9 7 2 8 1 9 3 10
REMARK H PARENT
REMARK Flexibility Score: inf
ROOT
ATOM      1  C   UNL     1      40.265  20.253  -0.117  1.00  0.00     0.039 C 
ATOM      2  C   UNL     1      41.212  20.307  -1.284  1.00  0.00    -0.077 C 
ATOM      3  C   UNL     1      42.495  20.658  -1.098  1.00  0.00    -0.027 C 
ATOM      4  C   UNL     1      43.438  20.661  -2.269  1.00  0.00     0.035 C 
ATOM      5  C   UNL     1      43.266  19.366  -3.100  1.00  0.00     0.018 C 
ATOM      6  C   UNL     1      41.773  18.957  -3.320  1.00  0.00     0.013 C 
ATOM      7  C   UNL     1      40.764  19.926  -2.675  1.00  0.00     0.031 C 
ENDROOT
BRANCH   5   8
ATOM      8  C   UNL     1      44.017  19.482  -4.420  1.00  0.00    -0.077 C 
ATOM      9  C   UNL     1      44.051  20.649  -5.082  1.00  0.00     0.008 C 
ATOM     10  C   UNL     1      44.711  18.286  -5.018  1.00  0.00     0.039 C 
ENDBRANCH   5   8
TORSDOF 1
ENDMDL
MODEL 3
REMARK VINA RESULT:    -3.890      0.933      1.525
REMARK INTER + INTRA:          -4.290
REMARK INTER:                  -4.131
REMARK INTRA:                  -0.159
REMARK UNBOUND:                -0.172
REMARK SMILES C=C(C)[C@H]1CC=C(C)CC1
REMARK SMILES IDX 8 1 7 2 6 3 5 4 4 5 10 6 9 7 2 8 1 9 3 10
REMARK H PARENT
REMARK Flexibility Score: inf
ROOT
ATOM      1  C   UNL     1      40.539  20.600  -0.136  1.00  0.00     0.039 C 
ATOM      2  C   UNL     1      41.523  19.988  -1.094  1.00  0.00    -0.077 C 
ATOM      3  C   UNL     1      41.165  18.938  -1.851  1.00  0.00    -0.027 C 
ATOM      4  C   UNL     1      42.147  18.370  -2.838  1.00  0.00     0.035 C 
ATOM      5  C   UNL     1      42.823  19.508  -3.641  1.00  0.00     0.018 C 
ATOM      6  C   UNL     1      43.242  20.730  -2.760  1.00  0.00     0.013 C 
ATOM      7  C   UNL     1      42.910  20.561  -1.266  1.00  0.00     0.031 C 
ENDROOT
BRANCH   5   8
ATOM      8  C   UNL     1      43.997  18.965  -4.442  1.00  0.00    -0.077 C 
ATOM      9  C   UNL     1      44.527  19.683  -5.444  1.00  0.00     0.008 C 
ATOM     10  C   UNL     1      44.569  17.602  -4.143  1.00  0.00     0.039 C 
ENDBRANCH   5   8
TORSDOF 1
ENDMDL
MODEL 4
REMARK VINA RESULT:    -3.689      1.098      4.422
REMARK INTER + INTRA:          -4.077
REMARK INTER:                  -3.912
REMARK INTRA:                  -0.165
REMARK UNBOUND:                -0.172
REMARK SMILES C=C(C)[C@H]1CC=C(C)CC1
REMARK SMILES IDX 8 1 7 2 6 3 5 4 4 5 10 6 9 7 2 8 1 9 3 10
REMARK H PARENT
REMARK Flexibility Score: inf
ROOT
ATOM      1  C   UNL     1      45.404  18.738  -5.746  1.00  0.00     0.039 C 
ATOM      2  C   UNL     1      44.260  18.965  -4.798  1.00  0.00    -0.077 C 
ATOM      3  C   UNL     1      43.946  18.035  -3.882  1.00  0.00    -0.027 C 
ATOM      4  C   UNL     1      42.828  18.300  -2.911  1.00  0.00     0.035 C 
ATOM      5  C   UNL     1      42.953  19.726  -2.324  1.00  0.00     0.018 C 
ATOM      6  C   UNL     1      43.316  20.812  -3.389  1.00  0.00     0.013 C 
ATOM      7  C   UNL     1      43.470  20.253  -4.816  1.00  0.00     0.031 C 
ENDROOT
BRANCH   5   8
ATOM      8  C   UNL     1      41.692  20.094  -1.555  1.00  0.00    -0.077 C 
ATOM      9  C   UNL     1      41.752  20.936  -0.512  1.00  0.00     0.008 C 
ATOM     10  C   UNL     1      40.359  19.500  -1.934  1.00  0.00     0.039 C 
ENDBRANCH   5   8
TORSDOF 1
ENDMDL
MODEL 5
REMARK VINA RESULT:    -3.582      2.108      4.463
REMARK INTER + INTRA:          -3.963
REMARK INTER:                  -3.800
REMARK INTRA:                  -0.163
REMARK UNBOUND:                -0.172
REMARK SMILES C=C(C)[C@H]1CC=C(C)CC1
REMARK SMILES IDX 8 1 7 2 6 3 5 4 4 5 10 6 9 7 2 8 1 9 3 10
REMARK H PARENT
REMARK Flexibility Score: inf
ROOT
ATOM      1  C   UNL     1      44.341  21.686  -6.125  1.00  0.00     0.039 C 
ATOM      2  C   UNL     1      44.229  20.604  -5.087  1.00  0.00    -0.077 C 
ATOM      3  C   UNL     1      43.612  20.850  -3.919  1.00  0.00    -0.027 C 
ATOM      4  C   UNL     1      43.467  19.743  -2.912  1.00  0.00     0.035 C 
ATOM      5  C   UNL     1      42.983  18.446  -3.605  1.00  0.00     0.018 C 
ATOM      6  C   UNL     1      43.702  18.157  -4.963  1.00  0.00     0.013 C 
ATOM      7  C   UNL     1      44.757  19.212  -5.343  1.00  0.00     0.031 C 
ENDROOT
BRANCH   5   8
ATOM      8  C   UNL     1      43.091  17.265  -2.650  1.00  0.00    -0.077 C 
ATOM      9  C   UNL     1      44.171  16.468  -2.673  1.00  0.00     0.008 C 
ATOM     10  C   UNL     1      41.979  16.955  -1.680  1.00  0.00     0.039 C 
ENDBRANCH   5   8
TORSDOF 1
ENDMDL
MODEL 6
REMARK VINA RESULT:    -3.496      1.215      4.432
REMARK INTER + INTRA:          -3.872
REMARK INTER:                  -3.700
REMARK INTRA:                  -0.172
REMARK UNBOUND:                -0.172
REMARK SMILES C=C(C)[C@H]1CC=C(C)CC1
REMARK SMILES IDX 8 1 7 2 6 3 5 4 4 5 10 6 9 7 2 8 1 9 3 10
REMARK H PARENT
REMARK Flexibility Score: inf
ROOT
ATOM      1  C   UNL     1      44.555  17.687  -5.731  1.00  0.00     0.039 C 
ATOM      2  C   UNL     1      44.148  18.457  -4.505  1.00  0.00    -0.077 C 
ATOM      3  C   UNL     1      43.885  19.771  -4.588  1.00  0.00    -0.027 C 
ATOM      4  C   UNL     1      43.433  20.514  -3.362  1.00  0.00     0.035 C 
ATOM      5  C   UNL     1      42.336  19.711  -2.620  1.00  0.00     0.018 C 
ATOM      6  C   UNL     1      42.642  18.181  -2.520  1.00  0.00     0.013 C 
ATOM      7  C   UNL     1      43.977  17.772  -3.169  1.00  0.00     0.031 C 
ENDROOT
BRANCH   5   8
ATOM      8  C   UNL     1      42.069  20.322  -1.252  1.00  0.00    -0.077 C 
ATOM      9  C   UNL     1      43.087  20.734  -0.481  1.00  0.00     0.008 C 
ATOM     10  C   UNL     1      40.661  20.450  -0.727  1.00  0.00     0.039 C 
ENDBRANCH   5   8
TORSDOF 1
ENDMDL
MODEL 7
REMARK VINA RESULT:    -3.400      6.994      8.845
REMARK INTER + INTRA:          -3.771
REMARK INTER:                  -3.613
REMARK INTRA:                  -0.158
REMARK UNBOUND:                -0.172
REMARK SMILES C=C(C)[C@H]1CC=C(C)CC1
REMARK SMILES IDX 8 1 7 2 6 3 5 4 4 5 10 6 9 7 2 8 1 9 3 10
REMARK H PARENT
REMARK Flexibility Score: inf
ROOT
ATOM      1  C   UNL     1      47.753  10.890  -0.947  1.00  0.00     0.039 C 
ATOM      2  C   UNL     1      48.090  12.163  -1.672  1.00  0.00    -0.077 C 
ATOM      3  C   UNL     1      48.893  12.135  -2.749  1.00  0.00    -0.027 C 
ATOM      4  C   UNL     1      49.181  13.411  -3.490  1.00  0.00     0.035 C 
ATOM      5  C   UNL     1      47.874  14.209  -3.715  1.00  0.00     0.018 C 
ATOM      6  C   UNL     1      46.940  14.245  -2.461  1.00  0.00     0.013 C 
ATOM      7  C   UNL     1      47.505  13.488  -1.245  1.00  0.00     0.031 C 
ENDROOT
BRANCH   5   8
ATOM      8  C   UNL     1      48.191  15.610  -4.219  1.00  0.00    -0.077 C 
ATOM      9  C   UNL     1      47.218  16.527  -4.334  1.00  0.00     0.008 C 
ATOM     10  C   UNL     1      49.594  15.984  -4.623  1.00  0.00     0.039 C 
ENDBRANCH   5   8
TORSDOF 1
ENDMDL
MODEL 8
REMARK VINA RESULT:    -3.360     20.500     21.928
REMARK INTER + INTRA:          -3.729
REMARK INTER:                  -3.560
REMARK INTRA:                  -0.169
REMARK UNBOUND:                -0.172
REMARK SMILES C=C(C)[C@H]1CC=C(C)CC1
REMARK SMILES IDX 8 1 7 2 6 3 5 4 4 5 10 6 9 7 2 8 1 9 3 10
REMARK H PARENT
REMARK Flexibility Score: inf
ROOT
ATOM      1  C   UNL     1      53.004  24.749  12.689  1.00  0.00     0.039 C 
ATOM      2  C   UNL     1      54.497  24.750  12.861  1.00  0.00    -0.077 C 
ATOM      3  C   UNL     1      55.292  24.324  11.865  1.00  0.00    -0.027 C 
ATOM      4  C   UNL     1      56.785  24.378  12.037  1.00  0.00     0.035 C 
ATOM      5  C   UNL     1      57.210  25.746  12.623  1.00  0.00     0.018 C 
ATOM      6  C   UNL     1      56.288  26.243  13.784  1.00  0.00     0.013 C 
ATOM      7  C   UNL     1      55.141  25.271  14.124  1.00  0.00     0.031 C 
ENDROOT
BRANCH   5   8
ATOM      8  C   UNL     1      58.672  25.708  13.045  1.00  0.00    -0.077 C 
ATOM      9  C   UNL     1      59.236  24.557  13.442  1.00  0.00     0.008 C 
ATOM     10  C   UNL     1      59.505  26.965  13.050  1.00  0.00     0.039 C 
ENDBRANCH   5   8
TORSDOF 1
ENDMDL
MODEL 9
REMARK VINA RESULT:    -3.291      7.376      9.480
REMARK INTER + INTRA:          -3.656
REMARK INTER:                  -3.497
REMARK INTRA:                  -0.159
REMARK UNBOUND:                -0.172
REMARK SMILES C=C(C)[C@H]1CC=C(C)CC1
REMARK SMILES IDX 8 1 7 2 6 3 5 4 4 5 10 6 9 7 2 8 1 9 3 10
REMARK H PARENT
REMARK Flexibility Score: inf
ROOT
ATOM      1  C   UNL     1      49.297  17.237  -5.746  1.00  0.00     0.039 C 
ATOM      2  C   UNL     1      49.144  16.132  -4.738  1.00  0.00    -0.077 C 
ATOM      3  C   UNL     1      47.956  15.910  -4.152  1.00  0.00    -0.027 C 
ATOM      4  C   UNL     1      47.810  14.770  -3.183  1.00  0.00     0.035 C 
ATOM      5  C   UNL     1      48.463  13.489  -3.757  1.00  0.00     0.018 C 
ATOM      6  C   UNL     1      49.848  13.744  -4.437  1.00  0.00     0.013 C 
ATOM      7  C   UNL     1      50.297  15.217  -4.396  1.00  0.00     0.031 C 
ENDROOT
BRANCH   5   8
ATOM      8  C   UNL     1      48.555  12.416  -2.681  1.00  0.00    -0.077 C 
ATOM      9  C   UNL     1      49.284  11.309  -2.887  1.00  0.00     0.008 C 
ATOM     10  C   UNL     1      47.810  12.565  -1.379  1.00  0.00     0.039 C 
ENDBRANCH   5   8
TORSDOF 1
ENDMDL
