MODEL 1
REMARK VINA RESULT:    -3.323      0.000      0.000
REMARK INTER + INTRA:          -5.812
REMARK INTER:                  -5.071
REMARK INTRA:                  -0.741
REMARK UNBOUND:                -0.741
REMARK SMILES O=C([O-])CCCCCCCCC(=O)[O-]
REMARK SMILES IDX 7 1 6 2 5 3 4 4 2 5 1 6 3 7 8 8 9 9 10 10 11 11 12 12 13 13
REMARK SMILES IDX 14 14
REMARK H PARENT
REMARK Flexibility Score: inf
ROOT
ATOM      1  C   UNL     1       4.536   9.674  -5.774  1.00  0.00     0.000 C 
ENDROOT
BRANCH   1   2
ATOM      2  C   UNL     1       5.655   8.944  -6.534  1.00  0.00     0.000 C 
BRANCH   2   3
ATOM      3  C   UNL     1       7.029   9.116  -5.870  1.00  0.00     0.006 C 
BRANCH   3   4
ATOM      4  C   UNL     1       8.089   9.514  -6.901  1.00  0.00     0.053 C 
BRANCH   4   5
ATOM      5  C   UNL     1       8.611   8.305  -7.611  1.00  0.00     0.041 C 
ATOM      6  O   UNL     1       8.232   8.047  -8.784  1.00  0.00    -0.550 OA
ATOM      7  O   UNL     1       9.477   7.436  -6.960  1.00  0.00    -0.550 OA
ENDBRANCH   4   5
ENDBRANCH   3   4
ENDBRANCH   2   3
ENDBRANCH   1   2
BRANCH   1   8
ATOM      8  C   UNL     1       4.635   9.483  -4.249  1.00  0.00     0.000 C 
BRANCH   8   9
ATOM      9  C   UNL     1       3.940   8.199  -3.768  1.00  0.00     0.000 C 
BRANCH   9  10
ATOM     10  C   UNL     1       4.889   7.271  -2.991  1.00  0.00     0.006 C 
BRANCH  10  11
ATOM     11  C   UNL     1       6.124   8.015  -2.464  1.00  0.00     0.053 C 
BRANCH  11  12
ATOM     12  C   UNL     1       7.362   7.178  -2.565  1.00  0.00     0.041 C 
ATOM     13  O   UNL     1       7.392   6.179  -3.330  1.00  0.00    -0.550 OA
ATOM     14  O   UNL     1       8.474   7.486  -1.792  1.00  0.00    -0.550 OA
ENDBRANCH  11  12
ENDBRANCH  10  11
ENDBRANCH   9  10
ENDBRANCH   8   9
ENDBRANCH   1   8
TORSDOF 9
ENDMDL
MODEL 2
REMARK VINA RESULT:    -3.291      2.375      3.506
REMARK INTER + INTRA:          -5.763
REMARK INTER:                  -5.092
REMARK INTRA:                  -0.670
REMARK UNBOUND:                -0.741
REMARK SMILES O=C([O-])CCCCCCCCC(=O)[O-]
REMARK SMILES IDX 7 1 6 2 5 3 4 4 2 5 1 6 3 7 8 8 9 9 10 10 11 11 12 12 13 13
REMARK SMILES IDX 14 14
REMARK H PARENT
REMARK Flexibility Score: inf
ROOT
ATOM      1  C   UNL     1       4.600   8.824  -2.655  1.00  0.00     0.000 C 
ENDROOT
BRANCH   1   2
ATOM      2  C   UNL     1       4.528   8.338  -4.112  1.00  0.00     0.000 C 
BRANCH   2   3
ATOM      3  C   UNL     1       4.547   9.495  -5.122  1.00  0.00     0.006 C 
BRANCH   3   4
ATOM      4  C   UNL     1       5.001   9.009  -6.502  1.00  0.00     0.053 C 
BRANCH   4   5
ATOM      5  C   UNL     1       3.893   9.149  -7.498  1.00  0.00     0.041 C 
ATOM      6  O   UNL     1       2.693   9.054  -7.128  1.00  0.00    -0.550 OA
ATOM      7  O   UNL     1       4.186   9.332  -8.843  1.00  0.00    -0.550 OA
ENDBRANCH   4   5
ENDBRANCH   3   4
ENDBRANCH   2   3
ENDBRANCH   1   2
BRANCH   1   8
ATOM      8  C   UNL     1       5.560  10.015  -2.477  1.00  0.00     0.000 C 
BRANCH   8   9
ATOM      9  C   UNL     1       6.683   9.724  -1.471  1.00  0.00     0.000 C 
BRANCH   9  10
ATOM     10  C   UNL     1       7.960   9.197  -2.149  1.00  0.00     0.006 C 
BRANCH  10  11
ATOM     11  C   UNL     1       8.201   7.710  -1.851  1.00  0.00     0.053 C 
BRANCH  11  12
ATOM     12  C   UNL     1       8.070   6.869  -3.083  1.00  0.00     0.041 C 
ATOM     13  O   UNL     1       7.050   6.151  -3.256  1.00  0.00    -0.550 OA
ATOM     14  O   UNL     1       9.088   6.856  -4.028  1.00  0.00    -0.550 OA
ENDBRANCH  11  12
ENDBRANCH  10  11
ENDBRANCH   9  10
ENDBRANCH   8   9
ENDBRANCH   1   8
TORSDOF 9
ENDMDL
MODEL 3
REMARK VINA RESULT:    -3.258      2.391      5.015
REMARK INTER + INTRA:          -5.712
REMARK INTER:                  -5.089
REMARK INTRA:                  -0.624
REMARK UNBOUND:                -0.741
REMARK SMILES O=C([O-])CCCCCCCCC(=O)[O-]
REMARK SMILES IDX 7 1 6 2 5 3 4 4 2 5 1 6 3 7 8 8 9 9 10 10 11 11 12 12 13 13
REMARK SMILES IDX 14 14
REMARK H PARENT
REMARK Flexibility Score: inf
ROOT
ATOM      1  C   UNL     1       4.839   9.455  -2.316  1.00  0.00     0.000 C 
ENDROOT
BRANCH   1   2
ATOM      2  C   UNL     1       6.371   9.472  -2.438  1.00  0.00     0.000 C 
BRANCH   2   3
ATOM      3  C   UNL     1       7.054   8.536  -1.430  1.00  0.00     0.006 C 
BRANCH   3   4
ATOM      4  C   UNL     1       8.336   7.940  -2.019  1.00  0.00     0.053 C 
BRANCH   4   5
ATOM      5  C   UNL     1       8.030   7.155  -3.256  1.00  0.00     0.041 C 
ATOM      6  O   UNL     1       7.225   6.187  -3.209  1.00  0.00    -0.550 OA
ATOM      7  O   UNL     1       8.672   7.458  -4.449  1.00  0.00    -0.550 OA
ENDBRANCH   4   5
ENDBRANCH   3   4
ENDBRANCH   2   3
ENDBRANCH   1   2
BRANCH   1   8
ATOM      8  C   UNL     1       4.154   8.853  -3.557  1.00  0.00     0.000 C 
BRANCH   8   9
ATOM      9  C   UNL     1       5.130   8.636  -4.724  1.00  0.00     0.000 C 
BRANCH   9  10
ATOM     10  C   UNL     1       4.975   9.698  -5.827  1.00  0.00     0.006 C 
BRANCH  10  11
ATOM     11  C   UNL     1       5.071   9.089  -7.233  1.00  0.00     0.053 C 
BRANCH  11  12
ATOM     12  C   UNL     1       3.725   8.960  -7.876  1.00  0.00     0.041 C 
ATOM     13  O   UNL     1       2.680   8.998  -7.174  1.00  0.00    -0.550 OA
ATOM     14  O   UNL     1       3.625   8.770  -9.248  1.00  0.00    -0.550 OA
ENDBRANCH  11  12
ENDBRANCH  10  11
ENDBRANCH   9  10
ENDBRANCH   8   9
ENDBRANCH   1   8
TORSDOF 9
ENDMDL
MODEL 4
REMARK VINA RESULT:    -3.235      1.645      2.698
REMARK INTER + INTRA:          -5.678
REMARK INTER:                  -4.980
REMARK INTRA:                  -0.698
REMARK UNBOUND:                -0.741
REMARK SMILES O=C([O-])CCCCCCCCC(=O)[O-]
REMARK SMILES IDX 7 1 6 2 5 3 4 4 2 5 1 6 3 7 8 8 9 9 10 10 11 11 12 12 13 13
REMARK SMILES IDX 14 14
REMARK H PARENT
REMARK Flexibility Score: inf
ROOT
ATOM      1  C   UNL     1       4.488   9.220  -2.910  1.00  0.00     0.000 C 
ENDROOT
BRANCH   1   2
ATOM      2  C   UNL     1       4.501   9.846  -4.315  1.00  0.00     0.000 C 
BRANCH   2   3
ATOM      3  C   UNL     1       4.771   8.813  -5.419  1.00  0.00     0.006 C 
BRANCH   3   4
ATOM      4  C   UNL     1       6.181   8.981  -5.992  1.00  0.00     0.053 C 
BRANCH   4   5
ATOM      5  C   UNL     1       6.176   8.756  -7.472  1.00  0.00     0.041 C 
ATOM      6  O   UNL     1       7.216   8.351  -8.054  1.00  0.00    -0.550 OA
ATOM      7  O   UNL     1       5.038   9.043  -8.215  1.00  0.00    -0.550 OA
ENDBRANCH   4   5
ENDBRANCH   3   4
ENDBRANCH   2   3
ENDBRANCH   1   2
BRANCH   1   8
ATOM      8  C   UNL     1       5.462   9.918  -1.944  1.00  0.00     0.000 C 
BRANCH   8   9
ATOM      9  C   UNL     1       6.930   9.555  -2.218  1.00  0.00     0.000 C 
BRANCH   9  10
ATOM     10  C   UNL     1       7.466   8.492  -1.244  1.00  0.00     0.006 C 
BRANCH  10  11
ATOM     11  C   UNL     1       8.504   7.573  -1.903  1.00  0.00     0.053 C 
BRANCH  11  12
ATOM     12  C   UNL     1       8.028   7.056  -3.226  1.00  0.00     0.041 C 
ATOM     13  O   UNL     1       7.003   6.328  -3.292  1.00  0.00    -0.550 OA
ATOM     14  O   UNL     1       8.733   7.357  -4.384  1.00  0.00    -0.550 OA
ENDBRANCH  11  12
ENDBRANCH  10  11
ENDBRANCH   9  10
ENDBRANCH   8   9
ENDBRANCH   1   8
TORSDOF 9
ENDMDL
MODEL 5
REMARK VINA RESULT:    -3.224      1.381      4.932
REMARK INTER + INTRA:          -5.661
REMARK INTER:                  -5.107
REMARK INTRA:                  -0.553
REMARK UNBOUND:                -0.741
REMARK SMILES O=C([O-])CCCCCCCCC(=O)[O-]
REMARK SMILES IDX 7 1 6 2 5 3 4 4 2 5 1 6 3 7 8 8 9 9 10 10 11 11 12 12 13 13
REMARK SMILES IDX 14 14
REMARK H PARENT
REMARK Flexibility Score: inf
ROOT
ATOM      1  C   UNL     1       5.797   8.970  -6.212  1.00  0.00     0.000 C 
ENDROOT
BRANCH   1   2
ATOM      2  C   UNL     1       4.416   8.914  -5.539  1.00  0.00     0.000 C 
BRANCH   2   3
ATOM      3  C   UNL     1       4.508   8.841  -4.008  1.00  0.00     0.006 C 
BRANCH   3   4
ATOM      4  C   UNL     1       5.913   8.426  -3.563  1.00  0.00     0.053 C 
BRANCH   4   5
ATOM      5  C   UNL     1       5.924   6.995  -3.128  1.00  0.00     0.041 C 
ATOM      6  O   UNL     1       6.967   6.301  -3.260  1.00  0.00    -0.550 OA
ATOM      7  O   UNL     1       4.770   6.412  -2.622  1.00  0.00    -0.550 OA
ENDBRANCH   4   5
ENDBRANCH   3   4
ENDBRANCH   2   3
ENDBRANCH   1   2
BRANCH   1   8
ATOM      8  C   UNL     1       5.707   8.946  -7.749  1.00  0.00     0.000 C 
BRANCH   8   9
ATOM      9  C   UNL     1       6.872   9.688  -8.421  1.00  0.00     0.000 C 
BRANCH   9  10
ATOM     10  C   UNL     1       7.988   8.737  -8.887  1.00  0.00     0.006 C 
BRANCH  10  11
ATOM     11  C   UNL     1       9.278   8.917  -8.075  1.00  0.00     0.053 C 
BRANCH  11  12
ATOM     12  C   UNL     1       9.508   7.775  -7.135  1.00  0.00     0.041 C 
ATOM     13  O   UNL     1      10.042   6.711  -7.546  1.00  0.00    -0.550 OA
ATOM     14  O   UNL     1       9.106   7.874  -5.809  1.00  0.00    -0.550 OA
ENDBRANCH  11  12
ENDBRANCH  10  11
ENDBRANCH   9  10
ENDBRANCH   8   9
ENDBRANCH   1   8
TORSDOF 9
ENDMDL
MODEL 6
REMARK VINA RESULT:    -3.213     14.302     16.040
REMARK INTER + INTRA:          -5.644
REMARK INTER:                  -5.214
REMARK INTRA:                  -0.430
REMARK UNBOUND:                -0.741
REMARK SMILES O=C([O-])CCCCCCCCC(=O)[O-]
REMARK SMILES IDX 7 1 6 2 5 3 4 4 2 5 1 6 3 7 8 8 9 9 10 10 11 11 12 12 13 13
REMARK SMILES IDX 14 14
REMARK H PARENT
REMARK Flexibility Score: inf
ROOT
ATOM      1  C   UNL     1      -7.124   1.600  -3.536  1.00  0.00     0.000 C 
ENDROOT
BRANCH   1   2
ATOM      2  C   UNL     1      -7.013   2.581  -2.357  1.00  0.00     0.000 C 
BRANCH   2   3
ATOM      3  C   UNL     1      -5.624   2.561  -1.701  1.00  0.00     0.006 C 
BRANCH   3   4
ATOM      4  C   UNL     1      -5.678   3.151  -0.289  1.00  0.00     0.053 C 
BRANCH   4   5
ATOM      5  C   UNL     1      -5.248   2.134   0.721  1.00  0.00     0.041 C 
ATOM      6  O   UNL     1      -4.854   0.998   0.348  1.00  0.00    -0.550 OA
ATOM      7  O   UNL     1      -5.329   2.423   2.077  1.00  0.00    -0.550 OA
ENDBRANCH   4   5
ENDBRANCH   3   4
ENDBRANCH   2   3
ENDBRANCH   1   2
BRANCH   1   8
ATOM      8  C   UNL     1      -8.470   1.714  -4.274  1.00  0.00     0.000 C 
BRANCH   8   9
ATOM      9  C   UNL     1      -9.129   3.090  -4.094  1.00  0.00     0.000 C 
BRANCH   9  10
ATOM     10  C   UNL     1      -9.765   3.614  -5.393  1.00  0.00     0.006 C 
BRANCH  10  11
ATOM     11  C   UNL     1      -9.039   4.855  -5.933  1.00  0.00     0.053 C 
BRANCH  11  12
ATOM     12  C   UNL     1      -8.251   4.543  -7.168  1.00  0.00     0.041 C 
ATOM     13  O   UNL     1      -8.166   3.358  -7.585  1.00  0.00    -0.550 OA
ATOM     14  O   UNL     1      -7.585   5.559  -7.842  1.00  0.00    -0.550 OA
ENDBRANCH  11  12
ENDBRANCH  10  11
ENDBRANCH   9  10
ENDBRANCH   8   9
ENDBRANCH   1   8
TORSDOF 9
ENDMDL
MODEL 7
REMARK VINA RESULT:    -3.060     14.549     16.157
REMARK INTER + INTRA:          -5.410
REMARK INTER:                  -4.806
REMARK INTRA:                  -0.605
REMARK UNBOUND:                -0.741
REMARK SMILES O=C([O-])CCCCCCCCC(=O)[O-]
REMARK SMILES IDX 7 1 6 2 5 3 4 4 2 5 1 6 3 7 8 8 9 9 10 10 11 11 12 12 13 13
REMARK SMILES IDX 14 14
REMARK H PARENT
REMARK Flexibility Score: inf
ROOT
ATOM      1  C   UNL     1      -9.458   0.447  -5.253  1.00  0.00     0.000 C 
ENDROOT
BRANCH   1   2
ATOM      2  C   UNL     1      -9.419  -0.089  -6.694  1.00  0.00     0.000 C 
BRANCH   2   3
ATOM      3  C   UNL     1     -10.073   0.871  -7.699  1.00  0.00     0.006 C 
BRANCH   3   4
ATOM      4  C   UNL     1      -9.293   0.899  -9.016  1.00  0.00     0.053 C 
BRANCH   4   5
ATOM      5  C   UNL     1      -7.997   1.626  -8.843  1.00  0.00     0.041 C 
ATOM      6  O   UNL     1      -7.981   2.782  -8.346  1.00  0.00    -0.550 OA
ATOM      7  O   UNL     1      -6.812   1.047  -9.278  1.00  0.00    -0.550 OA
ENDBRANCH   4   5
ENDBRANCH   3   4
ENDBRANCH   2   3
ENDBRANCH   1   2
BRANCH   1   8
ATOM      8  C   UNL     1      -9.499   1.985  -5.196  1.00  0.00     0.000 C 
BRANCH   8   9
ATOM      9  C   UNL     1      -8.527   2.564  -4.157  1.00  0.00     0.000 C 
BRANCH   9  10
ATOM     10  C   UNL     1      -7.407   1.578  -3.783  1.00  0.00     0.006 C 
BRANCH  10  11
ATOM     11  C   UNL     1      -6.468   2.147  -2.710  1.00  0.00     0.053 C 
BRANCH  11  12
ATOM     12  C   UNL     1      -5.151   1.434  -2.689  1.00  0.00     0.041 C 
ATOM     13  O   UNL     1      -4.697   0.972  -1.609  1.00  0.00    -0.550 OA
ATOM     14  O   UNL     1      -4.412   1.304  -3.858  1.00  0.00    -0.550 OA
ENDBRANCH  11  12
ENDBRANCH  10  11
ENDBRANCH   9  10
ENDBRANCH   8   9
ENDBRANCH   1   8
TORSDOF 9
ENDMDL
MODEL 8
REMARK VINA RESULT:    -3.026      1.192      4.826
REMARK INTER + INTRA:          -5.358
REMARK INTER:                  -4.712
REMARK INTRA:                  -0.646
REMARK UNBOUND:                -0.741
REMARK SMILES O=C([O-])CCCCCCCCC(=O)[O-]
REMARK SMILES IDX 7 1 6 2 5 3 4 4 2 5 1 6 3 7 8 8 9 9 10 10 11 11 12 12 13 13
REMARK SMILES IDX 14 14
REMARK H PARENT
REMARK Flexibility Score: inf
ROOT
ATOM      1  C   UNL     1       4.587   8.925  -5.325  1.00  0.00     0.000 C 
ENDROOT
BRANCH   1   2
ATOM      2  C   UNL     1       4.706   9.768  -4.045  1.00  0.00     0.000 C 
BRANCH   2   3
ATOM      3  C   UNL     1       4.491   8.939  -2.770  1.00  0.00     0.006 C 
BRANCH   3   4
ATOM      4  C   UNL     1       4.905   7.481  -2.988  1.00  0.00     0.053 C 
BRANCH   4   5
ATOM      5  C   UNL     1       6.349   7.289  -2.650  1.00  0.00     0.041 C 
ATOM      6  O   UNL     1       6.906   8.037  -1.804  1.00  0.00    -0.550 OA
ATOM      7  O   UNL     1       7.094   6.318  -3.306  1.00  0.00    -0.550 OA
ENDBRANCH   4   5
ENDBRANCH   3   4
ENDBRANCH   2   3
ENDBRANCH   1   2
BRANCH   1   8
ATOM      8  C   UNL     1       4.459   9.790  -6.592  1.00  0.00     0.000 C 
BRANCH   8   9
ATOM      9  C   UNL     1       4.975   9.075  -7.851  1.00  0.00     0.000 C 
BRANCH   9  10
ATOM     10  C   UNL     1       6.173   9.798  -8.491  1.00  0.00     0.006 C 
BRANCH  10  11
ATOM     11  C   UNL     1       7.342   9.962  -7.509  1.00  0.00     0.053 C 
BRANCH  11  12
ATOM     12  C   UNL     1       7.993   8.650  -7.197  1.00  0.00     0.041 C 
ATOM     13  O   UNL     1       8.023   8.221  -6.014  1.00  0.00    -0.550 OA
ATOM     14  O   UNL     1       8.593   7.914  -8.211  1.00  0.00    -0.550 OA
ENDBRANCH  11  12
ENDBRANCH  10  11
ENDBRANCH   9  10
ENDBRANCH   8   9
ENDBRANCH   1   8
TORSDOF 9
ENDMDL
MODEL 9
REMARK VINA RESULT:    -3.021      2.297      4.843
REMARK INTER + INTRA:          -5.351
REMARK INTER:                  -4.610
REMARK INTRA:                  -0.740
REMARK UNBOUND:                -0.741
REMARK SMILES O=C([O-])CCCCCCCCC(=O)[O-]
REMARK SMILES IDX 7 1 6 2 5 3 4 4 2 5 1 6 3 7 8 8 9 9 10 10 11 11 12 12 13 13
REMARK SMILES IDX 14 14
REMARK H PARENT
REMARK Flexibility Score: inf
ROOT
ATOM      1  C   UNL     1       5.596   7.498  -2.576  1.00  0.00     0.000 C 
ENDROOT
BRANCH   1   2
ATOM      2  C   UNL     1       6.348   8.689  -1.958  1.00  0.00     0.000 C 
BRANCH   2   3
ATOM      3  C   UNL     1       7.830   8.381  -1.700  1.00  0.00     0.006 C 
BRANCH   3   4
ATOM      4  C   UNL     1       8.585   8.179  -3.017  1.00  0.00     0.053 C 
BRANCH   4   5
ATOM      5  C   UNL     1       9.149   6.795  -3.092  1.00  0.00     0.041 C 
ATOM      6  O   UNL     1       8.908   5.963  -2.178  1.00  0.00    -0.550 OA
ATOM      7  O   UNL     1       9.981   6.439  -4.145  1.00  0.00    -0.550 OA
ENDBRANCH   4   5
ENDBRANCH   3   4
ENDBRANCH   2   3
ENDBRANCH   1   2
BRANCH   1   8
ATOM      8  C   UNL     1       4.685   7.917  -3.744  1.00  0.00     0.000 C 
BRANCH   8   9
ATOM      9  C   UNL     1       4.465   9.437  -3.807  1.00  0.00     0.000 C 
BRANCH   9  10
ATOM     10  C   UNL     1       5.013  10.058  -5.104  1.00  0.00     0.006 C 
BRANCH  10  11
ATOM     11  C   UNL     1       5.213   9.010  -6.208  1.00  0.00     0.053 C 
BRANCH  11  12
ATOM     12  C   UNL     1       4.179   9.132  -7.284  1.00  0.00     0.041 C 
ATOM     13  O   UNL     1       4.524   9.342  -8.476  1.00  0.00    -0.550 OA
ATOM     14  O   UNL     1       2.830   9.042  -6.964  1.00  0.00    -0.550 OA
ENDBRANCH  11  12
ENDBRANCH  10  11
ENDBRANCH   9  10
ENDBRANCH   8   9
ENDBRANCH   1   8
TORSDOF 9
ENDMDL
