MODEL 1
REMARK VINA RESULT:    -4.589      0.000      0.000
REMARK INTER + INTRA:          -6.707
REMARK INTER:                  -6.467
REMARK INTRA:                  -0.240
REMARK UNBOUND:                -0.240
REMARK SMILES CCCCCCCCC(=O)[O-]
REMARK SMILES IDX 6 1 7 2 8 3 9 4 10 5 11 6 5 7 4 8 3 9 2 10 1 11
REMARK H PARENT
REMARK Flexibility Score: inf
ROOT
ATOM      1  C   UNL     1      -9.496  36.354   5.738  1.00  0.00     0.000 C 
ENDROOT
BRANCH   1   2
ATOM      2  C   UNL     1      -8.957  35.005   6.248  1.00  0.00     0.006 C 
BRANCH   2   3
ATOM      3  C   UNL     1      -7.862  34.383   5.365  1.00  0.00     0.053 C 
BRANCH   3   4
ATOM      4  C   UNL     1      -7.225  33.193   6.013  1.00  0.00     0.041 C 
ATOM      5  O   UNL     1      -7.933  32.345   6.616  1.00  0.00    -0.550 OA
ATOM      6  O   UNL     1      -5.844  33.038   5.980  1.00  0.00    -0.550 OA
ENDBRANCH   3   4
ENDBRANCH   2   3
ENDBRANCH   1   2
BRANCH   1   7
ATOM      7  C   UNL     1      -8.480  37.498   5.899  1.00  0.00     0.000 C 
BRANCH   7   8
ATOM      8  C   UNL     1      -9.151  38.862   6.147  1.00  0.00    -0.000 C 
BRANCH   8   9
ATOM      9  C   UNL     1     -10.582  39.004   5.589  1.00  0.00    -0.000 C 
BRANCH   9  10
ATOM     10  C   UNL     1     -11.667  39.292   6.642  1.00  0.00    -0.003 C 
ATOM     11  C   UNL     1     -12.687  40.331   6.177  1.00  0.00     0.004 C 
ENDBRANCH   9  10
ENDBRANCH   8   9
ENDBRANCH   7   8
ENDBRANCH   1   7
TORSDOF 7
ENDMDL
MODEL 2
REMARK VINA RESULT:    -4.557      2.573      2.956
REMARK INTER + INTRA:          -6.662
REMARK INTER:                  -5.991
REMARK INTRA:                  -0.671
REMARK UNBOUND:                -0.240
REMARK SMILES CCCCCCCCC(=O)[O-]
REMARK SMILES IDX 6 1 7 2 8 3 9 4 10 5 11 6 5 7 4 8 3 9 2 10 1 11
REMARK H PARENT
REMARK Flexibility Score: inf
ROOT
ATOM      1  C   UNL     1      -8.868  36.591   5.417  1.00  0.00     0.000 C 
ENDROOT
BRANCH   1   2
ATOM      2  C   UNL     1      -8.679  35.350   6.309  1.00  0.00     0.006 C 
BRANCH   2   3
ATOM      3  C   UNL     1      -9.988  34.752   6.852  1.00  0.00     0.053 C 
BRANCH   3   4
ATOM      4  C   UNL     1     -10.733  35.721   7.717  1.00  0.00     0.041 C 
ATOM      5  O   UNL     1     -11.964  35.914   7.537  1.00  0.00    -0.550 OA
ATOM      6  O   UNL     1     -10.060  36.437   8.699  1.00  0.00    -0.550 OA
ENDBRANCH   3   4
ENDBRANCH   2   3
ENDBRANCH   1   2
BRANCH   1   7
ATOM      7  C   UNL     1      -8.110  37.822   5.945  1.00  0.00     0.000 C 
BRANCH   7   8
ATOM      8  C   UNL     1      -9.051  38.958   6.386  1.00  0.00    -0.000 C 
BRANCH   8   9
ATOM      9  C   UNL     1     -10.451  38.944   5.739  1.00  0.00    -0.000 C 
BRANCH   9  10
ATOM     10  C   UNL     1     -11.611  39.292   6.688  1.00  0.00    -0.003 C 
ATOM     11  C   UNL     1     -12.567  40.332   6.104  1.00  0.00     0.004 C 
ENDBRANCH   9  10
ENDBRANCH   8   9
ENDBRANCH   7   8
ENDBRANCH   1   7
TORSDOF 7
ENDMDL
MODEL 3
REMARK VINA RESULT:    -4.478      3.594      6.472
REMARK INTER + INTRA:          -6.550
REMARK INTER:                  -6.288
REMARK INTRA:                  -0.263
REMARK UNBOUND:                -0.240
REMARK SMILES CCCCCCCCC(=O)[O-]
REMARK SMILES IDX 6 1 7 2 8 3 9 4 10 5 11 6 5 7 4 8 3 9 2 10 1 11
REMARK H PARENT
REMARK Flexibility Score: inf
ROOT
ATOM      1  C   UNL     1      -8.341  37.573   5.965  1.00  0.00     0.000 C 
ENDROOT
BRANCH   1   2
ATOM      2  C   UNL     1      -9.140  38.871   6.177  1.00  0.00     0.006 C 
BRANCH   2   3
ATOM      3  C   UNL     1     -10.510  38.895   5.478  1.00  0.00     0.053 C 
BRANCH   3   4
ATOM      4  C   UNL     1     -11.602  39.354   6.394  1.00  0.00     0.041 C 
ATOM      5  O   UNL     1     -12.313  40.346   6.086  1.00  0.00    -0.550 OA
ATOM      6  O   UNL     1     -11.811  38.707   7.606  1.00  0.00    -0.550 OA
ENDBRANCH   3   4
ENDBRANCH   2   3
ENDBRANCH   1   2
BRANCH   1   7
ATOM      7  C   UNL     1      -9.240  36.367   5.642  1.00  0.00     0.000 C 
BRANCH   7   8
ATOM      8  C   UNL     1      -8.662  35.036   6.158  1.00  0.00    -0.000 C 
BRANCH   8   9
ATOM      9  C   UNL     1      -7.742  34.290   5.170  1.00  0.00    -0.000 C 
BRANCH   9  10
ATOM     10  C   UNL     1      -6.588  33.506   5.820  1.00  0.00    -0.003 C 
ATOM     11  C   UNL     1      -7.059  32.245   6.545  1.00  0.00     0.004 C 
ENDBRANCH   9  10
ENDBRANCH   8   9
ENDBRANCH   7   8
ENDBRANCH   1   7
TORSDOF 7
ENDMDL
MODEL 4
REMARK VINA RESULT:    -4.462      1.730      2.950
REMARK INTER + INTRA:          -6.528
REMARK INTER:                  -5.760
REMARK INTRA:                  -0.767
REMARK UNBOUND:                -0.240
REMARK SMILES CCCCCCCCC(=O)[O-]
REMARK SMILES IDX 6 1 7 2 8 3 9 4 10 5 11 6 5 7 4 8 3 9 2 10 1 11
REMARK H PARENT
REMARK Flexibility Score: inf
ROOT
ATOM      1  C   UNL     1      -9.074  38.748   6.135  1.00  0.00     0.000 C 
ENDROOT
BRANCH   1   2
ATOM      2  C   UNL     1      -8.404  37.398   5.819  1.00  0.00     0.006 C 
BRANCH   2   3
ATOM      3  C   UNL     1      -9.379  36.214   5.714  1.00  0.00     0.053 C 
BRANCH   3   4
ATOM      4  C   UNL     1      -8.737  34.920   6.108  1.00  0.00     0.041 C 
ATOM      5  O   UNL     1      -7.572  34.646   5.718  1.00  0.00    -0.550 OA
ATOM      6  O   UNL     1      -9.440  34.000   6.877  1.00  0.00    -0.550 OA
ENDBRANCH   3   4
ENDBRANCH   2   3
ENDBRANCH   1   2
BRANCH   1   7
ATOM      7  C   UNL     1     -10.484  38.868   5.529  1.00  0.00     0.000 C 
BRANCH   7   8
ATOM      8  C   UNL     1     -11.548  39.267   6.569  1.00  0.00    -0.000 C 
BRANCH   8   9
ATOM      9  C   UNL     1     -11.194  38.938   8.034  1.00  0.00    -0.000 C 
BRANCH   9  10
ATOM     10  C   UNL     1     -11.656  37.553   8.521  1.00  0.00    -0.003 C 
ATOM     11  C   UNL     1     -10.538  36.753   9.188  1.00  0.00     0.004 C 
ENDBRANCH   9  10
ENDBRANCH   8   9
ENDBRANCH   7   8
ENDBRANCH   1   7
TORSDOF 7
ENDMDL
MODEL 5
REMARK VINA RESULT:    -4.452      3.333      5.952
REMARK INTER + INTRA:          -6.514
REMARK INTER:                  -6.027
REMARK INTRA:                  -0.487
REMARK UNBOUND:                -0.240
REMARK SMILES CCCCCCCCC(=O)[O-]
REMARK SMILES IDX 6 1 7 2 8 3 9 4 10 5 11 6 5 7 4 8 3 9 2 10 1 11
REMARK H PARENT
REMARK Flexibility Score: inf
ROOT
ATOM      1  C   UNL     1      -9.158  38.870   6.156  1.00  0.00     0.000 C 
ENDROOT
BRANCH   1   2
ATOM      2  C   UNL     1     -10.529  38.848   5.455  1.00  0.00     0.006 C 
BRANCH   2   3
ATOM      3  C   UNL     1     -11.659  39.525   6.248  1.00  0.00     0.053 C 
BRANCH   3   4
ATOM      4  C   UNL     1     -11.769  38.988   7.641  1.00  0.00     0.041 C 
ATOM      5  O   UNL     1     -11.618  39.754   8.629  1.00  0.00    -0.550 OA
ATOM      6  O   UNL     1     -12.003  37.634   7.849  1.00  0.00    -0.550 OA
ENDBRANCH   3   4
ENDBRANCH   2   3
ENDBRANCH   1   2
BRANCH   1   7
ATOM      7  C   UNL     1      -8.384  37.551   5.988  1.00  0.00     0.000 C 
BRANCH   7   8
ATOM      8  C   UNL     1      -9.305  36.352   5.692  1.00  0.00    -0.000 C 
BRANCH   8   9
ATOM      9  C   UNL     1      -9.254  35.210   6.727  1.00  0.00    -0.000 C 
BRANCH   9  10
ATOM     10  C   UNL     1      -8.709  33.872   6.195  1.00  0.00    -0.003 C 
ATOM     11  C   UNL     1      -7.313  33.998   5.584  1.00  0.00     0.004 C 
ENDBRANCH   9  10
ENDBRANCH   8   9
ENDBRANCH   7   8
ENDBRANCH   1   7
TORSDOF 7
ENDMDL
MODEL 6
REMARK VINA RESULT:    -4.449      3.409      6.432
REMARK INTER + INTRA:          -6.510
REMARK INTER:                  -6.188
REMARK INTRA:                  -0.321
REMARK UNBOUND:                -0.240
REMARK SMILES CCCCCCCCC(=O)[O-]
REMARK SMILES IDX 6 1 7 2 8 3 9 4 10 5 11 6 5 7 4 8 3 9 2 10 1 11
REMARK H PARENT
REMARK Flexibility Score: inf
ROOT
ATOM      1  C   UNL     1      -8.925  35.892   6.616  1.00  0.00     0.000 C 
ENDROOT
BRANCH   1   2
ATOM      2  C   UNL     1      -8.425  36.953   5.619  1.00  0.00     0.006 C 
BRANCH   2   3
ATOM      3  C   UNL     1      -8.527  38.401   6.127  1.00  0.00     0.053 C 
BRANCH   3   4
ATOM      4  C   UNL     1      -9.947  38.822   6.346  1.00  0.00     0.041 C 
ATOM      5  O   UNL     1     -10.692  39.072   5.363  1.00  0.00    -0.550 OA
ATOM      6  O   UNL     1     -10.437  38.973   7.637  1.00  0.00    -0.550 OA
ENDBRANCH   3   4
ENDBRANCH   2   3
ENDBRANCH   1   2
BRANCH   1   7
ATOM      7  C   UNL     1      -9.222  34.539   5.945  1.00  0.00     0.000 C 
BRANCH   7   8
ATOM      8  C   UNL     1      -8.067  34.051   5.050  1.00  0.00    -0.000 C 
BRANCH   8   9
ATOM      9  C   UNL     1      -6.766  33.685   5.794  1.00  0.00    -0.000 C 
BRANCH   9  10
ATOM     10  C   UNL     1      -6.754  32.287   6.437  1.00  0.00    -0.003 C 
ATOM     11  C   UNL     1      -5.348  31.699   6.557  1.00  0.00     0.004 C 
ENDBRANCH   9  10
ENDBRANCH   8   9
ENDBRANCH   7   8
ENDBRANCH   1   7
TORSDOF 7
ENDMDL
MODEL 7
REMARK VINA RESULT:    -4.378      4.365      6.153
REMARK INTER + INTRA:          -6.408
REMARK INTER:                  -5.692
REMARK INTRA:                  -0.717
REMARK UNBOUND:                -0.240
REMARK SMILES CCCCCCCCC(=O)[O-]
REMARK SMILES IDX 6 1 7 2 8 3 9 4 10 5 11 6 5 7 4 8 3 9 2 10 1 11
REMARK H PARENT
REMARK Flexibility Score: inf
ROOT
ATOM      1  C   UNL     1     -10.468  38.912   5.620  1.00  0.00     0.000 C 
ENDROOT
BRANCH   1   2
ATOM      2  C   UNL     1     -11.622  39.286   6.567  1.00  0.00     0.006 C 
BRANCH   2   3
ATOM      3  C   UNL     1     -11.341  39.007   8.053  1.00  0.00     0.053 C 
BRANCH   3   4
ATOM      4  C   UNL     1     -12.054  39.969   8.952  1.00  0.00     0.041 C 
ATOM      5  O   UNL     1     -12.434  41.086   8.511  1.00  0.00    -0.550 OA
ATOM      6  O   UNL     1     -12.267  39.647  10.287  1.00  0.00    -0.550 OA
ENDBRANCH   3   4
ENDBRANCH   2   3
ENDBRANCH   1   2
BRANCH   1   7
ATOM      7  C   UNL     1      -9.106  38.860   6.334  1.00  0.00     0.000 C 
BRANCH   7   8
ATOM      8  C   UNL     1      -8.208  37.717   5.824  1.00  0.00    -0.000 C 
BRANCH   8   9
ATOM      9  C   UNL     1      -8.914  36.359   5.631  1.00  0.00    -0.000 C 
BRANCH   9  10
ATOM     10  C   UNL     1      -9.351  35.662   6.932  1.00  0.00    -0.003 C 
ATOM     11  C   UNL     1     -10.861  35.432   7.006  1.00  0.00     0.004 C 
ENDBRANCH   9  10
ENDBRANCH   8   9
ENDBRANCH   7   8
ENDBRANCH   1   7
TORSDOF 7
ENDMDL
MODEL 8
REMARK VINA RESULT:    -4.355      2.844      5.095
REMARK INTER + INTRA:          -6.377
REMARK INTER:                  -5.750
REMARK INTRA:                  -0.627
REMARK UNBOUND:                -0.240
REMARK SMILES CCCCCCCCC(=O)[O-]
REMARK SMILES IDX 6 1 7 2 8 3 9 4 10 5 11 6 5 7 4 8 3 9 2 10 1 11
REMARK H PARENT
REMARK Flexibility Score: inf
ROOT
ATOM      1  C   UNL     1     -10.453  38.872   5.573  1.00  0.00     0.000 C 
ENDROOT
BRANCH   1   2
ATOM      2  C   UNL     1     -11.571  39.274   6.552  1.00  0.00     0.006 C 
BRANCH   2   3
ATOM      3  C   UNL     1     -11.254  38.991   8.030  1.00  0.00     0.053 C 
BRANCH   3   4
ATOM      4  C   UNL     1     -11.370  37.535   8.362  1.00  0.00     0.041 C 
ATOM      5  O   UNL     1     -12.378  36.879   7.991  1.00  0.00    -0.550 OA
ATOM      6  O   UNL     1     -10.379  36.912   9.111  1.00  0.00    -0.550 OA
ENDBRANCH   3   4
ENDBRANCH   2   3
ENDBRANCH   1   2
BRANCH   1   7
ATOM      7  C   UNL     1      -9.051  38.969   6.200  1.00  0.00     0.000 C 
BRANCH   7   8
ATOM      8  C   UNL     1      -8.237  37.670   6.047  1.00  0.00    -0.000 C 
BRANCH   8   9
ATOM      9  C   UNL     1      -9.025  36.459   5.509  1.00  0.00    -0.000 C 
BRANCH   9  10
ATOM     10  C   UNL     1      -8.647  35.105   6.135  1.00  0.00    -0.003 C 
ATOM     11  C   UNL     1      -9.821  34.425   6.839  1.00  0.00     0.004 C 
ENDBRANCH   9  10
ENDBRANCH   8   9
ENDBRANCH   7   8
ENDBRANCH   1   7
TORSDOF 7
ENDMDL
MODEL 9
REMARK VINA RESULT:    -4.322      3.237      5.608
REMARK INTER + INTRA:          -6.331
REMARK INTER:                  -5.744
REMARK INTRA:                  -0.587
REMARK UNBOUND:                -0.240
REMARK SMILES CCCCCCCCC(=O)[O-]
REMARK SMILES IDX 6 1 7 2 8 3 9 4 10 5 11 6 5 7 4 8 3 9 2 10 1 11
REMARK H PARENT
REMARK Flexibility Score: inf
ROOT
ATOM      1  C   UNL     1     -10.106  36.347   8.168  1.00  0.00     0.000 C 
ENDROOT
BRANCH   1   2
ATOM      2  C   UNL     1     -11.184  37.401   7.855  1.00  0.00     0.006 C 
BRANCH   2   3
ATOM      3  C   UNL     1     -10.632  38.802   7.541  1.00  0.00     0.053 C 
BRANCH   3   4
ATOM      4  C   UNL     1      -9.965  38.856   6.202  1.00  0.00     0.041 C 
ATOM      5  O   UNL     1     -10.648  38.759   5.149  1.00  0.00    -0.550 OA
ATOM      6  O   UNL     1      -8.583  38.980   6.117  1.00  0.00    -0.550 OA
ENDBRANCH   3   4
ENDBRANCH   2   3
ENDBRANCH   1   2
BRANCH   1   7
ATOM      7  C   UNL     1     -10.293  35.049   7.363  1.00  0.00     0.000 C 
BRANCH   7   8
ATOM      8  C   UNL     1      -9.864  35.193   5.891  1.00  0.00    -0.000 C 
BRANCH   8   9
ATOM      9  C   UNL     1      -8.360  35.450   5.665  1.00  0.00    -0.000 C 
BRANCH   9  10
ATOM     10  C   UNL     1      -7.534  34.205   5.295  1.00  0.00    -0.003 C 
ATOM     11  C   UNL     1      -8.402  33.017   4.880  1.00  0.00     0.004 C 
ENDBRANCH   9  10
ENDBRANCH   8   9
ENDBRANCH   7   8
ENDBRANCH   1   7
TORSDOF 7
ENDMDL
