MODEL 1
REMARK VINA RESULT:    -6.965      0.000      0.000
REMARK INTER + INTRA:          -8.841
REMARK INTER:                  -8.187
REMARK INTRA:                  -0.654
REMARK UNBOUND:                -0.654
REMARK SMILES C=C(C)[C@@H]1CC[C@@]2(CO)CC[C@]3(C)[C@@H](CC[C@H]4[C@@]5(C)CC[C@@H](O)C(C)(C)[C@H]5CC[C@]43C)[C@@H]12
REMARK SMILES IDX 4 1 5 2 6 3 7 4 32 5 14 6 15 7 16 8 17 9 18 10 20 11 21 12
REMARK SMILES IDX 22 13 24 14 27 15 28 16 29 17 30 18 12 19 11 20 10 21 13 22
REMARK SMILES IDX 31 23 25 24 26 25 19 26 2 27 3 28 1 29 8 30 9 31 23 33
REMARK H PARENT 9 32 23 34
REMARK Flexibility Score: inf
ROOT
ATOM      1  C   UNL     1       7.767 -30.004  43.013  1.00  0.00     0.018 C 
ATOM      2  C   UNL     1       8.943 -30.116  44.014  1.00  0.00     0.009 C 
ATOM      3  C   UNL     1       9.985 -31.067  43.408  1.00  0.00     0.010 C 
ATOM      4  C   UNL     1       9.553 -31.348  41.957  1.00  0.00    -0.003 C 
ATOM      5  C   UNL     1       8.010 -31.154  41.991  1.00  0.00     0.008 C 
ATOM      6  C   UNL     1       7.173 -32.458  42.311  1.00  0.00    -0.000 C 
ATOM      7  C   UNL     1       7.155 -32.865  43.803  1.00  0.00     0.005 C 
ATOM      8  C   UNL     1       6.196 -34.013  44.051  1.00  0.00     0.005 C 
ATOM      9  C   UNL     1       6.570 -35.308  43.278  1.00  0.00     0.002 C 
ATOM     10  C   UNL     1       5.648 -36.597  43.654  1.00  0.00    -0.026 C 
ATOM     11  C   UNL     1       4.987 -36.407  45.067  1.00  0.00     0.010 C 
ATOM     12  C   UNL     1       3.942 -37.451  45.457  1.00  0.00     0.033 C 
ATOM     13  C   UNL     1       2.791 -37.463  44.449  1.00  0.00     0.120 C 
ATOM     14  C   UNL     1       3.285 -37.799  43.014  1.00  0.00    -0.006 C 
ATOM     15  C   UNL     1       4.514 -36.876  42.562  1.00  0.00     0.003 C 
ATOM     16  C   UNL     1       4.099 -35.542  41.901  1.00  0.00     0.005 C 
ATOM     17  C   UNL     1       5.249 -34.846  41.139  1.00  0.00     0.008 C 
ATOM     18  C   UNL     1       6.697 -35.006  41.728  1.00  0.00    -0.024 C 
ATOM     19  C   UNL     1       7.590 -33.679  41.413  1.00  0.00    -0.024 C 
ATOM     20  C   UNL     1       9.110 -33.945  41.692  1.00  0.00     0.008 C 
ATOM     21  C   UNL     1      10.039 -32.745  41.455  1.00  0.00     0.010 C 
ATOM     22  C   UNL     1       7.413 -33.264  39.908  1.00  0.00     0.012 C 
ATOM     23  C   UNL     1       7.395 -36.235  41.039  1.00  0.00     0.012 C 
ATOM     24  C   UNL     1       2.071 -37.683  42.046  1.00  0.00     0.014 C 
ATOM     25  C   UNL     1       3.685 -39.303  42.943  1.00  0.00     0.014 C 
ATOM     26  C   UNL     1       6.606 -37.832  43.762  1.00  0.00     0.012 C 
ENDROOT
BRANCH   1  27
ATOM     27  C   UNL     1       7.578 -28.630  42.348  1.00  0.00    -0.077 C 
ATOM     28  C   UNL     1       6.814 -28.442  41.052  1.00  0.00     0.039 C 
ATOM     29  C   UNL     1       8.290 -27.588  42.816  1.00  0.00     0.008 C 
ENDBRANCH   1  27
BRANCH   4  30
ATOM     30  C   UNL     1      10.225 -30.277  41.040  1.00  0.00     0.163 C 
BRANCH  30  31
ATOM     31  O   UNL     1       9.611 -30.224  39.781  1.00  0.00    -0.396 OA
ATOM     32  H   UNL     1       8.778 -30.757  39.854  1.00  0.00     0.210 HD
ENDBRANCH  30  31
ENDBRANCH   4  30
BRANCH  13  33
ATOM     33  O   UNL     1       2.131 -36.219  44.464  1.00  0.00    -0.393 OA
ATOM     34  H   UNL     1       2.253 -35.835  45.371  1.00  0.00     0.210 HD
ENDBRANCH  13  33
TORSDOF 4
ENDMDL
MODEL 2
REMARK VINA RESULT:    -6.924      1.613      7.994
REMARK INTER + INTRA:          -8.793
REMARK INTER:                  -8.312
REMARK INTRA:                  -0.480
REMARK UNBOUND:                -0.654
REMARK SMILES C=C(C)[C@@H]1CC[C@@]2(CO)CC[C@]3(C)[C@@H](CC[C@H]4[C@@]5(C)CC[C@@H](O)C(C)(C)[C@H]5CC[C@]43C)[C@@H]12
REMARK SMILES IDX 4 1 5 2 6 3 7 4 32 5 14 6 15 7 16 8 17 9 18 10 20 11 21 12
REMARK SMILES IDX 22 13 24 14 27 15 28 16 29 17 30 18 12 19 11 20 10 21 13 22
REMARK SMILES IDX 31 23 25 24 26 25 19 26 2 27 3 28 1 29 8 30 9 31 23 33
REMARK H PARENT 9 32 23 34
REMARK Flexibility Score: inf
ROOT
ATOM      1  C   UNL     1       4.085 -37.205  41.648  1.00  0.00     0.018 C 
ATOM      2  C   UNL     1       4.930 -38.363  41.062  1.00  0.00     0.009 C 
ATOM      3  C   UNL     1       5.844 -38.887  42.178  1.00  0.00     0.010 C 
ATOM      4  C   UNL     1       5.396 -38.210  43.487  1.00  0.00    -0.003 C 
ATOM      5  C   UNL     1       4.765 -36.871  43.009  1.00  0.00     0.008 C 
ATOM      6  C   UNL     1       5.766 -35.648  42.920  1.00  0.00    -0.000 C 
ATOM      7  C   UNL     1       6.689 -35.656  41.679  1.00  0.00     0.005 C 
ATOM      8  C   UNL     1       7.488 -34.372  41.577  1.00  0.00     0.005 C 
ATOM      9  C   UNL     1       8.432 -34.134  42.788  1.00  0.00     0.002 C 
ATOM     10  C   UNL     1       9.415 -32.845  42.621  1.00  0.00    -0.026 C 
ATOM     11  C   UNL     1       9.591 -32.480  41.103  1.00  0.00     0.010 C 
ATOM     12  C   UNL     1      10.327 -31.172  40.816  1.00  0.00     0.033 C 
ATOM     13  C   UNL     1       9.595 -29.990  41.454  1.00  0.00     0.120 C 
ATOM     14  C   UNL     1       9.486 -30.145  42.997  1.00  0.00    -0.006 C 
ATOM     15  C   UNL     1       8.888 -31.567  43.425  1.00  0.00     0.003 C 
ATOM     16  C   UNL     1       7.344 -31.611  43.503  1.00  0.00     0.005 C 
ATOM     17  C   UNL     1       6.798 -32.838  44.267  1.00  0.00     0.008 C 
ATOM     18  C   UNL     1       7.611 -34.178  44.141  1.00  0.00    -0.024 C 
ATOM     19  C   UNL     1       6.610 -35.462  44.232  1.00  0.00    -0.024 C 
ATOM     20  C   UNL     1       7.417 -36.790  44.442  1.00  0.00     0.008 C 
ATOM     21  C   UNL     1       6.567 -38.068  44.511  1.00  0.00     0.010 C 
ATOM     22  C   UNL     1       5.614 -35.275  45.433  1.00  0.00     0.012 C 
ATOM     23  C   UNL     1       8.629 -34.271  45.335  1.00  0.00     0.012 C 
ATOM     24  C   UNL     1       8.638 -28.958  43.542  1.00  0.00     0.014 C 
ATOM     25  C   UNL     1      10.890 -29.935  43.639  1.00  0.00     0.014 C 
ATOM     26  C   UNL     1      10.825 -33.270  43.154  1.00  0.00     0.012 C 
ENDROOT
BRANCH   1  27
ATOM     27  C   UNL     1       2.575 -37.471  41.774  1.00  0.00    -0.077 C 
ATOM     28  C   UNL     1       1.737 -36.932  42.916  1.00  0.00     0.039 C 
ATOM     29  C   UNL     1       2.015 -38.386  40.960  1.00  0.00     0.008 C 
ENDBRANCH   1  27
BRANCH   4  30
ATOM     30  C   UNL     1       4.318 -39.122  44.154  1.00  0.00     0.163 C 
BRANCH  30  31
ATOM     31  O   UNL     1       4.735 -39.566  45.417  1.00  0.00    -0.396 OA
ATOM     32  H   UNL     1       4.935 -38.753  45.948  1.00  0.00     0.210 HD
ENDBRANCH  30  31
ENDBRANCH   4  30
BRANCH  13  33
ATOM     33  O   UNL     1       8.316 -29.856  40.881  1.00  0.00    -0.393 OA
ATOM     34  H   UNL     1       8.043 -28.909  40.995  1.00  0.00     0.210 HD
ENDBRANCH  13  33
TORSDOF 4
ENDMDL
MODEL 3
REMARK VINA RESULT:    -6.830      2.621      4.547
REMARK INTER + INTRA:          -8.682
REMARK INTER:                  -8.166
REMARK INTRA:                  -0.516
REMARK UNBOUND:                -0.654
REMARK SMILES C=C(C)[C@@H]1CC[C@@]2(CO)CC[C@]3(C)[C@@H](CC[C@H]4[C@@]5(C)CC[C@@H](O)C(C)(C)[C@H]5CC[C@]43C)[C@@H]12
REMARK SMILES IDX 4 1 5 2 6 3 7 4 32 5 14 6 15 7 16 8 17 9 18 10 20 11 21 12
REMARK SMILES IDX 22 13 24 14 27 15 28 16 29 17 30 18 12 19 11 20 10 21 13 22
REMARK SMILES IDX 31 23 25 24 26 25 19 26 2 27 3 28 1 29 8 30 9 31 23 33
REMARK H PARENT 9 32 23 34
REMARK Flexibility Score: inf
ROOT
ATOM      1  C   UNL     1       7.730 -27.223  39.369  1.00  0.00     0.018 C 
ATOM      2  C   UNL     1       9.079 -26.552  39.728  1.00  0.00     0.009 C 
ATOM      3  C   UNL     1      10.204 -27.436  39.170  1.00  0.00     0.010 C 
ATOM      4  C   UNL     1       9.542 -28.510  38.286  1.00  0.00    -0.003 C 
ATOM      5  C   UNL     1       8.116 -28.654  38.892  1.00  0.00     0.008 C 
ATOM      6  C   UNL     1       7.975 -29.748  40.027  1.00  0.00    -0.000 C 
ATOM      7  C   UNL     1       8.520 -29.319  41.410  1.00  0.00     0.005 C 
ATOM      8  C   UNL     1       8.190 -30.345  42.476  1.00  0.00     0.005 C 
ATOM      9  C   UNL     1       8.816 -31.741  42.204  1.00  0.00     0.002 C 
ATOM     10  C   UNL     1       8.609 -32.810  43.415  1.00  0.00    -0.026 C 
ATOM     11  C   UNL     1       8.334 -32.061  44.769  1.00  0.00     0.010 C 
ATOM     12  C   UNL     1       7.926 -32.947  45.946  1.00  0.00     0.033 C 
ATOM     13  C   UNL     1       6.645 -33.718  45.621  1.00  0.00     0.120 C 
ATOM     14  C   UNL     1       6.824 -34.634  44.378  1.00  0.00    -0.006 C 
ATOM     15  C   UNL     1       7.425 -33.844  43.121  1.00  0.00     0.003 C 
ATOM     16  C   UNL     1       6.360 -33.165  42.229  1.00  0.00     0.005 C 
ATOM     17  C   UNL     1       6.895 -32.738  40.844  1.00  0.00     0.008 C 
ATOM     18  C   UNL     1       8.392 -32.264  40.771  1.00  0.00    -0.024 C 
ATOM     19  C   UNL     1       8.576 -31.137  39.606  1.00  0.00    -0.024 C 
ATOM     20  C   UNL     1      10.093 -30.896  39.292  1.00  0.00     0.008 C 
ATOM     21  C   UNL     1      10.379 -29.826  38.227  1.00  0.00     0.010 C 
ATOM     22  C   UNL     1       7.852 -31.606  38.293  1.00  0.00     0.012 C 
ATOM     23  C   UNL     1       9.300 -33.493  40.403  1.00  0.00     0.012 C 
ATOM     24  C   UNL     1       5.449 -35.292  44.062  1.00  0.00     0.014 C 
ATOM     25  C   UNL     1       7.744 -35.836  44.749  1.00  0.00     0.014 C 
ATOM     26  C   UNL     1       9.962 -33.580  43.587  1.00  0.00     0.012 C 
ENDROOT
BRANCH   1  27
ATOM     27  C   UNL     1       6.848 -26.465  38.362  1.00  0.00    -0.077 C 
ATOM     28  C   UNL     1       5.816 -27.153  37.492  1.00  0.00     0.039 C 
ATOM     29  C   UNL     1       7.145 -25.180  38.090  1.00  0.00     0.008 C 
ENDBRANCH   1  27
BRANCH   4  30
ATOM     30  C   UNL     1       9.469 -27.952  36.829  1.00  0.00     0.163 C 
BRANCH  30  31
ATOM     31  O   UNL     1      10.401 -28.583  35.993  1.00  0.00    -0.396 OA
ATOM     32  H   UNL     1      10.664 -27.913  35.311  1.00  0.00     0.210 HD
ENDBRANCH  30  31
ENDBRANCH   4  30
BRANCH  13  33
ATOM     33  O   UNL     1       5.583 -32.816  45.419  1.00  0.00    -0.393 OA
ATOM     34  H   UNL     1       5.580 -32.192  46.190  1.00  0.00     0.210 HD
ENDBRANCH  13  33
TORSDOF 4
ENDMDL
MODEL 4
REMARK VINA RESULT:    -6.789      3.545      8.186
REMARK INTER + INTRA:          -8.634
REMARK INTER:                  -8.270
REMARK INTRA:                  -0.363
REMARK UNBOUND:                -0.654
REMARK SMILES C=C(C)[C@@H]1CC[C@@]2(CO)CC[C@]3(C)[C@@H](CC[C@H]4[C@@]5(C)CC[C@@H](O)C(C)(C)[C@H]5CC[C@]43C)[C@@H]12
REMARK SMILES IDX 4 1 5 2 6 3 7 4 32 5 14 6 15 7 16 8 17 9 18 10 20 11 21 12
REMARK SMILES IDX 22 13 24 14 27 15 28 16 29 17 30 18 12 19 11 20 10 21 13 22
REMARK SMILES IDX 31 23 25 24 26 25 19 26 2 27 3 28 1 29 8 30 9 31 23 33
REMARK H PARENT 9 32 23 34
REMARK Flexibility Score: inf
ROOT
ATOM      1  C   UNL     1       2.267 -37.979  41.535  1.00  0.00     0.018 C 
ATOM      2  C   UNL     1       2.753 -39.119  42.464  1.00  0.00     0.009 C 
ATOM      3  C   UNL     1       3.712 -38.505  43.495  1.00  0.00     0.010 C 
ATOM      4  C   UNL     1       3.630 -36.975  43.336  1.00  0.00    -0.003 C 
ATOM      5  C   UNL     1       3.213 -36.783  41.849  1.00  0.00     0.008 C 
ATOM      6  C   UNL     1       4.412 -36.653  40.825  1.00  0.00    -0.000 C 
ATOM      7  C   UNL     1       5.100 -37.989  40.460  1.00  0.00     0.005 C 
ATOM      8  C   UNL     1       6.115 -37.803  39.349  1.00  0.00     0.005 C 
ATOM      9  C   UNL     1       7.271 -36.837  39.725  1.00  0.00     0.002 C 
ATOM     10  C   UNL     1       8.454 -36.749  38.608  1.00  0.00    -0.026 C 
ATOM     11  C   UNL     1       8.450 -38.032  37.701  1.00  0.00     0.010 C 
ATOM     12  C   UNL     1       9.380 -37.990  36.489  1.00  0.00     0.033 C 
ATOM     13  C   UNL     1       9.015 -36.821  35.571  1.00  0.00     0.120 C 
ATOM     14  C   UNL     1       9.130 -35.456  36.304  1.00  0.00    -0.006 C 
ATOM     15  C   UNL     1       8.335 -35.442  37.694  1.00  0.00     0.003 C 
ATOM     16  C   UNL     1       6.848 -35.035  37.572  1.00  0.00     0.005 C 
ATOM     17  C   UNL     1       6.197 -34.660  38.923  1.00  0.00     0.008 C 
ATOM     18  C   UNL     1       6.691 -35.440  40.195  1.00  0.00    -0.024 C 
ATOM     19  C   UNL     1       5.479 -35.591  41.276  1.00  0.00    -0.024 C 
ATOM     20  C   UNL     1       6.024 -36.062  42.669  1.00  0.00     0.008 C 
ATOM     21  C   UNL     1       4.956 -36.265  43.755  1.00  0.00     0.010 C 
ATOM     22  C   UNL     1       4.751 -34.210  41.454  1.00  0.00     0.012 C 
ATOM     23  C   UNL     1       7.849 -34.625  40.876  1.00  0.00     0.012 C 
ATOM     24  C   UNL     1       8.641 -34.343  35.331  1.00  0.00     0.014 C 
ATOM     25  C   UNL     1      10.633 -35.120  36.540  1.00  0.00     0.014 C 
ATOM     26  C   UNL     1       9.817 -36.741  39.380  1.00  0.00     0.012 C 
ENDROOT
BRANCH   1  27
ATOM     27  C   UNL     1       0.775 -37.617  41.638  1.00  0.00    -0.077 C 
ATOM     28  C   UNL     1      -0.120 -38.125  42.750  1.00  0.00     0.039 C 
ATOM     29  C   UNL     1       0.192 -37.000  40.593  1.00  0.00     0.008 C 
ENDBRANCH   1  27
BRANCH   4  30
ATOM     30  C   UNL     1       2.513 -36.453  44.295  1.00  0.00     0.163 C 
BRANCH  30  31
ATOM     31  O   UNL     1       2.875 -36.618  45.639  1.00  0.00    -0.396 OA
ATOM     32  H   UNL     1       3.768 -36.198  45.742  1.00  0.00     0.210 HD
ENDBRANCH  30  31
ENDBRANCH   4  30
BRANCH  13  33
ATOM     33  O   UNL     1       7.714 -37.000  35.064  1.00  0.00    -0.393 OA
ATOM     34  H   UNL     1       7.162 -36.250  35.407  1.00  0.00     0.210 HD
ENDBRANCH  13  33
TORSDOF 4
ENDMDL
MODEL 5
REMARK VINA RESULT:    -6.678      2.323      3.279
REMARK INTER + INTRA:          -8.504
REMARK INTER:                  -8.013
REMARK INTRA:                  -0.491
REMARK UNBOUND:                -0.654
REMARK SMILES C=C(C)[C@@H]1CC[C@@]2(CO)CC[C@]3(C)[C@@H](CC[C@H]4[C@@]5(C)CC[C@@H](O)C(C)(C)[C@H]5CC[C@]43C)[C@@H]12
REMARK SMILES IDX 4 1 5 2 6 3 7 4 32 5 14 6 15 7 16 8 17 9 18 10 20 11 21 12
REMARK SMILES IDX 22 13 24 14 27 15 28 16 29 17 30 18 12 19 11 20 10 21 13 22
REMARK SMILES IDX 31 23 25 24 26 25 19 26 2 27 3 28 1 29 8 30 9 31 23 33
REMARK H PARENT 9 32 23 34
REMARK Flexibility Score: inf
ROOT
ATOM      1  C   UNL     1      10.078 -31.473  39.909  1.00  0.00     0.018 C 
ATOM      2  C   UNL     1      11.237 -32.351  39.377  1.00  0.00     0.009 C 
ATOM      3  C   UNL     1      10.707 -33.150  38.178  1.00  0.00     0.010 C 
ATOM      4  C   UNL     1       9.310 -32.593  37.844  1.00  0.00    -0.003 C 
ATOM      5  C   UNL     1       8.806 -32.030  39.204  1.00  0.00     0.008 C 
ATOM      6  C   UNL     1       7.995 -33.053  40.098  1.00  0.00    -0.000 C 
ATOM      7  C   UNL     1       8.866 -34.087  40.849  1.00  0.00     0.005 C 
ATOM      8  C   UNL     1       8.037 -34.912  41.814  1.00  0.00     0.005 C 
ATOM      9  C   UNL     1       6.925 -35.743  41.116  1.00  0.00     0.002 C 
ATOM     10  C   UNL     1       6.129 -36.757  42.113  1.00  0.00    -0.026 C 
ATOM     11  C   UNL     1       7.000 -37.078  43.381  1.00  0.00     0.010 C 
ATOM     12  C   UNL     1       6.295 -37.858  44.489  1.00  0.00     0.033 C 
ATOM     13  C   UNL     1       5.074 -37.088  44.998  1.00  0.00     0.120 C 
ATOM     14  C   UNL     1       4.041 -36.835  43.865  1.00  0.00    -0.006 C 
ATOM     15  C   UNL     1       4.709 -36.177  42.567  1.00  0.00     0.003 C 
ATOM     16  C   UNL     1       4.771 -34.633  42.596  1.00  0.00     0.005 C 
ATOM     17  C   UNL     1       5.058 -34.000  41.216  1.00  0.00     0.008 C 
ATOM     18  C   UNL     1       5.999 -34.800  40.244  1.00  0.00    -0.024 C 
ATOM     19  C   UNL     1       6.849 -33.775  39.302  1.00  0.00    -0.024 C 
ATOM     20  C   UNL     1       7.534 -34.538  38.116  1.00  0.00     0.008 C 
ATOM     21  C   UNL     1       8.388 -33.666  37.183  1.00  0.00     0.010 C 
ATOM     22  C   UNL     1       5.892 -32.675  38.716  1.00  0.00     0.012 C 
ATOM     23  C   UNL     1       5.117 -35.701  39.306  1.00  0.00     0.012 C 
ATOM     24  C   UNL     1       2.892 -35.959  44.447  1.00  0.00     0.014 C 
ATOM     25  C   UNL     1       3.342 -38.176  43.491  1.00  0.00     0.014 C 
ATOM     26  C   UNL     1       5.936 -38.105  41.339  1.00  0.00     0.012 C 
ENDROOT
BRANCH   1  27
ATOM     27  C   UNL     1      10.251 -29.954  39.740  1.00  0.00    -0.077 C 
ATOM     28  C   UNL     1       9.098 -29.026  39.414  1.00  0.00     0.039 C 
ATOM     29  C   UNL     1      11.499 -29.455  39.668  1.00  0.00     0.008 C 
ENDBRANCH   1  27
BRANCH   4  30
ATOM     30  C   UNL     1       9.488 -31.443  36.802  1.00  0.00     0.163 C 
BRANCH  30  31
ATOM     31  O   UNL     1      10.376 -31.812  35.781  1.00  0.00    -0.396 OA
ATOM     32  H   UNL     1       9.824 -32.218  35.063  1.00  0.00     0.210 HD
ENDBRANCH  30  31
ENDBRANCH   4  30
BRANCH  13  33
ATOM     33  O   UNL     1       5.484 -35.870  45.572  1.00  0.00    -0.393 OA
ATOM     34  H   UNL     1       5.762 -35.276  44.828  1.00  0.00     0.210 HD
ENDBRANCH  13  33
TORSDOF 4
ENDMDL
MODEL 6
REMARK VINA RESULT:    -6.667      3.970      5.679
REMARK INTER + INTRA:          -8.490
REMARK INTER:                  -7.986
REMARK INTRA:                  -0.504
REMARK UNBOUND:                -0.654
REMARK SMILES C=C(C)[C@@H]1CC[C@@]2(CO)CC[C@]3(C)[C@@H](CC[C@H]4[C@@]5(C)CC[C@@H](O)C(C)(C)[C@H]5CC[C@]43C)[C@@H]12
REMARK SMILES IDX 4 1 5 2 6 3 7 4 32 5 14 6 15 7 16 8 17 9 18 10 20 11 21 12
REMARK SMILES IDX 22 13 24 14 27 15 28 16 29 17 30 18 12 19 11 20 10 21 13 22
REMARK SMILES IDX 31 23 25 24 26 25 19 26 2 27 3 28 1 29 8 30 9 31 23 33
REMARK H PARENT 9 32 23 34
REMARK Flexibility Score: inf
ROOT
ATOM      1  C   UNL     1       9.544 -34.984  37.172  1.00  0.00     0.018 C 
ATOM      2  C   UNL     1       9.836 -36.380  36.570  1.00  0.00     0.009 C 
ATOM      3  C   UNL     1       8.545 -36.883  35.908  1.00  0.00     0.010 C 
ATOM      4  C   UNL     1       7.548 -35.710  35.909  1.00  0.00    -0.003 C 
ATOM      5  C   UNL     1       7.993 -34.851  37.127  1.00  0.00     0.008 C 
ATOM      6  C   UNL     1       7.297 -35.218  38.500  1.00  0.00    -0.000 C 
ATOM      7  C   UNL     1       7.854 -36.486  39.189  1.00  0.00     0.005 C 
ATOM      8  C   UNL     1       7.261 -36.669  40.572  1.00  0.00     0.005 C 
ATOM      9  C   UNL     1       5.718 -36.852  40.563  1.00  0.00     0.002 C 
ATOM     10  C   UNL     1       5.082 -37.210  42.020  1.00  0.00    -0.026 C 
ATOM     11  C   UNL     1       6.178 -37.828  42.961  1.00  0.00     0.010 C 
ATOM     12  C   UNL     1       5.765 -38.026  44.419  1.00  0.00     0.033 C 
ATOM     13  C   UNL     1       5.367 -36.691  45.052  1.00  0.00     0.120 C 
ATOM     14  C   UNL     1       4.173 -36.032  44.306  1.00  0.00    -0.006 C 
ATOM     15  C   UNL     1       4.420 -35.936  42.726  1.00  0.00     0.003 C 
ATOM     16  C   UNL     1       5.161 -34.657  42.275  1.00  0.00     0.005 C 
ATOM     17  C   UNL     1       5.062 -34.389  40.756  1.00  0.00     0.008 C 
ATOM     18  C   UNL     1       5.025 -35.643  39.810  1.00  0.00    -0.024 C 
ATOM     19  C   UNL     1       5.733 -35.299  38.381  1.00  0.00    -0.024 C 
ATOM     20  C   UNL     1       5.417 -36.407  37.317  1.00  0.00     0.008 C 
ATOM     21  C   UNL     1       6.064 -36.194  35.940  1.00  0.00     0.010 C 
ATOM     22  C   UNL     1       5.209 -33.917  37.848  1.00  0.00     0.012 C 
ATOM     23  C   UNL     1       3.527 -36.027  39.529  1.00  0.00     0.012 C 
ATOM     24  C   UNL     1       3.911 -34.639  44.950  1.00  0.00     0.014 C 
ATOM     25  C   UNL     1       2.872 -36.837  44.600  1.00  0.00     0.014 C 
ATOM     26  C   UNL     1       4.000 -38.318  41.790  1.00  0.00     0.012 C 
ENDROOT
BRANCH   1  27
ATOM     27  C   UNL     1      10.274 -33.801  36.513  1.00  0.00    -0.077 C 
ATOM     28  C   UNL     1       9.682 -32.408  36.439  1.00  0.00     0.039 C 
ATOM     29  C   UNL     1      11.383 -34.053  35.791  1.00  0.00     0.008 C 
ENDBRANCH   1  27
BRANCH   4  30
ATOM     30  C   UNL     1       7.739 -34.918  34.575  1.00  0.00     0.163 C 
BRANCH  30  31
ATOM     31  O   UNL     1       7.351 -35.683  33.466  1.00  0.00    -0.396 OA
ATOM     32  H   UNL     1       7.830 -36.549  33.542  1.00  0.00     0.210 HD
ENDBRANCH  30  31
ENDBRANCH   4  30
BRANCH  13  33
ATOM     33  O   UNL     1       6.475 -35.822  45.070  1.00  0.00    -0.393 OA
ATOM     34  H   UNL     1       6.902 -35.912  45.961  1.00  0.00     0.210 HD
ENDBRANCH  13  33
TORSDOF 4
ENDMDL
MODEL 7
REMARK VINA RESULT:    -6.644      7.516     10.076
REMARK INTER + INTRA:          -8.463
REMARK INTER:                  -7.843
REMARK INTRA:                  -0.620
REMARK UNBOUND:                -0.654
REMARK SMILES C=C(C)[C@@H]1CC[C@@]2(CO)CC[C@]3(C)[C@@H](CC[C@H]4[C@@]5(C)CC[C@@H](O)C(C)(C)[C@H]5CC[C@]43C)[C@@H]12
REMARK SMILES IDX 4 1 5 2 6 3 7 4 32 5 14 6 15 7 16 8 17 9 18 10 20 11 21 12
REMARK SMILES IDX 22 13 24 14 27 15 28 16 29 17 30 18 12 19 11 20 10 21 13 22
REMARK SMILES IDX 31 23 25 24 26 25 19 26 2 27 3 28 1 29 8 30 9 31 23 33
REMARK H PARENT 9 32 23 34
REMARK Flexibility Score: inf
ROOT
ATOM      1  C   UNL     1      11.944 -24.611  44.100  1.00  0.00     0.018 C 
ATOM      2  C   UNL     1      11.812 -23.071  44.008  1.00  0.00     0.009 C 
ATOM      3  C   UNL     1      10.356 -22.707  44.330  1.00  0.00     0.010 C 
ATOM      4  C   UNL     1       9.668 -23.989  44.835  1.00  0.00    -0.003 C 
ATOM      5  C   UNL     1      10.477 -25.130  44.155  1.00  0.00     0.008 C 
ATOM      6  C   UNL     1       9.929 -25.598  42.747  1.00  0.00    -0.000 C 
ATOM      7  C   UNL     1      10.274 -24.653  41.572  1.00  0.00     0.005 C 
ATOM      8  C   UNL     1       9.869 -25.255  40.241  1.00  0.00     0.005 C 
ATOM      9  C   UNL     1       8.342 -25.516  40.121  1.00  0.00     0.002 C 
ATOM     10  C   UNL     1       7.866 -26.012  38.644  1.00  0.00    -0.026 C 
ATOM     11  C   UNL     1       8.917 -25.586  37.556  1.00  0.00     0.010 C 
ATOM     12  C   UNL     1       8.692 -26.158  36.157  1.00  0.00     0.033 C 
ATOM     13  C   UNL     1       8.713 -27.688  36.191  1.00  0.00     0.120 C 
ATOM     14  C   UNL     1       7.606 -28.259  37.120  1.00  0.00    -0.006 C 
ATOM     15  C   UNL     1       7.630 -27.592  38.576  1.00  0.00     0.003 C 
ATOM     16  C   UNL     1       8.570 -28.295  39.582  1.00  0.00     0.005 C 
ATOM     17  C   UNL     1       8.310 -27.897  41.053  1.00  0.00     0.008 C 
ATOM     18  C   UNL     1       7.843 -26.421  41.322  1.00  0.00    -0.024 C 
ATOM     19  C   UNL     1       8.388 -25.905  42.770  1.00  0.00    -0.024 C 
ATOM     20  C   UNL     1       7.670 -24.581  43.203  1.00  0.00     0.008 C 
ATOM     21  C   UNL     1       8.134 -23.992  44.544  1.00  0.00     0.010 C 
ATOM     22  C   UNL     1       8.125 -27.007  43.859  1.00  0.00     0.012 C 
ATOM     23  C   UNL     1       6.271 -26.380  41.354  1.00  0.00     0.012 C 
ATOM     24  C   UNL     1       7.772 -29.806  37.175  1.00  0.00     0.014 C 
ATOM     25  C   UNL     1       6.213 -28.050  36.454  1.00  0.00     0.014 C 
ATOM     26  C   UNL     1       6.535 -25.256  38.312  1.00  0.00     0.012 C 
ENDROOT
BRANCH   1  27
ATOM     27  C   UNL     1      12.821 -25.144  45.246  1.00  0.00    -0.077 C 
ATOM     28  C   UNL     1      13.739 -24.256  46.061  1.00  0.00     0.039 C 
ATOM     29  C   UNL     1      12.939 -26.477  45.397  1.00  0.00     0.008 C 
ENDBRANCH   1  27
BRANCH   4  30
ATOM     30  C   UNL     1       9.835 -24.042  46.388  1.00  0.00     0.163 C 
BRANCH  30  31
ATOM     31  O   UNL     1       9.609 -25.334  46.882  1.00  0.00    -0.396 OA
ATOM     32  H   UNL     1      10.452 -25.617  47.323  1.00  0.00     0.210 HD
ENDBRANCH  30  31
ENDBRANCH   4  30
BRANCH  13  33
ATOM     33  O   UNL     1       9.982 -28.138  36.603  1.00  0.00    -0.393 OA
ATOM     34  H   UNL     1       9.840 -28.963  37.136  1.00  0.00     0.210 HD
ENDBRANCH  13  33
TORSDOF 4
ENDMDL
MODEL 8
REMARK VINA RESULT:    -6.618      3.595      6.085
REMARK INTER + INTRA:          -8.433
REMARK INTER:                  -7.846
REMARK INTRA:                  -0.587
REMARK UNBOUND:                -0.654
REMARK SMILES C=C(C)[C@@H]1CC[C@@]2(CO)CC[C@]3(C)[C@@H](CC[C@H]4[C@@]5(C)CC[C@@H](O)C(C)(C)[C@H]5CC[C@]43C)[C@@H]12
REMARK SMILES IDX 4 1 5 2 6 3 7 4 32 5 14 6 15 7 16 8 17 9 18 10 20 11 21 12
REMARK SMILES IDX 22 13 24 14 27 15 28 16 29 17 30 18 12 19 11 20 10 21 13 22
REMARK SMILES IDX 31 23 25 24 26 25 19 26 2 27 3 28 1 29 8 30 9 31 23 33
REMARK H PARENT 9 32 23 34
REMARK Flexibility Score: inf
ROOT
ATOM      1  C   UNL     1      10.822 -35.697  36.820  1.00  0.00     0.018 C 
ATOM      2  C   UNL     1      10.100 -36.759  35.955  1.00  0.00     0.009 C 
ATOM      3  C   UNL     1       8.785 -36.141  35.456  1.00  0.00     0.010 C 
ATOM      4  C   UNL     1       8.819 -34.646  35.823  1.00  0.00    -0.003 C 
ATOM      5  C   UNL     1       9.749 -34.596  37.069  1.00  0.00     0.008 C 
ATOM      6  C   UNL     1       9.016 -34.746  38.464  1.00  0.00    -0.000 C 
ATOM      7  C   UNL     1       8.607 -36.192  38.827  1.00  0.00     0.005 C 
ATOM      8  C   UNL     1       8.073 -36.276  40.244  1.00  0.00     0.005 C 
ATOM      9  C   UNL     1       6.798 -35.419  40.475  1.00  0.00     0.002 C 
ATOM     10  C   UNL     1       6.118 -35.620  41.942  1.00  0.00    -0.026 C 
ATOM     11  C   UNL     1       6.548 -36.999  42.562  1.00  0.00     0.010 C 
ATOM     12  C   UNL     1       6.141 -37.227  44.017  1.00  0.00     0.033 C 
ATOM     13  C   UNL     1       6.744 -36.149  44.921  1.00  0.00     0.120 C 
ATOM     14  C   UNL     1       6.271 -34.725  44.513  1.00  0.00    -0.006 C 
ATOM     15  C   UNL     1       6.484 -34.436  42.952  1.00  0.00     0.003 C 
ATOM     16  C   UNL     1       7.877 -33.869  42.595  1.00  0.00     0.005 C 
ATOM     17  C   UNL     1       7.947 -33.248  41.182  1.00  0.00     0.008 C 
ATOM     18  C   UNL     1       7.066 -33.913  40.064  1.00  0.00    -0.024 C 
ATOM     19  C   UNL     1       7.790 -33.774  38.609  1.00  0.00    -0.024 C 
ATOM     20  C   UNL     1       6.795 -34.126  37.449  1.00  0.00     0.008 C 
ATOM     21  C   UNL     1       7.389 -34.056  36.034  1.00  0.00     0.010 C 
ATOM     22  C   UNL     1       8.305 -32.303  38.410  1.00  0.00     0.012 C 
ATOM     23  C   UNL     1       5.685 -33.166  39.990  1.00  0.00     0.012 C 
ATOM     24  C   UNL     1       7.015 -33.694  45.413  1.00  0.00     0.014 C 
ATOM     25  C   UNL     1       4.771 -34.549  44.894  1.00  0.00     0.014 C 
ATOM     26  C   UNL     1       4.568 -35.681  41.726  1.00  0.00     0.012 C 
ENDROOT
BRANCH   1  27
ATOM     27  C   UNL     1      12.138 -35.144  36.247  1.00  0.00    -0.077 C 
ATOM     28  C   UNL     1      12.694 -35.572  34.903  1.00  0.00     0.039 C 
ATOM     29  C   UNL     1      12.932 -34.415  37.054  1.00  0.00     0.008 C 
ENDBRANCH   1  27
BRANCH   4  30
ATOM     30  C   UNL     1       9.457 -33.872  34.626  1.00  0.00     0.163 C 
BRANCH  30  31
ATOM     31  O   UNL     1       9.956 -32.625  35.030  1.00  0.00    -0.396 OA
ATOM     32  H   UNL     1       9.757 -31.992  34.293  1.00  0.00     0.210 HD
ENDBRANCH  30  31
ENDBRANCH   4  30
BRANCH  13  33
ATOM     33  O   UNL     1       8.149 -36.230  44.886  1.00  0.00    -0.393 OA
ATOM     34  H   UNL     1       8.382 -37.176  44.698  1.00  0.00     0.210 HD
ENDBRANCH  13  33
TORSDOF 4
ENDMDL
MODEL 9
REMARK VINA RESULT:    -6.616      3.366      7.307
REMARK INTER + INTRA:          -8.430
REMARK INTER:                  -7.916
REMARK INTRA:                  -0.515
REMARK UNBOUND:                -0.654
REMARK SMILES C=C(C)[C@@H]1CC[C@@]2(CO)CC[C@]3(C)[C@@H](CC[C@H]4[C@@]5(C)CC[C@@H](O)C(C)(C)[C@H]5CC[C@]43C)[C@@H]12
REMARK SMILES IDX 4 1 5 2 6 3 7 4 32 5 14 6 15 7 16 8 17 9 18 10 20 11 21 12
REMARK SMILES IDX 22 13 24 14 27 15 28 16 29 17 30 18 12 19 11 20 10 21 13 22
REMARK SMILES IDX 31 23 25 24 26 25 19 26 2 27 3 28 1 29 8 30 9 31 23 33
REMARK H PARENT 9 32 23 34
REMARK Flexibility Score: inf
ROOT
ATOM      1  C   UNL     1       5.380 -36.922  43.390  1.00  0.00     0.018 C 
ATOM      2  C   UNL     1       6.620 -37.054  44.309  1.00  0.00     0.009 C 
ATOM      3  C   UNL     1       7.214 -35.651  44.497  1.00  0.00     0.010 C 
ATOM      4  C   UNL     1       6.215 -34.649  43.887  1.00  0.00    -0.003 C 
ATOM      5  C   UNL     1       5.478 -35.484  42.801  1.00  0.00     0.008 C 
ATOM      6  C   UNL     1       6.133 -35.444  41.361  1.00  0.00    -0.000 C 
ATOM      7  C   UNL     1       7.386 -36.335  41.195  1.00  0.00     0.005 C 
ATOM      8  C   UNL     1       7.847 -36.377  39.752  1.00  0.00     0.005 C 
ATOM      9  C   UNL     1       8.256 -34.987  39.193  1.00  0.00     0.002 C 
ATOM     10  C   UNL     1       8.905 -35.035  37.699  1.00  0.00    -0.026 C 
ATOM     11  C   UNL     1       9.478 -36.466  37.394  1.00  0.00     0.010 C 
ATOM     12  C   UNL     1       9.936 -36.704  35.956  1.00  0.00     0.033 C 
ATOM     13  C   UNL     1       8.778 -36.494  34.979  1.00  0.00     0.120 C 
ATOM     14  C   UNL     1       8.209 -35.050  35.063  1.00  0.00    -0.006 C 
ATOM     15  C   UNL     1       7.857 -34.620  36.565  1.00  0.00     0.003 C 
ATOM     16  C   UNL     1       6.430 -35.004  37.019  1.00  0.00     0.005 C 
ATOM     17  C   UNL     1       5.971 -34.270  38.300  1.00  0.00     0.008 C 
ATOM     18  C   UNL     1       7.072 -33.951  39.374  1.00  0.00    -0.024 C 
ATOM     19  C   UNL     1       6.431 -33.980  40.874  1.00  0.00    -0.024 C 
ATOM     20  C   UNL     1       7.414 -33.347  41.918  1.00  0.00     0.008 C 
ATOM     21  C   UNL     1       6.916 -33.353  43.372  1.00  0.00     0.010 C 
ATOM     22  C   UNL     1       5.082 -33.174  40.890  1.00  0.00     0.012 C 
ATOM     23  C   UNL     1       7.634 -32.505  39.116  1.00  0.00     0.012 C 
ATOM     24  C   UNL     1       6.974 -34.962  34.118  1.00  0.00     0.014 C 
ATOM     25  C   UNL     1       9.233 -34.053  34.442  1.00  0.00     0.014 C 
ATOM     26  C   UNL     1      10.121 -34.047  37.694  1.00  0.00     0.012 C 
ENDROOT
BRANCH   1  27
ATOM     27  C   UNL     1       4.021 -37.219  44.045  1.00  0.00    -0.077 C 
ATOM     28  C   UNL     1       2.709 -36.713  43.483  1.00  0.00     0.039 C 
ATOM     29  C   UNL     1       4.009 -37.769  45.275  1.00  0.00     0.008 C 
ENDBRANCH   1  27
BRANCH   4  30
ATOM     30  C   UNL     1       5.225 -34.213  45.015  1.00  0.00     0.163 C 
BRANCH  30  31
ATOM     31  O   UNL     1       5.432 -32.877  45.387  1.00  0.00    -0.396 OA
ATOM     32  H   UNL     1       4.575 -32.557  45.771  1.00  0.00     0.210 HD
ENDBRANCH  30  31
ENDBRANCH   4  30
BRANCH  13  33
ATOM     33  O   UNL     1       7.764 -37.438  35.232  1.00  0.00    -0.393 OA
ATOM     34  H   UNL     1       6.898 -36.994  35.040  1.00  0.00     0.210 HD
ENDBRANCH  13  33
TORSDOF 4
ENDMDL
