MODEL 1
REMARK VINA RESULT:    -6.565      0.000      0.000
REMARK INTER + INTRA:          -6.757
REMARK INTER:                  -6.757
REMARK INTRA:                   0.000
REMARK UNBOUND:                 0.000
REMARK SMILES Cc1cccc(O)c1C
REMARK SMILES IDX 1 1 2 2 8 3 6 4 5 5 4 6 3 7 9 8 7 9
REMARK H PARENT 7 10
REMARK Flexibility Score: inf
ROOT
ATOM      1  C   UNL     1     -13.995   0.779 -10.012  1.00  0.00     0.045 C 
ATOM      2  C   UNL     1     -13.288   1.956  -9.391  1.00  0.00    -0.045 A 
ATOM      3  C   UNL     1     -11.881   1.965  -9.211  1.00  0.00    -0.006 A 
ATOM      4  C   UNL     1     -11.269   3.083  -8.603  1.00  0.00     0.118 A 
ATOM      5  C   UNL     1     -12.044   4.187  -8.223  1.00  0.00     0.046 A 
ATOM      6  C   UNL     1     -13.422   4.186  -8.432  1.00  0.00     0.004 A 
ATOM      7  C   UNL     1     -14.041   3.080  -9.011  1.00  0.00     0.004 A 
ATOM      8  C   UNL     1     -11.046   0.771  -9.609  1.00  0.00     0.048 C 
ENDROOT
BRANCH   4   9
ATOM      9  O   UNL     1      -9.892   3.100  -8.376  1.00  0.00    -0.508 OA
ATOM     10  H   UNL     1      -9.326   2.266  -8.478  1.00  0.00     0.293 HD
ENDBRANCH   4   9
TORSDOF 1
ENDMDL
MODEL 2
REMARK VINA RESULT:    -6.090      1.150      2.729
REMARK INTER + INTRA:          -6.268
REMARK INTER:                  -6.268
REMARK INTRA:                   0.000
REMARK UNBOUND:                 0.000
REMARK SMILES Cc1cccc(O)c1C
REMARK SMILES IDX 1 1 2 2 8 3 6 4 5 5 4 6 3 7 9 8 7 9
REMARK H PARENT 7 10
REMARK Flexibility Score: inf
ROOT
ATOM      1  C   UNL     1     -13.345   4.751  -8.571  1.00  0.00     0.045 C 
ATOM      2  C   UNL     1     -13.051   3.344  -9.023  1.00  0.00    -0.045 A 
ATOM      3  C   UNL     1     -11.777   2.752  -8.823  1.00  0.00    -0.006 A 
ATOM      4  C   UNL     1     -11.547   1.437  -9.285  1.00  0.00     0.118 A 
ATOM      5  C   UNL     1     -12.581   0.716  -9.896  1.00  0.00     0.046 A 
ATOM      6  C   UNL     1     -13.839   1.292 -10.061  1.00  0.00     0.004 A 
ATOM      7  C   UNL     1     -14.075   2.595  -9.629  1.00  0.00     0.004 A 
ATOM      8  C   UNL     1     -10.658   3.532  -8.175  1.00  0.00     0.048 C 
ENDROOT
BRANCH   4   9
ATOM      9  O   UNL     1     -10.290   0.847  -9.139  1.00  0.00    -0.508 OA
ATOM     10  H   UNL     1      -9.993   0.438  -8.261  1.00  0.00     0.293 HD
ENDBRANCH   4   9
TORSDOF 1
ENDMDL
MODEL 3
REMARK VINA RESULT:    -5.993      1.717      2.688
REMARK INTER + INTRA:          -6.168
REMARK INTER:                  -6.168
REMARK INTRA:                   0.000
REMARK UNBOUND:                 0.000
REMARK SMILES Cc1cccc(O)c1C
REMARK SMILES IDX 1 1 2 2 8 3 6 4 5 5 4 6 3 7 9 8 7 9
REMARK H PARENT 7 10
REMARK Flexibility Score: inf
ROOT
ATOM      1  C   UNL     1     -12.614   0.525 -10.110  1.00  0.00     0.045 C 
ATOM      2  C   UNL     1     -12.309   1.818  -9.399  1.00  0.00    -0.045 A 
ATOM      3  C   UNL     1     -13.342   2.703  -8.994  1.00  0.00    -0.006 A 
ATOM      4  C   UNL     1     -13.001   3.913  -8.351  1.00  0.00     0.118 A 
ATOM      5  C   UNL     1     -11.659   4.211  -8.080  1.00  0.00     0.046 A 
ATOM      6  C   UNL     1     -10.652   3.324  -8.451  1.00  0.00     0.004 A 
ATOM      7  C   UNL     1     -10.972   2.135  -9.106  1.00  0.00     0.004 A 
ATOM      8  C   UNL     1     -14.788   2.388  -9.295  1.00  0.00     0.048 C 
ENDROOT
BRANCH   4   9
ATOM      9  O   UNL     1     -13.995   4.820  -7.980  1.00  0.00    -0.508 OA
ATOM     10  H   UNL     1     -13.898   5.412  -7.164  1.00  0.00     0.293 HD
ENDBRANCH   4   9
TORSDOF 1
ENDMDL
MODEL 4
REMARK VINA RESULT:    -5.937      0.855      2.691
REMARK INTER + INTRA:          -6.111
REMARK INTER:                  -6.111
REMARK INTRA:                   0.000
REMARK UNBOUND:                 0.000
REMARK SMILES Cc1cccc(O)c1C
REMARK SMILES IDX 1 1 2 2 8 3 6 4 5 5 4 6 3 7 9 8 7 9
REMARK H PARENT 7 10
REMARK Flexibility Score: inf
ROOT
ATOM      1  C   UNL     1     -15.071   2.136  -9.292  1.00  0.00     0.045 C 
ATOM      2  C   UNL     1     -13.630   1.716  -9.426  1.00  0.00    -0.045 A 
ATOM      3  C   UNL     1     -12.578   2.491  -8.873  1.00  0.00    -0.006 A 
ATOM      4  C   UNL     1     -11.243   2.064  -9.045  1.00  0.00     0.118 A 
ATOM      5  C   UNL     1     -10.969   0.867  -9.719  1.00  0.00     0.046 A 
ATOM      6  C   UNL     1     -12.009   0.094 -10.232  1.00  0.00     0.004 A 
ATOM      7  C   UNL     1     -13.330   0.513 -10.087  1.00  0.00     0.004 A 
ATOM      8  C   UNL     1     -12.870   3.788  -8.156  1.00  0.00     0.048 C 
ENDROOT
BRANCH   4   9
ATOM      9  O   UNL     1     -10.187   2.830  -8.548  1.00  0.00    -0.508 OA
ATOM     10  H   UNL     1      -9.221   2.550  -8.674  1.00  0.00     0.293 HD
ENDBRANCH   4   9
TORSDOF 1
ENDMDL
MODEL 5
REMARK VINA RESULT:    -5.740      1.984      3.832
REMARK INTER + INTRA:          -5.908
REMARK INTER:                  -5.908
REMARK INTRA:                   0.000
REMARK UNBOUND:                 0.000
REMARK SMILES Cc1cccc(O)c1C
REMARK SMILES IDX 1 1 2 2 8 3 6 4 5 5 4 6 3 7 9 8 7 9
REMARK H PARENT 7 10
REMARK Flexibility Score: inf
ROOT
ATOM      1  C   UNL     1     -10.573   3.811  -8.134  1.00  0.00     0.045 C 
ATOM      2  C   UNL     1     -11.518   2.830  -8.778  1.00  0.00    -0.045 A 
ATOM      3  C   UNL     1     -12.905   3.106  -8.899  1.00  0.00    -0.006 A 
ATOM      4  C   UNL     1     -13.751   2.143  -9.491  1.00  0.00     0.118 A 
ATOM      5  C   UNL     1     -13.215   0.949  -9.990  1.00  0.00     0.046 A 
ATOM      6  C   UNL     1     -11.848   0.698  -9.898  1.00  0.00     0.004 A 
ATOM      7  C   UNL     1     -11.004   1.630  -9.297  1.00  0.00     0.004 A 
ATOM      8  C   UNL     1     -13.485   4.388  -8.351  1.00  0.00     0.048 C 
ENDROOT
BRANCH   4   9
ATOM      9  O   UNL     1     -15.125   2.371  -9.583  1.00  0.00    -0.508 OA
ATOM     10  H   UNL     1     -15.601   2.399 -10.476  1.00  0.00     0.293 HD
ENDBRANCH   4   9
TORSDOF 1
ENDMDL
MODEL 6
REMARK VINA RESULT:    -5.702      1.736      3.123
REMARK INTER + INTRA:          -5.869
REMARK INTER:                  -5.869
REMARK INTRA:                   0.000
REMARK UNBOUND:                 0.000
REMARK SMILES Cc1cccc(O)c1C
REMARK SMILES IDX 1 1 2 2 8 3 6 4 5 5 4 6 3 7 9 8 7 9
REMARK H PARENT 7 10
REMARK Flexibility Score: inf
ROOT
ATOM      1  C   UNL     1     -11.008   0.224 -10.368  1.00  0.00     0.045 C 
ATOM      2  C   UNL     1     -12.371   0.737  -9.983  1.00  0.00    -0.045 A 
ATOM      3  C   UNL     1     -12.535   1.973  -9.305  1.00  0.00    -0.006 A 
ATOM      4  C   UNL     1     -13.833   2.398  -8.947  1.00  0.00     0.118 A 
ATOM      5  C   UNL     1     -14.947   1.623  -9.296  1.00  0.00     0.046 A 
ATOM      6  C   UNL     1     -14.783   0.426  -9.990  1.00  0.00     0.004 A 
ATOM      7  C   UNL     1     -13.506  -0.016 -10.332  1.00  0.00     0.004 A 
ATOM      8  C   UNL     1     -11.334   2.803  -8.918  1.00  0.00     0.048 C 
ENDROOT
BRANCH   4   9
ATOM      9  O   UNL     1     -14.017   3.589  -8.243  1.00  0.00    -0.508 OA
ATOM     10  H   UNL     1     -13.315   3.945  -7.606  1.00  0.00     0.293 HD
ENDBRANCH   4   9
TORSDOF 1
ENDMDL
MODEL 7
REMARK VINA RESULT:    -5.481      2.453      3.593
REMARK INTER + INTRA:          -5.641
REMARK INTER:                  -5.641
REMARK INTRA:                   0.000
REMARK UNBOUND:                 0.000
REMARK SMILES Cc1cccc(O)c1C
REMARK SMILES IDX 1 1 2 2 8 3 6 4 5 5 4 6 3 7 9 8 7 9
REMARK H PARENT 7 10
REMARK Flexibility Score: inf
ROOT
ATOM      1  C   UNL     1     -14.730   1.968  -9.650  1.00  0.00     0.045 C 
ATOM      2  C   UNL     1     -13.385   1.295  -9.737  1.00  0.00    -0.045 A 
ATOM      3  C   UNL     1     -13.222   0.044 -10.388  1.00  0.00    -0.006 A 
ATOM      4  C   UNL     1     -11.944  -0.555 -10.422  1.00  0.00     0.118 A 
ATOM      5  C   UNL     1     -10.844   0.102  -9.854  1.00  0.00     0.046 A 
ATOM      6  C   UNL     1     -11.004   1.344  -9.244  1.00  0.00     0.004 A 
ATOM      7  C   UNL     1     -12.264   1.938  -9.185  1.00  0.00     0.004 A 
ATOM      8  C   UNL     1     -14.408  -0.670 -10.990  1.00  0.00     0.048 C 
ENDROOT
BRANCH   4   9
ATOM      9  O   UNL     1     -11.765  -1.804 -11.018  1.00  0.00    -0.508 OA
ATOM     10  H   UNL     1     -11.325  -1.902 -11.926  1.00  0.00     0.293 HD
ENDBRANCH   4   9
TORSDOF 1
ENDMDL
MODEL 8
REMARK VINA RESULT:    -5.470      2.631      4.507
REMARK INTER + INTRA:          -5.630
REMARK INTER:                  -5.630
REMARK INTRA:                   0.000
REMARK UNBOUND:                 0.000
REMARK SMILES Cc1cccc(O)c1C
REMARK SMILES IDX 1 1 2 2 8 3 6 4 5 5 4 6 3 7 9 8 7 9
REMARK H PARENT 7 10
REMARK Flexibility Score: inf
ROOT
ATOM      1  C   UNL     1     -11.946   2.628  -8.912  1.00  0.00     0.045 C 
ATOM      2  C   UNL     1     -12.149   1.334  -9.656  1.00  0.00    -0.045 A 
ATOM      3  C   UNL     1     -13.448   0.835  -9.934  1.00  0.00    -0.006 A 
ATOM      4  C   UNL     1     -13.585  -0.395 -10.615  1.00  0.00     0.118 A 
ATOM      5  C   UNL     1     -12.447  -1.089 -11.046  1.00  0.00     0.046 A 
ATOM      6  C   UNL     1     -11.174  -0.578 -10.798  1.00  0.00     0.004 A 
ATOM      7  C   UNL     1     -11.024   0.624 -10.109  1.00  0.00     0.004 A 
ATOM      8  C   UNL     1     -14.676   1.576  -9.459  1.00  0.00     0.048 C 
ENDROOT
BRANCH   4   9
ATOM      9  O   UNL     1     -14.850  -0.929 -10.863  1.00  0.00    -0.508 OA
ATOM     10  H   UNL     1     -15.094  -1.325 -11.763  1.00  0.00     0.293 HD
ENDBRANCH   4   9
TORSDOF 1
ENDMDL
MODEL 9
REMARK VINA RESULT:    -5.396      2.012      3.763
REMARK INTER + INTRA:          -5.554
REMARK INTER:                  -5.554
REMARK INTRA:                   0.000
REMARK UNBOUND:                 0.000
REMARK SMILES Cc1cccc(O)c1C
REMARK SMILES IDX 1 1 2 2 8 3 6 4 5 5 4 6 3 7 9 8 7 9
REMARK H PARENT 7 10
REMARK Flexibility Score: inf
ROOT
ATOM      1  C   UNL     1     -14.257   2.108  -9.455  1.00  0.00     0.045 C 
ATOM      2  C   UNL     1     -13.530   0.900  -9.985  1.00  0.00    -0.045 A 
ATOM      3  C   UNL     1     -12.127   0.753  -9.831  1.00  0.00    -0.006 A 
ATOM      4  C   UNL     1     -11.489  -0.388 -10.365  1.00  0.00     0.118 A 
ATOM      5  C   UNL     1     -12.245  -1.382 -11.002  1.00  0.00     0.046 A 
ATOM      6  C   UNL     1     -13.627  -1.247 -11.122  1.00  0.00     0.004 A 
ATOM      7  C   UNL     1     -14.266  -0.116 -10.618  1.00  0.00     0.004 A 
ATOM      8  C   UNL     1     -11.309   1.828  -9.155  1.00  0.00     0.048 C 
ENDROOT
BRANCH   4   9
ATOM      9  O   UNL     1     -10.105  -0.537 -10.265  1.00  0.00    -0.508 OA
ATOM     10  H   UNL     1      -9.516  -0.600 -11.086  1.00  0.00     0.293 HD
ENDBRANCH   4   9
TORSDOF 1
ENDMDL
