MODEL 1
REMARK VINA RESULT:    -1.358      0.000      0.000
REMARK INTER + INTRA:          -2.601
REMARK INTER:                  -2.072
REMARK INTRA:                  -0.529
REMARK UNBOUND:                -0.529
REMARK SMILES OC[C@@H]1O[C@](CO)(O[C@@H]2O[C@H](CO)[C@H](O)[C@@H](O)[C@H]2O)[C@@H](O)[C@H]1O
REMARK SMILES IDX 8 1 9 2 11 3 14 4 10 5 16 6 18 7 12 8 13 9 15 11 17 13 19 15
REMARK SMILES IDX 5 17 20 18 4 19 22 20 3 21 6 22 7 23 21 25 23 27 2 29 1 30
REMARK H PARENT 13 10 15 12 17 14 19 16 7 24 21 26 23 28 1 31
REMARK Flexibility Score: inf
ROOT
ATOM      1  O   UNL     1     135.249  52.606  27.235  1.00  0.00    -0.313 OA
ENDROOT
BRANCH   1   2
ATOM      2  C   UNL     1     134.309  52.123  26.280  1.00  0.00     0.285 C 
ATOM      3  C   UNL     1     134.896  49.806  26.487  1.00  0.00     0.178 C 
ATOM      4  C   UNL     1     135.552  49.792  25.085  1.00  0.00     0.177 C 
ATOM      5  O   UNL     1     133.885  50.805  26.613  1.00  0.00    -0.341 OA
ATOM      6  C   UNL     1     136.045  51.197  24.701  1.00  0.00     0.179 C 
ATOM      7  C   UNL     1     134.903  52.211  24.863  1.00  0.00     0.202 C 
BRANCH   3   8
ATOM      8  C   UNL     1     135.893  49.832  27.668  1.00  0.00     0.191 C 
BRANCH   8   9
ATOM      9  O   UNL     1     135.309  49.271  28.815  1.00  0.00    -0.394 OA
ATOM     10  H   UNL     1     134.497  48.779  28.525  1.00  0.00     0.210 HD
ENDBRANCH   8   9
ENDBRANCH   3   8
BRANCH   4  11
ATOM     11  O   UNL     1     136.617  48.875  25.051  1.00  0.00    -0.387 OA
ATOM     12  H   UNL     1     137.052  48.969  24.163  1.00  0.00     0.211 HD
ENDBRANCH   4  11
BRANCH   6  13
ATOM     13  O   UNL     1     136.567  51.228  23.394  1.00  0.00    -0.387 OA
ATOM     14  H   UNL     1     137.555  51.304  23.456  1.00  0.00     0.211 HD
ENDBRANCH   6  13
BRANCH   7  15
ATOM     15  O   UNL     1     133.884  51.965  23.924  1.00  0.00    -0.385 OA
ATOM     16  H   UNL     1     133.945  51.008  23.670  1.00  0.00     0.211 HD
ENDBRANCH   7  15
ENDBRANCH   1   2
BRANCH   1  17
ATOM     17  C   UNL     1     134.757  53.649  28.074  1.00  0.00     0.224 C 
ATOM     18  C   UNL     1     135.986  54.250  28.802  1.00  0.00     0.208 C 
ATOM     19  O   UNL     1     133.875  53.126  29.060  1.00  0.00    -0.337 OA
ATOM     20  C   UNL     1     135.977  53.503  30.112  1.00  0.00     0.180 C 
ATOM     21  C   UNL     1     134.493  53.249  30.320  1.00  0.00     0.179 C 
BRANCH  17  22
ATOM     22  C   UNL     1     134.016  54.704  27.207  1.00  0.00     0.225 C 
BRANCH  22  23
ATOM     23  O   UNL     1     133.884  55.926  27.885  1.00  0.00    -0.391 OA
ATOM     24  H   UNL     1     134.631  56.505  27.581  1.00  0.00     0.210 HD
ENDBRANCH  22  23
ENDBRANCH  17  22
BRANCH  18  25
ATOM     25  O   UNL     1     135.850  55.631  29.041  1.00  0.00    -0.385 OA
ATOM     26  H   UNL     1     135.033  55.928  28.562  1.00  0.00     0.211 HD
ENDBRANCH  18  25
BRANCH  20  27
ATOM     27  O   UNL     1     136.513  54.261  31.166  1.00  0.00    -0.387 OA
ATOM     28  H   UNL     1     136.461  53.690  31.976  1.00  0.00     0.211 HD
ENDBRANCH  20  27
BRANCH  21  29
ATOM     29  C   UNL     1     134.219  52.004  31.169  1.00  0.00     0.191 C 
BRANCH  29  30
ATOM     30  O   UNL     1     134.605  52.221  32.499  1.00  0.00    -0.394 OA
ATOM     31  H   UNL     1     134.387  51.387  32.990  1.00  0.00     0.210 HD
ENDBRANCH  29  30
ENDBRANCH  21  29
ENDBRANCH   1  17
TORSDOF 13
ENDMDL
