MODEL 1
REMARK VINA RESULT:    -5.825      0.000      0.000
REMARK INTER + INTRA:          -7.264
REMARK INTER:                  -6.846
REMARK INTRA:                  -0.418
REMARK UNBOUND:                -0.418
REMARK SMILES C=C[C@]1(C)CC[C@H](C(=C)C)C[C@H]1C(=C)C
REMARK SMILES IDX 7 1 6 2 5 3 3 4 12 5 11 6 4 7 8 8 10 9 9 10 13 11 14 12
REMARK SMILES IDX 15 13 2 14 1 15
REMARK H PARENT
REMARK Flexibility Score: inf
ROOT
ATOM      1  C   UNL     1     107.101 121.828 119.529  1.00  0.00     0.015 C 
ATOM      2  C   UNL     1     108.629 121.694 119.623  1.00  0.00     0.009 C 
ATOM      3  C   UNL     1     109.045 120.590 120.607  1.00  0.00     0.012 C 
ATOM      4  C   UNL     1     108.447 120.778 122.033  1.00  0.00    -0.008 C 
ATOM      5  C   UNL     1     106.888 121.017 121.979  1.00  0.00     0.024 C 
ATOM      6  C   UNL     1     106.473 122.064 120.916  1.00  0.00     0.017 C 
ATOM      7  C   UNL     1     108.793 119.522 122.870  1.00  0.00     0.016 C 
ENDROOT
BRANCH   1   8
ATOM      8  C   UNL     1     106.709 122.939 118.560  1.00  0.00    -0.077 C 
ATOM      9  C   UNL     1     107.743 123.845 117.938  1.00  0.00     0.039 C 
ATOM     10  C   UNL     1     105.418 123.136 118.247  1.00  0.00     0.008 C 
ENDBRANCH   1   8
BRANCH   5  11
ATOM     11  C   UNL     1     106.004 119.759 121.943  1.00  0.00    -0.077 C 
ATOM     12  C   UNL     1     105.706 119.097 120.811  1.00  0.00     0.008 C 
ATOM     13  C   UNL     1     105.425 119.216 123.229  1.00  0.00     0.039 C 
ENDBRANCH   5  11
BRANCH   4  14
ATOM     14  C   UNL     1     109.136 121.984 122.684  1.00  0.00    -0.028 C 
ATOM     15  C   UNL     1     110.467 122.110 122.784  1.00  0.00     0.004 C 
ENDBRANCH   4  14
TORSDOF 3
ENDMDL
MODEL 2
REMARK VINA RESULT:    -5.735      1.064      4.353
REMARK INTER + INTRA:          -7.159
REMARK INTER:                  -6.712
REMARK INTRA:                  -0.447
REMARK UNBOUND:                -0.418
REMARK SMILES C=C[C@]1(C)CC[C@H](C(=C)C)C[C@H]1C(=C)C
REMARK SMILES IDX 7 1 6 2 5 3 3 4 12 5 11 6 4 7 8 8 10 9 9 10 13 11 14 12
REMARK SMILES IDX 15 13 2 14 1 15
REMARK H PARENT
REMARK Flexibility Score: inf
ROOT
ATOM      1  C   UNL     1     106.393 119.647 121.719  1.00  0.00     0.015 C 
ATOM      2  C   UNL     1     106.393 119.471 120.192  1.00  0.00     0.009 C 
ATOM      3  C   UNL     1     107.750 119.842 119.576  1.00  0.00     0.012 C 
ATOM      4  C   UNL     1     108.217 121.284 119.937  1.00  0.00    -0.008 C 
ATOM      5  C   UNL     1     108.141 121.544 121.492  1.00  0.00     0.024 C 
ATOM      6  C   UNL     1     106.804 121.077 122.118  1.00  0.00     0.017 C 
ATOM      7  C   UNL     1     109.661 121.470 119.408  1.00  0.00     0.016 C 
ENDROOT
BRANCH   1   8
ATOM      8  C   UNL     1     105.033 119.289 122.310  1.00  0.00    -0.077 C 
ATOM      9  C   UNL     1     104.600 117.853 122.479  1.00  0.00     0.039 C 
ATOM     10  C   UNL     1     104.185 120.259 122.687  1.00  0.00     0.008 C 
ENDBRANCH   1   8
BRANCH   5  11
ATOM     11  C   UNL     1     109.362 121.107 122.319  1.00  0.00    -0.077 C 
ATOM     12  C   UNL     1     109.626 119.826 122.627  1.00  0.00     0.008 C 
ATOM     13  C   UNL     1     110.331 122.150 122.827  1.00  0.00     0.039 C 
ENDBRANCH   5  11
BRANCH   4  14
ATOM     14  C   UNL     1     107.312 122.278 119.198  1.00  0.00    -0.028 C 
ATOM     15  C   UNL     1     107.776 123.238 118.386  1.00  0.00     0.004 C 
ENDBRANCH   4  14
TORSDOF 3
ENDMDL
MODEL 3
REMARK VINA RESULT:    -5.290      2.844      5.529
REMARK INTER + INTRA:          -6.636
REMARK INTER:                  -6.182
REMARK INTRA:                  -0.454
REMARK UNBOUND:                -0.418
REMARK SMILES C=C[C@]1(C)CC[C@H](C(=C)C)C[C@H]1C(=C)C
REMARK SMILES IDX 7 1 6 2 5 3 3 4 12 5 11 6 4 7 8 8 10 9 9 10 13 11 14 12
REMARK SMILES IDX 15 13 2 14 1 15
REMARK H PARENT
REMARK Flexibility Score: inf
ROOT
ATOM      1  C   UNL     1     106.196 123.034 118.548  1.00  0.00     0.015 C 
ATOM      2  C   UNL     1     105.799 122.156 119.745  1.00  0.00     0.009 C 
ATOM      3  C   UNL     1     104.273 122.063 119.901  1.00  0.00     0.012 C 
ATOM      4  C   UNL     1     103.580 123.453 120.018  1.00  0.00    -0.008 C 
ATOM      5  C   UNL     1     104.035 124.425 118.860  1.00  0.00     0.024 C 
ATOM      6  C   UNL     1     105.569 124.437 118.649  1.00  0.00     0.017 C 
ATOM      7  C   UNL     1     102.048 123.230 119.993  1.00  0.00     0.016 C 
ENDROOT
BRANCH   1   8
ATOM      8  C   UNL     1     107.713 123.127 118.419  1.00  0.00    -0.077 C 
ATOM      9  C   UNL     1     108.625 122.129 119.091  1.00  0.00     0.039 C 
ATOM     10  C   UNL     1     108.270 124.117 117.702  1.00  0.00     0.008 C 
ENDBRANCH   1   8
BRANCH   5  11
ATOM     11  C   UNL     1     103.259 124.321 117.536  1.00  0.00    -0.077 C 
ATOM     12  C   UNL     1     103.345 123.264 116.709  1.00  0.00     0.008 C 
ATOM     13  C   UNL     1     102.347 125.450 117.115  1.00  0.00     0.039 C 
ENDBRANCH   5  11
BRANCH   4  14
ATOM     14  C   UNL     1     103.947 124.057 121.379  1.00  0.00    -0.028 C 
ATOM     15  C   UNL     1     103.185 123.931 122.474  1.00  0.00     0.004 C 
ENDBRANCH   4  14
TORSDOF 3
ENDMDL
MODEL 4
REMARK VINA RESULT:    -5.286      1.426      3.345
REMARK INTER + INTRA:          -6.630
REMARK INTER:                  -6.152
REMARK INTRA:                  -0.479
REMARK UNBOUND:                -0.418
REMARK SMILES C=C[C@]1(C)CC[C@H](C(=C)C)C[C@H]1C(=C)C
REMARK SMILES IDX 7 1 6 2 5 3 3 4 12 5 11 6 4 7 8 8 10 9 9 10 13 11 14 12
REMARK SMILES IDX 15 13 2 14 1 15
REMARK H PARENT
REMARK Flexibility Score: inf
ROOT
ATOM      1  C   UNL     1     106.262 122.072 119.500  1.00  0.00     0.015 C 
ATOM      2  C   UNL     1     105.812 122.191 120.965  1.00  0.00     0.009 C 
ATOM      3  C   UNL     1     106.887 121.678 121.935  1.00  0.00     0.012 C 
ATOM      4  C   UNL     1     107.335 120.215 121.641  1.00  0.00    -0.008 C 
ATOM      5  C   UNL     1     107.715 120.021 120.122  1.00  0.00     0.024 C 
ATOM      6  C   UNL     1     106.669 120.627 119.155  1.00  0.00     0.017 C 
ATOM      7  C   UNL     1     108.532 119.882 122.565  1.00  0.00     0.016 C 
ENDROOT
BRANCH   1   8
ATOM      8  C   UNL     1     105.176 122.571 118.553  1.00  0.00    -0.077 C 
ATOM      9  C   UNL     1     104.970 124.044 118.294  1.00  0.00     0.039 C 
ATOM     10  C   UNL     1     104.368 121.697 117.933  1.00  0.00     0.008 C 
ENDBRANCH   1   8
BRANCH   5  11
ATOM     11  C   UNL     1     109.158 120.378 119.727  1.00  0.00    -0.077 C 
ATOM     12  C   UNL     1     109.610 121.641 119.643  1.00  0.00     0.008 C 
ATOM     13  C   UNL     1     110.140 119.274 119.409  1.00  0.00     0.039 C 
ENDBRANCH   5  11
BRANCH   4  14
ATOM     14  C   UNL     1     106.178 119.278 122.012  1.00  0.00    -0.028 C 
ATOM     15  C   UNL     1     105.643 119.213 123.240  1.00  0.00     0.004 C 
ENDBRANCH   4  14
TORSDOF 3
ENDMDL
MODEL 5
REMARK VINA RESULT:    -5.251      1.640      4.311
REMARK INTER + INTRA:          -6.590
REMARK INTER:                  -6.176
REMARK INTRA:                  -0.414
REMARK UNBOUND:                -0.418
REMARK SMILES C=C[C@]1(C)CC[C@H](C(=C)C)C[C@H]1C(=C)C
REMARK SMILES IDX 7 1 6 2 5 3 3 4 12 5 11 6 4 7 8 8 10 9 9 10 13 11 14 12
REMARK SMILES IDX 15 13 2 14 1 15
REMARK H PARENT
REMARK Flexibility Score: inf
ROOT
ATOM      1  C   UNL     1     109.395 120.743 120.357  1.00  0.00     0.015 C 
ATOM      2  C   UNL     1     108.985 121.557 119.120  1.00  0.00     0.009 C 
ATOM      3  C   UNL     1     107.732 122.406 119.387  1.00  0.00     0.012 C 
ATOM      4  C   UNL     1     106.518 121.571 119.891  1.00  0.00    -0.008 C 
ATOM      5  C   UNL     1     106.918 120.642 121.103  1.00  0.00     0.024 C 
ATOM      6  C   UNL     1     108.234 119.864 120.860  1.00  0.00     0.017 C 
ATOM      7  C   UNL     1     105.388 122.553 120.286  1.00  0.00     0.016 C 
ENDROOT
BRANCH   1   8
ATOM      8  C   UNL     1     110.630 119.895 120.067  1.00  0.00    -0.077 C 
ATOM      9  C   UNL     1     111.819 119.888 120.998  1.00  0.00     0.039 C 
ATOM     10  C   UNL     1     110.684 119.138 118.960  1.00  0.00     0.008 C 
ENDBRANCH   1   8
BRANCH   5  11
ATOM     11  C   UNL     1     106.862 121.282 122.501  1.00  0.00    -0.077 C 
ATOM     12  C   UNL     1     107.865 122.009 123.023  1.00  0.00     0.008 C 
ATOM     13  C   UNL     1     105.629 121.098 123.356  1.00  0.00     0.039 C 
ENDBRANCH   5  11
BRANCH   4  14
ATOM     14  C   UNL     1     106.011 120.713 118.724  1.00  0.00    -0.028 C 
ATOM     15  C   UNL     1     104.722 120.643 118.363  1.00  0.00     0.004 C 
ENDBRANCH   4  14
TORSDOF 3
ENDMDL
MODEL 6
REMARK VINA RESULT:    -5.219      1.857      3.548
REMARK INTER + INTRA:          -6.552
REMARK INTER:                  -6.103
REMARK INTRA:                  -0.449
REMARK UNBOUND:                -0.418
REMARK SMILES C=C[C@]1(C)CC[C@H](C(=C)C)C[C@H]1C(=C)C
REMARK SMILES IDX 7 1 6 2 5 3 3 4 12 5 11 6 4 7 8 8 10 9 9 10 13 11 14 12
REMARK SMILES IDX 15 13 2 14 1 15
REMARK H PARENT
REMARK Flexibility Score: inf
ROOT
ATOM      1  C   UNL     1     106.629 121.483 121.015  1.00  0.00     0.015 C 
ATOM      2  C   UNL     1     106.966 121.744 122.492  1.00  0.00     0.009 C 
ATOM      3  C   UNL     1     108.470 121.593 122.768  1.00  0.00     0.012 C 
ATOM      4  C   UNL     1     109.040 120.208 122.338  1.00  0.00    -0.008 C 
ATOM      5  C   UNL     1     108.634 119.853 120.855  1.00  0.00     0.024 C 
ATOM      6  C   UNL     1     107.134 120.100 120.562  1.00  0.00     0.017 C 
ATOM      7  C   UNL     1     110.579 120.248 122.505  1.00  0.00     0.016 C 
ENDROOT
BRANCH   1   8
ATOM      8  C   UNL     1     105.131 121.622 120.765  1.00  0.00    -0.077 C 
ATOM      9  C   UNL     1     104.474 121.015 119.548  1.00  0.00     0.039 C 
ATOM     10  C   UNL     1     104.362 122.302 121.631  1.00  0.00     0.008 C 
ENDBRANCH   1   8
BRANCH   5  11
ATOM     11  C   UNL     1     109.549 120.401 119.746  1.00  0.00    -0.077 C 
ATOM     12  C   UNL     1     109.564 121.692 119.371  1.00  0.00     0.008 C 
ATOM     13  C   UNL     1     110.486 119.464 119.020  1.00  0.00     0.039 C 
ENDBRANCH   5  11
BRANCH   4  14
ATOM     14  C   UNL     1     108.488 119.146 123.297  1.00  0.00    -0.028 C 
ATOM     15  C   UNL     1     109.265 118.337 124.031  1.00  0.00     0.004 C 
ENDBRANCH   4  14
TORSDOF 3
ENDMDL
MODEL 7
REMARK VINA RESULT:    -5.133      1.259      4.353
REMARK INTER + INTRA:          -6.451
REMARK INTER:                  -6.595
REMARK INTRA:                   0.144
REMARK UNBOUND:                -0.418
REMARK SMILES C=C[C@]1(C)CC[C@H](C(=C)C)C[C@H]1C(=C)C
REMARK SMILES IDX 7 1 6 2 5 3 3 4 12 5 11 6 4 7 8 8 10 9 9 10 13 11 14 12
REMARK SMILES IDX 15 13 2 14 1 15
REMARK H PARENT
REMARK Flexibility Score: inf
ROOT
ATOM      1  C   UNL     1     106.433 119.998 121.419  1.00  0.00     0.015 C 
ATOM      2  C   UNL     1     107.722 119.881 122.247  1.00  0.00     0.009 C 
ATOM      3  C   UNL     1     108.787 120.890 121.789  1.00  0.00     0.012 C 
ATOM      4  C   UNL     1     109.126 120.780 120.272  1.00  0.00    -0.008 C 
ATOM      5  C   UNL     1     107.821 120.797 119.385  1.00  0.00     0.024 C 
ATOM      6  C   UNL     1     106.719 119.847 119.913  1.00  0.00     0.017 C 
ATOM      7  C   UNL     1     110.070 121.952 119.904  1.00  0.00     0.016 C 
ENDROOT
BRANCH   1   8
ATOM      8  C   UNL     1     105.395 118.979 121.878  1.00  0.00    -0.077 C 
ATOM      9  C   UNL     1     104.737 118.029 120.907  1.00  0.00     0.039 C 
ATOM     10  C   UNL     1     105.039 118.915 123.172  1.00  0.00     0.008 C 
ENDBRANCH   1   8
BRANCH   5  11
ATOM     11  C   UNL     1     107.271 122.183 119.004  1.00  0.00    -0.077 C 
ATOM     12  C   UNL     1     107.992 123.111 118.351  1.00  0.00     0.008 C 
ATOM     13  C   UNL     1     105.852 122.549 119.373  1.00  0.00     0.039 C 
ENDBRANCH   5  11
BRANCH   4  14
ATOM     14  C   UNL     1     109.891 119.470 120.047  1.00  0.00    -0.028 C 
ATOM     15  C   UNL     1     110.276 119.036 118.839  1.00  0.00     0.004 C 
ENDBRANCH   4  14
TORSDOF 3
ENDMDL
MODEL 8
REMARK VINA RESULT:    -5.114      1.074      3.449
REMARK INTER + INTRA:          -6.428
REMARK INTER:                  -6.096
REMARK INTRA:                  -0.332
REMARK UNBOUND:                -0.418
REMARK SMILES C=C[C@]1(C)CC[C@H](C(=C)C)C[C@H]1C(=C)C
REMARK SMILES IDX 7 1 6 2 5 3 3 4 12 5 11 6 4 7 8 8 10 9 9 10 13 11 14 12
REMARK SMILES IDX 15 13 2 14 1 15
REMARK H PARENT
REMARK Flexibility Score: inf
ROOT
ATOM      1  C   UNL     1     106.782 122.522 119.576  1.00  0.00     0.015 C 
ATOM      2  C   UNL     1     105.520 122.228 120.404  1.00  0.00     0.009 C 
ATOM      3  C   UNL     1     105.837 121.380 121.644  1.00  0.00     0.012 C 
ATOM      4  C   UNL     1     106.566 120.044 121.308  1.00  0.00    -0.008 C 
ATOM      5  C   UNL     1     107.816 120.287 120.376  1.00  0.00     0.024 C 
ATOM      6  C   UNL     1     107.507 121.222 119.181  1.00  0.00     0.017 C 
ATOM      7  C   UNL     1     106.981 119.373 122.640  1.00  0.00     0.016 C 
ENDROOT
BRANCH   1   8
ATOM      8  C   UNL     1     106.444 123.351 118.341  1.00  0.00    -0.077 C 
ATOM      9  C   UNL     1     107.474 124.229 117.674  1.00  0.00     0.039 C 
ATOM     10  C   UNL     1     105.204 123.319 117.826  1.00  0.00     0.008 C 
ENDBRANCH   1   8
BRANCH   5  11
ATOM     11  C   UNL     1     109.134 120.649 121.082  1.00  0.00    -0.077 C 
ATOM     12  C   UNL     1     109.248 121.658 121.963  1.00  0.00     0.008 C 
ATOM     13  C   UNL     1     110.383 119.850 120.787  1.00  0.00     0.039 C 
ENDBRANCH   5  11
BRANCH   4  14
ATOM     14  C   UNL     1     105.565 119.118 120.605  1.00  0.00    -0.028 C 
ATOM     15  C   UNL     1     104.751 118.277 121.258  1.00  0.00     0.004 C 
ENDBRANCH   4  14
TORSDOF 3
ENDMDL
MODEL 9
REMARK VINA RESULT:    -5.040      1.505      4.011
REMARK INTER + INTRA:          -6.342
REMARK INTER:                  -5.970
REMARK INTRA:                  -0.371
REMARK UNBOUND:                -0.418
REMARK SMILES C=C[C@]1(C)CC[C@H](C(=C)C)C[C@H]1C(=C)C
REMARK SMILES IDX 7 1 6 2 5 3 3 4 12 5 11 6 4 7 8 8 10 9 9 10 13 11 14 12
REMARK SMILES IDX 15 13 2 14 1 15
REMARK H PARENT
REMARK Flexibility Score: inf
ROOT
ATOM      1  C   UNL     1     108.981 120.024 120.308  1.00  0.00     0.015 C 
ATOM      2  C   UNL     1     109.049 121.534 120.586  1.00  0.00     0.009 C 
ATOM      3  C   UNL     1     107.695 122.088 121.055  1.00  0.00     0.012 C 
ATOM      4  C   UNL     1     106.530 121.789 120.064  1.00  0.00    -0.008 C 
ATOM      5  C   UNL     1     106.482 120.261 119.673  1.00  0.00     0.024 C 
ATOM      6  C   UNL     1     107.871 119.690 119.294  1.00  0.00     0.017 C 
ATOM      7  C   UNL     1     105.206 122.240 120.728  1.00  0.00     0.016 C 
ENDROOT
BRANCH   1   8
ATOM      8  C   UNL     1     110.330 119.496 119.829  1.00  0.00    -0.077 C 
ATOM      9  C   UNL     1     111.590 119.704 120.633  1.00  0.00     0.039 C 
ATOM     10  C   UNL     1     110.420 118.836 118.662  1.00  0.00     0.008 C 
ENDBRANCH   1   8
BRANCH   5  11
ATOM     11  C   UNL     1     105.705 119.336 120.625  1.00  0.00    -0.077 C 
ATOM     12  C   UNL     1     104.642 118.606 120.244  1.00  0.00     0.008 C 
ATOM     13  C   UNL     1     106.134 119.223 122.070  1.00  0.00     0.039 C 
ENDBRANCH   5  11
BRANCH   4  14
ATOM     14  C   UNL     1     106.742 122.642 118.807  1.00  0.00    -0.028 C 
ATOM     15  C   UNL     1     105.865 123.562 118.381  1.00  0.00     0.004 C 
ENDBRANCH   4  14
TORSDOF 3
ENDMDL
