MODEL 1
REMARK VINA RESULT:    -3.174      0.000      0.000
REMARK INTER + INTRA:          -3.771
REMARK INTER:                  -3.731
REMARK INTRA:                  -0.040
REMARK UNBOUND:                -0.040
REMARK SMILES CCCCC(=O)[O-]
REMARK SMILES IDX 4 1 5 2 6 3 7 4 3 5 2 6 1 7
REMARK H PARENT
REMARK Flexibility Score: inf
ROOT
ATOM      1  C   UNL     1      -9.184  -4.823  -7.061  1.00  0.00     0.053 C 
ENDROOT
BRANCH   1   2
ATOM      2  C   UNL     1      -9.027  -5.523  -8.373  1.00  0.00     0.041 C 
ATOM      3  O   UNL     1      -7.892  -5.616  -8.910  1.00  0.00    -0.550 OA
ATOM      4  O   UNL     1     -10.125  -6.120  -8.980  1.00  0.00    -0.550 OA
ENDBRANCH   1   2
BRANCH   1   5
ATOM      5  C   UNL     1      -8.636  -3.395  -7.146  1.00  0.00     0.006 C 
BRANCH   5   6
ATOM      6  C   UNL     1      -9.771  -2.381  -7.326  1.00  0.00    -0.003 C 
ATOM      7  C   UNL     1      -9.750  -1.329  -6.220  1.00  0.00     0.004 C 
ENDBRANCH   5   6
ENDBRANCH   1   5
TORSDOF 3
ENDMDL
MODEL 2
REMARK VINA RESULT:    -3.100      2.888      3.883
REMARK INTER + INTRA:          -3.684
REMARK INTER:                  -3.606
REMARK INTRA:                  -0.078
REMARK UNBOUND:                -0.040
REMARK SMILES CCCCC(=O)[O-]
REMARK SMILES IDX 4 1 5 2 6 3 7 4 3 5 2 6 1 7
REMARK H PARENT
REMARK Flexibility Score: inf
ROOT
ATOM      1  C   UNL     1      -8.871  -3.285  -6.742  1.00  0.00     0.053 C 
ENDROOT
BRANCH   1   2
ATOM      2  C   UNL     1      -9.491  -1.932  -6.897  1.00  0.00     0.041 C 
ATOM      3  O   UNL     1     -10.125  -1.640  -7.945  1.00  0.00    -0.550 OA
ATOM      4  O   UNL     1      -9.412  -1.008  -5.862  1.00  0.00    -0.550 OA
ENDBRANCH   1   2
BRANCH   1   5
ATOM      5  C   UNL     1      -8.922  -4.053  -8.066  1.00  0.00     0.006 C 
BRANCH   5   6
ATOM      6  C   UNL     1      -9.626  -5.403  -7.891  1.00  0.00    -0.003 C 
ATOM      7  C   UNL     1      -9.994  -5.648  -6.430  1.00  0.00     0.004 C 
ENDBRANCH   5   6
ENDBRANCH   1   5
TORSDOF 3
ENDMDL
MODEL 3
REMARK VINA RESULT:    -3.070     23.802     24.437
REMARK INTER + INTRA:          -3.649
REMARK INTER:                  -3.607
REMARK INTRA:                  -0.042
REMARK UNBOUND:                -0.040
REMARK SMILES CCCCC(=O)[O-]
REMARK SMILES IDX 4 1 5 2 6 3 7 4 3 5 2 6 1 7
REMARK H PARENT
REMARK Flexibility Score: inf
ROOT
ATOM      1  C   UNL     1       9.933  -4.519   8.395  1.00  0.00     0.053 C 
ENDROOT
BRANCH   1   2
ATOM      2  C   UNL     1       9.119  -5.507   9.167  1.00  0.00     0.041 C 
ATOM      3  O   UNL     1       7.888  -5.637   8.932  1.00  0.00    -0.550 OA
ATOM      4  O   UNL     1       9.727  -6.322  10.114  1.00  0.00    -0.550 OA
ENDBRANCH   1   2
BRANCH   1   5
ATOM      5  C   UNL     1       9.282  -4.228   7.040  1.00  0.00     0.006 C 
BRANCH   5   6
ATOM      6  C   UNL     1       8.685  -2.817   7.009  1.00  0.00    -0.003 C 
ATOM      7  C   UNL     1       9.728  -1.787   6.582  1.00  0.00     0.004 C 
ENDBRANCH   5   6
ENDBRANCH   1   5
TORSDOF 3
ENDMDL
MODEL 4
REMARK VINA RESULT:    -3.061     19.517     20.179
REMARK INTER + INTRA:          -3.638
REMARK INTER:                  -3.574
REMARK INTRA:                  -0.064
REMARK UNBOUND:                -0.040
REMARK SMILES CCCCC(=O)[O-]
REMARK SMILES IDX 4 1 5 2 6 3 7 4 3 5 2 6 1 7
REMARK H PARENT
REMARK Flexibility Score: inf
ROOT
ATOM      1  C   UNL     1       8.703   3.251  -6.963  1.00  0.00     0.053 C 
ENDROOT
BRANCH   1   2
ATOM      2  C   UNL     1       9.461   1.964  -6.891  1.00  0.00     0.041 C 
ATOM      3  O   UNL     1      10.125   1.562  -7.883  1.00  0.00    -0.550 OA
ATOM      4  O   UNL     1       9.477   1.230  -5.711  1.00  0.00    -0.550 OA
ENDBRANCH   1   2
BRANCH   1   5
ATOM      5  C   UNL     1       9.096   4.036  -8.218  1.00  0.00     0.006 C 
BRANCH   5   6
ATOM      6  C   UNL     1       9.339   5.513  -7.889  1.00  0.00    -0.003 C 
ATOM      7  C   UNL     1      10.033   5.670  -6.539  1.00  0.00     0.004 C 
ENDBRANCH   5   6
ENDBRANCH   1   5
TORSDOF 3
ENDMDL
MODEL 5
REMARK VINA RESULT:    -3.054     23.348     24.110
REMARK INTER + INTRA:          -3.630
REMARK INTER:                  -3.585
REMARK INTRA:                  -0.045
REMARK UNBOUND:                -0.040
REMARK SMILES CCCCC(=O)[O-]
REMARK SMILES IDX 4 1 5 2 6 3 7 4 3 5 2 6 1 7
REMARK H PARENT
REMARK Flexibility Score: inf
ROOT
ATOM      1  C   UNL     1       8.613  -3.389   6.866  1.00  0.00     0.053 C 
ENDROOT
BRANCH   1   2
ATOM      2  C   UNL     1       9.404  -2.133   7.038  1.00  0.00     0.041 C 
ATOM      3  O   UNL     1      10.125  -1.971   8.058  1.00  0.00    -0.550 OA
ATOM      4  O   UNL     1       9.386  -1.157   6.049  1.00  0.00    -0.550 OA
ENDBRANCH   1   2
BRANCH   1   5
ATOM      5  C   UNL     1       8.705  -4.259   8.123  1.00  0.00     0.006 C 
BRANCH   5   6
ATOM      6  C   UNL     1       9.327  -5.622   7.804  1.00  0.00    -0.003 C 
ATOM      7  C   UNL     1      10.065  -5.592   6.468  1.00  0.00     0.004 C 
ENDBRANCH   5   6
ENDBRANCH   1   5
TORSDOF 3
ENDMDL
MODEL 6
REMARK VINA RESULT:    -3.034     17.150     18.332
REMARK INTER + INTRA:          -3.606
REMARK INTER:                  -3.569
REMARK INTRA:                  -0.037
REMARK UNBOUND:                -0.040
REMARK SMILES CCCCC(=O)[O-]
REMARK SMILES IDX 4 1 5 2 6 3 7 4 3 5 2 6 1 7
REMARK H PARENT
REMARK Flexibility Score: inf
ROOT
ATOM      1  C   UNL     1      -9.603   5.678   7.360  1.00  0.00     0.053 C 
ENDROOT
BRANCH   1   2
ATOM      2  C   UNL     1      -9.164   5.640   8.788  1.00  0.00     0.041 C 
ATOM      3  O   UNL     1      -7.938   5.635   9.076  1.00  0.00    -0.550 OA
ATOM      4  O   UNL     1     -10.109   5.661   9.807  1.00  0.00    -0.550 OA
ENDBRANCH   1   2
BRANCH   1   5
ATOM      5  C   UNL     1     -10.125   4.306   6.922  1.00  0.00     0.006 C 
BRANCH   5   6
ATOM      6  C   UNL     1      -8.990   3.277   6.872  1.00  0.00    -0.003 C 
ATOM      7  C   UNL     1      -9.540   1.855   6.784  1.00  0.00     0.004 C 
ENDBRANCH   5   6
ENDBRANCH   1   5
TORSDOF 3
ENDMDL
MODEL 7
REMARK VINA RESULT:    -2.941      9.479     10.197
REMARK INTER + INTRA:          -3.497
REMARK INTER:                  -3.473
REMARK INTRA:                  -0.024
REMARK UNBOUND:                -0.040
REMARK SMILES CCCCC(=O)[O-]
REMARK SMILES IDX 4 1 5 2 6 3 7 4 3 5 2 6 1 7
REMARK H PARENT
REMARK Flexibility Score: inf
ROOT
ATOM      1  C   UNL     1       0.487   0.076 -10.022  1.00  0.00     0.053 C 
ENDROOT
BRANCH   1   2
ATOM      2  C   UNL     1       0.608  -1.391  -9.755  1.00  0.00     0.041 C 
ATOM      3  O   UNL     1      -0.424  -2.110  -9.684  1.00  0.00    -0.550 OA
ATOM      4  O   UNL     1       1.862  -1.976  -9.634  1.00  0.00    -0.550 OA
ENDBRANCH   1   2
BRANCH   1   5
ATOM      5  C   UNL     1      -0.985   0.483 -10.125  1.00  0.00     0.006 C 
BRANCH   5   6
ATOM      6  C   UNL     1      -1.155   1.990  -9.902  1.00  0.00    -0.003 C 
ATOM      7  C   UNL     1      -2.630   2.371  -9.810  1.00  0.00     0.004 C 
ENDBRANCH   5   6
ENDBRANCH   1   5
TORSDOF 3
ENDMDL
MODEL 8
REMARK VINA RESULT:    -2.867     15.654     16.879
REMARK INTER + INTRA:          -3.410
REMARK INTER:                  -3.367
REMARK INTRA:                  -0.043
REMARK UNBOUND:                -0.040
REMARK SMILES CCCCC(=O)[O-]
REMARK SMILES IDX 4 1 5 2 6 3 7 4 3 5 2 6 1 7
REMARK H PARENT
REMARK Flexibility Score: inf
ROOT
ATOM      1  C   UNL     1      -8.798   3.261   6.767  1.00  0.00     0.053 C 
ENDROOT
BRANCH   1   2
ATOM      2  C   UNL     1      -9.460   1.920   6.764  1.00  0.00     0.041 C 
ATOM      3  O   UNL     1      -9.380   1.175   5.752  1.00  0.00    -0.550 OA
ATOM      4  O   UNL     1     -10.125   1.470   7.898  1.00  0.00    -0.550 OA
ENDBRANCH   1   2
BRANCH   1   5
ATOM      5  C   UNL     1      -9.797   4.352   7.160  1.00  0.00     0.006 C 
BRANCH   5   6
ATOM      6  C   UNL     1      -9.093   5.508   7.880  1.00  0.00    -0.003 C 
ATOM      7  C   UNL     1      -8.987   5.242   9.379  1.00  0.00     0.004 C 
ENDBRANCH   5   6
ENDBRANCH   1   5
TORSDOF 3
ENDMDL
MODEL 9
REMARK VINA RESULT:    -2.802     24.173     24.966
REMARK INTER + INTRA:          -3.333
REMARK INTER:                  -3.219
REMARK INTRA:                  -0.115
REMARK UNBOUND:                -0.040
REMARK SMILES CCCCC(=O)[O-]
REMARK SMILES IDX 4 1 5 2 6 3 7 4 3 5 2 6 1 7
REMARK H PARENT
REMARK Flexibility Score: inf
ROOT
ATOM      1  C   UNL     1       6.151   5.995   9.753  1.00  0.00     0.053 C 
ENDROOT
BRANCH   1   2
ATOM      2  C   UNL     1       4.835   6.471   9.225  1.00  0.00     0.041 C 
ATOM      3  O   UNL     1       4.032   5.659   8.695  1.00  0.00    -0.550 OA
ATOM      4  O   UNL     1       4.471   7.805   9.364  1.00  0.00    -0.550 OA
ENDBRANCH   1   2
BRANCH   1   5
ATOM      5  C   UNL     1       6.979   5.358   8.633  1.00  0.00     0.006 C 
BRANCH   5   6
ATOM      6  C   UNL     1       7.281   6.375   7.527  1.00  0.00    -0.003 C 
ATOM      7  C   UNL     1       8.162   7.508   8.046  1.00  0.00     0.004 C 
ENDBRANCH   5   6
ENDBRANCH   1   5
TORSDOF 3
ENDMDL
