MODEL 1
REMARK VINA RESULT:    -3.585      0.000      0.000
REMARK INTER + INTRA:          -4.923
REMARK INTER:                  -4.633
REMARK INTRA:                  -0.290
REMARK UNBOUND:                -0.290
REMARK SMILES CCCCCCC(=O)[O-]
REMARK SMILES IDX 5 1 6 2 7 3 8 4 9 5 4 6 3 7 2 8 1 9
REMARK H PARENT
REMARK Flexibility Score: inf
ROOT
ATOM      1  C   UNL     1      -9.942   1.022  15.440  1.00  0.00     0.006 C 
ENDROOT
BRANCH   1   2
ATOM      2  C   UNL     1     -10.610   0.621  14.119  1.00  0.00     0.053 C 
BRANCH   2   3
ATOM      3  C   UNL     1     -12.052   0.261  14.313  1.00  0.00     0.041 C 
ATOM      4  O   UNL     1     -12.675   0.667  15.329  1.00  0.00    -0.550 OA
ATOM      5  O   UNL     1     -12.716  -0.494  13.354  1.00  0.00    -0.550 OA
ENDBRANCH   2   3
ENDBRANCH   1   2
BRANCH   1   6
ATOM      6  C   UNL     1      -9.755   2.542  15.560  1.00  0.00     0.000 C 
BRANCH   6   7
ATOM      7  C   UNL     1     -10.440   3.082  16.824  1.00  0.00    -0.000 C 
BRANCH   7   8
ATOM      8  C   UNL     1     -11.617   4.016  16.503  1.00  0.00    -0.003 C 
ATOM      9  C   UNL     1     -12.912   3.597  17.199  1.00  0.00     0.004 C 
ENDBRANCH   7   8
ENDBRANCH   6   7
ENDBRANCH   1   6
TORSDOF 5
ENDMDL
MODEL 2
REMARK VINA RESULT:    -3.403      1.939      4.068
REMARK INTER + INTRA:          -4.688
REMARK INTER:                  -4.454
REMARK INTRA:                  -0.234
REMARK UNBOUND:                -0.290
REMARK SMILES CCCCCCC(=O)[O-]
REMARK SMILES IDX 5 1 6 2 7 3 8 4 9 5 4 6 3 7 2 8 1 9
REMARK H PARENT
REMARK Flexibility Score: inf
ROOT
ATOM      1  C   UNL     1     -10.451   1.612  15.937  1.00  0.00     0.006 C 
ENDROOT
BRANCH   1   2
ATOM      2  C   UNL     1     -10.446   3.145  15.885  1.00  0.00     0.053 C 
BRANCH   2   3
ATOM      3  C   UNL     1     -11.743   3.721  16.365  1.00  0.00     0.041 C 
ATOM      4  O   UNL     1     -12.767   2.995  16.449  1.00  0.00    -0.550 OA
ATOM      5  O   UNL     1     -11.811   5.054  16.751  1.00  0.00    -0.550 OA
ENDBRANCH   2   3
ENDBRANCH   1   2
BRANCH   1   6
ATOM      6  C   UNL     1      -9.635   0.987  14.796  1.00  0.00     0.000 C 
BRANCH   6   7
ATOM      7  C   UNL     1     -10.518   0.086  13.919  1.00  0.00    -0.000 C 
BRANCH   7   8
ATOM      8  C   UNL     1     -12.013   0.239  14.234  1.00  0.00    -0.003 C 
ATOM      9  C   UNL     1     -12.841  -0.963  13.780  1.00  0.00     0.004 C 
ENDBRANCH   7   8
ENDBRANCH   6   7
ENDBRANCH   1   6
TORSDOF 5
ENDMDL
MODEL 3
REMARK VINA RESULT:    -3.396      1.571      2.146
REMARK INTER + INTRA:          -4.679
REMARK INTER:                  -4.409
REMARK INTRA:                  -0.270
REMARK UNBOUND:                -0.290
REMARK SMILES CCCCCCC(=O)[O-]
REMARK SMILES IDX 5 1 6 2 7 3 8 4 9 5 4 6 3 7 2 8 1 9
REMARK H PARENT
REMARK Flexibility Score: inf
ROOT
ATOM      1  C   UNL     1     -10.063   2.770  15.709  1.00  0.00     0.006 C 
ENDROOT
BRANCH   1   2
ATOM      2  C   UNL     1     -10.455   1.289  15.791  1.00  0.00     0.053 C 
BRANCH   2   3
ATOM      3  C   UNL     1     -10.446   0.638  14.441  1.00  0.00     0.041 C 
ATOM      4  O   UNL     1     -11.529   0.385  13.852  1.00  0.00    -0.550 OA
ATOM      5  O   UNL     1      -9.239   0.341  13.820  1.00  0.00    -0.550 OA
ENDBRANCH   2   3
ENDBRANCH   1   2
BRANCH   1   6
ATOM      6  C   UNL     1     -11.246   3.703  16.010  1.00  0.00     0.000 C 
BRANCH   6   7
ATOM      7  C   UNL     1     -12.408   2.929  16.649  1.00  0.00    -0.000 C 
BRANCH   7   8
ATOM      8  C   UNL     1     -13.053   3.690  17.816  1.00  0.00    -0.003 C 
ATOM      9  C   UNL     1     -12.344   3.447  19.147  1.00  0.00     0.004 C 
ENDBRANCH   7   8
ENDBRANCH   6   7
ENDBRANCH   1   6
TORSDOF 5
ENDMDL
MODEL 4
REMARK VINA RESULT:    -3.386      1.486      2.162
REMARK INTER + INTRA:          -4.666
REMARK INTER:                  -4.501
REMARK INTRA:                  -0.165
REMARK UNBOUND:                -0.290
REMARK SMILES CCCCCCC(=O)[O-]
REMARK SMILES IDX 5 1 6 2 7 3 8 4 9 5 4 6 3 7 2 8 1 9
REMARK H PARENT
REMARK Flexibility Score: inf
ROOT
ATOM      1  C   UNL     1     -11.490   1.729  16.217  1.00  0.00     0.006 C 
ENDROOT
BRANCH   1   2
ATOM      2  C   UNL     1     -12.544   0.986  15.386  1.00  0.00     0.053 C 
BRANCH   2   3
ATOM      3  C   UNL     1     -11.930   0.272  14.220  1.00  0.00     0.041 C 
ATOM      4  O   UNL     1     -12.661  -0.307  13.375  1.00  0.00    -0.550 OA
ATOM      5  O   UNL     1     -10.552   0.277  14.050  1.00  0.00    -0.550 OA
ENDBRANCH   2   3
ENDBRANCH   1   2
BRANCH   1   6
ATOM      6  C   UNL     1     -11.701   3.250  16.200  1.00  0.00     0.000 C 
BRANCH   6   7
ATOM      7  C   UNL     1     -12.879   3.651  17.101  1.00  0.00    -0.000 C 
BRANCH   7   8
ATOM      8  C   UNL     1     -12.542   3.545  18.595  1.00  0.00    -0.003 C 
ATOM      9  C   UNL     1     -13.656   4.081  19.494  1.00  0.00     0.004 C 
ENDBRANCH   7   8
ENDBRANCH   6   7
ENDBRANCH   1   6
TORSDOF 5
ENDMDL
MODEL 5
REMARK VINA RESULT:    -3.372      1.270      1.440
REMARK INTER + INTRA:          -4.648
REMARK INTER:                  -4.414
REMARK INTRA:                  -0.234
REMARK UNBOUND:                -0.290
REMARK SMILES CCCCCCC(=O)[O-]
REMARK SMILES IDX 5 1 6 2 7 3 8 4 9 5 4 6 3 7 2 8 1 9
REMARK H PARENT
REMARK Flexibility Score: inf
ROOT
ATOM      1  C   UNL     1      -9.911   1.002  15.409  1.00  0.00     0.006 C 
ENDROOT
BRANCH   1   2
ATOM      2  C   UNL     1     -10.633   0.650  14.102  1.00  0.00     0.053 C 
BRANCH   2   3
ATOM      3  C   UNL     1     -12.063   0.273  14.342  1.00  0.00     0.041 C 
ATOM      4  O   UNL     1     -12.679   0.726  15.342  1.00  0.00    -0.550 OA
ATOM      5  O   UNL     1     -12.725  -0.552  13.442  1.00  0.00    -0.550 OA
ENDBRANCH   2   3
ENDBRANCH   1   2
BRANCH   1   6
ATOM      6  C   UNL     1      -9.785   2.520  15.614  1.00  0.00     0.000 C 
BRANCH   6   7
ATOM      7  C   UNL     1      -9.504   2.853  17.087  1.00  0.00    -0.000 C 
BRANCH   7   8
ATOM      8  C   UNL     1      -9.956   1.738  18.041  1.00  0.00    -0.003 C 
ATOM      9  C   UNL     1     -11.296   2.039  18.712  1.00  0.00     0.004 C 
ENDBRANCH   7   8
ENDBRANCH   6   7
ENDBRANCH   1   6
TORSDOF 5
ENDMDL
MODEL 6
REMARK VINA RESULT:    -3.323      1.801      2.443
REMARK INTER + INTRA:          -4.584
REMARK INTER:                  -4.393
REMARK INTRA:                  -0.191
REMARK UNBOUND:                -0.290
REMARK SMILES CCCCCCC(=O)[O-]
REMARK SMILES IDX 5 1 6 2 7 3 8 4 9 5 4 6 3 7 2 8 1 9
REMARK H PARENT
REMARK Flexibility Score: inf
ROOT
ATOM      1  C   UNL     1     -10.977   2.571  15.722  1.00  0.00     0.006 C 
ENDROOT
BRANCH   1   2
ATOM      2  C   UNL     1     -10.002   1.388  15.664  1.00  0.00     0.053 C 
BRANCH   2   3
ATOM      3  C   UNL     1     -10.120   0.636  14.373  1.00  0.00     0.041 C 
ATOM      4  O   UNL     1      -9.093   0.386  13.689  1.00  0.00    -0.550 OA
ATOM      5  O   UNL     1     -11.360   0.182  13.943  1.00  0.00    -0.550 OA
ENDBRANCH   2   3
ENDBRANCH   1   2
BRANCH   1   6
ATOM      6  C   UNL     1     -12.202   2.275  16.601  1.00  0.00     0.000 C 
BRANCH   6   7
ATOM      7  C   UNL     1     -12.884   3.576  17.049  1.00  0.00    -0.000 C 
BRANCH   7   8
ATOM      8  C   UNL     1     -12.683   3.863  18.544  1.00  0.00    -0.003 C 
ATOM      9  C   UNL     1     -11.906   2.760  19.261  1.00  0.00     0.004 C 
ENDBRANCH   7   8
ENDBRANCH   6   7
ENDBRANCH   1   6
TORSDOF 5
ENDMDL
MODEL 7
REMARK VINA RESULT:    -3.252      2.678      4.494
REMARK INTER + INTRA:          -4.493
REMARK INTER:                  -4.223
REMARK INTRA:                  -0.270
REMARK UNBOUND:                -0.290
REMARK SMILES CCCCCCC(=O)[O-]
REMARK SMILES IDX 5 1 6 2 7 3 8 4 9 5 4 6 3 7 2 8 1 9
REMARK H PARENT
REMARK Flexibility Score: inf
ROOT
ATOM      1  C   UNL     1     -12.270   2.819  16.365  1.00  0.00     0.006 C 
ENDROOT
BRANCH   1   2
ATOM      2  C   UNL     1     -12.871   3.595  17.544  1.00  0.00     0.053 C 
BRANCH   2   3
ATOM      3  C   UNL     1     -12.196   3.249  18.837  1.00  0.00     0.041 C 
ATOM      4  O   UNL     1     -12.174   4.080  19.782  1.00  0.00    -0.550 OA
ATOM      5  O   UNL     1     -11.622   1.996  19.008  1.00  0.00    -0.550 OA
ENDBRANCH   2   3
ENDBRANCH   1   2
BRANCH   1   6
ATOM      6  C   UNL     1     -10.968   3.453  15.853  1.00  0.00     0.000 C 
BRANCH   6   7
ATOM      7  C   UNL     1      -9.827   2.425  15.831  1.00  0.00    -0.000 C 
BRANCH   7   8
ATOM      8  C   UNL     1     -10.290   1.041  15.355  1.00  0.00    -0.003 C 
ATOM      9  C   UNL     1      -9.563   0.574  14.093  1.00  0.00     0.004 C 
ENDBRANCH   7   8
ENDBRANCH   6   7
ENDBRANCH   1   6
TORSDOF 5
ENDMDL
MODEL 8
REMARK VINA RESULT:    -3.197      2.282      4.187
REMARK INTER + INTRA:          -4.422
REMARK INTER:                  -4.227
REMARK INTRA:                  -0.195
REMARK UNBOUND:                -0.290
REMARK SMILES CCCCCCC(=O)[O-]
REMARK SMILES IDX 5 1 6 2 7 3 8 4 9 5 4 6 3 7 2 8 1 9
REMARK H PARENT
REMARK Flexibility Score: inf
ROOT
ATOM      1  C   UNL     1     -10.482   3.028  15.600  1.00  0.00     0.006 C 
ENDROOT
BRANCH   1   2
ATOM      2  C   UNL     1     -10.605   3.533  17.043  1.00  0.00     0.053 C 
BRANCH   2   3
ATOM      3  C   UNL     1     -11.903   4.246  17.272  1.00  0.00     0.041 C 
ATOM      4  O   UNL     1     -11.911   5.463  17.595  1.00  0.00    -0.550 OA
ATOM      5  O   UNL     1     -13.106   3.574  17.095  1.00  0.00    -0.550 OA
ENDBRANCH   2   3
ENDBRANCH   1   2
BRANCH   1   6
ATOM      6  C   UNL     1      -9.654   1.737  15.504  1.00  0.00     0.000 C 
BRANCH   6   7
ATOM      7  C   UNL     1     -10.331   0.718  14.575  1.00  0.00    -0.000 C 
BRANCH   7   8
ATOM      8  C   UNL     1     -11.850   0.640  14.793  1.00  0.00    -0.003 C 
ATOM      9  C   UNL     1     -12.554  -0.227  13.750  1.00  0.00     0.004 C 
ENDBRANCH   7   8
ENDBRANCH   6   7
ENDBRANCH   1   6
TORSDOF 5
ENDMDL
MODEL 9
REMARK VINA RESULT:    -3.057      2.999      4.471
REMARK INTER + INTRA:          -4.241
REMARK INTER:                  -3.999
REMARK INTRA:                  -0.242
REMARK UNBOUND:                -0.290
REMARK SMILES CCCCCCC(=O)[O-]
REMARK SMILES IDX 5 1 6 2 7 3 8 4 9 5 4 6 3 7 2 8 1 9
REMARK H PARENT
REMARK Flexibility Score: inf
ROOT
ATOM      1  C   UNL     1     -11.468   2.135  15.892  1.00  0.00     0.006 C 
ENDROOT
BRANCH   1   2
ATOM      2  C   UNL     1     -11.346   2.060  17.419  1.00  0.00     0.053 C 
BRANCH   2   3
ATOM      3  C   UNL     1     -10.024   2.580  17.896  1.00  0.00     0.041 C 
ATOM      4  O   UNL     1      -9.746   3.803  17.786  1.00  0.00    -0.550 OA
ATOM      5  O   UNL     1      -9.113   1.718  18.494  1.00  0.00    -0.550 OA
ENDBRANCH   2   3
ENDBRANCH   1   2
BRANCH   1   6
ATOM      6  C   UNL     1     -10.335   1.380  15.179  1.00  0.00     0.000 C 
BRANCH   6   7
ATOM      7  C   UNL     1     -10.899   0.377  14.162  1.00  0.00    -0.000 C 
BRANCH   7   8
ATOM      8  C   UNL     1     -12.409   0.156  14.326  1.00  0.00    -0.003 C 
ATOM      9  C   UNL     1     -12.889  -1.152  13.697  1.00  0.00     0.004 C 
ENDBRANCH   7   8
ENDBRANCH   6   7
ENDBRANCH   1   6
TORSDOF 5
ENDMDL
