MODEL 1
REMARK VINA RESULT:    -6.594      0.000      0.000
REMARK INTER + INTRA:          -8.492
REMARK INTER:                  -8.136
REMARK INTRA:                  -0.356
REMARK UNBOUND:                -0.356
REMARK SMILES O=c1c(O)c(-c2cc(O)c(O)c(O)c2)oc2cc(O)cc(O)c12
REMARK SMILES IDX 5 1 3 2 2 3 1 4 23 5 21 6 20 7 18 8 17 9 16 10 15 11 6 12
REMARK SMILES IDX 7 13 8 14 14 15 10 16 12 17 9 18 11 20 13 22 4 24 22 26
REMARK SMILES IDX 19 28
REMARK H PARENT 9 19 11 21 13 23 4 25 22 27 19 29
REMARK Flexibility Score: inf
ROOT
ATOM      1  C   UNL     1      10.687  -3.015   4.291  1.00  0.00     0.180 A 
ATOM      2  C   UNL     1      11.232  -3.850   3.300  1.00  0.00     0.208 A 
ATOM      3  C   UNL     1      10.992  -3.549   1.949  1.00  0.00     0.238 A 
ATOM      4  O   UNL     1      11.437  -4.331   1.068  1.00  0.00    -0.285 OA
ATOM      5  C   UNL     1      10.225  -2.410   1.607  1.00  0.00     0.111 A 
ATOM      6  C   UNL     1       9.954  -1.988   0.270  1.00  0.00     0.134 A 
ATOM      7  C   UNL     1       9.074  -0.921   0.048  1.00  0.00     0.093 A 
ATOM      8  C   UNL     1       8.510  -0.218   1.116  1.00  0.00     0.123 A 
ATOM      9  C   UNL     1       8.816  -0.586   2.424  1.00  0.00     0.094 A 
ATOM     10  C   UNL     1       9.660  -1.669   2.677  1.00  0.00     0.146 A 
ATOM     11  O   UNL     1       9.918  -1.991   3.939  1.00  0.00    -0.452 OA
ENDROOT
BRANCH   1  12
ATOM     12  C   UNL     1      10.918  -3.253   5.734  1.00  0.00     0.029 A 
ATOM     13  C   UNL     1      10.048  -4.055   6.492  1.00  0.00     0.062 A 
ATOM     14  C   UNL     1      10.296  -4.288   7.852  1.00  0.00     0.162 A 
ATOM     15  C   UNL     1      12.059  -2.714   6.348  1.00  0.00     0.062 A 
ATOM     16  C   UNL     1      11.429  -3.725   8.464  1.00  0.00     0.200 A 
ATOM     17  C   UNL     1      12.313  -2.939   7.705  1.00  0.00     0.162 A 
BRANCH  14  18
ATOM     18  O   UNL     1       9.422  -5.080   8.595  1.00  0.00    -0.504 OA
ATOM     19  H   UNL     1       8.445  -4.836   8.704  1.00  0.00     0.293 HD
ENDBRANCH  14  18
BRANCH  16  20
ATOM     20  O   UNL     1      11.688  -3.943   9.817  1.00  0.00    -0.502 OA
ATOM     21  H   UNL     1      11.061  -4.475  10.409  1.00  0.00     0.293 HD
ENDBRANCH  16  20
BRANCH  17  22
ATOM     22  O   UNL     1      13.451  -2.375   8.281  1.00  0.00    -0.504 OA
ATOM     23  H   UNL     1      13.470  -2.066   9.246  1.00  0.00     0.293 HD
ENDBRANCH  17  22
ENDBRANCH   1  12
BRANCH   2  24
ATOM     24  O   UNL     1      11.967  -4.982   3.661  1.00  0.00    -0.502 OA
ATOM     25  H   UNL     1      11.781  -5.899   3.271  1.00  0.00     0.293 HD
ENDBRANCH   2  24
BRANCH   6  26
ATOM     26  O   UNL     1      10.537  -2.562  -0.864  1.00  0.00    -0.507 OA
ATOM     27  H   UNL     1      11.482  -2.390  -1.172  1.00  0.00     0.293 HD
ENDBRANCH   6  26
BRANCH   8  28
ATOM     28  O   UNL     1       7.649   0.852   0.886  1.00  0.00    -0.508 OA
ATOM     29  H   UNL     1       7.555   1.610   1.552  1.00  0.00     0.293 HD
ENDBRANCH   8  28
TORSDOF 7
ENDMDL
MODEL 2
REMARK VINA RESULT:    -6.491      2.176      2.787
REMARK INTER + INTRA:          -8.365
REMARK INTER:                  -7.996
REMARK INTRA:                  -0.369
REMARK UNBOUND:                -0.356
REMARK SMILES O=c1c(O)c(-c2cc(O)c(O)c(O)c2)oc2cc(O)cc(O)c12
REMARK SMILES IDX 5 1 3 2 2 3 1 4 23 5 21 6 20 7 18 8 17 9 16 10 15 11 6 12
REMARK SMILES IDX 7 13 8 14 14 15 10 16 12 17 9 18 11 20 13 22 4 24 22 26
REMARK SMILES IDX 19 28
REMARK H PARENT 9 19 11 21 13 23 4 25 22 27 19 29
REMARK Flexibility Score: inf
ROOT
ATOM      1  C   UNL     1       9.922  -2.597   4.543  1.00  0.00     0.180 A 
ATOM      2  C   UNL     1       8.857  -3.514   4.548  1.00  0.00     0.208 A 
ATOM      3  C   UNL     1       7.887  -3.436   3.536  1.00  0.00     0.238 A 
ATOM      4  O   UNL     1       6.906  -4.224   3.576  1.00  0.00    -0.285 OA
ATOM      5  C   UNL     1       8.002  -2.452   2.524  1.00  0.00     0.111 A 
ATOM      6  C   UNL     1       7.099  -2.308   1.428  1.00  0.00     0.134 A 
ATOM      7  C   UNL     1       7.237  -1.218   0.559  1.00  0.00     0.093 A 
ATOM      8  C   UNL     1       8.285  -0.307   0.708  1.00  0.00     0.123 A 
ATOM      9  C   UNL     1       9.206  -0.473   1.739  1.00  0.00     0.094 A 
ATOM     10  C   UNL     1       9.073  -1.530   2.644  1.00  0.00     0.146 A 
ATOM     11  O   UNL     1       9.968  -1.646   3.618  1.00  0.00    -0.452 OA
ENDROOT
BRANCH   1  12
ATOM     12  C   UNL     1      10.996  -2.634   5.562  1.00  0.00     0.029 A 
ATOM     13  C   UNL     1      12.146  -3.422   5.385  1.00  0.00     0.062 A 
ATOM     14  C   UNL     1      13.163  -3.425   6.350  1.00  0.00     0.162 A 
ATOM     15  C   UNL     1      10.894  -1.822   6.702  1.00  0.00     0.062 A 
ATOM     16  C   UNL     1      13.042  -2.627   7.500  1.00  0.00     0.200 A 
ATOM     17  C   UNL     1      11.903  -1.821   7.671  1.00  0.00     0.162 A 
BRANCH  14  18
ATOM     18  O   UNL     1      14.296  -4.217   6.166  1.00  0.00    -0.504 OA
ATOM     19  H   UNL     1      14.549  -4.944   6.825  1.00  0.00     0.293 HD
ENDBRANCH  14  18
BRANCH  16  20
ATOM     20  O   UNL     1      14.042  -2.622   8.472  1.00  0.00    -0.502 OA
ATOM     21  H   UNL     1      14.416  -3.477   8.867  1.00  0.00     0.293 HD
ENDBRANCH  16  20
BRANCH  17  22
ATOM     22  O   UNL     1      11.757  -1.010   8.796  1.00  0.00    -0.504 OA
ATOM     23  H   UNL     1      11.806  -1.381   9.738  1.00  0.00     0.293 HD
ENDBRANCH  17  22
ENDBRANCH   1  12
BRANCH   2  24
ATOM     24  O   UNL     1       8.750  -4.462   5.569  1.00  0.00    -0.502 OA
ATOM     25  H   UNL     1       8.243  -5.332   5.453  1.00  0.00     0.293 HD
ENDBRANCH   2  24
BRANCH   6  26
ATOM     26  O   UNL     1       6.075  -3.214   1.135  1.00  0.00    -0.507 OA
ATOM     27  H   UNL     1       5.247  -3.345   1.696  1.00  0.00     0.293 HD
ENDBRANCH   6  26
BRANCH   8  28
ATOM     28  O   UNL     1       8.424   0.765  -0.171  1.00  0.00    -0.508 OA
ATOM     29  H   UNL     1       7.812   1.571  -0.126  1.00  0.00     0.293 HD
ENDBRANCH   8  28
TORSDOF 7
ENDMDL
MODEL 3
REMARK VINA RESULT:    -6.490      1.794      6.897
REMARK INTER + INTRA:          -8.364
REMARK INTER:                  -8.355
REMARK INTRA:                  -0.009
REMARK UNBOUND:                -0.356
REMARK SMILES O=c1c(O)c(-c2cc(O)c(O)c(O)c2)oc2cc(O)cc(O)c12
REMARK SMILES IDX 5 1 3 2 2 3 1 4 23 5 21 6 20 7 18 8 17 9 16 10 15 11 6 12
REMARK SMILES IDX 7 13 8 14 14 15 10 16 12 17 9 18 11 20 13 22 4 24 22 26
REMARK SMILES IDX 19 28
REMARK H PARENT 9 19 11 21 13 23 4 25 22 27 19 29
REMARK Flexibility Score: inf
ROOT
ATOM      1  C   UNL     1      10.229  -2.777   4.773  1.00  0.00     0.180 A 
ATOM      2  C   UNL     1      10.110  -4.157   5.016  1.00  0.00     0.208 A 
ATOM      3  C   UNL     1      10.497  -4.665   6.267  1.00  0.00     0.238 A 
ATOM      4  O   UNL     1      10.439  -5.907   6.458  1.00  0.00    -0.285 OA
ATOM      5  C   UNL     1      10.983  -3.785   7.264  1.00  0.00     0.111 A 
ATOM      6  C   UNL     1      11.365  -4.185   8.580  1.00  0.00     0.134 A 
ATOM      7  C   UNL     1      11.956  -3.251   9.441  1.00  0.00     0.093 A 
ATOM      8  C   UNL     1      12.114  -1.917   9.056  1.00  0.00     0.123 A 
ATOM      9  C   UNL     1      11.690  -1.505   7.795  1.00  0.00     0.094 A 
ATOM     10  C   UNL     1      11.132  -2.421   6.901  1.00  0.00     0.146 A 
ATOM     11  O   UNL     1      10.749  -1.988   5.706  1.00  0.00    -0.452 OA
ENDROOT
BRANCH   1  12
ATOM     12  C   UNL     1       9.817  -2.166   3.489  1.00  0.00     0.029 A 
ATOM     13  C   UNL     1       8.586  -2.480   2.890  1.00  0.00     0.062 A 
ATOM     14  C   UNL     1       8.203  -1.872   1.687  1.00  0.00     0.162 A 
ATOM     15  C   UNL     1      10.646  -1.208   2.884  1.00  0.00     0.062 A 
ATOM     16  C   UNL     1       9.050  -0.932   1.075  1.00  0.00     0.200 A 
ATOM     17  C   UNL     1      10.273  -0.599   1.682  1.00  0.00     0.162 A 
BRANCH  14  18
ATOM     18  O   UNL     1       6.981  -2.197   1.098  1.00  0.00    -0.504 OA
ATOM     19  H   UNL     1       6.568  -3.116   1.204  1.00  0.00     0.293 HD
ENDBRANCH  14  18
BRANCH  16  20
ATOM     20  O   UNL     1       8.687  -0.322  -0.125  1.00  0.00    -0.502 OA
ATOM     21  H   UNL     1       7.912  -0.654  -0.688  1.00  0.00     0.293 HD
ENDBRANCH  16  20
BRANCH  17  22
ATOM     22  O   UNL     1      11.132   0.337   1.106  1.00  0.00    -0.504 OA
ATOM     23  H   UNL     1      11.344   0.336   0.114  1.00  0.00     0.293 HD
ENDBRANCH  17  22
ENDBRANCH   1  12
BRANCH   2  24
ATOM     24  O   UNL     1       9.648  -5.010   4.009  1.00  0.00    -0.502 OA
ATOM     25  H   UNL     1       8.951  -4.724   3.332  1.00  0.00     0.293 HD
ENDBRANCH   2  24
BRANCH   6  26
ATOM     26  O   UNL     1      11.165  -5.469   9.095  1.00  0.00    -0.507 OA
ATOM     27  H   UNL     1      10.709  -5.671   9.972  1.00  0.00     0.293 HD
ENDBRANCH   6  26
BRANCH   8  28
ATOM     28  O   UNL     1      12.687  -0.991   9.925  1.00  0.00    -0.508 OA
ATOM     29  H   UNL     1      12.896  -0.044   9.630  1.00  0.00     0.293 HD
ENDBRANCH   8  28
TORSDOF 7
ENDMDL
MODEL 4
REMARK VINA RESULT:    -6.408      1.942      2.576
REMARK INTER + INTRA:          -8.263
REMARK INTER:                  -7.917
REMARK INTRA:                  -0.346
REMARK UNBOUND:                -0.356
REMARK SMILES O=c1c(O)c(-c2cc(O)c(O)c(O)c2)oc2cc(O)cc(O)c12
REMARK SMILES IDX 5 1 3 2 2 3 1 4 23 5 21 6 20 7 18 8 17 9 16 10 15 11 6 12
REMARK SMILES IDX 7 13 8 14 14 15 10 16 12 17 9 18 11 20 13 22 4 24 22 26
REMARK SMILES IDX 19 28
REMARK H PARENT 9 19 11 21 13 23 4 25 22 27 19 29
REMARK Flexibility Score: inf
ROOT
ATOM      1  C   UNL     1      10.864  -3.960   4.962  1.00  0.00     0.180 A 
ATOM      2  C   UNL     1      11.794  -4.505   4.060  1.00  0.00     0.208 A 
ATOM      3  C   UNL     1      11.436  -4.636   2.709  1.00  0.00     0.238 A 
ATOM      4  O   UNL     1      12.253  -5.175   1.917  1.00  0.00    -0.285 OA
ATOM      5  C   UNL     1      10.159  -4.206   2.274  1.00  0.00     0.111 A 
ATOM      6  C   UNL     1       9.707  -4.254   0.921  1.00  0.00     0.134 A 
ATOM      7  C   UNL     1       8.378  -3.924   0.625  1.00  0.00     0.093 A 
ATOM      8  C   UNL     1       7.506  -3.484   1.625  1.00  0.00     0.123 A 
ATOM      9  C   UNL     1       7.957  -3.377   2.938  1.00  0.00     0.094 A 
ATOM     10  C   UNL     1       9.266  -3.734   3.270  1.00  0.00     0.146 A 
ATOM     11  O   UNL     1       9.652  -3.626   4.536  1.00  0.00    -0.452 OA
ENDROOT
BRANCH   1  12
ATOM     12  C   UNL     1      11.178  -3.767   6.396  1.00  0.00     0.029 A 
ATOM     13  C   UNL     1      11.931  -2.666   6.839  1.00  0.00     0.062 A 
ATOM     14  C   UNL     1      12.198  -2.488   8.204  1.00  0.00     0.162 A 
ATOM     15  C   UNL     1      10.667  -4.669   7.342  1.00  0.00     0.062 A 
ATOM     16  C   UNL     1      11.701  -3.409   9.142  1.00  0.00     0.200 A 
ATOM     17  C   UNL     1      10.930  -4.500   8.705  1.00  0.00     0.162 A 
BRANCH  14  18
ATOM     18  O   UNL     1      12.951  -1.395   8.630  1.00  0.00    -0.504 OA
ATOM     19  H   UNL     1      12.952  -1.095   9.598  1.00  0.00     0.293 HD
ENDBRANCH  14  18
BRANCH  16  20
ATOM     20  O   UNL     1      11.962  -3.249  10.503  1.00  0.00    -0.502 OA
ATOM     21  H   UNL     1      11.757  -2.388  10.995  1.00  0.00     0.293 HD
ENDBRANCH  16  20
BRANCH  17  22
ATOM     22  O   UNL     1      10.416  -5.427   9.611  1.00  0.00    -0.504 OA
ATOM     23  H   UNL     1      10.983  -6.167  10.007  1.00  0.00     0.293 HD
ENDBRANCH  17  22
ENDBRANCH   1  12
BRANCH   2  24
ATOM     24  O   UNL     1      13.041  -4.943   4.516  1.00  0.00    -0.502 OA
ATOM     25  H   UNL     1      13.203  -5.895   4.826  1.00  0.00     0.293 HD
ENDBRANCH   2  24
BRANCH   6  26
ATOM     26  O   UNL     1      10.521  -4.591  -0.164  1.00  0.00    -0.507 OA
ATOM     27  H   UNL     1      10.957  -3.925  -0.784  1.00  0.00     0.293 HD
ENDBRANCH   6  26
BRANCH   8  28
ATOM     28  O   UNL     1       6.191  -3.142   1.320  1.00  0.00    -0.508 OA
ATOM     29  H   UNL     1       5.425  -3.787   1.474  1.00  0.00     0.293 HD
ENDBRANCH   8  28
TORSDOF 7
ENDMDL
MODEL 5
REMARK VINA RESULT:    -6.184      2.098      7.098
REMARK INTER + INTRA:          -7.986
REMARK INTER:                  -7.673
REMARK INTRA:                  -0.313
REMARK UNBOUND:                -0.356
REMARK SMILES O=c1c(O)c(-c2cc(O)c(O)c(O)c2)oc2cc(O)cc(O)c12
REMARK SMILES IDX 5 1 3 2 2 3 1 4 23 5 21 6 20 7 18 8 17 9 16 10 15 11 6 12
REMARK SMILES IDX 7 13 8 14 14 15 10 16 12 17 9 18 11 20 13 22 4 24 22 26
REMARK SMILES IDX 19 28
REMARK H PARENT 9 19 11 21 13 23 4 25 22 27 19 29
REMARK Flexibility Score: inf
ROOT
ATOM      1  C   UNL     1       9.759  -4.184   5.108  1.00  0.00     0.180 A 
ATOM      2  C   UNL     1       9.348  -5.268   5.903  1.00  0.00     0.208 A 
ATOM      3  C   UNL     1       9.767  -5.329   7.241  1.00  0.00     0.238 A 
ATOM      4  O   UNL     1       9.441  -6.330   7.932  1.00  0.00    -0.285 OA
ATOM      5  C   UNL     1      10.577  -4.297   7.773  1.00  0.00     0.111 A 
ATOM      6  C   UNL     1      11.026  -4.236   9.127  1.00  0.00     0.134 A 
ATOM      7  C   UNL     1      11.932  -3.238   9.510  1.00  0.00     0.093 A 
ATOM      8  C   UNL     1      12.351  -2.260   8.604  1.00  0.00     0.123 A 
ATOM      9  C   UNL     1      11.871  -2.277   7.296  1.00  0.00     0.094 A 
ATOM     10  C   UNL     1      10.996  -3.282   6.875  1.00  0.00     0.146 A 
ATOM     11  O   UNL     1      10.571  -3.266   5.617  1.00  0.00    -0.452 OA
ENDROOT
BRANCH   1  12
ATOM     12  C   UNL     1       9.336  -4.038   3.696  1.00  0.00     0.029 A 
ATOM     13  C   UNL     1       8.034  -3.631   3.360  1.00  0.00     0.062 A 
ATOM     14  C   UNL     1       7.660  -3.476   2.018  1.00  0.00     0.162 A 
ATOM     15  C   UNL     1      10.270  -4.254   2.671  1.00  0.00     0.062 A 
ATOM     16  C   UNL     1       8.595  -3.717   0.997  1.00  0.00     0.200 A 
ATOM     17  C   UNL     1       9.905  -4.104   1.329  1.00  0.00     0.162 A 
BRANCH  14  18
ATOM     18  O   UNL     1       6.363  -3.079   1.697  1.00  0.00    -0.504 OA
ATOM     19  H   UNL     1       5.572  -3.320   2.283  1.00  0.00     0.293 HD
ENDBRANCH  14  18
BRANCH  16  20
ATOM     20  O   UNL     1       8.238  -3.572  -0.344  1.00  0.00    -0.502 OA
ATOM     21  H   UNL     1       8.089  -4.368  -0.953  1.00  0.00     0.293 HD
ENDBRANCH  16  20
BRANCH  17  22
ATOM     22  O   UNL     1      10.859  -4.342   0.340  1.00  0.00    -0.504 OA
ATOM     23  H   UNL     1      11.428  -3.599  -0.050  1.00  0.00     0.293 HD
ENDBRANCH  17  22
ENDBRANCH   1  12
BRANCH   2  24
ATOM     24  O   UNL     1       8.566  -6.287   5.351  1.00  0.00    -0.502 OA
ATOM     25  H   UNL     1       8.949  -6.990   4.729  1.00  0.00     0.293 HD
ENDBRANCH   2  24
BRANCH   6  26
ATOM     26  O   UNL     1      10.597  -5.108  10.132  1.00  0.00    -0.507 OA
ATOM     27  H   UNL     1       9.632  -5.318  10.336  1.00  0.00     0.293 HD
ENDBRANCH   6  26
BRANCH   8  28
ATOM     28  O   UNL     1      13.238  -1.261   8.997  1.00  0.00    -0.508 OA
ATOM     29  H   UNL     1      13.594  -0.577   8.340  1.00  0.00     0.293 HD
ENDBRANCH   8  28
TORSDOF 7
ENDMDL
MODEL 6
REMARK VINA RESULT:    -6.024      3.081      7.198
REMARK INTER + INTRA:          -7.789
REMARK INTER:                  -7.432
REMARK INTRA:                  -0.357
REMARK UNBOUND:                -0.356
REMARK SMILES O=c1c(O)c(-c2cc(O)c(O)c(O)c2)oc2cc(O)cc(O)c12
REMARK SMILES IDX 5 1 3 2 2 3 1 4 23 5 21 6 20 7 18 8 17 9 16 10 15 11 6 12
REMARK SMILES IDX 7 13 8 14 14 15 10 16 12 17 9 18 11 20 13 22 4 24 22 26
REMARK SMILES IDX 19 28
REMARK H PARENT 9 19 11 21 13 23 4 25 22 27 19 29
REMARK Flexibility Score: inf
ROOT
ATOM      1  C   UNL     1       9.939  -4.732   3.729  1.00  0.00     0.180 A 
ATOM      2  C   UNL     1       9.697  -5.095   5.065  1.00  0.00     0.208 A 
ATOM      3  C   UNL     1      10.460  -6.125   5.640  1.00  0.00     0.238 A 
ATOM      4  O   UNL     1      10.202  -6.482   6.819  1.00  0.00    -0.285 OA
ATOM      5  C   UNL     1      11.463  -6.768   4.876  1.00  0.00     0.111 A 
ATOM      6  C   UNL     1      12.322  -7.795   5.369  1.00  0.00     0.134 A 
ATOM      7  C   UNL     1      13.191  -8.451   4.488  1.00  0.00     0.093 A 
ATOM      8  C   UNL     1      13.279  -8.069   3.146  1.00  0.00     0.123 A 
ATOM      9  C   UNL     1      12.487  -7.027   2.670  1.00  0.00     0.094 A 
ATOM     10  C   UNL     1      11.585  -6.379   3.517  1.00  0.00     0.146 A 
ATOM     11  O   UNL     1      10.842  -5.397   3.020  1.00  0.00    -0.452 OA
ENDROOT
BRANCH   1  12
ATOM     12  C   UNL     1       9.193  -3.639   3.063  1.00  0.00     0.029 A 
ATOM     13  C   UNL     1       9.697  -2.328   3.023  1.00  0.00     0.062 A 
ATOM     14  C   UNL     1       8.989  -1.312   2.368  1.00  0.00     0.162 A 
ATOM     15  C   UNL     1       7.986  -3.926   2.408  1.00  0.00     0.062 A 
ATOM     16  C   UNL     1       7.769  -1.603   1.735  1.00  0.00     0.200 A 
ATOM     17  C   UNL     1       7.271  -2.918   1.754  1.00  0.00     0.162 A 
BRANCH  14  18
ATOM     18  O   UNL     1       9.496  -0.013   2.341  1.00  0.00    -0.504 OA
ATOM     19  H   UNL     1       9.660   0.475   1.468  1.00  0.00     0.293 HD
ENDBRANCH  14  18
BRANCH  16  20
ATOM     20  O   UNL     1       7.048  -0.603   1.082  1.00  0.00    -0.502 OA
ATOM     21  H   UNL     1       6.035  -0.587   1.070  1.00  0.00     0.293 HD
ENDBRANCH  16  20
BRANCH  17  22
ATOM     22  O   UNL     1       6.068  -3.242   1.127  1.00  0.00    -0.504 OA
ATOM     23  H   UNL     1       6.029  -3.553   0.163  1.00  0.00     0.293 HD
ENDBRANCH  17  22
ENDBRANCH   1  12
BRANCH   2  24
ATOM     24  O   UNL     1       8.686  -4.462   5.794  1.00  0.00    -0.502 OA
ATOM     25  H   UNL     1       8.867  -3.971   6.662  1.00  0.00     0.293 HD
ENDBRANCH   2  24
BRANCH   6  26
ATOM     26  O   UNL     1      12.380  -8.189   6.709  1.00  0.00    -0.507 OA
ATOM     27  H   UNL     1      13.091  -8.786   7.102  1.00  0.00     0.293 HD
ENDBRANCH   6  26
BRANCH   8  28
ATOM     28  O   UNL     1      14.158  -8.715   2.280  1.00  0.00    -0.508 OA
ATOM     29  H   UNL     1      14.187  -9.726   2.210  1.00  0.00     0.293 HD
ENDBRANCH   8  28
TORSDOF 7
ENDMDL
MODEL 7
REMARK VINA RESULT:    -5.961     14.053     15.443
REMARK INTER + INTRA:          -7.711
REMARK INTER:                  -7.458
REMARK INTRA:                  -0.253
REMARK UNBOUND:                -0.356
REMARK SMILES O=c1c(O)c(-c2cc(O)c(O)c(O)c2)oc2cc(O)cc(O)c12
REMARK SMILES IDX 5 1 3 2 2 3 1 4 23 5 21 6 20 7 18 8 17 9 16 10 15 11 6 12
REMARK SMILES IDX 7 13 8 14 14 15 10 16 12 17 9 18 11 20 13 22 4 24 22 26
REMARK SMILES IDX 19 28
REMARK H PARENT 9 19 11 21 13 23 4 25 22 27 19 29
REMARK Flexibility Score: inf
ROOT
ATOM      1  C   UNL     1      -0.850   3.826  11.584  1.00  0.00     0.180 A 
ATOM      2  C   UNL     1      -1.553   5.003  11.272  1.00  0.00     0.208 A 
ATOM      3  C   UNL     1      -2.659   4.927  10.410  1.00  0.00     0.238 A 
ATOM      4  O   UNL     1      -3.250   5.991  10.091  1.00  0.00    -0.285 OA
ATOM      5  C   UNL     1      -3.056   3.674   9.883  1.00  0.00     0.111 A 
ATOM      6  C   UNL     1      -4.185   3.475   9.033  1.00  0.00     0.134 A 
ATOM      7  C   UNL     1      -4.408   2.214   8.465  1.00  0.00     0.093 A 
ATOM      8  C   UNL     1      -3.582   1.130   8.773  1.00  0.00     0.123 A 
ATOM      9  C   UNL     1      -2.513   1.301   9.648  1.00  0.00     0.094 A 
ATOM     10  C   UNL     1      -2.243   2.556  10.201  1.00  0.00     0.146 A 
ATOM     11  O   UNL     1      -1.208   2.677  11.024  1.00  0.00    -0.452 OA
ENDROOT
BRANCH   1  12
ATOM     12  C   UNL     1       0.309   3.823  12.506  1.00  0.00     0.029 A 
ATOM     13  C   UNL     1       0.232   3.229  13.777  1.00  0.00     0.062 A 
ATOM     14  C   UNL     1       1.348   3.216  14.626  1.00  0.00     0.162 A 
ATOM     15  C   UNL     1       1.529   4.373  12.082  1.00  0.00     0.062 A 
ATOM     16  C   UNL     1       2.559   3.789  14.202  1.00  0.00     0.200 A 
ATOM     17  C   UNL     1       2.646   4.366  12.924  1.00  0.00     0.162 A 
BRANCH  14  18
ATOM     18  O   UNL     1       1.257   2.629  15.887  1.00  0.00    -0.504 OA
ATOM     19  H   UNL     1       0.686   3.031  16.621  1.00  0.00     0.293 HD
ENDBRANCH  14  18
BRANCH  16  20
ATOM     20  O   UNL     1       3.676   3.789  15.036  1.00  0.00    -0.502 OA
ATOM     21  H   UNL     1       3.815   3.087  15.754  1.00  0.00     0.293 HD
ENDBRANCH  16  20
BRANCH  17  22
ATOM     22  O   UNL     1       3.835   4.935  12.470  1.00  0.00    -0.504 OA
ATOM     23  H   UNL     1       4.604   5.149  13.095  1.00  0.00     0.293 HD
ENDBRANCH  17  22
ENDBRANCH   1  12
BRANCH   2  24
ATOM     24  O   UNL     1      -1.129   6.232  11.785  1.00  0.00    -0.502 OA
ATOM     25  H   UNL     1      -1.654   6.737  12.491  1.00  0.00     0.293 HD
ENDBRANCH   2  24
BRANCH   6  26
ATOM     26  O   UNL     1      -5.125   4.467   8.736  1.00  0.00    -0.507 OA
ATOM     27  H   UNL     1      -4.897   5.416   8.484  1.00  0.00     0.293 HD
ENDBRANCH   6  26
BRANCH   8  28
ATOM     28  O   UNL     1      -3.821  -0.125   8.217  1.00  0.00    -0.508 OA
ATOM     29  H   UNL     1      -4.762  -0.475   8.082  1.00  0.00     0.293 HD
ENDBRANCH   8  28
TORSDOF 7
ENDMDL
MODEL 8
REMARK VINA RESULT:    -5.893      2.389      7.404
REMARK INTER + INTRA:          -7.627
REMARK INTER:                  -7.272
REMARK INTRA:                  -0.355
REMARK UNBOUND:                -0.356
REMARK SMILES O=c1c(O)c(-c2cc(O)c(O)c(O)c2)oc2cc(O)cc(O)c12
REMARK SMILES IDX 5 1 3 2 2 3 1 4 23 5 21 6 20 7 18 8 17 9 16 10 15 11 6 12
REMARK SMILES IDX 7 13 8 14 14 15 10 16 12 17 9 18 11 20 13 22 4 24 22 26
REMARK SMILES IDX 19 28
REMARK H PARENT 9 19 11 21 13 23 4 25 22 27 19 29
REMARK Flexibility Score: inf
ROOT
ATOM      1  C   UNL     1       9.408  -4.065   4.573  1.00  0.00     0.180 A 
ATOM      2  C   UNL     1      10.252  -3.021   4.990  1.00  0.00     0.208 A 
ATOM      3  C   UNL     1      10.700  -2.998   6.320  1.00  0.00     0.238 A 
ATOM      4  O   UNL     1      11.411  -2.032   6.702  1.00  0.00    -0.285 OA
ATOM      5  C   UNL     1      10.313  -4.027   7.212  1.00  0.00     0.111 A 
ATOM      6  C   UNL     1      10.741  -4.125   8.570  1.00  0.00     0.134 A 
ATOM      7  C   UNL     1      10.191  -5.112   9.398  1.00  0.00     0.093 A 
ATOM      8  C   UNL     1       9.279  -6.046   8.897  1.00  0.00     0.123 A 
ATOM      9  C   UNL     1       8.901  -5.993   7.558  1.00  0.00     0.094 A 
ATOM     10  C   UNL     1       9.404  -4.998   6.717  1.00  0.00     0.146 A 
ATOM     11  O   UNL     1       9.010  -4.979   5.449  1.00  0.00    -0.452 OA
ENDROOT
BRANCH   1  12
ATOM     12  C   UNL     1       8.915  -4.170   3.180  1.00  0.00     0.029 A 
ATOM     13  C   UNL     1       7.748  -3.507   2.764  1.00  0.00     0.062 A 
ATOM     14  C   UNL     1       7.311  -3.600   1.436  1.00  0.00     0.162 A 
ATOM     15  C   UNL     1       9.658  -4.900   2.239  1.00  0.00     0.062 A 
ATOM     16  C   UNL     1       8.049  -4.352   0.506  1.00  0.00     0.200 A 
ATOM     17  C   UNL     1       9.228  -4.999   0.912  1.00  0.00     0.162 A 
BRANCH  14  18
ATOM     18  O   UNL     1       6.148  -2.944   1.037  1.00  0.00    -0.504 OA
ATOM     19  H   UNL     1       6.179  -2.099   0.479  1.00  0.00     0.293 HD
ENDBRANCH  14  18
BRANCH  16  20
ATOM     20  O   UNL     1       7.625  -4.459  -0.819  1.00  0.00    -0.502 OA
ATOM     21  H   UNL     1       7.257  -5.322  -1.201  1.00  0.00     0.293 HD
ENDBRANCH  16  20
BRANCH  17  22
ATOM     22  O   UNL     1       9.987  -5.745   0.011  1.00  0.00    -0.504 OA
ATOM     23  H   UNL     1       9.795  -5.749  -0.984  1.00  0.00     0.293 HD
ENDBRANCH  17  22
ENDBRANCH   1  12
BRANCH   2  24
ATOM     24  O   UNL     1      10.603  -2.003   4.099  1.00  0.00    -0.502 OA
ATOM     25  H   UNL     1      11.061  -1.150   4.400  1.00  0.00     0.293 HD
ENDBRANCH   2  24
BRANCH   6  26
ATOM     26  O   UNL     1      11.715  -3.302   9.144  1.00  0.00    -0.507 OA
ATOM     27  H   UNL     1      11.575  -2.334   9.392  1.00  0.00     0.293 HD
ENDBRANCH   6  26
BRANCH   8  28
ATOM     28  O   UNL     1       8.749  -7.034   9.723  1.00  0.00    -0.508 OA
ATOM     29  H   UNL     1       9.337  -7.578  10.344  1.00  0.00     0.293 HD
ENDBRANCH   8  28
TORSDOF 7
ENDMDL
MODEL 9
REMARK VINA RESULT:    -5.892     14.161     16.331
REMARK INTER + INTRA:          -7.626
REMARK INTER:                  -7.469
REMARK INTRA:                  -0.157
REMARK UNBOUND:                -0.356
REMARK SMILES O=c1c(O)c(-c2cc(O)c(O)c(O)c2)oc2cc(O)cc(O)c12
REMARK SMILES IDX 5 1 3 2 2 3 1 4 23 5 21 6 20 7 18 8 17 9 16 10 15 11 6 12
REMARK SMILES IDX 7 13 8 14 14 15 10 16 12 17 9 18 11 20 13 22 4 24 22 26
REMARK SMILES IDX 19 28
REMARK H PARENT 9 19 11 21 13 23 4 25 22 27 19 29
REMARK Flexibility Score: inf
ROOT
ATOM      1  C   UNL     1      -0.738   3.971  11.229  1.00  0.00     0.180 A 
ATOM      2  C   UNL     1      -0.279   5.299  11.276  1.00  0.00     0.208 A 
ATOM      3  C   UNL     1       0.786   5.622  12.132  1.00  0.00     0.238 A 
ATOM      4  O   UNL     1       1.157   6.822  12.210  1.00  0.00    -0.285 OA
ATOM      5  C   UNL     1       1.389   4.610  12.919  1.00  0.00     0.111 A 
ATOM      6  C   UNL     1       2.500   4.816  13.790  1.00  0.00     0.134 A 
ATOM      7  C   UNL     1       2.932   3.772  14.618  1.00  0.00     0.093 A 
ATOM      8  C   UNL     1       2.334   2.510  14.556  1.00  0.00     0.123 A 
ATOM      9  C   UNL     1       1.287   2.284  13.666  1.00  0.00     0.094 A 
ATOM     10  C   UNL     1       0.811   3.316  12.854  1.00  0.00     0.146 A 
ATOM     11  O   UNL     1      -0.195   3.059  12.026  1.00  0.00    -0.452 OA
ENDROOT
BRANCH   1  12
ATOM     12  C   UNL     1      -1.839   3.550  10.333  1.00  0.00     0.029 A 
ATOM     13  C   UNL     1      -1.753   3.717   8.940  1.00  0.00     0.062 A 
ATOM     14  C   UNL     1      -2.796   3.291   8.106  1.00  0.00     0.162 A 
ATOM     15  C   UNL     1      -2.968   2.919  10.877  1.00  0.00     0.062 A 
ATOM     16  C   UNL     1      -3.933   2.680   8.661  1.00  0.00     0.200 A 
ATOM     17  C   UNL     1      -4.014   2.492  10.052  1.00  0.00     0.162 A 
BRANCH  14  18
ATOM     18  O   UNL     1      -2.702   3.468   6.726  1.00  0.00    -0.504 OA
ATOM     19  H   UNL     1      -2.512   2.692   6.102  1.00  0.00     0.293 HD
ENDBRANCH  14  18
BRANCH  16  20
ATOM     20  O   UNL     1      -4.982   2.254   7.846  1.00  0.00    -0.502 OA
ATOM     21  H   UNL     1      -4.843   1.604   7.082  1.00  0.00     0.293 HD
ENDBRANCH  16  20
BRANCH  17  22
ATOM     22  O   UNL     1      -5.125   1.882  10.633  1.00  0.00    -0.504 OA
ATOM     23  H   UNL     1      -5.399   0.933  10.407  1.00  0.00     0.293 HD
ENDBRANCH  17  22
ENDBRANCH   1  12
BRANCH   2  24
ATOM     24  O   UNL     1      -0.903   6.286  10.508  1.00  0.00    -0.502 OA
ATOM     25  H   UNL     1      -0.385   6.913   9.903  1.00  0.00     0.293 HD
ENDBRANCH   2  24
BRANCH   6  26
ATOM     26  O   UNL     1       3.227   6.009  13.861  1.00  0.00    -0.507 OA
ATOM     27  H   UNL     1       4.192   6.111  13.587  1.00  0.00     0.293 HD
ENDBRANCH   6  26
BRANCH   8  28
ATOM     28  O   UNL     1       2.780   1.473  15.372  1.00  0.00    -0.508 OA
ATOM     29  H   UNL     1       3.181   1.651  16.286  1.00  0.00     0.293 HD
ENDBRANCH   8  28
TORSDOF 7
ENDMDL
