MODEL 1
REMARK VINA RESULT:    -5.567      0.000      0.000
REMARK INTER + INTRA:          -6.349
REMARK INTER:                  -6.218
REMARK INTRA:                  -0.131
REMARK UNBOUND:                -0.131
REMARK SMILES O=C([O-])C=Cc1ccccc1
REMARK SMILES IDX 4 1 5 2 2 3 1 4 3 5 6 6 7 7 11 8 8 9 10 10 9 11
REMARK H PARENT
REMARK Flexibility Score: inf
ROOT
ATOM      1  C   UNL     1       6.341  82.517  18.297  1.00  0.00     0.025 C 
ATOM      2  C   UNL     1       6.195  81.552  17.377  1.00  0.00     0.010 C 
ENDROOT
BRANCH   1   3
ATOM      3  C   UNL     1       6.359  82.230  19.742  1.00  0.00     0.064 C 
ATOM      4  O   UNL     1       7.378  82.471  20.443  1.00  0.00    -0.545 OA
ATOM      5  O   UNL     1       5.233  81.683  20.343  1.00  0.00    -0.545 OA
ENDBRANCH   1   3
BRANCH   2   6
ATOM      6  C   UNL     1       6.170  81.775  15.907  1.00  0.00    -0.026 A 
ATOM      7  C   UNL     1       5.881  83.025  15.316  1.00  0.00     0.008 A 
ATOM      8  C   UNL     1       6.449  80.682  15.065  1.00  0.00     0.008 A 
ATOM      9  C   UNL     1       5.874  83.166  13.924  1.00  0.00     0.001 A 
ATOM     10  C   UNL     1       6.440  80.830  13.675  1.00  0.00     0.001 A 
ATOM     11  C   UNL     1       6.153  82.071  13.106  1.00  0.00     0.000 A 
ENDBRANCH   2   6
TORSDOF 2
ENDMDL
MODEL 2
REMARK VINA RESULT:    -5.501      4.465      5.993
REMARK INTER + INTRA:          -6.276
REMARK INTER:                  -6.144
REMARK INTRA:                  -0.132
REMARK UNBOUND:                -0.131
REMARK SMILES O=C([O-])C=Cc1ccccc1
REMARK SMILES IDX 4 1 5 2 2 3 1 4 3 5 6 6 7 7 11 8 8 9 10 10 9 11
REMARK H PARENT
REMARK Flexibility Score: inf
ROOT
ATOM      1  C   UNL     1       5.380  82.953  12.290  1.00  0.00     0.025 C 
ATOM      2  C   UNL     1       5.927  83.328  13.456  1.00  0.00     0.010 C 
ENDROOT
BRANCH   1   3
ATOM      3  C   UNL     1       5.235  83.880  11.155  1.00  0.00     0.064 C 
ATOM      4  O   UNL     1       5.364  85.125  11.308  1.00  0.00    -0.545 OA
ATOM      5  O   UNL     1       4.950  83.376   9.894  1.00  0.00    -0.545 OA
ENDBRANCH   1   3
BRANCH   2   6
ATOM      6  C   UNL     1       6.103  82.443  14.638  1.00  0.00    -0.026 A 
ATOM      7  C   UNL     1       6.383  81.061  14.538  1.00  0.00     0.008 A 
ATOM      8  C   UNL     1       5.983  83.013  15.919  1.00  0.00     0.008 A 
ATOM      9  C   UNL     1       6.537  80.285  15.692  1.00  0.00     0.001 A 
ATOM     10  C   UNL     1       6.138  82.232  17.067  1.00  0.00     0.001 A 
ATOM     11  C   UNL     1       6.415  80.869  16.953  1.00  0.00     0.000 A 
ENDBRANCH   2   6
TORSDOF 2
ENDMDL
MODEL 3
REMARK VINA RESULT:    -5.366      4.300      5.596
REMARK INTER + INTRA:          -6.124
REMARK INTER:                  -5.992
REMARK INTRA:                  -0.132
REMARK UNBOUND:                -0.131
REMARK SMILES O=C([O-])C=Cc1ccccc1
REMARK SMILES IDX 4 1 5 2 2 3 1 4 3 5 6 6 7 7 11 8 8 9 10 10 9 11
REMARK H PARENT
REMARK Flexibility Score: inf
ROOT
ATOM      1  C   UNL     1       5.743  84.171  13.100  1.00  0.00     0.025 C 
ATOM      2  C   UNL     1       5.995  82.864  13.268  1.00  0.00     0.010 C 
ENDROOT
BRANCH   1   3
ATOM      3  C   UNL     1       5.594  84.777  11.765  1.00  0.00     0.064 C 
ATOM      4  O   UNL     1       6.595  84.986  11.028  1.00  0.00    -0.545 OA
ATOM      5  O   UNL     1       4.329  85.125  11.311  1.00  0.00    -0.545 OA
ENDBRANCH   1   3
BRANCH   2   6
ATOM      6  C   UNL     1       6.156  82.192  14.585  1.00  0.00    -0.026 A 
ATOM      7  C   UNL     1       5.951  82.846  15.821  1.00  0.00     0.008 A 
ATOM      8  C   UNL     1       6.532  80.835  14.597  1.00  0.00     0.008 A 
ATOM      9  C   UNL     1       6.119  82.153  17.025  1.00  0.00     0.001 A 
ATOM     10  C   UNL     1       6.699  80.150  15.803  1.00  0.00     0.001 A 
ATOM     11  C   UNL     1       6.492  80.809  17.016  1.00  0.00     0.000 A 
ENDBRANCH   2   6
TORSDOF 2
ENDMDL
MODEL 4
REMARK VINA RESULT:    -5.266     10.171     12.141
REMARK INTER + INTRA:          -6.013
REMARK INTER:                  -5.880
REMARK INTRA:                  -0.133
REMARK UNBOUND:                -0.131
REMARK SMILES O=C([O-])C=Cc1ccccc1
REMARK SMILES IDX 4 1 5 2 2 3 1 4 3 5 6 6 7 7 11 8 8 9 10 10 9 11
REMARK H PARENT
REMARK Flexibility Score: inf
ROOT
ATOM      1  C   UNL     1       3.894  80.887   6.486  1.00  0.00     0.025 C 
ATOM      2  C   UNL     1       4.512  81.062   5.309  1.00  0.00     0.010 C 
ENDROOT
BRANCH   1   3
ATOM      3  C   UNL     1       4.052  81.832   7.605  1.00  0.00     0.064 C 
ATOM      4  O   UNL     1       3.492  82.962   7.589  1.00  0.00    -0.545 OA
ATOM      5  O   UNL     1       4.832  81.475   8.696  1.00  0.00    -0.545 OA
ENDBRANCH   1   3
BRANCH   2   6
ATOM      6  C   UNL     1       4.394  80.147   4.142  1.00  0.00    -0.026 A 
ATOM      7  C   UNL     1       3.940  80.564   2.871  1.00  0.00     0.008 A 
ATOM      8  C   UNL     1       4.755  78.798   4.317  1.00  0.00     0.008 A 
ATOM      9  C   UNL     1       3.853  79.651   1.814  1.00  0.00     0.001 A 
ATOM     10  C   UNL     1       4.666  77.891   3.258  1.00  0.00     0.001 A 
ATOM     11  C   UNL     1       4.216  78.317   2.008  1.00  0.00     0.000 A 
ENDBRANCH   2   6
TORSDOF 2
ENDMDL
MODEL 5
REMARK VINA RESULT:    -4.943      3.450      5.240
REMARK INTER + INTRA:          -5.651
REMARK INTER:                  -5.520
REMARK INTRA:                  -0.132
REMARK UNBOUND:                -0.131
REMARK SMILES O=C([O-])C=Cc1ccccc1
REMARK SMILES IDX 4 1 5 2 2 3 1 4 3 5 6 6 7 7 11 8 8 9 10 10 9 11
REMARK H PARENT
REMARK Flexibility Score: inf
ROOT
ATOM      1  C   UNL     1       6.091  82.249  14.606  1.00  0.00     0.025 C 
ATOM      2  C   UNL     1       6.079  81.698  15.828  1.00  0.00     0.010 C 
ENDROOT
BRANCH   1   3
ATOM      3  C   UNL     1       6.106  81.436  13.378  1.00  0.00     0.064 C 
ATOM      4  O   UNL     1       5.447  81.779  12.359  1.00  0.00    -0.545 OA
ATOM      5  O   UNL     1       6.859  80.271  13.339  1.00  0.00    -0.545 OA
ENDBRANCH   1   3
BRANCH   2   6
ATOM      6  C   UNL     1       6.063  82.461  17.105  1.00  0.00    -0.026 A 
ATOM      7  C   UNL     1       5.661  83.812  17.197  1.00  0.00     0.008 A 
ATOM      8  C   UNL     1       6.469  81.799  18.279  1.00  0.00     0.008 A 
ATOM      9  C   UNL     1       5.669  84.471  18.432  1.00  0.00     0.001 A 
ATOM     10  C   UNL     1       6.475  82.463  19.509  1.00  0.00     0.001 A 
ATOM     11  C   UNL     1       6.075  83.798  19.585  1.00  0.00     0.000 A 
ENDBRANCH   2   6
TORSDOF 2
ENDMDL
MODEL 6
REMARK VINA RESULT:    -4.873      2.099      3.284
REMARK INTER + INTRA:          -5.574
REMARK INTER:                  -5.432
REMARK INTRA:                  -0.142
REMARK UNBOUND:                -0.131
REMARK SMILES O=C([O-])C=Cc1ccccc1
REMARK SMILES IDX 4 1 5 2 2 3 1 4 3 5 6 6 7 7 11 8 8 9 10 10 9 11
REMARK H PARENT
REMARK Flexibility Score: inf
ROOT
ATOM      1  C   UNL     1       5.994  82.137  15.942  1.00  0.00     0.025 C 
ATOM      2  C   UNL     1       6.136  81.872  14.635  1.00  0.00     0.010 C 
ENDROOT
BRANCH   1   3
ATOM      3  C   UNL     1       6.345  81.158  16.985  1.00  0.00     0.064 C 
ATOM      4  O   UNL     1       6.369  79.922  16.739  1.00  0.00    -0.545 OA
ATOM      5  O   UNL     1       6.654  81.603  18.263  1.00  0.00    -0.545 OA
ENDBRANCH   1   3
BRANCH   2   6
ATOM      6  C   UNL     1       5.801  82.815  13.534  1.00  0.00    -0.026 A 
ATOM      7  C   UNL     1       5.278  82.401  12.288  1.00  0.00     0.008 A 
ATOM      8  C   UNL     1       6.017  84.189  13.749  1.00  0.00     0.008 A 
ATOM      9  C   UNL     1       4.985  83.341  11.295  1.00  0.00     0.001 A 
ATOM     10  C   UNL     1       5.721  85.123  12.753  1.00  0.00     0.001 A 
ATOM     11  C   UNL     1       5.205  84.700  11.527  1.00  0.00     0.000 A 
ENDBRANCH   2   6
TORSDOF 2
ENDMDL
MODEL 7
REMARK VINA RESULT:    -4.766     10.523     12.615
REMARK INTER + INTRA:          -5.455
REMARK INTER:                  -5.313
REMARK INTRA:                  -0.141
REMARK UNBOUND:                -0.131
REMARK SMILES O=C([O-])C=Cc1ccccc1
REMARK SMILES IDX 4 1 5 2 2 3 1 4 3 5 6 6 7 7 11 8 8 9 10 10 9 11
REMARK H PARENT
REMARK Flexibility Score: inf
ROOT
ATOM      1  C   UNL     1       4.096  81.566   5.970  1.00  0.00     0.025 C 
ATOM      2  C   UNL     1       4.249  80.732   4.931  1.00  0.00     0.010 C 
ENDROOT
BRANCH   1   3
ATOM      3  C   UNL     1       3.873  81.079   7.342  1.00  0.00     0.064 C 
ATOM      4  O   UNL     1       3.082  80.126   7.577  1.00  0.00    -0.545 OA
ATOM      5  O   UNL     1       4.544  81.681   8.398  1.00  0.00    -0.545 OA
ENDBRANCH   1   3
BRANCH   2   6
ATOM      6  C   UNL     1       4.477  81.158   3.525  1.00  0.00    -0.026 A 
ATOM      7  C   UNL     1       3.991  80.442   2.407  1.00  0.00     0.008 A 
ATOM      8  C   UNL     1       5.215  82.336   3.299  1.00  0.00     0.008 A 
ATOM      9  C   UNL     1       4.241  80.900   1.109  1.00  0.00     0.001 A 
ATOM     10  C   UNL     1       5.461  82.787   2.000  1.00  0.00     0.001 A 
ATOM     11  C   UNL     1       4.975  82.070   0.906  1.00  0.00     0.000 A 
ENDBRANCH   2   6
TORSDOF 2
ENDMDL
MODEL 8
REMARK VINA RESULT:    -4.539     12.248     14.203
REMARK INTER + INTRA:          -5.201
REMARK INTER:                  -5.069
REMARK INTRA:                  -0.132
REMARK UNBOUND:                -0.131
REMARK SMILES O=C([O-])C=Cc1ccccc1
REMARK SMILES IDX 4 1 5 2 2 3 1 4 3 5 6 6 7 7 11 8 8 9 10 10 9 11
REMARK H PARENT
REMARK Flexibility Score: inf
ROOT
ATOM      1  C   UNL     1       3.976  79.730   3.992  1.00  0.00     0.025 C 
ATOM      2  C   UNL     1       4.756  78.640   3.939  1.00  0.00     0.010 C 
ENDROOT
BRANCH   1   3
ATOM      3  C   UNL     1       4.304  80.890   4.838  1.00  0.00     0.064 C 
ATOM      4  O   UNL     1       4.719  81.969   4.335  1.00  0.00    -0.545 OA
ATOM      5  O   UNL     1       4.155  80.796   6.215  1.00  0.00    -0.545 OA
ENDBRANCH   1   3
BRANCH   2   6
ATOM      6  C   UNL     1       4.482  77.438   3.107  1.00  0.00    -0.026 A 
ATOM      7  C   UNL     1       3.305  77.275   2.342  1.00  0.00     0.008 A 
ATOM      8  C   UNL     1       5.447  76.414   3.082  1.00  0.00     0.008 A 
ATOM      9  C   UNL     1       3.110  76.118   1.580  1.00  0.00     0.001 A 
ATOM     10  C   UNL     1       5.246  75.261   2.319  1.00  0.00     0.001 A 
ATOM     11  C   UNL     1       4.079  75.113   1.568  1.00  0.00     0.000 A 
ENDBRANCH   2   6
TORSDOF 2
ENDMDL
MODEL 9
REMARK VINA RESULT:    -4.523      3.161      5.386
REMARK INTER + INTRA:          -5.183
REMARK INTER:                  -5.049
REMARK INTRA:                  -0.134
REMARK UNBOUND:                -0.131
REMARK SMILES O=C([O-])C=Cc1ccccc1
REMARK SMILES IDX 4 1 5 2 2 3 1 4 3 5 6 6 7 7 11 8 8 9 10 10 9 11
REMARK H PARENT
REMARK Flexibility Score: inf
ROOT
ATOM      1  C   UNL     1       6.177  81.046  15.745  1.00  0.00     0.025 C 
ATOM      2  C   UNL     1       6.124  82.069  16.611  1.00  0.00     0.010 C 
ENDROOT
BRANCH   1   3
ATOM      3  C   UNL     1       6.409  81.248  14.305  1.00  0.00     0.064 C 
ATOM      4  O   UNL     1       6.871  80.324  13.582  1.00  0.00    -0.545 OA
ATOM      5  O   UNL     1       6.113  82.477  13.731  1.00  0.00    -0.545 OA
ENDBRANCH   1   3
BRANCH   2   6
ATOM      6  C   UNL     1       5.894  81.933  18.075  1.00  0.00    -0.026 A 
ATOM      7  C   UNL     1       6.829  82.348  19.049  1.00  0.00     0.008 A 
ATOM      8  C   UNL     1       4.682  81.362  18.507  1.00  0.00     0.008 A 
ATOM      9  C   UNL     1       6.549  82.191  20.411  1.00  0.00     0.001 A 
ATOM     10  C   UNL     1       4.410  81.208  19.868  1.00  0.00     0.001 A 
ATOM     11  C   UNL     1       5.342  81.623  20.820  1.00  0.00     0.000 A 
ENDBRANCH   2   6
TORSDOF 2
ENDMDL
