MODEL 1
REMARK VINA RESULT:     3.300      0.000      0.000
REMARK INTER + INTRA:           3.468
REMARK INTER:                   3.590
REMARK INTRA:                  -0.122
REMARK UNBOUND:                -0.122
REMARK SMILES Cc1ccc(C(C)C)cc1O
REMARK SMILES IDX 1 1 2 2 10 3 9 4 5 5 4 6 3 7 11 8 6 10 7 11 8 12
REMARK H PARENT 11 9
REMARK Flexibility Score: inf
ROOT
ATOM      1  C   UNL     1     136.224 128.365 129.327  1.00  0.00     0.048 C 
ATOM      2  C   UNL     1     137.455 129.114 128.898  1.00  0.00    -0.009 A 
ATOM      3  C   UNL     1     138.014 130.126 129.707  1.00  0.00     0.118 A 
ATOM      4  C   UNL     1     139.161 130.805 129.279  1.00  0.00     0.050 A 
ATOM      5  C   UNL     1     139.769 130.493 128.049  1.00  0.00    -0.042 A 
ATOM      6  C   UNL     1     139.206 129.486 127.251  1.00  0.00     0.004 A 
ATOM      7  C   UNL     1     138.062 128.803 127.670  1.00  0.00     0.007 A 
ENDROOT
BRANCH   3   8
ATOM      8  O   UNL     1     137.457 130.481 130.937  1.00  0.00    -0.508 OA
ATOM      9  H   UNL     1     137.228 129.805 131.655  1.00  0.00     0.293 HD
ENDBRANCH   3   8
BRANCH   5  10
ATOM     10  C   UNL     1     141.013 131.227 127.582  1.00  0.00     0.013 C 
ATOM     11  C   UNL     1     141.341 132.404 128.508  1.00  0.00     0.012 C 
ATOM     12  C   UNL     1     140.868 131.691 126.128  1.00  0.00     0.012 C 
ENDBRANCH   5  10
TORSDOF 2
ENDMDL
MODEL 2
REMARK VINA RESULT:     4.757      2.184      3.582
REMARK INTER + INTRA:           5.053
REMARK INTER:                   5.180
REMARK INTRA:                  -0.127
REMARK UNBOUND:                -0.122
REMARK SMILES Cc1ccc(C(C)C)cc1O
REMARK SMILES IDX 1 1 2 2 10 3 9 4 5 5 4 6 3 7 11 8 6 10 7 11 8 12
REMARK H PARENT 11 9
REMARK Flexibility Score: inf
ROOT
ATOM      1  C   UNL     1     138.393 130.880 130.220  1.00  0.00     0.048 C 
ATOM      2  C   UNL     1     138.810 130.126 128.988  1.00  0.00    -0.009 A 
ATOM      3  C   UNL     1     139.931 130.528 128.229  1.00  0.00     0.118 A 
ATOM      4  C   UNL     1     140.294 129.804 127.087  1.00  0.00     0.050 A 
ATOM      5  C   UNL     1     139.556 128.678 126.681  1.00  0.00    -0.042 A 
ATOM      6  C   UNL     1     138.444 128.286 127.440  1.00  0.00     0.004 A 
ATOM      7  C   UNL     1     138.074 129.001 128.582  1.00  0.00     0.007 A 
ENDROOT
BRANCH   3   8
ATOM      8  O   UNL     1     140.703 131.637 128.582  1.00  0.00    -0.508 OA
ATOM      9  H   UNL     1     140.696 132.503 128.058  1.00  0.00     0.293 HD
ENDBRANCH   3   8
BRANCH   5  10
ATOM     10  C   UNL     1     139.947 127.890 125.443  1.00  0.00     0.013 C 
ATOM     11  C   UNL     1     138.724 127.223 124.803  1.00  0.00     0.012 C 
ATOM     12  C   UNL     1     141.035 126.858 125.764  1.00  0.00     0.012 C 
ENDBRANCH   5  10
TORSDOF 2
ENDMDL
MODEL 3
REMARK VINA RESULT:     4.787      1.518      2.082
REMARK INTER + INTRA:           5.086
REMARK INTER:                   5.213
REMARK INTRA:                  -0.127
REMARK UNBOUND:                -0.122
REMARK SMILES Cc1ccc(C(C)C)cc1O
REMARK SMILES IDX 1 1 2 2 10 3 9 4 5 5 4 6 3 7 11 8 6 10 7 11 8 12
REMARK H PARENT 11 9
REMARK Flexibility Score: inf
ROOT
ATOM      1  C   UNL     1     136.490 128.537 129.229  1.00  0.00     0.048 C 
ATOM      2  C   UNL     1     137.729 129.287 128.824  1.00  0.00    -0.009 A 
ATOM      3  C   UNL     1     138.592 128.787 127.825  1.00  0.00     0.118 A 
ATOM      4  C   UNL     1     139.738 129.509 127.470  1.00  0.00     0.050 A 
ATOM      5  C   UNL     1     140.045 130.730 128.097  1.00  0.00    -0.042 A 
ATOM      6  C   UNL     1     139.182 131.219 129.089  1.00  0.00     0.004 A 
ATOM      7  C   UNL     1     138.037 130.506 129.449  1.00  0.00     0.007 A 
ENDROOT
BRANCH   3   8
ATOM      8  O   UNL     1     138.342 127.581 127.167  1.00  0.00    -0.508 OA
ATOM      9  H   UNL     1     137.912 127.530 126.252  1.00  0.00     0.293 HD
ENDBRANCH   3   8
BRANCH   5  10
ATOM     10  C   UNL     1     141.287 131.516 127.715  1.00  0.00     0.013 C 
ATOM     11  C   UNL     1     141.492 132.714 128.649  1.00  0.00     0.012 C 
ATOM     12  C   UNL     1     141.230 131.962 126.249  1.00  0.00     0.012 C 
ENDBRANCH   5  10
TORSDOF 2
ENDMDL
MODEL 4
REMARK VINA RESULT:     5.162      1.427      2.310
REMARK INTER + INTRA:           5.493
REMARK INTER:                   5.605
REMARK INTRA:                  -0.112
REMARK UNBOUND:                -0.122
REMARK SMILES Cc1ccc(C(C)C)cc1O
REMARK SMILES IDX 1 1 2 2 10 3 9 4 5 5 4 6 3 7 11 8 6 10 7 11 8 12
REMARK H PARENT 11 9
REMARK Flexibility Score: inf
ROOT
ATOM      1  C   UNL     1     136.069 129.884 132.032  1.00  0.00     0.048 C 
ATOM      2  C   UNL     1     136.961 129.950 130.822  1.00  0.00    -0.009 A 
ATOM      3  C   UNL     1     138.294 130.404 130.920  1.00  0.00     0.118 A 
ATOM      4  C   UNL     1     139.098 130.453 129.775  1.00  0.00     0.050 A 
ATOM      5  C   UNL     1     138.597 130.055 128.523  1.00  0.00    -0.042 A 
ATOM      6  C   UNL     1     137.271 129.605 128.435  1.00  0.00     0.004 A 
ATOM      7  C   UNL     1     136.462 129.552 129.571  1.00  0.00     0.007 A 
ENDROOT
BRANCH   3   8
ATOM      8  O   UNL     1     138.848 130.813 132.135  1.00  0.00    -0.508 OA
ATOM      9  H   UNL     1     138.363 131.415 132.789  1.00  0.00     0.293 HD
ENDBRANCH   3   8
BRANCH   5  10
ATOM     10  C   UNL     1     139.466 130.106 127.279  1.00  0.00     0.013 C 
ATOM     11  C   UNL     1     139.825 128.696 126.796  1.00  0.00     0.012 C 
ATOM     12  C   UNL     1     140.727 130.945 127.520  1.00  0.00     0.012 C 
ENDBRANCH   5  10
TORSDOF 2
ENDMDL
MODEL 5
REMARK VINA RESULT:     5.480      2.099      3.973
REMARK INTER + INTRA:           5.839
REMARK INTER:                   5.966
REMARK INTRA:                  -0.127
REMARK UNBOUND:                -0.122
REMARK SMILES Cc1ccc(C(C)C)cc1O
REMARK SMILES IDX 1 1 2 2 10 3 9 4 5 5 4 6 3 7 11 8 6 10 7 11 8 12
REMARK H PARENT 11 9
REMARK Flexibility Score: inf
ROOT
ATOM      1  C   UNL     1     140.254 128.527 125.732  1.00  0.00     0.048 C 
ATOM      2  C   UNL     1     139.608 129.051 126.984  1.00  0.00    -0.009 A 
ATOM      3  C   UNL     1     139.916 130.337 127.482  1.00  0.00     0.118 A 
ATOM      4  C   UNL     1     139.297 130.796 128.651  1.00  0.00     0.050 A 
ATOM      5  C   UNL     1     138.371 129.994 129.341  1.00  0.00    -0.042 A 
ATOM      6  C   UNL     1     138.072 128.718 128.840  1.00  0.00     0.004 A 
ATOM      7  C   UNL     1     138.683 128.252 127.674  1.00  0.00     0.007 A 
ENDROOT
BRANCH   3   8
ATOM      8  O   UNL     1     140.827 131.179 126.842  1.00  0.00    -0.508 OA
ATOM      9  H   UNL     1     140.655 132.165 126.691  1.00  0.00     0.293 HD
ENDBRANCH   3   8
BRANCH   5  10
ATOM     10  C   UNL     1     137.698 130.489 130.609  1.00  0.00     0.013 C 
ATOM     11  C   UNL     1     138.624 130.338 131.821  1.00  0.00     0.012 C 
ATOM     12  C   UNL     1     136.362 129.773 130.842  1.00  0.00     0.012 C 
ENDBRANCH   5  10
TORSDOF 2
ENDMDL
MODEL 6
REMARK VINA RESULT:     5.503      1.988      3.545
REMARK INTER + INTRA:           5.864
REMARK INTER:                   5.969
REMARK INTRA:                  -0.105
REMARK UNBOUND:                -0.122
REMARK SMILES Cc1ccc(C(C)C)cc1O
REMARK SMILES IDX 1 1 2 2 10 3 9 4 5 5 4 6 3 7 11 8 6 10 7 11 8 12
REMARK H PARENT 11 9
REMARK Flexibility Score: inf
ROOT
ATOM      1  C   UNL     1     138.440 130.967 130.088  1.00  0.00     0.048 C 
ATOM      2  C   UNL     1     138.815 130.150 128.882  1.00  0.00    -0.009 A 
ATOM      3  C   UNL     1     138.064 129.016 128.506  1.00  0.00     0.118 A 
ATOM      4  C   UNL     1     138.439 128.276 127.378  1.00  0.00     0.050 A 
ATOM      5  C   UNL     1     139.558 128.647 126.610  1.00  0.00    -0.042 A 
ATOM      6  C   UNL     1     140.299 129.775 126.992  1.00  0.00     0.004 A 
ATOM      7  C   UNL     1     139.932 130.519 128.116  1.00  0.00     0.007 A 
ENDROOT
BRANCH   3   8
ATOM      8  O   UNL     1     136.943 128.599 129.226  1.00  0.00    -0.508 OA
ATOM      9  H   UNL     1     136.000 128.657 128.863  1.00  0.00     0.293 HD
ENDBRANCH   3   8
BRANCH   5  10
ATOM     10  C   UNL     1     139.968 127.847 125.386  1.00  0.00     0.013 C 
ATOM     11  C   UNL     1     138.753 127.186 124.726  1.00  0.00     0.012 C 
ATOM     12  C   UNL     1     141.040 126.809 125.738  1.00  0.00     0.012 C 
ENDBRANCH   5  10
TORSDOF 2
ENDMDL
MODEL 7
REMARK VINA RESULT:     5.551      1.937      4.550
REMARK INTER + INTRA:           5.916
REMARK INTER:                   6.038
REMARK INTRA:                  -0.121
REMARK UNBOUND:                -0.122
REMARK SMILES Cc1ccc(C(C)C)cc1O
REMARK SMILES IDX 1 1 2 2 10 3 9 4 5 5 4 6 3 7 11 8 6 10 7 11 8 12
REMARK H PARENT 11 9
REMARK Flexibility Score: inf
ROOT
ATOM      1  C   UNL     1     141.719 131.207 127.109  1.00  0.00     0.048 C 
ATOM      2  C   UNL     1     140.425 130.810 127.765  1.00  0.00    -0.009 A 
ATOM      3  C   UNL     1     139.748 129.629 127.388  1.00  0.00     0.118 A 
ATOM      4  C   UNL     1     138.545 129.287 128.018  1.00  0.00     0.050 A 
ATOM      5  C   UNL     1     137.998 130.104 129.023  1.00  0.00    -0.042 A 
ATOM      6  C   UNL     1     138.677 131.275 129.390  1.00  0.00     0.004 A 
ATOM      7  C   UNL     1     139.878 131.625 128.769  1.00  0.00     0.007 A 
ENDROOT
BRANCH   3   8
ATOM      8  O   UNL     1     140.241 128.778 126.398  1.00  0.00    -0.508 OA
ATOM      9  H   UNL     1     139.977 127.803 126.326  1.00  0.00     0.293 HD
ENDBRANCH   3   8
BRANCH   5  10
ATOM     10  C   UNL     1     136.694 129.736 129.708  1.00  0.00     0.013 C 
ATOM     11  C   UNL     1     136.820 129.843 131.232  1.00  0.00     0.012 C 
ATOM     12  C   UNL     1     136.224 128.337 129.289  1.00  0.00     0.012 C 
ENDBRANCH   5  10
TORSDOF 2
ENDMDL
MODEL 8
REMARK VINA RESULT:     5.850      1.638      4.169
REMARK INTER + INTRA:           6.241
REMARK INTER:                   6.368
REMARK INTRA:                  -0.127
REMARK UNBOUND:                -0.122
REMARK SMILES Cc1ccc(C(C)C)cc1O
REMARK SMILES IDX 1 1 2 2 10 3 9 4 5 5 4 6 3 7 11 8 6 10 7 11 8 12
REMARK H PARENT 11 9
REMARK Flexibility Score: inf
ROOT
ATOM      1  C   UNL     1     142.077 131.241 126.966  1.00  0.00     0.048 C 
ATOM      2  C   UNL     1     140.765 130.876 127.603  1.00  0.00    -0.009 A 
ATOM      3  C   UNL     1     140.244 131.621 128.684  1.00  0.00     0.118 A 
ATOM      4  C   UNL     1     139.020 131.256 129.255  1.00  0.00     0.050 A 
ATOM      5  C   UNL     1     138.296 130.153 128.768  1.00  0.00    -0.042 A 
ATOM      6  C   UNL     1     138.821 129.417 127.695  1.00  0.00     0.004 A 
ATOM      7  C   UNL     1     140.041 129.775 127.118  1.00  0.00     0.007 A 
ENDROOT
BRANCH   3   8
ATOM      8  O   UNL     1     140.916 132.726 129.211  1.00  0.00    -0.508 OA
ATOM      9  H   UNL     1     141.878 132.690 129.522  1.00  0.00     0.293 HD
ENDBRANCH   3   8
BRANCH   5  10
ATOM     10  C   UNL     1     136.967 129.753 129.385  1.00  0.00     0.013 C 
ATOM     11  C   UNL     1     137.000 129.899 130.911  1.00  0.00     0.012 C 
ATOM     12  C   UNL     1     136.572 128.330 128.974  1.00  0.00     0.012 C 
ENDBRANCH   5  10
TORSDOF 2
ENDMDL
MODEL 9
REMARK VINA RESULT:     5.892      1.460      2.597
REMARK INTER + INTRA:           6.287
REMARK INTER:                   6.415
REMARK INTRA:                  -0.127
REMARK UNBOUND:                -0.122
REMARK SMILES Cc1ccc(C(C)C)cc1O
REMARK SMILES IDX 1 1 2 2 10 3 9 4 5 5 4 6 3 7 11 8 6 10 7 11 8 12
REMARK H PARENT 11 9
REMARK Flexibility Score: inf
ROOT
ATOM      1  C   UNL     1     136.759 130.114 132.175  1.00  0.00     0.048 C 
ATOM      2  C   UNL     1     137.482 130.154 130.856  1.00  0.00    -0.009 A 
ATOM      3  C   UNL     1     136.941 129.538 129.707  1.00  0.00     0.118 A 
ATOM      4  C   UNL     1     137.638 129.593 128.494  1.00  0.00     0.050 A 
ATOM      5  C   UNL     1     138.876 130.255 128.403  1.00  0.00    -0.042 A 
ATOM      6  C   UNL     1     139.407 130.863 129.550  1.00  0.00     0.004 A 
ATOM      7  C   UNL     1     138.718 130.814 130.764  1.00  0.00     0.007 A 
ENDROOT
BRANCH   3   8
ATOM      8  O   UNL     1     135.717 128.867 129.735  1.00  0.00    -0.508 OA
ATOM      9  H   UNL     1     135.310 128.426 128.919  1.00  0.00     0.293 HD
ENDBRANCH   3   8
BRANCH   5  10
ATOM     10  C   UNL     1     139.636 130.317 127.089  1.00  0.00     0.013 C 
ATOM     11  C   UNL     1     139.922 128.911 126.550  1.00  0.00     0.012 C 
ATOM     12  C   UNL     1     140.929 131.127 127.236  1.00  0.00     0.012 C 
ENDBRANCH   5  10
TORSDOF 2
ENDMDL
