MODEL 1
REMARK VINA RESULT:    -8.831      0.000      0.000
REMARK INTER + INTRA:          -9.786
REMARK INTER:                  -9.605
REMARK INTRA:                  -0.180
REMARK UNBOUND:                -0.180
REMARK SMILES C[C@H]1[C@H](C)CC[C@@]2(C(=O)[O-])CC[C@]3(C)C(=CC[C@@H]4[C@@]5(C)CC[C@@H](O)C(C)(C)[C@H]5CC[C@@]43C)[C@@H]12
REMARK SMILES IDX 7 1 6 2 11 3 33 4 5 5 12 6 15 7 2 8 3 9 13 10 16 11 1 12
REMARK SMILES IDX 4 13 14 14 31 15 17 16 18 17 30 18 32 19 19 20 29 21 28 22
REMARK SMILES IDX 21 23 20 24 25 25 22 26 23 27 26 28 27 29 8 30 9 31 10 32
REMARK SMILES IDX 24 33
REMARK H PARENT 24 34
REMARK Flexibility Score: inf
ROOT
ATOM      1  C   UNL     1      22.087 -19.197 -12.183  1.00  0.00     0.017 C 
ATOM      2  C   UNL     1      22.460 -17.937 -11.342  1.00  0.00     0.014 C 
ATOM      3  C   UNL     1      22.649 -19.073 -13.639  1.00  0.00     0.014 C 
ATOM      4  C   UNL     1      22.595 -20.516 -11.495  1.00  0.00     0.030 C 
ATOM      5  C   UNL     1      23.893 -17.911 -10.806  1.00  0.00     0.004 C 
ATOM      6  C   UNL     1      22.915 -20.400 -14.404  1.00  0.00     0.013 C 
ATOM      7  C   UNL     1      22.344 -21.760 -12.365  1.00  0.00    -0.063 C 
ATOM      8  C   UNL     1      24.034 -20.453 -10.870  1.00  0.00    -0.003 C 
ATOM      9  C   UNL     1      24.244 -19.180 -10.011  1.00  0.00    -0.011 C 
ATOM     10  C   UNL     1      22.166 -21.677 -13.880  1.00  0.00    -0.006 C 
ATOM     11  C   UNL     1      22.026 -22.914 -11.759  1.00  0.00    -0.027 C 
ATOM     12  C   UNL     1      25.193 -20.600 -11.866  1.00  0.00     0.008 C 
ATOM     13  C   UNL     1      23.497 -19.249  -8.666  1.00  0.00     0.008 C 
ATOM     14  C   UNL     1      20.630 -21.502 -14.183  1.00  0.00     0.017 C 
ATOM     15  C   UNL     1      22.699 -23.049 -14.572  1.00  0.00    -0.020 C 
ATOM     16  C   UNL     1      21.381 -24.048 -12.507  1.00  0.00     0.032 C 
ATOM     17  C   UNL     1      21.918 -24.309 -13.967  1.00  0.00     0.006 C 
ATOM     18  C   UNL     1      24.246 -23.318 -14.387  1.00  0.00     0.008 C 
ATOM     19  C   UNL     1      22.430 -22.932 -16.125  1.00  0.00     0.012 C 
ATOM     20  C   UNL     1      22.676 -25.715 -14.062  1.00  0.00    -0.025 C 
ATOM     21  C   UNL     1      24.643 -24.216 -13.203  1.00  0.00     0.005 C 
ATOM     22  C   UNL     1      24.006 -25.653 -13.197  1.00  0.00     0.003 C 
ATOM     23  C   UNL     1      22.990 -26.095 -15.552  1.00  0.00     0.010 C 
ATOM     24  C   UNL     1      21.687 -26.816 -13.530  1.00  0.00     0.012 C 
ATOM     25  C   UNL     1      25.031 -26.852 -13.444  1.00  0.00    -0.006 C 
ATOM     26  C   UNL     1      23.931 -27.296 -15.720  1.00  0.00     0.033 C 
ATOM     27  C   UNL     1      25.254 -27.096 -14.964  1.00  0.00     0.120 C 
ATOM     28  C   UNL     1      26.413 -26.603 -12.765  1.00  0.00     0.014 C 
ATOM     29  C   UNL     1      24.513 -28.160 -12.774  1.00  0.00     0.014 C 
ENDROOT
BRANCH   1  30
ATOM     30  C   UNL     1      20.555 -19.171 -12.225  1.00  0.00     0.048 C 
ATOM     31  O   UNL     1      19.950 -18.397 -13.017  1.00  0.00    -0.550 OA
ATOM     32  O   UNL     1      19.799 -19.891 -11.303  1.00  0.00    -0.550 OA
ENDBRANCH   1  30
BRANCH  27  33
ATOM     33  O   UNL     1      25.962 -26.022 -15.533  1.00  0.00    -0.393 OA
ATOM     34  H   UNL     1      25.457 -25.193 -15.320  1.00  0.00     0.210 HD
ENDBRANCH  27  33
TORSDOF 2
ENDMDL
MODEL 2
REMARK VINA RESULT:    -7.987      1.978      2.753
REMARK INTER + INTRA:          -8.868
REMARK INTER:                  -8.679
REMARK INTRA:                  -0.189
REMARK UNBOUND:                -0.180
REMARK SMILES C[C@H]1[C@H](C)CC[C@@]2(C(=O)[O-])CC[C@]3(C)C(=CC[C@@H]4[C@@]5(C)CC[C@@H](O)C(C)(C)[C@H]5CC[C@@]43C)[C@@H]12
REMARK SMILES IDX 7 1 6 2 11 3 33 4 5 5 12 6 15 7 2 8 3 9 13 10 16 11 1 12
REMARK SMILES IDX 4 13 14 14 31 15 17 16 18 17 30 18 32 19 19 20 29 21 28 22
REMARK SMILES IDX 21 23 20 24 25 25 22 26 23 27 26 28 27 29 8 30 9 31 10 32
REMARK SMILES IDX 24 33
REMARK H PARENT 24 34
REMARK Flexibility Score: inf
ROOT
ATOM      1  C   UNL     1      22.910 -17.754 -12.233  1.00  0.00     0.017 C 
ATOM      2  C   UNL     1      23.379 -16.821 -11.073  1.00  0.00     0.014 C 
ATOM      3  C   UNL     1      24.132 -18.218 -13.095  1.00  0.00     0.014 C 
ATOM      4  C   UNL     1      22.108 -18.989 -11.685  1.00  0.00     0.030 C 
ATOM      5  C   UNL     1      23.983 -17.537  -9.863  1.00  0.00     0.004 C 
ATOM      6  C   UNL     1      23.980 -19.560 -13.864  1.00  0.00     0.013 C 
ATOM      7  C   UNL     1      21.740 -19.985 -12.799  1.00  0.00    -0.063 C 
ATOM      8  C   UNL     1      22.687 -19.665 -10.391  1.00  0.00    -0.003 C 
ATOM      9  C   UNL     1      23.052 -18.624  -9.301  1.00  0.00    -0.011 C 
ATOM     10  C   UNL     1      22.514 -20.066 -14.114  1.00  0.00    -0.006 C 
ATOM     11  C   UNL     1      20.563 -20.626 -12.725  1.00  0.00    -0.027 C 
ATOM     12  C   UNL     1      23.873 -20.614 -10.616  1.00  0.00     0.008 C 
ATOM     13  C   UNL     1      21.808 -18.029  -8.617  1.00  0.00     0.008 C 
ATOM     14  C   UNL     1      21.829 -19.091 -15.145  1.00  0.00     0.017 C 
ATOM     15  C   UNL     1      22.461 -21.585 -14.691  1.00  0.00    -0.020 C 
ATOM     16  C   UNL     1      19.946 -21.287 -13.926  1.00  0.00     0.032 C 
ATOM     17  C   UNL     1      20.940 -22.045 -14.888  1.00  0.00     0.006 C 
ATOM     18  C   UNL     1      23.165 -22.661 -13.770  1.00  0.00     0.008 C 
ATOM     19  C   UNL     1      23.219 -21.592 -16.078  1.00  0.00     0.012 C 
ATOM     20  C   UNL     1      20.676 -23.623 -14.865  1.00  0.00    -0.025 C 
ATOM     21  C   UNL     1      22.255 -23.414 -12.786  1.00  0.00     0.005 C 
ATOM     22  C   UNL     1      21.056 -24.197 -13.433  1.00  0.00     0.003 C 
ATOM     23  C   UNL     1      21.483 -24.354 -15.995  1.00  0.00     0.010 C 
ATOM     24  C   UNL     1      19.156 -23.848 -15.197  1.00  0.00     0.012 C 
ATOM     25  C   UNL     1      21.157 -25.788 -13.346  1.00  0.00    -0.006 C 
ATOM     26  C   UNL     1      21.488 -25.885 -15.889  1.00  0.00     0.033 C 
ATOM     27  C   UNL     1      21.999 -26.361 -14.520  1.00  0.00     0.120 C 
ATOM     28  C   UNL     1      21.774 -26.272 -11.998  1.00  0.00     0.014 C 
ATOM     29  C   UNL     1      19.735 -26.427 -13.359  1.00  0.00     0.014 C 
ENDROOT
BRANCH   1  30
ATOM     30  C   UNL     1      22.001 -16.858 -13.081  1.00  0.00     0.048 C 
ATOM     31  O   UNL     1      22.497 -16.039 -13.903  1.00  0.00    -0.550 OA
ATOM     32  O   UNL     1      20.624 -16.826 -12.869  1.00  0.00    -0.550 OA
ENDBRANCH   1  30
BRANCH  27  33
ATOM     33  O   UNL     1      23.351 -26.003 -14.374  1.00  0.00    -0.393 OA
ATOM     34  H   UNL     1      23.850 -26.432 -15.120  1.00  0.00     0.210 HD
ENDBRANCH  27  33
TORSDOF 2
ENDMDL
MODEL 3
REMARK VINA RESULT:    -7.532      2.174      3.296
REMARK INTER + INTRA:          -8.373
REMARK INTER:                  -8.182
REMARK INTRA:                  -0.191
REMARK UNBOUND:                -0.180
REMARK SMILES C[C@H]1[C@H](C)CC[C@@]2(C(=O)[O-])CC[C@]3(C)C(=CC[C@@H]4[C@@]5(C)CC[C@@H](O)C(C)(C)[C@H]5CC[C@@]43C)[C@@H]12
REMARK SMILES IDX 7 1 6 2 11 3 33 4 5 5 12 6 15 7 2 8 3 9 13 10 16 11 1 12
REMARK SMILES IDX 4 13 14 14 31 15 17 16 18 17 30 18 32 19 19 20 29 21 28 22
REMARK SMILES IDX 21 23 20 24 25 25 22 26 23 27 26 28 27 29 8 30 9 31 10 32
REMARK SMILES IDX 24 33
REMARK H PARENT 24 34
REMARK Flexibility Score: inf
ROOT
ATOM      1  C   UNL     1      23.478 -19.267 -12.881  1.00  0.00     0.017 C 
ATOM      2  C   UNL     1      23.816 -17.997 -12.040  1.00  0.00     0.014 C 
ATOM      3  C   UNL     1      24.722 -20.214 -12.971  1.00  0.00     0.014 C 
ATOM      4  C   UNL     1      22.234 -20.028 -12.294  1.00  0.00     0.030 C 
ATOM      5  C   UNL     1      23.798 -18.195 -10.523  1.00  0.00     0.004 C 
ATOM      6  C   UNL     1      24.439 -21.724 -13.212  1.00  0.00     0.013 C 
ATOM      7  C   UNL     1      21.957 -21.348 -13.034  1.00  0.00    -0.063 C 
ATOM      8  C   UNL     1      22.180 -20.151 -10.730  1.00  0.00    -0.003 C 
ATOM      9  C   UNL     1      22.475 -18.800 -10.027  1.00  0.00    -0.011 C 
ATOM     10  C   UNL     1      23.038 -22.089 -13.821  1.00  0.00    -0.006 C 
ATOM     11  C   UNL     1      20.683 -21.733 -13.206  1.00  0.00    -0.027 C 
ATOM     12  C   UNL     1      23.061 -21.251 -10.122  1.00  0.00     0.008 C 
ATOM     13  C   UNL     1      21.302 -17.809 -10.142  1.00  0.00     0.008 C 
ATOM     14  C   UNL     1      23.000 -21.572 -15.309  1.00  0.00     0.017 C 
ATOM     15  C   UNL     1      22.737 -23.687 -13.797  1.00  0.00    -0.020 C 
ATOM     16  C   UNL     1      20.299 -22.759 -14.237  1.00  0.00     0.032 C 
ATOM     17  C   UNL     1      21.283 -23.981 -14.398  1.00  0.00     0.006 C 
ATOM     18  C   UNL     1      22.797 -24.343 -12.360  1.00  0.00     0.008 C 
ATOM     19  C   UNL     1      23.845 -24.390 -14.677  1.00  0.00     0.012 C 
ATOM     20  C   UNL     1      20.592 -25.345 -13.926  1.00  0.00    -0.025 C 
ATOM     21  C   UNL     1      21.458 -24.471 -11.614  1.00  0.00     0.005 C 
ATOM     22  C   UNL     1      20.342 -25.290 -12.358  1.00  0.00     0.003 C 
ATOM     23  C   UNL     1      21.464 -26.591 -14.314  1.00  0.00     0.010 C 
ATOM     24  C   UNL     1      19.245 -25.488 -14.725  1.00  0.00     0.012 C 
ATOM     25  C   UNL     1      19.961 -26.687 -11.684  1.00  0.00    -0.006 C 
ATOM     26  C   UNL     1      21.006 -27.913 -13.682  1.00  0.00     0.033 C 
ATOM     27  C   UNL     1      20.923 -27.816 -12.151  1.00  0.00     0.120 C 
ATOM     28  C   UNL     1      19.979 -26.621 -10.126  1.00  0.00     0.014 C 
ATOM     29  C   UNL     1      18.491 -27.075 -12.027  1.00  0.00     0.014 C 
ENDROOT
BRANCH   1  30
ATOM     30  C   UNL     1      23.159 -18.712 -14.274  1.00  0.00     0.048 C 
ATOM     31  O   UNL     1      24.089 -18.406 -15.069  1.00  0.00    -0.550 OA
ATOM     32  O   UNL     1      21.851 -18.405 -14.641  1.00  0.00    -0.550 OA
ENDBRANCH   1  30
BRANCH  27  33
ATOM     33  O   UNL     1      22.211 -27.612 -11.623  1.00  0.00    -0.393 OA
ATOM     34  H   UNL     1      22.859 -27.824 -12.346  1.00  0.00     0.210 HD
ENDBRANCH  27  33
TORSDOF 2
ENDMDL
MODEL 4
REMARK VINA RESULT:    -7.402      1.546      7.388
REMARK INTER + INTRA:          -8.232
REMARK INTER:                  -8.037
REMARK INTRA:                  -0.195
REMARK UNBOUND:                -0.180
REMARK SMILES C[C@H]1[C@H](C)CC[C@@]2(C(=O)[O-])CC[C@]3(C)C(=CC[C@@H]4[C@@]5(C)CC[C@@H](O)C(C)(C)[C@H]5CC[C@@]43C)[C@@H]12
REMARK SMILES IDX 7 1 6 2 11 3 33 4 5 5 12 6 15 7 2 8 3 9 13 10 16 11 1 12
REMARK SMILES IDX 4 13 14 14 31 15 17 16 18 17 30 18 32 19 19 20 29 21 28 22
REMARK SMILES IDX 21 23 20 24 25 25 22 26 23 27 26 28 27 29 8 30 9 31 10 32
REMARK SMILES IDX 24 33
REMARK H PARENT 24 34
REMARK Flexibility Score: inf
ROOT
ATOM      1  C   UNL     1      23.179 -26.934 -14.103  1.00  0.00     0.017 C 
ATOM      2  C   UNL     1      22.679 -28.390 -13.848  1.00  0.00     0.014 C 
ATOM      3  C   UNL     1      22.616 -26.387 -15.458  1.00  0.00     0.014 C 
ATOM      4  C   UNL     1      22.800 -25.981 -12.912  1.00  0.00     0.030 C 
ATOM      5  C   UNL     1      21.247 -28.504 -13.319  1.00  0.00     0.004 C 
ATOM      6  C   UNL     1      22.486 -24.844 -15.593  1.00  0.00     0.013 C 
ATOM      7  C   UNL     1      23.177 -24.516 -13.196  1.00  0.00    -0.063 C 
ATOM      8  C   UNL     1      21.358 -26.165 -12.318  1.00  0.00    -0.003 C 
ATOM      9  C   UNL     1      21.019 -27.655 -12.058  1.00  0.00    -0.011 C 
ATOM     10  C   UNL     1      23.354 -23.976 -14.614  1.00  0.00    -0.006 C 
ATOM     11  C   UNL     1      23.604 -23.754 -12.178  1.00  0.00    -0.027 C 
ATOM     12  C   UNL     1      20.225 -25.511 -13.121  1.00  0.00     0.008 C 
ATOM     13  C   UNL     1      21.761 -28.222 -10.833  1.00  0.00     0.008 C 
ATOM     14  C   UNL     1      24.868 -24.150 -15.017  1.00  0.00     0.017 C 
ATOM     15  C   UNL     1      22.963 -22.398 -14.655  1.00  0.00    -0.020 C 
ATOM     16  C   UNL     1      24.362 -22.476 -12.411  1.00  0.00     0.032 C 
ATOM     17  C   UNL     1      23.861 -21.583 -13.610  1.00  0.00     0.006 C 
ATOM     18  C   UNL     1      21.449 -22.090 -14.319  1.00  0.00     0.008 C 
ATOM     19  C   UNL     1      23.228 -21.882 -16.125  1.00  0.00     0.012 C 
ATOM     20  C   UNL     1      23.246 -20.201 -13.086  1.00  0.00    -0.025 C 
ATOM     21  C   UNL     1      21.136 -21.734 -12.856  1.00  0.00     0.005 C 
ATOM     22  C   UNL     1      21.911 -20.496 -12.278  1.00  0.00     0.003 C 
ATOM     23  C   UNL     1      22.979 -19.209 -14.272  1.00  0.00     0.010 C 
ATOM     24  C   UNL     1      24.336 -19.518 -12.181  1.00  0.00     0.012 C 
ATOM     25  C   UNL     1      21.011 -19.214 -11.968  1.00  0.00    -0.006 C 
ATOM     26  C   UNL     1      22.162 -17.965 -13.892  1.00  0.00     0.033 C 
ATOM     27  C   UNL     1      20.822 -18.340 -13.240  1.00  0.00     0.120 C 
ATOM     28  C   UNL     1      19.608 -19.595 -11.404  1.00  0.00     0.014 C 
ATOM     29  C   UNL     1      21.652 -18.358 -10.834  1.00  0.00     0.014 C 
ENDROOT
BRANCH   1  30
ATOM     30  C   UNL     1      24.702 -27.081 -14.207  1.00  0.00     0.048 C 
ATOM     31  O   UNL     1      25.238 -27.420 -15.298  1.00  0.00    -0.550 OA
ATOM     32  O   UNL     1      25.511 -26.981 -13.078  1.00  0.00    -0.550 OA
ENDBRANCH   1  30
BRANCH  27  33
ATOM     33  O   UNL     1      20.014 -19.009 -14.178  1.00  0.00    -0.393 OA
ATOM     34  H   UNL     1      19.496 -18.314 -14.665  1.00  0.00     0.210 HD
ENDBRANCH  27  33
TORSDOF 2
ENDMDL
MODEL 5
REMARK VINA RESULT:    -7.183      2.909      8.220
REMARK INTER + INTRA:          -7.993
REMARK INTER:                  -7.900
REMARK INTRA:                  -0.093
REMARK UNBOUND:                -0.180
REMARK SMILES C[C@H]1[C@H](C)CC[C@@]2(C(=O)[O-])CC[C@]3(C)C(=CC[C@@H]4[C@@]5(C)CC[C@@H](O)C(C)(C)[C@H]5CC[C@@]43C)[C@@H]12
REMARK SMILES IDX 7 1 6 2 11 3 33 4 5 5 12 6 15 7 2 8 3 9 13 10 16 11 1 12
REMARK SMILES IDX 4 13 14 14 31 15 17 16 18 17 30 18 32 19 19 20 29 21 28 22
REMARK SMILES IDX 21 23 20 24 25 25 22 26 23 27 26 28 27 29 8 30 9 31 10 32
REMARK SMILES IDX 24 33
REMARK H PARENT 24 34
REMARK Flexibility Score: inf
ROOT
ATOM      1  C   UNL     1      21.611 -22.820 -13.582  1.00  0.00     0.017 C 
ATOM      2  C   UNL     1      21.070 -23.815 -14.656  1.00  0.00     0.014 C 
ATOM      3  C   UNL     1      23.105 -22.451 -13.876  1.00  0.00     0.014 C 
ATOM      4  C   UNL     1      20.720 -21.528 -13.497  1.00  0.00     0.030 C 
ATOM      5  C   UNL     1      20.669 -23.180 -15.989  1.00  0.00     0.004 C 
ATOM      6  C   UNL     1      23.611 -21.086 -13.333  1.00  0.00     0.013 C 
ATOM      7  C   UNL     1      21.303 -20.481 -12.531  1.00  0.00    -0.063 C 
ATOM      8  C   UNL     1      20.240 -20.934 -14.868  1.00  0.00    -0.003 C 
ATOM      9  C   UNL     1      19.670 -22.025 -15.811  1.00  0.00    -0.011 C 
ATOM     10  C   UNL     1      22.785 -20.445 -12.161  1.00  0.00    -0.006 C 
ATOM     11  C   UNL     1      20.457 -19.738 -11.802  1.00  0.00    -0.027 C 
ATOM     12  C   UNL     1      21.279 -20.092 -15.623  1.00  0.00     0.008 C 
ATOM     13  C   UNL     1      18.281 -22.519 -15.365  1.00  0.00     0.008 C 
ATOM     14  C   UNL     1      22.990 -21.333 -10.876  1.00  0.00     0.017 C 
ATOM     15  C   UNL     1      23.233 -18.915 -11.836  1.00  0.00    -0.020 C 
ATOM     16  C   UNL     1      20.911 -19.000 -10.572  1.00  0.00     0.032 C 
ATOM     17  C   UNL     1      22.329 -18.316 -10.659  1.00  0.00     0.006 C 
ATOM     18  C   UNL     1      23.126 -17.927 -13.066  1.00  0.00     0.008 C 
ATOM     19  C   UNL     1      24.751 -18.950 -11.398  1.00  0.00     0.012 C 
ATOM     20  C   UNL     1      22.206 -16.722 -10.612  1.00  0.00    -0.025 C 
ATOM     21  C   UNL     1      21.825 -17.114 -13.173  1.00  0.00     0.005 C 
ATOM     22  C   UNL     1      21.482 -16.213 -11.932  1.00  0.00     0.003 C 
ATOM     23  C   UNL     1      23.612 -16.044 -10.445  1.00  0.00     0.010 C 
ATOM     24  C   UNL     1      21.387 -16.353  -9.321  1.00  0.00     0.012 C 
ATOM     25  C   UNL     1      21.570 -14.640 -12.189  1.00  0.00    -0.006 C 
ATOM     26  C   UNL     1      23.615 -14.522 -10.643  1.00  0.00     0.033 C 
ATOM     27  C   UNL     1      23.024 -14.121 -12.004  1.00  0.00     0.120 C 
ATOM     28  C   UNL     1      21.069 -14.240 -13.611  1.00  0.00     0.014 C 
ATOM     29  C   UNL     1      20.614 -13.875 -11.225  1.00  0.00     0.014 C 
ENDROOT
BRANCH   1  30
ATOM     30  C   UNL     1      21.532 -23.613 -12.272  1.00  0.00     0.048 C 
ATOM     31  O   UNL     1      22.328 -24.567 -12.054  1.00  0.00    -0.550 OA
ATOM     32  O   UNL     1      20.502 -23.393 -11.361  1.00  0.00    -0.550 OA
ENDBRANCH   1  30
BRANCH  27  33
ATOM     33  O   UNL     1      23.851 -14.603 -13.034  1.00  0.00    -0.393 OA
ATOM     34  H   UNL     1      24.341 -15.389 -12.672  1.00  0.00     0.210 HD
ENDBRANCH  27  33
TORSDOF 2
ENDMDL
MODEL 6
REMARK VINA RESULT:    -6.914      1.890      7.194
REMARK INTER + INTRA:          -7.701
REMARK INTER:                  -7.505
REMARK INTRA:                  -0.196
REMARK UNBOUND:                -0.180
REMARK SMILES C[C@H]1[C@H](C)CC[C@@]2(C(=O)[O-])CC[C@]3(C)C(=CC[C@@H]4[C@@]5(C)CC[C@@H](O)C(C)(C)[C@H]5CC[C@@]43C)[C@@H]12
REMARK SMILES IDX 7 1 6 2 11 3 33 4 5 5 12 6 15 7 2 8 3 9 13 10 16 11 1 12
REMARK SMILES IDX 4 13 14 14 31 15 17 16 18 17 30 18 32 19 19 20 29 21 28 22
REMARK SMILES IDX 21 23 20 24 25 25 22 26 23 27 26 28 27 29 8 30 9 31 10 32
REMARK SMILES IDX 24 33
REMARK H PARENT 24 34
REMARK Flexibility Score: inf
ROOT
ATOM      1  C   UNL     1      21.242 -26.019 -13.129  1.00  0.00     0.017 C 
ATOM      2  C   UNL     1      20.663 -27.349 -12.553  1.00  0.00     0.014 C 
ATOM      3  C   UNL     1      20.137 -25.229 -13.907  1.00  0.00     0.014 C 
ATOM      4  C   UNL     1      21.874 -25.132 -11.996  1.00  0.00     0.030 C 
ATOM      5  C   UNL     1      19.840 -27.201 -11.271  1.00  0.00     0.004 C 
ATOM      6  C   UNL     1      20.319 -23.689 -14.016  1.00  0.00     0.013 C 
ATOM      7  C   UNL     1      22.343 -23.763 -12.521  1.00  0.00    -0.063 C 
ATOM      8  C   UNL     1      21.066 -25.056 -10.652  1.00  0.00    -0.003 C 
ATOM      9  C   UNL     1      20.607 -26.455 -10.166  1.00  0.00    -0.011 C 
ATOM     10  C   UNL     1      21.771 -23.135 -13.792  1.00  0.00    -0.006 C 
ATOM     11  C   UNL     1      23.452 -23.220 -11.998  1.00  0.00    -0.027 C 
ATOM     12  C   UNL     1      19.871 -24.093 -10.653  1.00  0.00     0.008 C 
ATOM     13  C   UNL     1      21.769 -27.290  -9.597  1.00  0.00     0.008 C 
ATOM     14  C   UNL     1      22.663 -23.593 -15.007  1.00  0.00     0.017 C 
ATOM     15  C   UNL     1      21.816 -21.513 -13.671  1.00  0.00    -0.020 C 
ATOM     16  C   UNL     1      24.201 -22.121 -12.700  1.00  0.00     0.032 C 
ATOM     17  C   UNL     1      23.317 -21.023 -13.409  1.00  0.00     0.006 C 
ATOM     18  C   UNL     1      20.915 -20.918 -12.515  1.00  0.00     0.008 C 
ATOM     19  C   UNL     1      21.276 -20.922 -15.033  1.00  0.00     0.012 C 
ATOM     20  C   UNL     1      23.476 -19.602 -12.692  1.00  0.00    -0.025 C 
ATOM     21  C   UNL     1      21.619 -20.652 -11.174  1.00  0.00     0.005 C 
ATOM     22  C   UNL     1      22.850 -19.678 -11.234  1.00  0.00     0.003 C 
ATOM     23  C   UNL     1      22.804 -18.460 -13.534  1.00  0.00     0.010 C 
ATOM     24  C   UNL     1      25.012 -19.267 -12.650  1.00  0.00     0.012 C 
ATOM     25  C   UNL     1      22.638 -18.268 -10.514  1.00  0.00    -0.006 C 
ATOM     26  C   UNL     1      22.688 -17.113 -12.805  1.00  0.00     0.033 C 
ATOM     27  C   UNL     1      21.948 -17.250 -11.465  1.00  0.00     0.120 C 
ATOM     28  C   UNL     1      21.796 -18.389  -9.207  1.00  0.00     0.014 C 
ATOM     29  C   UNL     1      24.003 -17.692 -10.030  1.00  0.00     0.014 C 
ENDROOT
BRANCH   1  30
ATOM     30  C   UNL     1      22.323 -26.483 -14.111  1.00  0.00     0.048 C 
ATOM     31  O   UNL     1      22.014 -26.829 -15.285  1.00  0.00    -0.550 OA
ATOM     32  O   UNL     1      23.640 -26.666 -13.696  1.00  0.00    -0.550 OA
ENDBRANCH   1  30
BRANCH  27  33
ATOM     33  O   UNL     1      20.614 -17.629 -11.703  1.00  0.00    -0.393 OA
ATOM     34  H   UNL     1      20.200 -16.909 -12.250  1.00  0.00     0.210 HD
ENDBRANCH  27  33
TORSDOF 2
ENDMDL
MODEL 7
REMARK VINA RESULT:    -6.889      1.947      7.288
REMARK INTER + INTRA:          -7.674
REMARK INTER:                  -7.478
REMARK INTRA:                  -0.196
REMARK UNBOUND:                -0.180
REMARK SMILES C[C@H]1[C@H](C)CC[C@@]2(C(=O)[O-])CC[C@]3(C)C(=CC[C@@H]4[C@@]5(C)CC[C@@H](O)C(C)(C)[C@H]5CC[C@@]43C)[C@@H]12
REMARK SMILES IDX 7 1 6 2 11 3 33 4 5 5 12 6 15 7 2 8 3 9 13 10 16 11 1 12
REMARK SMILES IDX 4 13 14 14 31 15 17 16 18 17 30 18 32 19 19 20 29 21 28 22
REMARK SMILES IDX 21 23 20 24 25 25 22 26 23 27 26 28 27 29 8 30 9 31 10 32
REMARK SMILES IDX 24 33
REMARK H PARENT 24 34
REMARK Flexibility Score: inf
ROOT
ATOM      1  C   UNL     1      22.563 -27.319 -13.733  1.00  0.00     0.017 C 
ATOM      2  C   UNL     1      23.502 -28.543 -13.970  1.00  0.00     0.014 C 
ATOM      3  C   UNL     1      22.340 -27.085 -12.201  1.00  0.00     0.014 C 
ATOM      4  C   UNL     1      23.124 -26.024 -14.424  1.00  0.00     0.030 C 
ATOM      5  C   UNL     1      24.994 -28.267 -13.778  1.00  0.00     0.004 C 
ATOM      6  C   UNL     1      21.975 -25.641 -11.757  1.00  0.00     0.013 C 
ATOM      7  C   UNL     1      22.278 -24.780 -14.102  1.00  0.00    -0.063 C 
ATOM      8  C   UNL     1      24.672 -25.794 -14.295  1.00  0.00    -0.003 C 
ATOM      9  C   UNL     1      25.483 -27.075 -14.619  1.00  0.00    -0.011 C 
ATOM     10  C   UNL     1      21.389 -24.692 -12.863  1.00  0.00    -0.006 C 
ATOM     11  C   UNL     1      22.120 -23.847 -15.054  1.00  0.00    -0.027 C 
ATOM     12  C   UNL     1      25.144 -25.209 -12.957  1.00  0.00     0.008 C 
ATOM     13  C   UNL     1      25.501 -27.395 -16.125  1.00  0.00     0.008 C 
ATOM     14  C   UNL     1      19.956 -25.220 -13.252  1.00  0.00     0.017 C 
ATOM     15  C   UNL     1      21.279 -23.145 -12.373  1.00  0.00    -0.020 C 
ATOM     16  C   UNL     1      21.016 -22.828 -14.986  1.00  0.00     0.032 C 
ATOM     17  C   UNL     1      20.709 -22.233 -13.559  1.00  0.00     0.006 C 
ATOM     18  C   UNL     1      22.648 -22.509 -11.902  1.00  0.00     0.008 C 
ATOM     19  C   UNL     1      20.298 -23.109 -11.134  1.00  0.00     0.012 C 
ATOM     20  C   UNL     1      21.081 -20.678 -13.488  1.00  0.00    -0.025 C 
ATOM     21  C   UNL     1      23.428 -21.714 -12.962  1.00  0.00     0.005 C 
ATOM     22  C   UNL     1      22.655 -20.510 -13.614  1.00  0.00     0.003 C 
ATOM     23  C   UNL     1      20.550 -20.023 -12.164  1.00  0.00     0.010 C 
ATOM     24  C   UNL     1      20.323 -19.961 -14.665  1.00  0.00     0.012 C 
ATOM     25  C   UNL     1      23.214 -19.062 -13.241  1.00  0.00    -0.006 C 
ATOM     26  C   UNL     1      21.075 -18.606 -11.897  1.00  0.00     0.033 C 
ATOM     27  C   UNL     1      22.612 -18.557 -11.899  1.00  0.00     0.120 C 
ATOM     28  C   UNL     1      24.770 -19.032 -13.138  1.00  0.00     0.014 C 
ATOM     29  C   UNL     1      22.893 -18.044 -14.376  1.00  0.00     0.014 C 
ENDROOT
BRANCH   1  30
ATOM     30  C   UNL     1      21.239 -27.741 -14.381  1.00  0.00     0.048 C 
ATOM     31  O   UNL     1      20.422 -28.468 -13.751  1.00  0.00    -0.550 OA
ATOM     32  O   UNL     1      20.968 -27.450 -15.716  1.00  0.00    -0.550 OA
ENDBRANCH   1  30
BRANCH  27  33
ATOM     33  O   UNL     1      23.107 -19.315 -10.823  1.00  0.00    -0.393 OA
ATOM     34  H   UNL     1      22.621 -19.018 -10.008  1.00  0.00     0.210 HD
ENDBRANCH  27  33
TORSDOF 2
ENDMDL
MODEL 8
REMARK VINA RESULT:    -6.770      4.018      9.068
REMARK INTER + INTRA:          -7.544
REMARK INTER:                  -7.377
REMARK INTRA:                  -0.168
REMARK UNBOUND:                -0.180
REMARK SMILES C[C@H]1[C@H](C)CC[C@@]2(C(=O)[O-])CC[C@]3(C)C(=CC[C@@H]4[C@@]5(C)CC[C@@H](O)C(C)(C)[C@H]5CC[C@@]43C)[C@@H]12
REMARK SMILES IDX 7 1 6 2 11 3 33 4 5 5 12 6 15 7 2 8 3 9 13 10 16 11 1 12
REMARK SMILES IDX 4 13 14 14 31 15 17 16 18 17 30 18 32 19 19 20 29 21 28 22
REMARK SMILES IDX 21 23 20 24 25 25 22 26 23 27 26 28 27 29 8 30 9 31 10 32
REMARK SMILES IDX 24 33
REMARK H PARENT 24 34
REMARK Flexibility Score: inf
ROOT
ATOM      1  C   UNL     1      21.249 -32.084 -12.229  1.00  0.00     0.017 C 
ATOM      2  C   UNL     1      20.275 -32.982 -11.404  1.00  0.00     0.014 C 
ATOM      3  C   UNL     1      20.666 -31.804 -13.655  1.00  0.00     0.014 C 
ATOM      4  C   UNL     1      21.564 -30.740 -11.477  1.00  0.00     0.030 C 
ATOM      5  C   UNL     1      19.077 -32.253 -10.791  1.00  0.00     0.004 C 
ATOM      6  C   UNL     1      21.142 -30.507 -14.366  1.00  0.00     0.013 C 
ATOM      7  C   UNL     1      22.425 -29.787 -12.325  1.00  0.00    -0.063 C 
ATOM      8  C   UNL     1      20.344 -30.043 -10.776  1.00  0.00    -0.003 C 
ATOM      9  C   UNL     1      19.500 -31.042  -9.942  1.00  0.00    -0.011 C 
ATOM     10  C   UNL     1      22.482 -29.872 -13.850  1.00  0.00    -0.006 C 
ATOM     11  C   UNL     1      23.340 -29.026 -11.706  1.00  0.00    -0.027 C 
ATOM     12  C   UNL     1      19.422 -29.237 -11.702  1.00  0.00     0.008 C 
ATOM     13  C   UNL     1      20.205 -31.462  -8.639  1.00  0.00     0.008 C 
ATOM     14  C   UNL     1      23.664 -30.838 -14.241  1.00  0.00     0.017 C 
ATOM     15  C   UNL     1      22.762 -28.396 -14.472  1.00  0.00    -0.020 C 
ATOM     16  C   UNL     1      24.475 -28.386 -12.456  1.00  0.00     0.032 C 
ATOM     17  C   UNL     1      24.122 -27.798 -13.877  1.00  0.00     0.006 C 
ATOM     18  C   UNL     1      21.618 -27.340 -14.195  1.00  0.00     0.008 C 
ATOM     19  C   UNL     1      22.876 -28.558 -16.040  1.00  0.00     0.012 C 
ATOM     20  C   UNL     1      24.252 -26.203 -13.890  1.00  0.00    -0.025 C 
ATOM     21  C   UNL     1      21.813 -26.435 -12.967  1.00  0.00     0.005 C 
ATOM     22  C   UNL     1      23.130 -25.578 -12.955  1.00  0.00     0.003 C 
ATOM     23  C   UNL     1      24.149 -25.634 -15.349  1.00  0.00     0.010 C 
ATOM     24  C   UNL     1      25.697 -25.846 -13.383  1.00  0.00     0.012 C 
ATOM     25  C   UNL     1      22.918 -24.003 -13.112  1.00  0.00    -0.006 C 
ATOM     26  C   UNL     1      24.010 -24.107 -15.432  1.00  0.00     0.033 C 
ATOM     27  C   UNL     1      22.816 -23.597 -14.609  1.00  0.00     0.120 C 
ATOM     28  C   UNL     1      21.646 -23.497 -12.365  1.00  0.00     0.014 C 
ATOM     29  C   UNL     1      24.085 -23.225 -12.435  1.00  0.00     0.014 C 
ENDROOT
BRANCH   1  30
ATOM     30  C   UNL     1      22.517 -32.936 -12.356  1.00  0.00     0.048 C 
ATOM     31  O   UNL     1      22.565 -33.891 -13.179  1.00  0.00    -0.550 OA
ATOM     32  O   UNL     1      23.585 -32.768 -11.479  1.00  0.00    -0.550 OA
ENDBRANCH   1  30
BRANCH  27  33
ATOM     33  O   UNL     1      21.620 -24.081 -15.169  1.00  0.00    -0.393 OA
ATOM     34  H   UNL     1      21.468 -23.578 -16.013  1.00  0.00     0.210 HD
ENDBRANCH  27  33
TORSDOF 2
ENDMDL
