MODEL 1
REMARK VINA RESULT:    -4.619      0.000      0.000
REMARK INTER + INTRA:          -7.867
REMARK INTER:                  -7.050
REMARK INTRA:                  -0.817
REMARK UNBOUND:                -0.817
REMARK SMILES CCCCCCCCCCC(=O)[O-]
REMARK SMILES IDX 7 1 8 2 9 3 10 4 11 5 12 6 13 7 6 8 5 9 4 10 3 11 2 12 1 13
REMARK H PARENT
REMARK Flexibility Score: inf
ROOT
ATOM      1  C   UNL     1      -6.106   9.359  -8.002  1.00  0.00     0.000 C 
ENDROOT
BRANCH   1   2
ATOM      2  C   UNL     1      -5.655  10.505  -8.920  1.00  0.00     0.000 C 
BRANCH   2   3
ATOM      3  C   UNL     1      -4.123  10.571  -9.003  1.00  0.00     0.006 C 
BRANCH   3   4
ATOM      4  C   UNL     1      -3.574  11.931  -8.554  1.00  0.00     0.053 C 
BRANCH   4   5
ATOM      5  C   UNL     1      -3.411  12.001  -7.066  1.00  0.00     0.041 C 
ATOM      6  O   UNL     1      -2.368  11.551  -6.523  1.00  0.00    -0.550 OA
ATOM      7  O   UNL     1      -4.395  12.592  -6.285  1.00  0.00    -0.550 OA
ENDBRANCH   4   5
ENDBRANCH   3   4
ENDBRANCH   2   3
ENDBRANCH   1   2
BRANCH   1   8
ATOM      8  C   UNL     1      -6.401   9.823  -6.563  1.00  0.00     0.000 C 
BRANCH   8   9
ATOM      9  C   UNL     1      -7.515  10.879  -6.436  1.00  0.00    -0.000 C 
BRANCH   9  10
ATOM     10  C   UNL     1      -8.859  10.281  -5.993  1.00  0.00    -0.000 C 
BRANCH  10  11
ATOM     11  C   UNL     1      -8.656   8.933  -5.291  1.00  0.00    -0.000 C 
BRANCH  11  12
ATOM     12  C   UNL     1      -9.786   7.957  -5.637  1.00  0.00    -0.003 C 
ATOM     13  C   UNL     1      -9.388   7.035  -6.786  1.00  0.00     0.004 C 
ENDBRANCH  11  12
ENDBRANCH  10  11
ENDBRANCH   9  10
ENDBRANCH   8   9
ENDBRANCH   1   8
TORSDOF 9
ENDMDL
MODEL 2
REMARK VINA RESULT:    -4.405     17.401     19.468
REMARK INTER + INTRA:          -7.540
REMARK INTER:                  -6.251
REMARK INTRA:                  -1.289
REMARK UNBOUND:                -0.817
REMARK SMILES CCCCCCCCCCC(=O)[O-]
REMARK SMILES IDX 7 1 8 2 9 3 10 4 11 5 12 6 13 7 6 8 5 9 4 10 3 11 2 12 1 13
REMARK H PARENT
REMARK Flexibility Score: inf
ROOT
ATOM      1  C   UNL     1       6.729  12.481   9.103  1.00  0.00     0.000 C 
ENDROOT
BRANCH   1   2
ATOM      2  C   UNL     1       5.386  12.744   8.405  1.00  0.00     0.000 C 
BRANCH   2   3
ATOM      3  C   UNL     1       4.272  11.882   9.017  1.00  0.00     0.006 C 
BRANCH   3   4
ATOM      4  C   UNL     1       3.720  10.853   8.022  1.00  0.00     0.053 C 
BRANCH   4   5
ATOM      5  C   UNL     1       4.174   9.464   8.350  1.00  0.00     0.041 C 
ATOM      6  O   UNL     1       5.202   9.283   9.055  1.00  0.00    -0.550 OA
ATOM      7  O   UNL     1       3.444   8.369   7.906  1.00  0.00    -0.550 OA
ENDBRANCH   4   5
ENDBRANCH   3   4
ENDBRANCH   2   3
ENDBRANCH   1   2
BRANCH   1   8
ATOM      8  C   UNL     1       7.907  12.375   8.117  1.00  0.00     0.000 C 
BRANCH   8   9
ATOM      9  C   UNL     1       8.071  10.998   7.446  1.00  0.00    -0.000 C 
BRANCH   9  10
ATOM     10  C   UNL     1       7.957  11.060   5.916  1.00  0.00    -0.000 C 
BRANCH  10  11
ATOM     11  C   UNL     1       6.625  10.467   5.440  1.00  0.00    -0.000 C 
BRANCH  11  12
ATOM     12  C   UNL     1       5.682  11.567   4.938  1.00  0.00    -0.003 C 
ATOM     13  C   UNL     1       6.432  12.878   4.717  1.00  0.00     0.004 C 
ENDBRANCH  11  12
ENDBRANCH  10  11
ENDBRANCH   9  10
ENDBRANCH   8   9
ENDBRANCH   1   8
TORSDOF 9
ENDMDL
MODEL 3
REMARK VINA RESULT:    -4.399     17.453     19.471
REMARK INTER + INTRA:          -7.531
REMARK INTER:                  -6.249
REMARK INTRA:                  -1.282
REMARK UNBOUND:                -0.817
REMARK SMILES CCCCCCCCCCC(=O)[O-]
REMARK SMILES IDX 7 1 8 2 9 3 10 4 11 5 12 6 13 7 6 8 5 9 4 10 3 11 2 12 1 13
REMARK H PARENT
REMARK Flexibility Score: inf
ROOT
ATOM      1  C   UNL     1       4.882  10.916   5.925  1.00  0.00     0.000 C 
ENDROOT
BRANCH   1   2
ATOM      2  C   UNL     1       5.619  10.110   7.005  1.00  0.00     0.000 C 
BRANCH   2   3
ATOM      3  C   UNL     1       5.981  11.000   8.203  1.00  0.00     0.006 C 
BRANCH   3   4
ATOM      4  C   UNL     1       4.926  12.084   8.462  1.00  0.00     0.053 C 
BRANCH   4   5
ATOM      5  C   UNL     1       3.916  11.645   9.477  1.00  0.00     0.041 C 
ATOM      6  O   UNL     1       2.840  12.285   9.616  1.00  0.00    -0.550 OA
ATOM      7  O   UNL     1       4.146  10.510  10.243  1.00  0.00    -0.550 OA
ENDBRANCH   4   5
ENDBRANCH   3   4
ENDBRANCH   2   3
ENDBRANCH   1   2
BRANCH   1   8
ATOM      8  C   UNL     1       5.790  11.309   4.745  1.00  0.00     0.000 C 
BRANCH   8   9
ATOM      9  C   UNL     1       6.276  12.770   4.758  1.00  0.00    -0.000 C 
BRANCH   9  10
ATOM     10  C   UNL     1       7.740  12.910   5.200  1.00  0.00    -0.000 C 
BRANCH  10  11
ATOM     11  C   UNL     1       8.495  11.586   5.028  1.00  0.00    -0.000 C 
BRANCH  11  12
ATOM     12  C   UNL     1       9.324  11.260   6.277  1.00  0.00    -0.003 C 
ATOM     13  C   UNL     1       9.203  12.364   7.323  1.00  0.00     0.004 C 
ENDBRANCH  11  12
ENDBRANCH  10  11
ENDBRANCH   9  10
ENDBRANCH   8   9
ENDBRANCH   1   8
TORSDOF 9
ENDMDL
MODEL 4
REMARK VINA RESULT:    -4.397     17.060     19.301
REMARK INTER + INTRA:          -7.527
REMARK INTER:                  -6.357
REMARK INTRA:                  -1.171
REMARK UNBOUND:                -0.817
REMARK SMILES CCCCCCCCCCC(=O)[O-]
REMARK SMILES IDX 7 1 8 2 9 3 10 4 11 5 12 6 13 7 6 8 5 9 4 10 3 11 2 12 1 13
REMARK H PARENT
REMARK Flexibility Score: inf
ROOT
ATOM      1  C   UNL     1       7.360  10.891   7.889  1.00  0.00     0.000 C 
ENDROOT
BRANCH   1   2
ATOM      2  C   UNL     1       6.883  12.110   8.694  1.00  0.00     0.000 C 
BRANCH   2   3
ATOM      3  C   UNL     1       5.354  12.246   8.630  1.00  0.00     0.006 C 
BRANCH   3   4
ATOM      4  C   UNL     1       4.643  11.270   9.576  1.00  0.00     0.053 C 
BRANCH   4   5
ATOM      5  C   UNL     1       3.704  10.365   8.839  1.00  0.00     0.041 C 
ATOM      6  O   UNL     1       2.558  10.772   8.512  1.00  0.00    -0.550 OA
ATOM      7  O   UNL     1       4.107   9.084   8.483  1.00  0.00    -0.550 OA
ENDBRANCH   4   5
ENDBRANCH   3   4
ENDBRANCH   2   3
ENDBRANCH   1   2
BRANCH   1   8
ATOM      8  C   UNL     1       8.613  11.183   7.044  1.00  0.00     0.000 C 
BRANCH   8   9
ATOM      9  C   UNL     1       8.378  11.212   5.522  1.00  0.00    -0.000 C 
BRANCH   9  10
ATOM     10  C   UNL     1       7.971  12.600   5.005  1.00  0.00    -0.000 C 
BRANCH  10  11
ATOM     11  C   UNL     1       6.454  12.686   4.800  1.00  0.00    -0.000 C 
BRANCH  11  12
ATOM     12  C   UNL     1       5.877  11.327   4.386  1.00  0.00    -0.003 C 
ATOM     13  C   UNL     1       4.670  10.956   5.244  1.00  0.00     0.004 C 
ENDBRANCH  11  12
ENDBRANCH  10  11
ENDBRANCH   9  10
ENDBRANCH   8   9
ENDBRANCH   1   8
TORSDOF 9
ENDMDL
MODEL 5
REMARK VINA RESULT:    -4.351     17.383     19.523
REMARK INTER + INTRA:          -7.457
REMARK INTER:                  -6.150
REMARK INTRA:                  -1.307
REMARK UNBOUND:                -0.817
REMARK SMILES CCCCCCCCCCC(=O)[O-]
REMARK SMILES IDX 7 1 8 2 9 3 10 4 11 5 12 6 13 7 6 8 5 9 4 10 3 11 2 12 1 13
REMARK H PARENT
REMARK Flexibility Score: inf
ROOT
ATOM      1  C   UNL     1       7.975  12.356   8.138  1.00  0.00     0.000 C 
ENDROOT
BRANCH   1   2
ATOM      2  C   UNL     1       6.499  12.200   8.531  1.00  0.00     0.000 C 
BRANCH   2   3
ATOM      3  C   UNL     1       5.984  10.795   8.182  1.00  0.00     0.006 C 
BRANCH   3   4
ATOM      4  C   UNL     1       4.491  10.794   7.832  1.00  0.00     0.053 C 
BRANCH   4   5
ATOM      5  C   UNL     1       3.703   9.915   8.755  1.00  0.00     0.041 C 
ATOM      6  O   UNL     1       3.713   8.665   8.601  1.00  0.00    -0.550 OA
ATOM      7  O   UNL     1       2.986  10.474   9.804  1.00  0.00    -0.550 OA
ENDBRANCH   4   5
ENDBRANCH   3   4
ENDBRANCH   2   3
ENDBRANCH   1   2
BRANCH   1   8
ATOM      8  C   UNL     1       8.508  11.167   7.318  1.00  0.00     0.000 C 
BRANCH   8   9
ATOM      9  C   UNL     1       9.343  11.553   6.082  1.00  0.00    -0.000 C 
BRANCH   9  10
ATOM     10  C   UNL     1       8.511  11.616   4.793  1.00  0.00    -0.000 C 
BRANCH  10  11
ATOM     11  C   UNL     1       7.414  10.544   4.793  1.00  0.00    -0.000 C 
BRANCH  11  12
ATOM     12  C   UNL     1       6.062  11.139   4.382  1.00  0.00    -0.003 C 
ATOM     13  C   UNL     1       5.980  12.621   4.741  1.00  0.00     0.004 C 
ENDBRANCH  11  12
ENDBRANCH  10  11
ENDBRANCH   9  10
ENDBRANCH   8   9
ENDBRANCH   1   8
TORSDOF 9
ENDMDL
MODEL 6
REMARK VINA RESULT:    -4.122     17.317     18.685
REMARK INTER + INTRA:          -7.108
REMARK INTER:                  -6.076
REMARK INTRA:                  -1.032
REMARK UNBOUND:                -0.817
REMARK SMILES CCCCCCCCCCC(=O)[O-]
REMARK SMILES IDX 7 1 8 2 9 3 10 4 11 5 12 6 13 7 6 8 5 9 4 10 3 11 2 12 1 13
REMARK H PARENT
REMARK Flexibility Score: inf
ROOT
ATOM      1  C   UNL     1       6.771  11.956   8.604  1.00  0.00     0.000 C 
ENDROOT
BRANCH   1   2
ATOM      2  C   UNL     1       7.588  12.281   7.344  1.00  0.00     0.000 C 
BRANCH   2   3
ATOM      3  C   UNL     1       6.756  13.100   6.346  1.00  0.00     0.006 C 
BRANCH   3   4
ATOM      4  C   UNL     1       6.128  12.223   5.255  1.00  0.00     0.053 C 
BRANCH   4   5
ATOM      5  C   UNL     1       7.152  11.377   4.563  1.00  0.00     0.041 C 
ATOM      6  O   UNL     1       7.172  10.131   4.746  1.00  0.00    -0.550 OA
ATOM      7  O   UNL     1       8.062  11.960   3.691  1.00  0.00    -0.550 OA
ENDBRANCH   4   5
ENDBRANCH   3   4
ENDBRANCH   2   3
ENDBRANCH   1   2
BRANCH   1   8
ATOM      8  C   UNL     1       5.877  13.125   9.057  1.00  0.00     0.000 C 
BRANCH   8   9
ATOM      9  C   UNL     1       4.391  12.770   9.248  1.00  0.00    -0.000 C 
BRANCH   9  10
ATOM     10  C   UNL     1       4.153  11.264   9.431  1.00  0.00    -0.000 C 
BRANCH  10  11
ATOM     11  C   UNL     1       2.833  10.832   8.781  1.00  0.00    -0.000 C 
BRANCH  11  12
ATOM     12  C   UNL     1       3.083  10.130   7.441  1.00  0.00    -0.003 C 
ATOM     13  C   UNL     1       4.501   9.571   7.368  1.00  0.00     0.004 C 
ENDBRANCH  11  12
ENDBRANCH  10  11
ENDBRANCH   9  10
ENDBRANCH   8   9
ENDBRANCH   1   8
TORSDOF 9
ENDMDL
MODEL 7
REMARK VINA RESULT:    -4.072     17.242     19.430
REMARK INTER + INTRA:          -7.032
REMARK INTER:                  -6.225
REMARK INTRA:                  -0.807
REMARK UNBOUND:                -0.817
REMARK SMILES CCCCCCCCCCC(=O)[O-]
REMARK SMILES IDX 7 1 8 2 9 3 10 4 11 5 12 6 13 7 6 8 5 9 4 10 3 11 2 12 1 13
REMARK H PARENT
REMARK Flexibility Score: inf
ROOT
ATOM      1  C   UNL     1       6.027  11.273   8.139  1.00  0.00     0.000 C 
ENDROOT
BRANCH   1   2
ATOM      2  C   UNL     1       5.003  10.157   7.882  1.00  0.00     0.000 C 
BRANCH   2   3
ATOM      3  C   UNL     1       3.574  10.651   8.150  1.00  0.00     0.006 C 
BRANCH   3   4
ATOM      4  C   UNL     1       3.539  11.825   9.136  1.00  0.00     0.053 C 
BRANCH   4   5
ATOM      5  C   UNL     1       2.185  11.992   9.755  1.00  0.00     0.041 C 
ATOM      6  O   UNL     1       1.630  13.123   9.767  1.00  0.00    -0.550 OA
ATOM      7  O   UNL     1       1.522  10.894  10.287  1.00  0.00    -0.550 OA
ENDBRANCH   4   5
ENDBRANCH   3   4
ENDBRANCH   2   3
ENDBRANCH   1   2
BRANCH   1   8
ATOM      8  C   UNL     1       7.484  10.778   8.073  1.00  0.00     0.000 C 
BRANCH   8   9
ATOM      9  C   UNL     1       8.462  11.734   7.366  1.00  0.00    -0.000 C 
BRANCH   9  10
ATOM     10  C   UNL     1       8.958  11.195   6.017  1.00  0.00    -0.000 C 
BRANCH  10  11
ATOM     11  C   UNL     1       8.108  11.738   4.862  1.00  0.00    -0.000 C 
BRANCH  11  12
ATOM     12  C   UNL     1       6.969  10.773   4.516  1.00  0.00    -0.003 C 
ATOM     13  C   UNL     1       5.626  11.496   4.476  1.00  0.00     0.004 C 
ENDBRANCH  11  12
ENDBRANCH  10  11
ENDBRANCH   9  10
ENDBRANCH   8   9
ENDBRANCH   1   8
TORSDOF 9
ENDMDL
MODEL 8
REMARK VINA RESULT:    -4.056     17.424     18.383
REMARK INTER + INTRA:          -7.007
REMARK INTER:                  -6.291
REMARK INTRA:                  -0.716
REMARK UNBOUND:                -0.817
REMARK SMILES CCCCCCCCCCC(=O)[O-]
REMARK SMILES IDX 7 1 8 2 9 3 10 4 11 5 12 6 13 7 6 8 5 9 4 10 3 11 2 12 1 13
REMARK H PARENT
REMARK Flexibility Score: inf
ROOT
ATOM      1  C   UNL     1       4.535  10.504   6.420  1.00  0.00     0.000 C 
ENDROOT
BRANCH   1   2
ATOM      2  C   UNL     1       5.933  10.788   6.989  1.00  0.00     0.000 C 
BRANCH   2   3
ATOM      3  C   UNL     1       6.219  12.297   7.014  1.00  0.00     0.006 C 
BRANCH   3   4
ATOM      4  C   UNL     1       6.390  12.880   5.605  1.00  0.00     0.053 C 
BRANCH   4   5
ATOM      5  C   UNL     1       7.625  12.362   4.935  1.00  0.00     0.041 C 
ATOM      6  O   UNL     1       7.533  11.644   3.905  1.00  0.00    -0.550 OA
ATOM      7  O   UNL     1       8.879  12.701   5.429  1.00  0.00    -0.550 OA
ENDBRANCH   4   5
ENDBRANCH   3   4
ENDBRANCH   2   3
ENDBRANCH   1   2
BRANCH   1   8
ATOM      8  C   UNL     1       3.570   9.912   7.464  1.00  0.00     0.000 C 
BRANCH   8   9
ATOM      9  C   UNL     1       4.219   9.540   8.810  1.00  0.00    -0.000 C 
BRANCH   9  10
ATOM     10  C   UNL     1       3.748  10.430   9.969  1.00  0.00    -0.000 C 
BRANCH  10  11
ATOM     11  C   UNL     1       2.969  11.644   9.448  1.00  0.00    -0.000 C 
BRANCH  11  12
ATOM     12  C   UNL     1       1.517  11.620   9.942  1.00  0.00    -0.003 C 
ATOM     13  C   UNL     1       0.780  12.897   9.548  1.00  0.00     0.004 C 
ENDBRANCH  11  12
ENDBRANCH  10  11
ENDBRANCH   9  10
ENDBRANCH   8   9
ENDBRANCH   1   8
TORSDOF 9
ENDMDL
MODEL 9
REMARK VINA RESULT:    -3.967     17.427     18.809
REMARK INTER + INTRA:          -6.872
REMARK INTER:                  -6.007
REMARK INTRA:                  -0.865
REMARK UNBOUND:                -0.817
REMARK SMILES CCCCCCCCCCC(=O)[O-]
REMARK SMILES IDX 7 1 8 2 9 3 10 4 11 5 12 6 13 7 6 8 5 9 4 10 3 11 2 12 1 13
REMARK H PARENT
REMARK Flexibility Score: inf
ROOT
ATOM      1  C   UNL     1       5.810  10.897   4.664  1.00  0.00     0.000 C 
ENDROOT
BRANCH   1   2
ATOM      2  C   UNL     1       6.401  12.299   4.452  1.00  0.00     0.000 C 
BRANCH   2   3
ATOM      3  C   UNL     1       7.906  12.312   4.757  1.00  0.00     0.006 C 
BRANCH   3   4
ATOM      4  C   UNL     1       8.232  13.078   6.046  1.00  0.00     0.053 C 
BRANCH   4   5
ATOM      5  C   UNL     1       8.689  12.161   7.137  1.00  0.00     0.041 C 
ATOM      6  O   UNL     1       8.560  10.914   7.013  1.00  0.00    -0.550 OA
ATOM      7  O   UNL     1       9.290  12.679   8.277  1.00  0.00    -0.550 OA
ENDBRANCH   4   5
ENDBRANCH   3   4
ENDBRANCH   2   3
ENDBRANCH   1   2
BRANCH   1   8
ATOM      8  C   UNL     1       4.660  10.878   5.688  1.00  0.00     0.000 C 
BRANCH   8   9
ATOM      9  C   UNL     1       5.068  10.465   7.115  1.00  0.00    -0.000 C 
BRANCH   9  10
ATOM     10  C   UNL     1       5.086  11.645   8.098  1.00  0.00    -0.000 C 
BRANCH  10  11
ATOM     11  C   UNL     1       4.547  11.224   9.470  1.00  0.00    -0.000 C 
BRANCH  11  12
ATOM     12  C   UNL     1       3.166  10.569   9.342  1.00  0.00    -0.003 C 
ATOM     13  C   UNL     1       2.050  11.590   9.550  1.00  0.00     0.004 C 
ENDBRANCH  11  12
ENDBRANCH  10  11
ENDBRANCH   9  10
ENDBRANCH   8   9
ENDBRANCH   1   8
TORSDOF 9
ENDMDL
