MODEL 1
REMARK VINA RESULT:    -7.150      0.000      0.000
REMARK INTER + INTRA:         -12.545
REMARK INTER:                 -10.913
REMARK INTRA:                  -1.632
REMARK UNBOUND:                -1.632
REMARK SMILES CC(=O)CCC=C(C)CCC=C(C)CCC=C(C)C
REMARK SMILES IDX 10 1 11 2 12 3 13 4 14 5 15 6 16 7 18 8 17 9 19 10 9 11 7 12
REMARK SMILES IDX 6 13 8 14 5 15 4 16 2 17 3 18 1 19
REMARK H PARENT
REMARK Flexibility Score: inf
ROOT
ATOM      1  C   UNL     1     -14.763 -31.625  31.395  1.00  0.00     0.032 C 
ENDROOT
BRANCH   1   2
ATOM      2  C   UNL     1     -14.531 -32.143  29.998  1.00  0.00    -0.028 C 
ATOM      3  C   UNL     1     -14.884 -31.482  28.871  1.00  0.00    -0.077 C 
ATOM      4  C   UNL     1     -15.502 -30.104  28.914  1.00  0.00     0.039 C 
BRANCH   3   5
ATOM      5  C   UNL     1     -14.638 -32.135  27.529  1.00  0.00     0.034 C 
BRANCH   5   6
ATOM      6  C   UNL     1     -14.321 -33.626  27.699  1.00  0.00     0.032 C 
BRANCH   6   7
ATOM      7  C   UNL     1     -13.301 -34.075  26.684  1.00  0.00    -0.028 C 
ATOM      8  C   UNL     1     -11.067 -34.594  25.800  1.00  0.00     0.039 C 
ATOM      9  C   UNL     1     -11.965 -34.078  26.894  1.00  0.00    -0.080 C 
ATOM     10  C   UNL     1     -11.356 -33.563  28.178  1.00  0.00     0.039 C 
ENDBRANCH   6   7
ENDBRANCH   5   6
ENDBRANCH   3   5
ENDBRANCH   1   2
BRANCH   1  11
ATOM     11  C   UNL     1     -14.796 -32.779  32.403  1.00  0.00     0.034 C 
BRANCH  11  12
ATOM     12  C   UNL     1     -13.636 -33.724  32.179  1.00  0.00    -0.077 C 
ATOM     13  C   UNL     1     -13.889 -34.979  31.741  1.00  0.00    -0.028 C 
ATOM     14  C   UNL     1     -12.233 -33.240  32.453  1.00  0.00     0.039 C 
BRANCH  13  15
ATOM     15  C   UNL     1     -12.841 -36.048  31.523  1.00  0.00     0.035 C 
BRANCH  15  16
ATOM     16  C   UNL     1     -13.434 -37.255  30.789  1.00  0.00     0.079 C 
BRANCH  16  17
ATOM     17  C   UNL     1     -13.275 -37.127  29.296  1.00  0.00     0.130 C 
ATOM     18  O   UNL     1     -12.200 -36.778  28.835  1.00  0.00    -0.300 OA
ATOM     19  C   UNL     1     -14.413 -37.418  28.364  1.00  0.00     0.087 C 
ENDBRANCH  16  17
ENDBRANCH  15  16
ENDBRANCH  13  15
ENDBRANCH  11  12
ENDBRANCH   1  11
TORSDOF 9
ENDMDL
MODEL 2
REMARK VINA RESULT:    -6.796      1.188      3.794
REMARK INTER + INTRA:         -12.004
REMARK INTER:                 -10.303
REMARK INTRA:                  -1.701
REMARK UNBOUND:                -1.632
REMARK SMILES CC(=O)CCC=C(C)CCC=C(C)CCC=C(C)C
REMARK SMILES IDX 10 1 11 2 12 3 13 4 14 5 15 6 16 7 18 8 17 9 19 10 9 11 7 12
REMARK SMILES IDX 6 13 8 14 5 15 4 16 2 17 3 18 1 19
REMARK H PARENT
REMARK Flexibility Score: inf
ROOT
ATOM      1  C   UNL     1     -10.313 -34.122  28.716  1.00  0.00     0.032 C 
ENDROOT
BRANCH   1   2
ATOM      2  C   UNL     1     -11.694 -33.809  28.198  1.00  0.00    -0.028 C 
ATOM      3  C   UNL     1     -12.094 -34.012  26.921  1.00  0.00    -0.077 C 
ATOM      4  C   UNL     1     -11.185 -34.642  25.892  1.00  0.00     0.039 C 
BRANCH   3   5
ATOM      5  C   UNL     1     -13.495 -33.610  26.518  1.00  0.00     0.034 C 
BRANCH   5   6
ATOM      6  C   UNL     1     -14.356 -33.325  27.754  1.00  0.00     0.032 C 
BRANCH   6   7
ATOM      7  C   UNL     1     -14.846 -31.899  27.746  1.00  0.00    -0.028 C 
ATOM      8  C   UNL     1     -15.470 -29.717  28.689  1.00  0.00     0.039 C 
ATOM      9  C   UNL     1     -15.011 -31.142  28.854  1.00  0.00    -0.080 C 
ATOM     10  C   UNL     1     -14.768 -31.691  30.241  1.00  0.00     0.039 C 
ENDBRANCH   6   7
ENDBRANCH   5   6
ENDBRANCH   3   5
ENDBRANCH   1   2
BRANCH   1  11
ATOM     11  C   UNL     1     -10.180 -33.713  30.187  1.00  0.00     0.034 C 
BRANCH  11  12
ATOM     12  C   UNL     1     -11.146 -34.491  31.053  1.00  0.00    -0.077 C 
ATOM     13  C   UNL     1     -11.138 -35.843  30.992  1.00  0.00    -0.028 C 
ATOM     14  C   UNL     1     -12.092 -33.738  31.956  1.00  0.00     0.039 C 
BRANCH  13  15
ATOM     15  C   UNL     1     -12.077 -36.750  31.754  1.00  0.00     0.035 C 
BRANCH  15  16
ATOM     16  C   UNL     1     -12.845 -37.670  30.799  1.00  0.00     0.079 C 
BRANCH  16  17
ATOM     17  C   UNL     1     -13.740 -36.885  29.876  1.00  0.00     0.130 C 
ATOM     18  O   UNL     1     -14.307 -35.887  30.293  1.00  0.00    -0.300 OA
ATOM     19  C   UNL     1     -13.951 -37.306  28.452  1.00  0.00     0.087 C 
ENDBRANCH  16  17
ENDBRANCH  15  16
ENDBRANCH  13  15
ENDBRANCH  11  12
ENDBRANCH   1  11
TORSDOF 9
ENDMDL
MODEL 3
REMARK VINA RESULT:    -6.504      1.388      4.044
REMARK INTER + INTRA:         -11.558
REMARK INTER:                  -9.850
REMARK INTRA:                  -1.708
REMARK UNBOUND:                -1.632
REMARK SMILES CC(=O)CCC=C(C)CCC=C(C)CCC=C(C)C
REMARK SMILES IDX 10 1 11 2 12 3 13 4 14 5 15 6 16 7 18 8 17 9 19 10 9 11 7 12
REMARK SMILES IDX 6 13 8 14 5 15 4 16 2 17 3 18 1 19
REMARK H PARENT
REMARK Flexibility Score: inf
ROOT
ATOM      1  C   UNL     1     -14.124 -32.058  27.752  1.00  0.00     0.032 C 
ENDROOT
BRANCH   1   2
ATOM      2  C   UNL     1     -14.082 -32.424  29.213  1.00  0.00    -0.028 C 
ATOM      3  C   UNL     1     -14.777 -31.782  30.181  1.00  0.00    -0.077 C 
ATOM      4  C   UNL     1     -15.727 -30.651  29.864  1.00  0.00     0.039 C 
BRANCH   3   5
ATOM      5  C   UNL     1     -14.609 -32.220  31.619  1.00  0.00     0.034 C 
BRANCH   5   6
ATOM      6  C   UNL     1     -13.876 -33.564  31.696  1.00  0.00     0.032 C 
BRANCH   6   7
ATOM      7  C   UNL     1     -12.605 -33.435  32.496  1.00  0.00    -0.028 C 
ATOM      8  C   UNL     1     -10.197 -33.123  32.882  1.00  0.00     0.039 C 
ATOM      9  C   UNL     1     -11.375 -33.281  31.955  1.00  0.00    -0.080 C 
ATOM     10  C   UNL     1     -11.152 -33.282  30.460  1.00  0.00     0.039 C 
ENDBRANCH   6   7
ENDBRANCH   5   6
ENDBRANCH   3   5
ENDBRANCH   1   2
BRANCH   1  11
ATOM     11  C   UNL     1     -14.419 -33.291  26.891  1.00  0.00     0.034 C 
BRANCH  11  12
ATOM     12  C   UNL     1     -13.577 -34.469  27.331  1.00  0.00    -0.077 C 
ATOM     13  C   UNL     1     -14.152 -35.443  28.074  1.00  0.00    -0.028 C 
ATOM     14  C   UNL     1     -12.123 -34.520  26.932  1.00  0.00     0.039 C 
BRANCH  13  15
ATOM     15  C   UNL     1     -13.428 -36.648  28.630  1.00  0.00     0.035 C 
BRANCH  15  16
ATOM     16  C   UNL     1     -13.766 -36.857  30.110  1.00  0.00     0.079 C 
BRANCH  16  17
ATOM     17  C   UNL     1     -12.524 -37.050  30.939  1.00  0.00     0.130 C 
ATOM     18  O   UNL     1     -12.603 -37.623  32.014  1.00  0.00    -0.300 OA
ATOM     19  C   UNL     1     -11.190 -36.550  30.472  1.00  0.00     0.087 C 
ENDBRANCH  16  17
ENDBRANCH  15  16
ENDBRANCH  13  15
ENDBRANCH  11  12
ENDBRANCH   1  11
TORSDOF 9
ENDMDL
MODEL 4
REMARK VINA RESULT:    -6.319      1.280      4.002
REMARK INTER + INTRA:         -11.277
REMARK INTER:                  -9.259
REMARK INTRA:                  -2.018
REMARK UNBOUND:                -1.632
REMARK SMILES CC(=O)CCC=C(C)CCC=C(C)CCC=C(C)C
REMARK SMILES IDX 10 1 11 2 12 3 13 4 14 5 15 6 16 7 18 8 17 9 19 10 9 11 7 12
REMARK SMILES IDX 6 13 8 14 5 15 4 16 2 17 3 18 1 19
REMARK H PARENT
REMARK Flexibility Score: inf
ROOT
ATOM      1  C   UNL     1     -10.925 -33.514  32.461  1.00  0.00     0.032 C 
ENDROOT
BRANCH   1   2
ATOM      2  C   UNL     1     -12.309 -32.917  32.486  1.00  0.00    -0.028 C 
ATOM      3  C   UNL     1     -13.443 -33.606  32.218  1.00  0.00    -0.077 C 
ATOM      4  C   UNL     1     -13.425 -35.087  31.922  1.00  0.00     0.039 C 
BRANCH   3   5
ATOM      5  C   UNL     1     -14.767 -32.875  32.232  1.00  0.00     0.034 C 
BRANCH   5   6
ATOM      6  C   UNL     1     -14.750 -31.700  31.246  1.00  0.00     0.032 C 
BRANCH   6   7
ATOM      7  C   UNL     1     -14.498 -32.185  29.841  1.00  0.00    -0.028 C 
ATOM      8  C   UNL     1     -14.484 -32.094  27.385  1.00  0.00     0.039 C 
ATOM      9  C   UNL     1     -14.837 -31.502  28.725  1.00  0.00    -0.080 C 
ATOM     10  C   UNL     1     -15.571 -30.182  28.787  1.00  0.00     0.039 C 
ENDBRANCH   6   7
ENDBRANCH   5   6
ENDBRANCH   3   5
ENDBRANCH   1   2
BRANCH   1  11
ATOM     11  C   UNL     1     -10.216 -33.184  31.143  1.00  0.00     0.034 C 
BRANCH  11  12
ATOM     12  C   UNL     1     -10.508 -34.236  30.095  1.00  0.00    -0.077 C 
ATOM     13  C   UNL     1     -11.332 -33.925  29.068  1.00  0.00    -0.028 C 
ATOM     14  C   UNL     1      -9.875 -35.599  30.229  1.00  0.00     0.039 C 
BRANCH  13  15
ATOM     15  C   UNL     1     -11.758 -34.885  27.980  1.00  0.00     0.035 C 
BRANCH  15  16
ATOM     16  C   UNL     1     -13.221 -35.303  28.160  1.00  0.00     0.079 C 
BRANCH  16  17
ATOM     17  C   UNL     1     -13.334 -36.716  28.670  1.00  0.00     0.130 C 
ATOM     18  O   UNL     1     -12.408 -37.203  29.299  1.00  0.00    -0.300 OA
ATOM     19  C   UNL     1     -14.561 -37.540  28.416  1.00  0.00     0.087 C 
ENDBRANCH  16  17
ENDBRANCH  15  16
ENDBRANCH  13  15
ENDBRANCH  11  12
ENDBRANCH   1  11
TORSDOF 9
ENDMDL
MODEL 5
REMARK VINA RESULT:    -6.261      2.015      5.091
REMARK INTER + INTRA:         -11.188
REMARK INTER:                  -9.582
REMARK INTRA:                  -1.606
REMARK UNBOUND:                -1.632
REMARK SMILES CC(=O)CCC=C(C)CCC=C(C)CCC=C(C)C
REMARK SMILES IDX 10 1 11 2 12 3 13 4 14 5 15 6 16 7 18 8 17 9 19 10 9 11 7 12
REMARK SMILES IDX 6 13 8 14 5 15 4 16 2 17 3 18 1 19
REMARK H PARENT
REMARK Flexibility Score: inf
ROOT
ATOM      1  C   UNL     1     -12.309 -33.473  27.092  1.00  0.00     0.032 C 
ENDROOT
BRANCH   1   2
ATOM      2  C   UNL     1     -11.518 -34.448  27.927  1.00  0.00    -0.028 C 
ATOM      3  C   UNL     1     -10.661 -34.090  28.911  1.00  0.00    -0.077 C 
ATOM      4  C   UNL     1     -10.462 -32.647  29.309  1.00  0.00     0.039 C 
BRANCH   3   5
ATOM      5  C   UNL     1      -9.892 -35.167  29.643  1.00  0.00     0.034 C 
BRANCH   5   6
ATOM      6  C   UNL     1     -10.832 -36.014  30.509  1.00  0.00     0.032 C 
BRANCH   6   7
ATOM      7  C   UNL     1     -11.929 -36.620  29.671  1.00  0.00    -0.028 C 
ATOM      8  C   UNL     1     -14.210 -37.349  29.113  1.00  0.00     0.039 C 
ATOM      9  C   UNL     1     -13.211 -36.761  30.076  1.00  0.00    -0.080 C 
ATOM     10  C   UNL     1     -13.659 -36.365  31.464  1.00  0.00     0.039 C 
ENDBRANCH   6   7
ENDBRANCH   5   6
ENDBRANCH   3   5
ENDBRANCH   1   2
BRANCH   1  11
ATOM     11  C   UNL     1     -13.805 -33.580  27.405  1.00  0.00     0.034 C 
BRANCH  11  12
ATOM     12  C   UNL     1     -14.195 -32.621  28.508  1.00  0.00    -0.077 C 
ATOM     13  C   UNL     1     -14.083 -33.023  29.795  1.00  0.00    -0.028 C 
ATOM     14  C   UNL     1     -14.699 -31.247  28.141  1.00  0.00     0.039 C 
BRANCH  13  15
ATOM     15  C   UNL     1     -14.483 -32.198  30.998  1.00  0.00     0.035 C 
BRANCH  15  16
ATOM     16  C   UNL     1     -14.523 -33.060  32.264  1.00  0.00     0.079 C 
BRANCH  16  17
ATOM     17  C   UNL     1     -13.271 -32.893  33.086  1.00  0.00     0.130 C 
ATOM     18  O   UNL     1     -13.338 -32.357  34.181  1.00  0.00    -0.300 OA
ATOM     19  C   UNL     1     -11.941 -33.370  32.584  1.00  0.00     0.087 C 
ENDBRANCH  16  17
ENDBRANCH  15  16
ENDBRANCH  13  15
ENDBRANCH  11  12
ENDBRANCH   1  11
TORSDOF 9
ENDMDL
MODEL 6
REMARK VINA RESULT:    -6.235      1.320      4.460
REMARK INTER + INTRA:         -11.148
REMARK INTER:                 -10.331
REMARK INTRA:                  -0.818
REMARK UNBOUND:                -1.632
REMARK SMILES CC(=O)CCC=C(C)CCC=C(C)CCC=C(C)C
REMARK SMILES IDX 10 1 11 2 12 3 13 4 14 5 15 6 16 7 18 8 17 9 19 10 9 11 7 12
REMARK SMILES IDX 6 13 8 14 5 15 4 16 2 17 3 18 1 19
REMARK H PARENT
REMARK Flexibility Score: inf
ROOT
ATOM      1  C   UNL     1     -15.125 -31.297  29.912  1.00  0.00     0.032 C 
ENDROOT
BRANCH   1   2
ATOM      2  C   UNL     1     -14.321 -32.395  30.561  1.00  0.00    -0.028 C 
ATOM      3  C   UNL     1     -14.325 -32.662  31.888  1.00  0.00    -0.077 C 
ATOM      4  C   UNL     1     -15.205 -31.901  32.852  1.00  0.00     0.039 C 
BRANCH   3   5
ATOM      5  C   UNL     1     -13.435 -33.764  32.418  1.00  0.00     0.034 C 
BRANCH   5   6
ATOM      6  C   UNL     1     -14.039 -35.141  32.121  1.00  0.00     0.032 C 
BRANCH   6   7
ATOM      7  C   UNL     1     -13.768 -35.548  30.695  1.00  0.00    -0.028 C 
ATOM      8  C   UNL     1     -12.974 -36.984  28.865  1.00  0.00     0.039 C 
ATOM      9  C   UNL     1     -13.139 -36.689  30.333  1.00  0.00    -0.080 C 
ATOM     10  C   UNL     1     -12.586 -37.656  31.354  1.00  0.00     0.039 C 
ENDBRANCH   6   7
ENDBRANCH   5   6
ENDBRANCH   3   5
ENDBRANCH   1   2
BRANCH   1  11
ATOM     11  C   UNL     1     -14.810 -31.205  28.415  1.00  0.00     0.034 C 
BRANCH  11  12
ATOM     12  C   UNL     1     -13.909 -32.341  27.984  1.00  0.00    -0.077 C 
ATOM     13  C   UNL     1     -12.698 -32.476  28.571  1.00  0.00    -0.028 C 
ATOM     14  C   UNL     1     -14.386 -33.287  26.908  1.00  0.00     0.039 C 
BRANCH  13  15
ATOM     15  C   UNL     1     -11.672 -33.526  28.208  1.00  0.00     0.035 C 
BRANCH  15  16
ATOM     16  C   UNL     1     -10.331 -33.241  28.893  1.00  0.00     0.079 C 
BRANCH  16  17
ATOM     17  C   UNL     1     -10.114 -34.143  30.081  1.00  0.00     0.130 C 
ATOM     18  O   UNL     1      -9.975 -35.343  29.906  1.00  0.00    -0.300 OA
ATOM     19  C   UNL     1     -10.070 -33.595  31.476  1.00  0.00     0.087 C 
ENDBRANCH  16  17
ENDBRANCH  15  16
ENDBRANCH  13  15
ENDBRANCH  11  12
ENDBRANCH   1  11
TORSDOF 9
ENDMDL
MODEL 7
REMARK VINA RESULT:    -6.103      2.631      6.257
REMARK INTER + INTRA:         -10.946
REMARK INTER:                  -9.713
REMARK INTRA:                  -1.233
REMARK UNBOUND:                -1.632
REMARK SMILES CC(=O)CCC=C(C)CCC=C(C)CCC=C(C)C
REMARK SMILES IDX 10 1 11 2 12 3 13 4 14 5 15 6 16 7 18 8 17 9 19 10 9 11 7 12
REMARK SMILES IDX 6 13 8 14 5 15 4 16 2 17 3 18 1 19
REMARK H PARENT
REMARK Flexibility Score: inf
ROOT
ATOM      1  C   UNL     1     -13.518 -33.574  32.110  1.00  0.00     0.032 C 
ENDROOT
BRANCH   1   2
ATOM      2  C   UNL     1     -12.298 -33.070  32.838  1.00  0.00    -0.028 C 
ATOM      3  C   UNL     1     -11.029 -33.218  32.393  1.00  0.00    -0.077 C 
ATOM      4  C   UNL     1     -10.720 -33.866  31.063  1.00  0.00     0.039 C 
BRANCH   3   5
ATOM      5  C   UNL     1      -9.888 -32.707  33.244  1.00  0.00     0.034 C 
BRANCH   5   6
ATOM      6  C   UNL     1     -10.385 -32.309  34.638  1.00  0.00     0.032 C 
BRANCH   6   7
ATOM      7  C   UNL     1     -10.056 -30.867  34.931  1.00  0.00    -0.028 C 
ATOM      8  C   UNL     1     -10.281 -28.670  36.011  1.00  0.00     0.039 C 
ATOM      9  C   UNL     1     -10.752 -30.083  35.785  1.00  0.00    -0.080 C 
ATOM     10  C   UNL     1     -11.990 -30.579  36.497  1.00  0.00     0.039 C 
ENDBRANCH   6   7
ENDBRANCH   5   6
ENDBRANCH   3   5
ENDBRANCH   1   2
BRANCH   1  11
ATOM     11  C   UNL     1     -14.491 -32.425  31.820  1.00  0.00     0.034 C 
BRANCH  11  12
ATOM     12  C   UNL     1     -14.512 -32.096  30.344  1.00  0.00    -0.077 C 
ATOM     13  C   UNL     1     -13.754 -32.831  29.498  1.00  0.00    -0.028 C 
ATOM     14  C   UNL     1     -15.375 -30.957  29.859  1.00  0.00     0.039 C 
BRANCH  13  15
ATOM     15  C   UNL     1     -13.631 -32.588  28.011  1.00  0.00     0.035 C 
BRANCH  15  16
ATOM     16  C   UNL     1     -13.741 -33.901  27.230  1.00  0.00     0.079 C 
BRANCH  16  17
ATOM     17  C   UNL     1     -12.397 -34.562  27.067  1.00  0.00     0.130 C 
ATOM     18  O   UNL     1     -12.005 -35.343  27.919  1.00  0.00    -0.300 OA
ATOM     19  C   UNL     1     -11.529 -34.277  25.878  1.00  0.00     0.087 C 
ENDBRANCH  16  17
ENDBRANCH  15  16
ENDBRANCH  13  15
ENDBRANCH  11  12
ENDBRANCH   1  11
TORSDOF 9
ENDMDL
MODEL 8
REMARK VINA RESULT:    -6.052      3.538      5.461
REMARK INTER + INTRA:         -10.868
REMARK INTER:                  -9.877
REMARK INTRA:                  -0.992
REMARK UNBOUND:                -1.632
REMARK SMILES CC(=O)CCC=C(C)CCC=C(C)CCC=C(C)C
REMARK SMILES IDX 10 1 11 2 12 3 13 4 14 5 15 6 16 7 18 8 17 9 19 10 9 11 7 12
REMARK SMILES IDX 6 13 8 14 5 15 4 16 2 17 3 18 1 19
REMARK H PARENT
REMARK Flexibility Score: inf
ROOT
ATOM      1  C   UNL     1     -14.808 -31.978  31.357  1.00  0.00     0.032 C 
ENDROOT
BRANCH   1   2
ATOM      2  C   UNL     1     -14.125 -32.588  30.160  1.00  0.00    -0.028 C 
ATOM      3  C   UNL     1     -14.231 -32.112  28.897  1.00  0.00    -0.077 C 
ATOM      4  C   UNL     1     -15.015 -30.861  28.579  1.00  0.00     0.039 C 
BRANCH   3   5
ATOM      5  C   UNL     1     -13.532 -32.847  27.775  1.00  0.00     0.034 C 
BRANCH   5   6
ATOM      6  C   UNL     1     -12.695 -34.008  28.323  1.00  0.00     0.032 C 
BRANCH   6   7
ATOM      7  C   UNL     1     -13.312 -35.333  27.954  1.00  0.00    -0.028 C 
ATOM      8  C   UNL     1     -14.305 -37.550  28.331  1.00  0.00     0.039 C 
ATOM      9  C   UNL     1     -13.658 -36.290  28.845  1.00  0.00    -0.080 C 
ATOM     10  C   UNL     1     -13.396 -36.136  30.325  1.00  0.00     0.039 C 
ENDBRANCH   6   7
ENDBRANCH   5   6
ENDBRANCH   3   5
ENDBRANCH   1   2
BRANCH   1  11
ATOM     11  C   UNL     1     -14.678 -32.892  32.581  1.00  0.00     0.034 C 
BRANCH  11  12
ATOM     12  C   UNL     1     -13.321 -32.732  33.231  1.00  0.00    -0.077 C 
ATOM     13  C   UNL     1     -13.227 -32.040  34.389  1.00  0.00    -0.028 C 
ATOM     14  C   UNL     1     -12.113 -33.346  32.566  1.00  0.00     0.039 C 
BRANCH  13  15
ATOM     15  C   UNL     1     -11.938 -31.752  35.124  1.00  0.00     0.035 C 
BRANCH  15  16
ATOM     16  C   UNL     1     -12.217 -31.158  36.509  1.00  0.00     0.079 C 
BRANCH  16  17
ATOM     17  C   UNL     1     -11.267 -30.034  36.830  1.00  0.00     0.130 C 
ATOM     18  O   UNL     1     -10.269 -30.263  37.495  1.00  0.00    -0.300 OA
ATOM     19  C   UNL     1     -11.524 -28.636  36.352  1.00  0.00     0.087 C 
ENDBRANCH  16  17
ENDBRANCH  15  16
ENDBRANCH  13  15
ENDBRANCH  11  12
ENDBRANCH   1  11
TORSDOF 9
ENDMDL
MODEL 9
REMARK VINA RESULT:    -5.956      2.033      4.903
REMARK INTER + INTRA:         -10.722
REMARK INTER:                  -9.388
REMARK INTRA:                  -1.335
REMARK UNBOUND:                -1.632
REMARK SMILES CC(=O)CCC=C(C)CCC=C(C)CCC=C(C)C
REMARK SMILES IDX 10 1 11 2 12 3 13 4 14 5 15 6 16 7 18 8 17 9 19 10 9 11 7 12
REMARK SMILES IDX 6 13 8 14 5 15 4 16 2 17 3 18 1 19
REMARK H PARENT
REMARK Flexibility Score: inf
ROOT
ATOM      1  C   UNL     1     -10.385 -35.714  30.628  1.00  0.00     0.032 C 
ENDROOT
BRANCH   1   2
ATOM      2  C   UNL     1     -11.663 -36.033  29.894  1.00  0.00    -0.028 C 
ATOM      3  C   UNL     1     -12.634 -36.846  30.371  1.00  0.00    -0.077 C 
ATOM      4  C   UNL     1     -12.547 -37.473  31.742  1.00  0.00     0.039 C 
BRANCH   3   5
ATOM      5  C   UNL     1     -13.848 -37.122  29.512  1.00  0.00     0.034 C 
BRANCH   5   6
ATOM      6  C   UNL     1     -13.654 -36.560  28.099  1.00  0.00     0.032 C 
BRANCH   6   7
ATOM      7  C   UNL     1     -14.300 -35.204  27.969  1.00  0.00    -0.028 C 
ATOM      8  C   UNL     1     -14.588 -32.905  27.149  1.00  0.00     0.039 C 
ATOM      9  C   UNL     1     -13.811 -34.194  27.216  1.00  0.00    -0.080 C 
ATOM     10  C   UNL     1     -12.506 -34.317  26.462  1.00  0.00     0.039 C 
ENDBRANCH   6   7
ENDBRANCH   5   6
ENDBRANCH   3   5
ENDBRANCH   1   2
BRANCH   1  11
ATOM     11  C   UNL     1     -10.443 -34.306  31.232  1.00  0.00     0.034 C 
BRANCH  11  12
ATOM     12  C   UNL     1     -11.529 -33.483  30.575  1.00  0.00    -0.077 C 
ATOM     13  C   UNL     1     -12.762 -33.461  31.132  1.00  0.00    -0.028 C 
ATOM     14  C   UNL     1     -11.206 -32.713  29.318  1.00  0.00     0.039 C 
BRANCH  13  15
ATOM     15  C   UNL     1     -13.957 -32.730  30.562  1.00  0.00     0.035 C 
BRANCH  15  16
ATOM     16  C   UNL     1     -14.699 -31.958  31.658  1.00  0.00     0.079 C 
BRANCH  16  17
ATOM     17  C   UNL     1     -14.664 -32.692  32.973  1.00  0.00     0.130 C 
ATOM     18  O   UNL     1     -15.429 -33.625  33.160  1.00  0.00    -0.300 OA
ATOM     19  C   UNL     1     -13.710 -32.297  34.060  1.00  0.00     0.087 C 
ENDBRANCH  16  17
ENDBRANCH  15  16
ENDBRANCH  13  15
ENDBRANCH  11  12
ENDBRANCH   1  11
TORSDOF 9
ENDMDL
