MODEL 1
REMARK VINA RESULT:    -4.399      0.000      0.000
REMARK INTER + INTRA:          -5.789
REMARK INTER:                  -5.427
REMARK INTRA:                  -0.362
REMARK UNBOUND:                -0.362
REMARK SMILES C=CCc1ccc(OC)c(OC)c1
REMARK SMILES IDX 7 1 10 2 13 3 4 4 5 5 6 6 8 7 9 8 11 9 12 10 3 11 2 12 1 13
REMARK H PARENT
REMARK Flexibility Score: inf
ROOT
ATOM      1  C   UNL     1      -7.829 -34.420  12.655  1.00  0.00     0.160 A 
ATOM      2  C   UNL     1      -7.837 -35.778  12.302  1.00  0.00     0.160 A 
ATOM      3  C   UNL     1      -6.617 -36.456  12.111  1.00  0.00     0.054 A 
ATOM      4  C   UNL     1      -5.396 -35.783  12.266  1.00  0.00    -0.040 A 
ATOM      5  C   UNL     1      -5.396 -34.430  12.630  1.00  0.00     0.008 A 
ATOM      6  C   UNL     1      -6.601 -33.751  12.819  1.00  0.00     0.051 A 
ENDROOT
BRANCH   1   7
ATOM      7  O   UNL     1      -9.061 -33.770  12.838  1.00  0.00    -0.493 OA
ATOM      8  C   UNL     1      -9.748 -33.043  11.825  1.00  0.00     0.278 C 
ENDBRANCH   1   7
BRANCH   2   9
ATOM      9  O   UNL     1      -9.077 -36.420  12.152  1.00  0.00    -0.493 OA
ATOM     10  C   UNL     1      -9.687 -36.714  10.900  1.00  0.00     0.278 C 
ENDBRANCH   2   9
BRANCH   4  11
ATOM     11  C   UNL     1      -4.092 -36.518  12.092  1.00  0.00     0.062 C 
BRANCH  11  12
ATOM     12  C   UNL     1      -3.149 -35.730  11.227  1.00  0.00    -0.030 C 
ATOM     13  C   UNL     1      -3.234 -35.751   9.894  1.00  0.00     0.004 C 
ENDBRANCH  11  12
ENDBRANCH   4  11
TORSDOF 4
ENDMDL
MODEL 2
REMARK VINA RESULT:    -4.269      1.737      3.371
REMARK INTER + INTRA:          -5.629
REMARK INTER:                  -5.354
REMARK INTRA:                  -0.274
REMARK UNBOUND:                -0.362
REMARK SMILES C=CCc1ccc(OC)c(OC)c1
REMARK SMILES IDX 7 1 10 2 13 3 4 4 5 5 6 6 8 7 9 8 11 9 12 10 3 11 2 12 1 13
REMARK H PARENT
REMARK Flexibility Score: inf
ROOT
ATOM      1  C   UNL     1      -9.821 -34.307  11.379  1.00  0.00     0.160 A 
ATOM      2  C   UNL     1      -9.125 -33.088  11.399  1.00  0.00     0.160 A 
ATOM      3  C   UNL     1      -7.805 -33.047  11.890  1.00  0.00     0.054 A 
ATOM      4  C   UNL     1      -7.184 -34.211  12.363  1.00  0.00    -0.040 A 
ATOM      5  C   UNL     1      -7.880 -35.426  12.330  1.00  0.00     0.008 A 
ATOM      6  C   UNL     1      -9.189 -35.476  11.847  1.00  0.00     0.051 A 
ENDROOT
BRANCH   1   7
ATOM      7  O   UNL     1     -11.135 -34.318  10.886  1.00  0.00    -0.493 OA
ATOM      8  C   UNL     1     -11.956 -35.478  10.802  1.00  0.00     0.278 C 
ENDBRANCH   1   7
BRANCH   2   9
ATOM      9  O   UNL     1      -9.778 -31.941  10.921  1.00  0.00    -0.493 OA
ATOM     10  C   UNL     1      -9.118 -30.756  10.490  1.00  0.00     0.278 C 
ENDBRANCH   2   9
BRANCH   4  11
ATOM     11  C   UNL     1      -5.761 -34.170  12.859  1.00  0.00     0.062 C 
BRANCH  11  12
ATOM     12  C   UNL     1      -4.999 -35.377  12.389  1.00  0.00    -0.030 C 
ATOM     13  C   UNL     1      -3.927 -35.268  11.599  1.00  0.00     0.004 C 
ENDBRANCH  11  12
ENDBRANCH   4  11
TORSDOF 4
ENDMDL
MODEL 3
REMARK VINA RESULT:    -4.185      2.059      4.926
REMARK INTER + INTRA:          -5.525
REMARK INTER:                  -5.249
REMARK INTRA:                  -0.276
REMARK UNBOUND:                -0.362
REMARK SMILES C=CCc1ccc(OC)c(OC)c1
REMARK SMILES IDX 7 1 10 2 13 3 4 4 5 5 6 6 8 7 9 8 11 9 12 10 3 11 2 12 1 13
REMARK H PARENT
REMARK Flexibility Score: inf
ROOT
ATOM      1  C   UNL     1      -9.542 -35.289  12.034  1.00  0.00     0.160 A 
ATOM      2  C   UNL     1      -8.248 -34.834  12.334  1.00  0.00     0.160 A 
ATOM      3  C   UNL     1      -7.828 -33.572  11.871  1.00  0.00     0.054 A 
ATOM      4  C   UNL     1      -8.690 -32.768  11.110  1.00  0.00    -0.040 A 
ATOM      5  C   UNL     1      -9.983 -33.224  10.825  1.00  0.00     0.008 A 
ATOM      6  C   UNL     1     -10.407 -34.475  11.278  1.00  0.00     0.051 A 
ENDROOT
BRANCH   1   7
ATOM      7  O   UNL     1      -9.933 -36.552  12.507  1.00  0.00    -0.493 OA
ATOM      8  C   UNL     1     -11.274 -36.921  12.809  1.00  0.00     0.278 C 
ENDBRANCH   1   7
BRANCH   2   9
ATOM      9  O   UNL     1      -7.410 -35.665  13.095  1.00  0.00    -0.493 OA
ATOM     10  C   UNL     1      -6.257 -36.329  12.590  1.00  0.00     0.278 C 
ENDBRANCH   2   9
BRANCH   4  11
ATOM     11  C   UNL     1      -8.249 -31.405  10.644  1.00  0.00     0.062 C 
BRANCH  11  12
ATOM     12  C   UNL     1      -9.431 -30.494  10.473  1.00  0.00    -0.030 C 
ATOM     13  C   UNL     1      -9.497 -29.607   9.475  1.00  0.00     0.004 C 
ENDBRANCH  11  12
ENDBRANCH   4  11
TORSDOF 4
ENDMDL
MODEL 4
REMARK VINA RESULT:    -4.068      1.999      4.500
REMARK INTER + INTRA:          -5.381
REMARK INTER:                  -5.115
REMARK INTRA:                  -0.265
REMARK UNBOUND:                -0.362
REMARK SMILES C=CCc1ccc(OC)c(OC)c1
REMARK SMILES IDX 7 1 10 2 13 3 4 4 5 5 6 6 8 7 9 8 11 9 12 10 3 11 2 12 1 13
REMARK H PARENT
REMARK Flexibility Score: inf
ROOT
ATOM      1  C   UNL     1      -7.713 -35.475  12.378  1.00  0.00     0.160 A 
ATOM      2  C   UNL     1      -8.965 -35.545  11.748  1.00  0.00     0.160 A 
ATOM      3  C   UNL     1      -9.573 -34.366  11.272  1.00  0.00     0.054 A 
ATOM      4  C   UNL     1      -8.939 -33.125  11.426  1.00  0.00    -0.040 A 
ATOM      5  C   UNL     1      -7.684 -33.064  12.045  1.00  0.00     0.008 A 
ATOM      6  C   UNL     1      -7.076 -34.227  12.522  1.00  0.00     0.051 A 
ENDROOT
BRANCH   1   7
ATOM      7  O   UNL     1      -7.133 -36.665  12.845  1.00  0.00    -0.493 OA
ATOM      8  C   UNL     1      -5.790 -37.063  12.587  1.00  0.00     0.278 C 
ENDBRANCH   1   7
BRANCH   2   9
ATOM      9  O   UNL     1      -9.574 -36.803  11.613  1.00  0.00    -0.493 OA
ATOM     10  C   UNL     1     -10.954 -37.062  11.847  1.00  0.00     0.278 C 
ENDBRANCH   2   9
BRANCH   4  11
ATOM     11  C   UNL     1      -9.576 -31.870  10.887  1.00  0.00     0.062 C 
BRANCH  11  12
ATOM     12  C   UNL     1      -8.529 -30.911  10.393  1.00  0.00    -0.030 C 
ATOM     13  C   UNL     1      -8.804 -29.983   9.473  1.00  0.00     0.004 C 
ENDBRANCH  11  12
ENDBRANCH   4  11
TORSDOF 4
ENDMDL
MODEL 5
REMARK VINA RESULT:    -3.900      1.517      2.062
REMARK INTER + INTRA:          -5.174
REMARK INTER:                  -4.915
REMARK INTRA:                  -0.259
REMARK UNBOUND:                -0.362
REMARK SMILES C=CCc1ccc(OC)c(OC)c1
REMARK SMILES IDX 7 1 10 2 13 3 4 4 5 5 6 6 8 7 9 8 11 9 12 10 3 11 2 12 1 13
REMARK H PARENT
REMARK Flexibility Score: inf
ROOT
ATOM      1  C   UNL     1      -8.750 -33.220  11.714  1.00  0.00     0.160 A 
ATOM      2  C   UNL     1      -9.200 -34.532  11.497  1.00  0.00     0.160 A 
ATOM      3  C   UNL     1      -8.385 -35.619  11.868  1.00  0.00     0.054 A 
ATOM      4  C   UNL     1      -7.127 -35.401  12.449  1.00  0.00    -0.040 A 
ATOM      5  C   UNL     1      -6.690 -34.089  12.674  1.00  0.00     0.008 A 
ATOM      6  C   UNL     1      -7.490 -33.006  12.306  1.00  0.00     0.051 A 
ENDROOT
BRANCH   1   7
ATOM      7  O   UNL     1      -9.583 -32.156  11.332  1.00  0.00    -0.493 OA
ATOM      8  C   UNL     1      -9.143 -30.997  10.633  1.00  0.00     0.278 C 
ENDBRANCH   1   7
BRANCH   2   9
ATOM      9  O   UNL     1     -10.462 -34.714  10.910  1.00  0.00    -0.493 OA
ATOM     10  C   UNL     1     -11.340 -35.796  11.202  1.00  0.00     0.278 C 
ENDBRANCH   2   9
BRANCH   4  11
ATOM     11  C   UNL     1      -6.271 -36.566  12.875  1.00  0.00     0.062 C 
BRANCH  11  12
ATOM     12  C   UNL     1      -5.230 -36.869  11.834  1.00  0.00    -0.030 C 
ATOM     13  C   UNL     1      -3.990 -36.377  11.916  1.00  0.00     0.004 C 
ENDBRANCH  11  12
ENDBRANCH   4  11
TORSDOF 4
ENDMDL
MODEL 6
REMARK VINA RESULT:    -3.811      2.701      5.037
REMARK INTER + INTRA:          -5.064
REMARK INTER:                  -4.799
REMARK INTRA:                  -0.265
REMARK UNBOUND:                -0.362
REMARK SMILES C=CCc1ccc(OC)c(OC)c1
REMARK SMILES IDX 7 1 10 2 13 3 4 4 5 5 6 6 8 7 9 8 11 9 12 10 3 11 2 12 1 13
REMARK H PARENT
REMARK Flexibility Score: inf
ROOT
ATOM      1  C   UNL     1      -9.297 -32.172  11.008  1.00  0.00     0.160 A 
ATOM      2  C   UNL     1      -8.535 -33.169  11.638  1.00  0.00     0.160 A 
ATOM      3  C   UNL     1      -9.107 -34.432  11.885  1.00  0.00     0.054 A 
ATOM      4  C   UNL     1     -10.432 -34.701  11.511  1.00  0.00    -0.040 A 
ATOM      5  C   UNL     1     -11.182 -33.705  10.872  1.00  0.00     0.008 A 
ATOM      6  C   UNL     1     -10.624 -32.450  10.626  1.00  0.00     0.051 A 
ENDROOT
BRANCH   1   7
ATOM      7  O   UNL     1      -8.702 -30.922  10.776  1.00  0.00    -0.493 OA
ATOM      8  C   UNL     1      -9.061 -30.041   9.718  1.00  0.00     0.278 C 
ENDBRANCH   1   7
BRANCH   2   9
ATOM      9  O   UNL     1      -7.214 -32.865  12.003  1.00  0.00    -0.493 OA
ATOM     10  C   UNL     1      -6.352 -33.742  12.720  1.00  0.00     0.278 C 
ENDBRANCH   2   9
BRANCH   4  11
ATOM     11  C   UNL     1     -11.031 -36.063  11.747  1.00  0.00     0.062 C 
BRANCH  11  12
ATOM     12  C   UNL     1     -10.228 -37.125  11.049  1.00  0.00    -0.030 C 
ATOM     13  C   UNL     1     -10.066 -37.125   9.723  1.00  0.00     0.004 C 
ENDBRANCH  11  12
ENDBRANCH   4  11
TORSDOF 4
ENDMDL
MODEL 7
REMARK VINA RESULT:    -3.780      2.475      5.536
REMARK INTER + INTRA:          -5.026
REMARK INTER:                  -4.739
REMARK INTRA:                  -0.288
REMARK UNBOUND:                -0.362
REMARK SMILES C=CCc1ccc(OC)c(OC)c1
REMARK SMILES IDX 7 1 10 2 13 3 4 4 5 5 6 6 8 7 9 8 11 9 12 10 3 11 2 12 1 13
REMARK H PARENT
REMARK Flexibility Score: inf
ROOT
ATOM      1  C   UNL     1      -7.993 -33.687  12.238  1.00  0.00     0.160 A 
ATOM      2  C   UNL     1      -8.640 -32.879  11.291  1.00  0.00     0.160 A 
ATOM      3  C   UNL     1      -9.899 -33.265  10.788  1.00  0.00     0.054 A 
ATOM      4  C   UNL     1     -10.507 -34.450  11.225  1.00  0.00    -0.040 A 
ATOM      5  C   UNL     1      -9.861 -35.246  12.180  1.00  0.00     0.008 A 
ATOM      6  C   UNL     1      -8.612 -34.872  12.681  1.00  0.00     0.051 A 
ENDROOT
BRANCH   1   7
ATOM      7  O   UNL     1      -6.739 -33.278  12.720  1.00  0.00    -0.493 OA
ATOM      8  C   UNL     1      -5.673 -34.163  13.049  1.00  0.00     0.278 C 
ENDBRANCH   1   7
BRANCH   2   9
ATOM      9  O   UNL     1      -8.001 -31.700  10.873  1.00  0.00    -0.493 OA
ATOM     10  C   UNL     1      -8.643 -30.635  10.183  1.00  0.00     0.278 C 
ENDBRANCH   2   9
BRANCH   4  11
ATOM     11  C   UNL     1     -11.868 -34.844  10.710  1.00  0.00     0.062 C 
BRANCH  11  12
ATOM     12  C   UNL     1     -12.055 -36.333  10.789  1.00  0.00    -0.030 C 
ATOM     13  C   UNL     1     -11.851 -37.125   9.732  1.00  0.00     0.004 C 
ENDBRANCH  11  12
ENDBRANCH   4  11
TORSDOF 4
ENDMDL
MODEL 8
REMARK VINA RESULT:    -3.336      1.233      2.576
REMARK INTER + INTRA:          -4.478
REMARK INTER:                  -4.480
REMARK INTRA:                   0.002
REMARK UNBOUND:                -0.362
REMARK SMILES C=CCc1ccc(OC)c(OC)c1
REMARK SMILES IDX 7 1 10 2 13 3 4 4 5 5 6 6 8 7 9 8 11 9 12 10 3 11 2 12 1 13
REMARK H PARENT
REMARK Flexibility Score: inf
ROOT
ATOM      1  C   UNL     1      -7.083 -35.980  12.686  1.00  0.00     0.160 A 
ATOM      2  C   UNL     1      -6.503 -34.708  12.563  1.00  0.00     0.160 A 
ATOM      3  C   UNL     1      -5.160 -34.591  12.154  1.00  0.00     0.054 A 
ATOM      4  C   UNL     1      -4.398 -35.735  11.872  1.00  0.00    -0.040 A 
ATOM      5  C   UNL     1      -4.988 -37.000  11.985  1.00  0.00     0.008 A 
ATOM      6  C   UNL     1      -6.317 -37.125  12.392  1.00  0.00     0.051 A 
ENDROOT
BRANCH   1   7
ATOM      7  O   UNL     1      -8.423 -36.066  13.097  1.00  0.00    -0.493 OA
ATOM      8  C   UNL     1      -9.534 -35.617  12.328  1.00  0.00     0.278 C 
ENDBRANCH   1   7
BRANCH   2   9
ATOM      9  O   UNL     1      -7.292 -33.585  12.856  1.00  0.00    -0.493 OA
ATOM     10  C   UNL     1      -7.688 -32.605  11.903  1.00  0.00     0.278 C 
ENDBRANCH   2   9
BRANCH   4  11
ATOM     11  C   UNL     1      -2.971 -35.605  11.404  1.00  0.00     0.062 C 
BRANCH  11  12
ATOM     12  C   UNL     1      -2.921 -35.156   9.971  1.00  0.00    -0.030 C 
ATOM     13  C   UNL     1      -2.515 -33.929   9.633  1.00  0.00     0.004 C 
ENDBRANCH  11  12
ENDBRANCH   4  11
TORSDOF 4
ENDMDL
MODEL 9
REMARK VINA RESULT:    -2.874      1.872      5.052
REMARK INTER + INTRA:          -3.908
REMARK INTER:                  -3.647
REMARK INTRA:                  -0.261
REMARK UNBOUND:                -0.362
REMARK SMILES C=CCc1ccc(OC)c(OC)c1
REMARK SMILES IDX 7 1 10 2 13 3 4 4 5 5 6 6 8 7 9 8 11 9 12 10 3 11 2 12 1 13
REMARK H PARENT
REMARK Flexibility Score: inf
ROOT
ATOM      1  C   UNL     1      -6.737 -35.171  12.587  1.00  0.00     0.160 A 
ATOM      2  C   UNL     1      -7.820 -34.311  12.349  1.00  0.00     0.160 A 
ATOM      3  C   UNL     1      -9.135 -34.809  12.419  1.00  0.00     0.054 A 
ATOM      4  C   UNL     1      -9.371 -36.158  12.722  1.00  0.00    -0.040 A 
ATOM      5  C   UNL     1      -8.286 -37.008  12.971  1.00  0.00     0.008 A 
ATOM      6  C   UNL     1      -6.979 -36.522  12.900  1.00  0.00     0.051 A 
ENDROOT
BRANCH   1   7
ATOM      7  O   UNL     1      -5.437 -34.647  12.509  1.00  0.00    -0.493 OA
ATOM      8  C   UNL     1      -4.309 -35.356  12.006  1.00  0.00     0.278 C 
ENDBRANCH   1   7
BRANCH   2   9
ATOM      9  O   UNL     1      -7.548 -32.967  12.045  1.00  0.00    -0.493 OA
ATOM     10  C   UNL     1      -8.320 -32.168  11.156  1.00  0.00     0.278 C 
ENDBRANCH   2   9
BRANCH   4  11
ATOM     11  C   UNL     1     -10.780 -36.682  12.828  1.00  0.00     0.062 C 
BRANCH  11  12
ATOM     12  C   UNL     1     -11.292 -37.107  11.480  1.00  0.00    -0.030 C 
ATOM     13  C   UNL     1     -12.125 -36.340  10.770  1.00  0.00     0.004 C 
ENDBRANCH  11  12
ENDBRANCH   4  11
TORSDOF 4
ENDMDL
