MODEL 1
REMARK VINA RESULT:    -4.743      0.000      0.000
REMARK INTER + INTRA:          -5.460
REMARK INTER:                  -5.297
REMARK INTRA:                  -0.162
REMARK UNBOUND:                -0.162
REMARK SMILES CC(=O)c1ccc(O)cc1O
REMARK SMILES IDX 4 1 10 2 9 3 7 4 6 5 5 6 2 7 1 8 3 9 11 10 8 12
REMARK H PARENT 11 11 8 13
REMARK Flexibility Score: inf
ROOT
ATOM      1  C   UNL     1     -17.274  18.490  42.754  1.00  0.00     0.059 A 
ATOM      2  C   UNL     1     -17.450  19.218  43.955  1.00  0.00     0.130 A 
ATOM      3  C   UNL     1     -17.974  20.520  43.913  1.00  0.00     0.093 A 
ATOM      4  C   UNL     1     -18.312  21.111  42.691  1.00  0.00     0.119 A 
ATOM      5  C   UNL     1     -18.124  20.404  41.504  1.00  0.00     0.047 A 
ATOM      6  C   UNL     1     -17.608  19.106  41.533  1.00  0.00     0.019 A 
ENDROOT
BRANCH   1   7
ATOM      7  C   UNL     1     -16.739  17.102  42.732  1.00  0.00     0.163 C 
ATOM      8  C   UNL     1     -16.679  16.282  41.479  1.00  0.00     0.093 C 
ATOM      9  O   UNL     1     -16.315  16.586  43.802  1.00  0.00    -0.294 OA
ENDBRANCH   1   7
BRANCH   2  10
ATOM     10  O   UNL     1     -17.086  18.671  45.184  1.00  0.00    -0.507 OA
ATOM     11  H   UNL     1     -16.124  18.666  45.504  1.00  0.00     0.293 HD
ENDBRANCH   2  10
BRANCH   4  12
ATOM     12  O   UNL     1     -18.832  22.403  42.646  1.00  0.00    -0.508 OA
ATOM     13  H   UNL     1     -18.381  23.138  42.113  1.00  0.00     0.293 HD
ENDBRANCH   4  12
TORSDOF 3
ENDMDL
MODEL 2
REMARK VINA RESULT:    -4.617      1.268      3.962
REMARK INTER + INTRA:          -5.320
REMARK INTER:                  -5.031
REMARK INTRA:                  -0.289
REMARK UNBOUND:                -0.162
REMARK SMILES CC(=O)c1ccc(O)cc1O
REMARK SMILES IDX 4 1 10 2 9 3 7 4 6 5 5 6 2 7 1 8 3 9 11 10 8 12
REMARK H PARENT 11 11 8 13
REMARK Flexibility Score: inf
ROOT
ATOM      1  C   UNL     1     -17.461  19.352  42.837  1.00  0.00     0.059 A 
ATOM      2  C   UNL     1     -17.040  18.421  43.816  1.00  0.00     0.130 A 
ATOM      3  C   UNL     1     -16.628  17.136  43.428  1.00  0.00     0.093 A 
ATOM      4  C   UNL     1     -16.644  16.762  42.080  1.00  0.00     0.119 A 
ATOM      5  C   UNL     1     -17.075  17.671  41.114  1.00  0.00     0.047 A 
ATOM      6  C   UNL     1     -17.482  18.953  41.487  1.00  0.00     0.019 A 
ENDROOT
BRANCH   1   7
ATOM      7  C   UNL     1     -17.894  20.734  43.181  1.00  0.00     0.163 C 
ATOM      8  C   UNL     1     -18.962  21.457  42.418  1.00  0.00     0.093 C 
ATOM      9  O   UNL     1     -17.350  21.328  44.152  1.00  0.00    -0.294 OA
ENDBRANCH   1   7
BRANCH   2  10
ATOM     10  O   UNL     1     -17.051  18.751  45.170  1.00  0.00    -0.507 OA
ATOM     11  H   UNL     1     -17.239  18.060  45.888  1.00  0.00     0.293 HD
ENDBRANCH   2  10
BRANCH   4  12
ATOM     12  O   UNL     1     -16.236  15.487  41.692  1.00  0.00    -0.508 OA
ATOM     13  H   UNL     1     -16.908  14.758  41.480  1.00  0.00     0.293 HD
ENDBRANCH   4  12
TORSDOF 3
ENDMDL
MODEL 3
REMARK VINA RESULT:    -4.517      1.624      2.446
REMARK INTER + INTRA:          -5.208
REMARK INTER:                  -4.944
REMARK INTRA:                  -0.264
REMARK UNBOUND:                -0.162
REMARK SMILES CC(=O)c1ccc(O)cc1O
REMARK SMILES IDX 4 1 10 2 9 3 7 4 6 5 5 6 2 7 1 8 3 9 11 10 8 12
REMARK H PARENT 11 11 8 13
REMARK Flexibility Score: inf
ROOT
ATOM      1  C   UNL     1     -16.931  17.740  42.712  1.00  0.00     0.059 A 
ATOM      2  C   UNL     1     -17.387  18.398  41.545  1.00  0.00     0.130 A 
ATOM      3  C   UNL     1     -17.893  19.705  41.632  1.00  0.00     0.093 A 
ATOM      4  C   UNL     1     -17.966  20.358  42.867  1.00  0.00     0.119 A 
ATOM      5  C   UNL     1     -17.533  19.706  44.022  1.00  0.00     0.047 A 
ATOM      6  C   UNL     1     -17.023  18.408  43.947  1.00  0.00     0.019 A 
ENDROOT
BRANCH   1   7
ATOM      7  C   UNL     1     -16.368  16.362  42.683  1.00  0.00     0.163 C 
ATOM      8  C   UNL     1     -16.348  15.476  43.892  1.00  0.00     0.093 C 
ATOM      9  O   UNL     1     -15.888  15.913  41.607  1.00  0.00    -0.294 OA
ENDBRANCH   1   7
BRANCH   2  10
ATOM     10  O   UNL     1     -17.365  17.759  40.306  1.00  0.00    -0.507 OA
ATOM     11  H   UNL     1     -16.808  18.108  39.534  1.00  0.00     0.293 HD
ENDBRANCH   2  10
BRANCH   4  12
ATOM     12  O   UNL     1     -18.469  21.654  42.957  1.00  0.00    -0.508 OA
ATOM     13  H   UNL     1     -18.155  22.296  43.677  1.00  0.00     0.293 HD
ENDBRANCH   4  12
TORSDOF 3
ENDMDL
MODEL 4
REMARK VINA RESULT:    -4.403      2.393      3.599
REMARK INTER + INTRA:          -5.080
REMARK INTER:                  -4.814
REMARK INTRA:                  -0.267
REMARK UNBOUND:                -0.162
REMARK SMILES CC(=O)c1ccc(O)cc1O
REMARK SMILES IDX 4 1 10 2 9 3 7 4 6 5 5 6 2 7 1 8 3 9 11 10 8 12
REMARK H PARENT 11 11 8 13
REMARK Flexibility Score: inf
ROOT
ATOM      1  C   UNL     1     -18.783  20.513  42.029  1.00  0.00     0.059 A 
ATOM      2  C   UNL     1     -18.389  21.573  41.178  1.00  0.00     0.130 A 
ATOM      3  C   UNL     1     -19.359  22.432  40.637  1.00  0.00     0.093 A 
ATOM      4  C   UNL     1     -20.716  22.240  40.920  1.00  0.00     0.119 A 
ATOM      5  C   UNL     1     -21.109  21.186  41.744  1.00  0.00     0.047 A 
ATOM      6  C   UNL     1     -20.153  20.328  42.292  1.00  0.00     0.019 A 
ENDROOT
BRANCH   1   7
ATOM      7  C   UNL     1     -17.803  19.579  42.648  1.00  0.00     0.163 C 
ATOM      8  C   UNL     1     -17.550  19.539  44.124  1.00  0.00     0.093 C 
ATOM      9  O   UNL     1     -17.157  18.785  41.911  1.00  0.00    -0.294 OA
ENDBRANCH   1   7
BRANCH   2  10
ATOM     10  O   UNL     1     -17.049  21.766  40.846  1.00  0.00    -0.507 OA
ATOM     11  H   UNL     1     -16.318  21.756  41.548  1.00  0.00     0.293 HD
ENDBRANCH   2  10
BRANCH   4  12
ATOM     12  O   UNL     1     -21.680  23.090  40.383  1.00  0.00    -0.508 OA
ATOM     13  H   UNL     1     -22.430  22.739  39.798  1.00  0.00     0.293 HD
ENDBRANCH   4  12
TORSDOF 3
ENDMDL
MODEL 5
REMARK VINA RESULT:    -4.295     14.305     15.025
REMARK INTER + INTRA:          -4.959
REMARK INTER:                  -4.665
REMARK INTRA:                  -0.294
REMARK UNBOUND:                -0.162
REMARK SMILES CC(=O)c1ccc(O)cc1O
REMARK SMILES IDX 4 1 10 2 9 3 7 4 6 5 5 6 2 7 1 8 3 9 11 10 8 12
REMARK H PARENT 11 11 8 13
REMARK Flexibility Score: inf
ROOT
ATOM      1  C   UNL     1      -6.988  29.068  46.012  1.00  0.00     0.059 A 
ATOM      2  C   UNL     1      -7.039  30.228  46.821  1.00  0.00     0.130 A 
ATOM      3  C   UNL     1      -7.887  31.290  46.469  1.00  0.00     0.093 A 
ATOM      4  C   UNL     1      -8.674  31.218  45.314  1.00  0.00     0.119 A 
ATOM      5  C   UNL     1      -8.613  30.083  44.505  1.00  0.00     0.047 A 
ATOM      6  C   UNL     1      -7.777  29.019  44.848  1.00  0.00     0.019 A 
ENDROOT
BRANCH   1   7
ATOM      7  C   UNL     1      -6.123  27.902  46.340  1.00  0.00     0.163 C 
ATOM      8  C   UNL     1      -6.563  26.486  46.121  1.00  0.00     0.093 C 
ATOM      9  O   UNL     1      -4.974  28.101  46.821  1.00  0.00    -0.294 OA
ENDBRANCH   1   7
BRANCH   2  10
ATOM     10  O   UNL     1      -6.238  30.346  47.956  1.00  0.00    -0.507 OA
ATOM     11  H   UNL     1      -5.226  30.321  47.902  1.00  0.00     0.293 HD
ENDBRANCH   2  10
BRANCH   4  12
ATOM     12  O   UNL     1      -9.516  32.271  44.961  1.00  0.00    -0.508 OA
ATOM     13  H   UNL     1      -9.187  33.046  44.397  1.00  0.00     0.293 HD
ENDBRANCH   4  12
TORSDOF 3
ENDMDL
MODEL 6
REMARK VINA RESULT:    -4.208      2.817      5.513
REMARK INTER + INTRA:          -4.862
REMARK INTER:                  -4.574
REMARK INTRA:                  -0.289
REMARK UNBOUND:                -0.162
REMARK SMILES CC(=O)c1ccc(O)cc1O
REMARK SMILES IDX 4 1 10 2 9 3 7 4 6 5 5 6 2 7 1 8 3 9 11 10 8 12
REMARK H PARENT 11 11 8 13
REMARK Flexibility Score: inf
ROOT
ATOM      1  C   UNL     1     -20.215  21.820  40.978  1.00  0.00     0.059 A 
ATOM      2  C   UNL     1     -18.816  22.032  40.956  1.00  0.00     0.130 A 
ATOM      3  C   UNL     1     -17.982  21.280  41.798  1.00  0.00     0.093 A 
ATOM      4  C   UNL     1     -18.524  20.330  42.672  1.00  0.00     0.119 A 
ATOM      5  C   UNL     1     -19.904  20.132  42.709  1.00  0.00     0.047 A 
ATOM      6  C   UNL     1     -20.743  20.870  41.872  1.00  0.00     0.019 A 
ENDROOT
BRANCH   1   7
ATOM      7  C   UNL     1     -21.151  22.573  40.099  1.00  0.00     0.163 C 
ATOM      8  C   UNL     1     -22.383  21.950  39.514  1.00  0.00     0.093 C 
ATOM      9  O   UNL     1     -20.910  23.781  39.830  1.00  0.00    -0.294 OA
ENDBRANCH   1   7
BRANCH   2  10
ATOM     10  O   UNL     1     -18.250  22.997  40.125  1.00  0.00    -0.507 OA
ATOM     11  H   UNL     1     -18.686  23.274  39.253  1.00  0.00     0.293 HD
ENDBRANCH   2  10
BRANCH   4  12
ATOM     12  O   UNL     1     -17.699  19.583  43.510  1.00  0.00    -0.508 OA
ATOM     13  H   UNL     1     -16.951  19.007  43.141  1.00  0.00     0.293 HD
ENDBRANCH   4  12
TORSDOF 3
ENDMDL
MODEL 7
REMARK VINA RESULT:    -4.194     16.569     17.828
REMARK INTER + INTRA:          -4.847
REMARK INTER:                  -4.549
REMARK INTRA:                  -0.298
REMARK UNBOUND:                -0.162
REMARK SMILES CC(=O)c1ccc(O)cc1O
REMARK SMILES IDX 4 1 10 2 9 3 7 4 6 5 5 6 2 7 1 8 3 9 11 10 8 12
REMARK H PARENT 11 11 8 13
REMARK Flexibility Score: inf
ROOT
ATOM      1  C   UNL     1      -5.842  31.664  47.455  1.00  0.00     0.059 A 
ATOM      2  C   UNL     1      -6.659  30.529  47.235  1.00  0.00     0.130 A 
ATOM      3  C   UNL     1      -6.083  29.326  46.799  1.00  0.00     0.093 A 
ATOM      4  C   UNL     1      -4.706  29.241  46.565  1.00  0.00     0.119 A 
ATOM      5  C   UNL     1      -3.899  30.362  46.763  1.00  0.00     0.047 A 
ATOM      6  C   UNL     1      -4.461  31.563  47.202  1.00  0.00     0.019 A 
ENDROOT
BRANCH   1   7
ATOM      7  C   UNL     1      -6.389  32.963  47.933  1.00  0.00     0.163 C 
ATOM      8  C   UNL     1      -5.919  33.619  49.195  1.00  0.00     0.093 C 
ATOM      9  O   UNL     1      -7.282  33.543  47.257  1.00  0.00    -0.294 OA
ENDBRANCH   1   7
BRANCH   2  10
ATOM     10  O   UNL     1      -8.039  30.593  47.422  1.00  0.00    -0.507 OA
ATOM     11  H   UNL     1      -8.451  30.684  48.343  1.00  0.00     0.293 HD
ENDBRANCH   2  10
BRANCH   4  12
ATOM     12  O   UNL     1      -4.131  28.049  46.131  1.00  0.00    -0.508 OA
ATOM     13  H   UNL     1      -4.659  27.370  45.594  1.00  0.00     0.293 HD
ENDBRANCH   4  12
TORSDOF 3
ENDMDL
MODEL 8
REMARK VINA RESULT:    -4.126     14.447     15.082
REMARK INTER + INTRA:          -4.771
REMARK INTER:                  -4.474
REMARK INTRA:                  -0.297
REMARK UNBOUND:                -0.162
REMARK SMILES CC(=O)c1ccc(O)cc1O
REMARK SMILES IDX 4 1 10 2 9 3 7 4 6 5 5 6 2 7 1 8 3 9 11 10 8 12
REMARK H PARENT 11 11 8 13
REMARK Flexibility Score: inf
ROOT
ATOM      1  C   UNL     1      -6.814  28.399  46.027  1.00  0.00     0.059 A 
ATOM      2  C   UNL     1      -5.821  28.996  46.840  1.00  0.00     0.130 A 
ATOM      3  C   UNL     1      -5.985  30.316  47.287  1.00  0.00     0.093 A 
ATOM      4  C   UNL     1      -7.116  31.055  46.923  1.00  0.00     0.119 A 
ATOM      5  C   UNL     1      -8.087  30.477  46.106  1.00  0.00     0.047 A 
ATOM      6  C   UNL     1      -7.938  29.162  45.660  1.00  0.00     0.019 A 
ENDROOT
BRANCH   1   7
ATOM      7  C   UNL     1      -6.708  26.998  45.535  1.00  0.00     0.163 C 
ATOM      8  C   UNL     1      -6.754  26.651  44.077  1.00  0.00     0.093 C 
ATOM      9  O   UNL     1      -6.572  26.060  46.366  1.00  0.00    -0.294 OA
ENDBRANCH   1   7
BRANCH   2  10
ATOM     10  O   UNL     1      -4.665  28.299  47.188  1.00  0.00    -0.507 OA
ATOM     11  H   UNL     1      -3.985  28.011  46.494  1.00  0.00     0.293 HD
ENDBRANCH   2  10
BRANCH   4  12
ATOM     12  O   UNL     1      -7.280  32.367  47.364  1.00  0.00    -0.508 OA
ATOM     13  H   UNL     1      -6.513  32.888  47.774  1.00  0.00     0.293 HD
ENDBRANCH   4  12
TORSDOF 3
ENDMDL
MODEL 9
REMARK VINA RESULT:    -4.081      2.586      3.553
REMARK INTER + INTRA:          -4.720
REMARK INTER:                  -4.445
REMARK INTRA:                  -0.275
REMARK UNBOUND:                -0.162
REMARK SMILES CC(=O)c1ccc(O)cc1O
REMARK SMILES IDX 4 1 10 2 9 3 7 4 6 5 5 6 2 7 1 8 3 9 11 10 8 12
REMARK H PARENT 11 11 8 13
REMARK Flexibility Score: inf
ROOT
ATOM      1  C   UNL     1     -19.100  20.779  41.938  1.00  0.00     0.059 A 
ATOM      2  C   UNL     1     -20.499  20.747  42.150  1.00  0.00     0.130 A 
ATOM      3  C   UNL     1     -21.325  21.681  41.505  1.00  0.00     0.093 A 
ATOM      4  C   UNL     1     -20.777  22.654  40.663  1.00  0.00     0.119 A 
ATOM      5  C   UNL     1     -19.397  22.700  40.465  1.00  0.00     0.047 A 
ATOM      6  C   UNL     1     -18.564  21.774  41.097  1.00  0.00     0.019 A 
ENDROOT
BRANCH   1   7
ATOM      7  C   UNL     1     -18.172  19.808  42.578  1.00  0.00     0.163 C 
ATOM      8  C   UNL     1     -17.383  18.808  41.789  1.00  0.00     0.093 C 
ATOM      9  O   UNL     1     -18.035  19.819  43.832  1.00  0.00    -0.294 OA
ENDBRANCH   1   7
BRANCH   2  10
ATOM     10  O   UNL     1     -21.071  19.815  43.014  1.00  0.00    -0.507 OA
ATOM     11  H   UNL     1     -21.005  19.907  44.021  1.00  0.00     0.293 HD
ENDBRANCH   2  10
BRANCH   4  12
ATOM     12  O   UNL     1     -21.595  23.582  40.023  1.00  0.00    -0.508 OA
ATOM     13  H   UNL     1     -21.463  24.580  40.148  1.00  0.00     0.293 HD
ENDBRANCH   4  12
TORSDOF 3
ENDMDL
