MODEL 1
REMARK VINA RESULT:    -3.825      0.000      0.000
REMARK INTER + INTRA:          -4.568
REMARK INTER:                  -4.495
REMARK INTRA:                  -0.073
REMARK UNBOUND:                -0.073
REMARK SMILES O=C([O-])CCC(=O)[O-]
REMARK SMILES IDX 4 1 2 2 1 3 3 4 5 5 6 6 7 7 8 8
REMARK H PARENT
REMARK Flexibility Score: inf
ROOT
ATOM      1  C   UNL     1     -26.220  18.338  -0.906  1.00  0.00     0.059 C 
ENDROOT
BRANCH   1   2
ATOM      2  C   UNL     1     -27.172  17.977  -2.001  1.00  0.00     0.042 C 
ATOM      3  O   UNL     1     -26.951  16.974  -2.730  1.00  0.00    -0.550 OA
ATOM      4  O   UNL     1     -28.331  18.720  -2.188  1.00  0.00    -0.550 OA
ENDBRANCH   1   2
BRANCH   1   5
ATOM      5  C   UNL     1     -25.827  17.094  -0.107  1.00  0.00     0.059 C 
BRANCH   5   6
ATOM      6  C   UNL     1     -26.541  17.069   1.207  1.00  0.00     0.042 C 
ATOM      7  O   UNL     1     -27.113  16.017   1.598  1.00  0.00    -0.550 OA
ATOM      8  O   UNL     1     -26.533  18.192   2.024  1.00  0.00    -0.550 OA
ENDBRANCH   5   6
ENDBRANCH   1   5
TORSDOF 3
ENDMDL
MODEL 2
REMARK VINA RESULT:    -3.799      0.099      3.682
REMARK INTER + INTRA:          -4.538
REMARK INTER:                  -4.459
REMARK INTRA:                  -0.079
REMARK UNBOUND:                -0.073
REMARK SMILES O=C([O-])CCC(=O)[O-]
REMARK SMILES IDX 4 1 2 2 1 3 3 4 5 5 6 6 7 7 8 8
REMARK H PARENT
REMARK Flexibility Score: inf
ROOT
ATOM      1  C   UNL     1     -25.816  17.050  -0.041  1.00  0.00     0.059 C 
ENDROOT
BRANCH   1   2
ATOM      2  C   UNL     1     -26.581  17.029   1.245  1.00  0.00     0.042 C 
ATOM      3  O   UNL     1     -27.175  15.981   1.613  1.00  0.00    -0.550 OA
ATOM      4  O   UNL     1     -26.597  18.151   2.063  1.00  0.00    -0.550 OA
ENDBRANCH   1   2
BRANCH   1   5
ATOM      5  C   UNL     1     -26.137  18.318  -0.833  1.00  0.00     0.059 C 
BRANCH   5   6
ATOM      6  C   UNL     1     -27.108  18.018  -1.930  1.00  0.00     0.042 C 
ATOM      7  O   UNL     1     -26.930  17.023  -2.681  1.00  0.00    -0.550 OA
ATOM      8  O   UNL     1     -28.238  18.810  -2.094  1.00  0.00    -0.550 OA
ENDBRANCH   5   6
ENDBRANCH   1   5
TORSDOF 3
ENDMDL
MODEL 3
REMARK VINA RESULT:    -3.382      8.940      9.856
REMARK INTER + INTRA:          -4.048
REMARK INTER:                  -3.936
REMARK INTRA:                  -0.112
REMARK UNBOUND:                -0.073
REMARK SMILES O=C([O-])CCC(=O)[O-]
REMARK SMILES IDX 4 1 2 2 1 3 3 4 5 5 6 6 7 7 8 8
REMARK H PARENT
REMARK Flexibility Score: inf
ROOT
ATOM      1  C   UNL     1     -21.924  24.172  -2.449  1.00  0.00     0.059 C 
ENDROOT
BRANCH   1   2
ATOM      2  C   UNL     1     -21.522  23.059  -1.535  1.00  0.00     0.042 C 
ATOM      3  O   UNL     1     -22.098  21.941  -1.603  1.00  0.00    -0.550 OA
ATOM      4  O   UNL     1     -20.475  23.238  -0.639  1.00  0.00    -0.550 OA
ENDBRANCH   1   2
BRANCH   1   5
ATOM      5  C   UNL     1     -21.998  25.493  -1.683  1.00  0.00     0.059 C 
BRANCH   5   6
ATOM      6  C   UNL     1     -20.888  26.404  -2.102  1.00  0.00     0.042 C 
ATOM      7  O   UNL     1     -20.929  27.629  -1.813  1.00  0.00    -0.550 OA
ATOM      8  O   UNL     1     -19.783  25.891  -2.770  1.00  0.00    -0.550 OA
ENDBRANCH   5   6
ENDBRANCH   1   5
TORSDOF 3
ENDMDL
MODEL 4
REMARK VINA RESULT:    -3.359      8.979      9.623
REMARK INTER + INTRA:          -4.021
REMARK INTER:                  -3.909
REMARK INTRA:                  -0.112
REMARK UNBOUND:                -0.073
REMARK SMILES O=C([O-])CCC(=O)[O-]
REMARK SMILES IDX 4 1 2 2 1 3 3 4 5 5 6 6 7 7 8 8
REMARK H PARENT
REMARK Flexibility Score: inf
ROOT
ATOM      1  C   UNL     1     -21.965  25.538  -1.598  1.00  0.00     0.059 C 
ENDROOT
BRANCH   1   2
ATOM      2  C   UNL     1     -20.878  26.450  -2.071  1.00  0.00     0.042 C 
ATOM      3  O   UNL     1     -20.885  27.667  -1.746  1.00  0.00    -0.550 OA
ATOM      4  O   UNL     1     -19.829  25.948  -2.831  1.00  0.00    -0.550 OA
ENDBRANCH   1   2
BRANCH   1   5
ATOM      5  C   UNL     1     -21.934  24.221  -2.375  1.00  0.00     0.059 C 
BRANCH   5   6
ATOM      6  C   UNL     1     -21.486  23.102  -1.492  1.00  0.00     0.042 C 
ATOM      7  O   UNL     1     -22.063  21.983  -1.541  1.00  0.00    -0.550 OA
ATOM      8  O   UNL     1     -20.397  23.277  -0.646  1.00  0.00    -0.550 OA
ENDBRANCH   5   6
ENDBRANCH   1   5
TORSDOF 3
ENDMDL
MODEL 5
REMARK VINA RESULT:    -3.348      9.090      9.985
REMARK INTER + INTRA:          -4.008
REMARK INTER:                  -3.903
REMARK INTRA:                  -0.105
REMARK UNBOUND:                -0.073
REMARK SMILES O=C([O-])CCC(=O)[O-]
REMARK SMILES IDX 4 1 2 2 1 3 3 4 5 5 6 6 7 7 8 8
REMARK H PARENT
REMARK Flexibility Score: inf
ROOT
ATOM      1  C   UNL     1     -21.858  24.244  -2.392  1.00  0.00     0.059 C 
ENDROOT
BRANCH   1   2
ATOM      2  C   UNL     1     -21.517  23.122  -1.464  1.00  0.00     0.042 C 
ATOM      3  O   UNL     1     -22.028  21.983  -1.631  1.00  0.00    -0.550 OA
ATOM      4  O   UNL     1     -20.597  23.319  -0.442  1.00  0.00    -0.550 OA
ENDBRANCH   1   2
BRANCH   1   5
ATOM      5  C   UNL     1     -21.479  25.588  -1.769  1.00  0.00     0.059 C 
BRANCH   5   6
ATOM      6  C   UNL     1     -20.321  26.195  -2.495  1.00  0.00     0.042 C 
ATOM      7  O   UNL     1     -19.445  25.458  -3.019  1.00  0.00    -0.550 OA
ATOM      8  O   UNL     1     -20.234  27.574  -2.637  1.00  0.00    -0.550 OA
ENDBRANCH   5   6
ENDBRANCH   1   5
TORSDOF 3
ENDMDL
MODEL 6
REMARK VINA RESULT:    -3.291     10.133     10.901
REMARK INTER + INTRA:          -3.941
REMARK INTER:                  -3.906
REMARK INTRA:                  -0.035
REMARK UNBOUND:                -0.073
REMARK SMILES O=C([O-])CCC(=O)[O-]
REMARK SMILES IDX 4 1 2 2 1 3 3 4 5 5 6 6 7 7 8 8
REMARK H PARENT
REMARK Flexibility Score: inf
ROOT
ATOM      1  C   UNL     1     -37.715  15.309  -3.171  1.00  0.00     0.059 C 
ENDROOT
BRANCH   1   2
ATOM      2  C   UNL     1     -37.235  15.634  -4.550  1.00  0.00     0.042 C 
ATOM      3  O   UNL     1     -37.328  16.809  -4.994  1.00  0.00    -0.550 OA
ATOM      4  O   UNL     1     -36.637  14.651  -5.328  1.00  0.00    -0.550 OA
ENDBRANCH   1   2
BRANCH   1   5
ATOM      5  C   UNL     1     -37.439  16.474  -2.220  1.00  0.00     0.059 C 
BRANCH   5   6
ATOM      6  C   UNL     1     -37.168  15.969  -0.839  1.00  0.00     0.042 C 
ATOM      7  O   UNL     1     -38.089  15.943   0.020  1.00  0.00    -0.550 OA
ATOM      8  O   UNL     1     -35.909  15.480  -0.512  1.00  0.00    -0.550 OA
ENDBRANCH   5   6
ENDBRANCH   1   5
TORSDOF 3
ENDMDL
MODEL 7
REMARK VINA RESULT:    -3.206     10.305     11.451
REMARK INTER + INTRA:          -3.841
REMARK INTER:                  -3.802
REMARK INTRA:                  -0.039
REMARK UNBOUND:                -0.073
REMARK SMILES O=C([O-])CCC(=O)[O-]
REMARK SMILES IDX 4 1 2 2 1 3 3 4 5 5 6 6 7 7 8 8
REMARK H PARENT
REMARK Flexibility Score: inf
ROOT
ATOM      1  C   UNL     1     -37.418  16.742  -2.103  1.00  0.00     0.059 C 
ENDROOT
BRANCH   1   2
ATOM      2  C   UNL     1     -37.225  16.355  -0.671  1.00  0.00     0.042 C 
ATOM      3  O   UNL     1     -36.319  15.541  -0.350  1.00  0.00    -0.550 OA
ATOM      4  O   UNL     1     -38.011  16.933   0.318  1.00  0.00    -0.550 OA
ENDBRANCH   1   2
BRANCH   1   5
ATOM      5  C   UNL     1     -37.646  15.500  -2.966  1.00  0.00     0.059 C 
BRANCH   5   6
ATOM      6  C   UNL     1     -37.280  15.778  -4.389  1.00  0.00     0.042 C 
ATOM      7  O   UNL     1     -37.384  16.943  -4.856  1.00  0.00    -0.550 OA
ATOM      8  O   UNL     1     -36.776  14.759  -5.189  1.00  0.00    -0.550 OA
ENDBRANCH   5   6
ENDBRANCH   1   5
TORSDOF 3
ENDMDL
MODEL 8
REMARK VINA RESULT:    -3.172     10.967     11.649
REMARK INTER + INTRA:          -3.801
REMARK INTER:                  -3.761
REMARK INTRA:                  -0.039
REMARK UNBOUND:                -0.073
REMARK SMILES O=C([O-])CCC(=O)[O-]
REMARK SMILES IDX 4 1 2 2 1 3 3 4 5 5 6 6 7 7 8 8
REMARK H PARENT
REMARK Flexibility Score: inf
ROOT
ATOM      1  C   UNL     1     -37.501  16.080  -3.711  1.00  0.00     0.059 C 
ENDROOT
BRANCH   1   2
ATOM      2  C   UNL     1     -37.680  16.177  -2.229  1.00  0.00     0.042 C 
ATOM      3  O   UNL     1     -38.125  15.194  -1.578  1.00  0.00    -0.550 OA
ATOM      4  O   UNL     1     -37.310  17.335  -1.557  1.00  0.00    -0.550 OA
ENDBRANCH   1   2
BRANCH   1   5
ATOM      5  C   UNL     1     -37.393  14.617  -4.143  1.00  0.00     0.059 C 
BRANCH   5   6
ATOM      6  C   UNL     1     -36.575  14.499  -5.389  1.00  0.00     0.042 C 
ATOM      7  O   UNL     1     -36.142  13.376  -5.759  1.00  0.00    -0.550 OA
ATOM      8  O   UNL     1     -36.330  15.622  -6.170  1.00  0.00    -0.550 OA
ENDBRANCH   5   6
ENDBRANCH   1   5
TORSDOF 3
ENDMDL
MODEL 9
REMARK VINA RESULT:    -3.138      9.646     10.242
REMARK INTER + INTRA:          -3.761
REMARK INTER:                  -3.657
REMARK INTRA:                  -0.104
REMARK UNBOUND:                -0.073
REMARK SMILES O=C([O-])CCC(=O)[O-]
REMARK SMILES IDX 4 1 2 2 1 3 3 4 5 5 6 6 7 7 8 8
REMARK H PARENT
REMARK Flexibility Score: inf
ROOT
ATOM      1  C   UNL     1     -20.579  25.992  -1.702  1.00  0.00     0.059 C 
ENDROOT
BRANCH   1   2
ATOM      2  C   UNL     1     -19.749  26.496  -2.840  1.00  0.00     0.042 C 
ATOM      3  O   UNL     1     -19.018  25.703  -3.492  1.00  0.00    -0.550 OA
ATOM      4  O   UNL     1     -19.818  27.832  -3.214  1.00  0.00    -0.550 OA
ENDBRANCH   1   2
BRANCH   1   5
ATOM      5  C   UNL     1     -20.215  24.544  -1.374  1.00  0.00     0.059 C 
BRANCH   5   6
ATOM      6  C   UNL     1     -21.333  23.625  -1.751  1.00  0.00     0.042 C 
ATOM      7  O   UNL     1     -21.416  22.480  -1.232  1.00  0.00    -0.550 OA
ATOM      8  O   UNL     1     -22.313  24.050  -2.640  1.00  0.00    -0.550 OA
ENDBRANCH   5   6
ENDBRANCH   1   5
TORSDOF 3
ENDMDL
