MODEL 1
REMARK VINA RESULT:    -3.850      0.000      0.000
REMARK INTER + INTRA:          -4.936
REMARK INTER:                  -5.426
REMARK INTRA:                   0.490
REMARK UNBOUND:                 0.490
REMARK SMILES CC1=CCC(=C(C)C)C(=O)CC(C)=CCC1
REMARK SMILES IDX 12 1 14 2 13 3 15 4 16 5 2 6 1 7 3 8 11 10 9 11 10 12 5 13
REMARK SMILES IDX 6 14 7 15 8 16 4 17
REMARK H PARENT
REMARK Flexibility Score: 60.00
ROOT
ATOM      1  C   UNL     1      -3.286  27.263  51.934  1.00  0.00    -0.070 C 
ATOM      2  C   UNL     1      -3.100  28.102  50.889  1.00  0.00    -0.027 C 
ATOM      3  C   UNL     1      -4.694  27.045  52.426  1.00  0.00     0.039 C 
ENDROOT
BRANCH   2   4
ATOM      4  C   UNL     1      -1.769  28.390  50.230  1.00  0.00     0.032 C 
BRANCH   4   5
ATOM      5  C   UNL     1      -1.394  29.876  50.337  1.00  0.00     0.034 C 
BRANCH   5   6
ATOM      6  C   UNL     1      -1.685  30.479  51.704  1.00  0.00    -0.077 C 
ATOM      7  C   UNL     1      -2.784  31.506  51.826  1.00  0.00     0.039 C 
ATOM      8  C   UNL     1      -1.019  30.132  52.828  1.00  0.00    -0.023 CG0
ATOM      9  G   UNL     1       0.153  29.181  52.894  1.00  0.00     0.000 G0
ENDBRANCH   5   6
ENDBRANCH   4   5
ENDBRANCH   2   4
BRANCH   1  10
ATOM     10  C   UNL     1      -2.146  26.542  52.629  1.00  0.00     0.111 C 
BRANCH  10  11
ATOM     11  C   UNL     1      -1.549  27.393  53.715  1.00  0.00     0.163 C 
ATOM     12  O   UNL     1      -2.247  27.691  54.721  1.00  0.00    -0.294 OA
BRANCH  11  13
ATOM     13  C   UNL     1      -0.145  27.872  53.636  1.00  0.00    -0.002 C 
ATOM     14  C   UNL     1       0.858  27.152  54.209  1.00  0.00    -0.069 C 
ATOM     15  C   UNL     1       0.589  25.810  54.854  1.00  0.00     0.039 C 
ATOM     16  C   UNL     1       2.286  27.647  54.185  1.00  0.00     0.039 C 
BRANCH  13  17
ATOM     17  C   UNL     1       0.157  29.175  52.906  1.00  0.00     0.066 CG0
ATOM     18  G   UNL     1      -1.019  30.123  52.844  1.00  0.00     0.000 G0
ENDBRANCH  13  17
ENDBRANCH  11  13
ENDBRANCH  10  11
ENDBRANCH   1  10
TORSDOF 0
ENDMDL
MODEL 2
REMARK VINA RESULT:    -3.825      2.315      3.479
REMARK INTER + INTRA:          -4.901
REMARK INTER:                  -5.184
REMARK INTRA:                   0.283
REMARK UNBOUND:                 0.490
REMARK SMILES CC1=CCC(=C(C)C)C(=O)CC(C)=CCC1
REMARK SMILES IDX 12 1 14 2 13 3 15 4 16 5 2 6 1 7 3 8 11 10 9 11 10 12 5 13
REMARK SMILES IDX 6 14 7 15 8 16 4 17
REMARK H PARENT
REMARK Flexibility Score: 60.00
ROOT
ATOM      1  C   UNL     1      -1.109  29.865  51.735  1.00  0.00    -0.070 C 
ATOM      2  C   UNL     1      -1.949  30.886  52.027  1.00  0.00    -0.027 C 
ATOM      3  C   UNL     1      -1.074  29.360  50.316  1.00  0.00     0.039 C 
ENDROOT
BRANCH   2   4
ATOM      4  C   UNL     1      -2.071  31.555  53.378  1.00  0.00     0.032 C 
BRANCH   4   5
ATOM      5  C   UNL     1      -3.158  30.896  54.240  1.00  0.00     0.034 C 
BRANCH   5   6
ATOM      6  C   UNL     1      -2.682  30.522  55.636  1.00  0.00    -0.077 C 
ATOM      7  C   UNL     1      -2.511  31.614  56.663  1.00  0.00     0.039 C 
ATOM      8  C   UNL     1      -2.419  29.251  56.017  1.00  0.00    -0.023 CG0
ATOM      9  G   UNL     1      -2.464  28.039  55.116  1.00  0.00     0.000 G0
ENDBRANCH   5   6
ENDBRANCH   4   5
ENDBRANCH   2   4
BRANCH   1  10
ATOM     10  C   UNL     1      -0.213  29.212  52.770  1.00  0.00     0.111 C 
BRANCH  10  11
ATOM     11  C   UNL     1      -0.754  27.873  53.187  1.00  0.00     0.163 C 
ATOM     12  O   UNL     1      -0.902  26.969  52.322  1.00  0.00    -0.294 OA
BRANCH  11  13
ATOM     13  C   UNL     1      -1.095  27.587  54.604  1.00  0.00    -0.002 C 
ATOM     14  C   UNL     1      -0.201  26.952  55.410  1.00  0.00    -0.069 C 
ATOM     15  C   UNL     1       1.188  26.607  54.920  1.00  0.00     0.039 C 
ATOM     16  C   UNL     1      -0.549  26.605  56.840  1.00  0.00     0.039 C 
BRANCH  13  17
ATOM     17  C   UNL     1      -2.457  28.014  55.142  1.00  0.00     0.066 CG0
ATOM     18  G   UNL     1      -2.408  29.253  56.005  1.00  0.00     0.000 G0
ENDBRANCH  13  17
ENDBRANCH  11  13
ENDBRANCH  10  11
ENDBRANCH   1  10
TORSDOF 0
ENDMDL
MODEL 3
REMARK VINA RESULT:    -3.755      1.928      2.776
REMARK INTER + INTRA:          -4.801
REMARK INTER:                  -5.285
REMARK INTRA:                   0.484
REMARK UNBOUND:                 0.490
REMARK SMILES CC1=CCC(=C(C)C)C(=O)CC(C)=CCC1
REMARK SMILES IDX 12 1 14 2 13 3 15 4 16 5 2 6 1 7 3 8 11 10 9 11 10 12 5 13
REMARK SMILES IDX 6 14 7 15 8 16 4 17
REMARK H PARENT
REMARK Flexibility Score: 60.00
ROOT
ATOM      1  C   UNL     1      -1.962  27.994  51.260  1.00  0.00    -0.070 C 
ATOM      2  C   UNL     1      -3.262  28.087  51.624  1.00  0.00    -0.027 C 
ATOM      3  C   UNL     1      -1.514  28.748  50.034  1.00  0.00     0.039 C 
ENDROOT
BRANCH   2   4
ATOM      4  C   UNL     1      -3.870  27.450  52.854  1.00  0.00     0.032 C 
BRANCH   4   5
ATOM      5  C   UNL     1      -4.426  28.505  53.822  1.00  0.00     0.034 C 
BRANCH   5   6
ATOM      6  C   UNL     1      -3.427  29.600  54.167  1.00  0.00    -0.077 C 
ATOM      7  C   UNL     1      -3.717  31.014  53.728  1.00  0.00     0.039 C 
ATOM      8  C   UNL     1      -2.291  29.378  54.867  1.00  0.00    -0.023 CG0
ATOM      9  G   UNL     1      -1.796  28.026  55.329  1.00  0.00     0.000 G0
ENDBRANCH   5   6
ENDBRANCH   4   5
ENDBRANCH   2   4
BRANCH   1  10
ATOM     10  C   UNL     1      -0.947  27.167  52.026  1.00  0.00     0.111 C 
BRANCH  10  11
ATOM     11  C   UNL     1      -0.356  27.954  53.163  1.00  0.00     0.163 C 
ATOM     12  O   UNL     1       0.301  29.000  52.915  1.00  0.00    -0.294 OA
BRANCH  11  13
ATOM     13  C   UNL     1      -0.552  27.534  54.575  1.00  0.00    -0.002 C 
ATOM     14  C   UNL     1       0.353  26.718  55.180  1.00  0.00    -0.069 C 
ATOM     15  C   UNL     1       1.621  26.295  54.472  1.00  0.00     0.039 C 
ATOM     16  C   UNL     1       0.146  26.238  56.598  1.00  0.00     0.039 C 
BRANCH  13  17
ATOM     17  C   UNL     1      -1.778  28.030  55.334  1.00  0.00     0.066 CG0
ATOM     18  G   UNL     1      -2.289  29.369  54.856  1.00  0.00     0.000 G0
ENDBRANCH  13  17
ENDBRANCH  11  13
ENDBRANCH  10  11
ENDBRANCH   1  10
TORSDOF 0
ENDMDL
MODEL 4
REMARK VINA RESULT:    -3.497      1.378      3.827
REMARK INTER + INTRA:          -4.438
REMARK INTER:                  -5.129
REMARK INTRA:                   0.692
REMARK UNBOUND:                 0.490
REMARK SMILES CC1=CCC(=C(C)C)C(=O)CC(C)=CCC1
REMARK SMILES IDX 12 1 14 2 13 3 15 4 16 5 2 6 1 7 3 8 11 10 9 11 10 12 5 13
REMARK SMILES IDX 6 14 7 15 8 16 4 17
REMARK H PARENT
REMARK Flexibility Score: 60.00
ROOT
ATOM      1  C   UNL     1      -3.046  27.871  51.432  1.00  0.00    -0.070 C 
ATOM      2  C   UNL     1      -2.045  26.969  51.307  1.00  0.00    -0.027 C 
ATOM      3  C   UNL     1      -3.368  28.742  50.245  1.00  0.00     0.039 C 
ENDROOT
BRANCH   2   4
ATOM      4  C   UNL     1      -1.629  25.976  52.370  1.00  0.00     0.032 C 
BRANCH   4   5
ATOM      5  C   UNL     1      -0.187  26.222  52.840  1.00  0.00     0.034 C 
BRANCH   5   6
ATOM      6  C   UNL     1      -0.094  26.791  54.248  1.00  0.00    -0.077 C 
ATOM      7  C   UNL     1       0.134  25.844  55.401  1.00  0.00     0.039 C 
ATOM      8  C   UNL     1      -0.189  28.110  54.526  1.00  0.00    -0.023 CG0
ATOM      9  G   UNL     1      -0.486  29.199  53.520  1.00  0.00     0.000 G0
ENDBRANCH   5   6
ENDBRANCH   4   5
ENDBRANCH   2   4
BRANCH   1  10
ATOM     10  C   UNL     1      -3.849  28.043  52.708  1.00  0.00     0.111 C 
BRANCH  10  11
ATOM     11  C   UNL     1      -3.010  28.653  53.797  1.00  0.00     0.163 C 
ATOM     12  O   UNL     1      -3.197  28.301  54.992  1.00  0.00    -0.294 OA
BRANCH  11  13
ATOM     13  C   UNL     1      -1.947  29.644  53.488  1.00  0.00    -0.002 C 
ATOM     14  C   UNL     1      -2.275  30.931  53.189  1.00  0.00    -0.069 C 
ATOM     15  C   UNL     1      -3.709  31.408  53.253  1.00  0.00     0.039 C 
ATOM     16  C   UNL     1      -1.213  31.942  52.821  1.00  0.00     0.039 C 
BRANCH  13  17
ATOM     17  C   UNL     1      -0.489  29.202  53.512  1.00  0.00     0.066 CG0
ATOM     18  G   UNL     1      -0.195  28.130  54.536  1.00  0.00     0.000 G0
ENDBRANCH  13  17
ENDBRANCH  11  13
ENDBRANCH  10  11
ENDBRANCH   1  10
TORSDOF 0
ENDMDL
MODEL 5
REMARK VINA RESULT:    -3.451      1.869      3.053
REMARK INTER + INTRA:          -4.373
REMARK INTER:                  -4.929
REMARK INTRA:                   0.556
REMARK UNBOUND:                 0.490
REMARK SMILES CC1=CCC(=C(C)C)C(=O)CC(C)=CCC1
REMARK SMILES IDX 12 1 14 2 13 3 15 4 16 5 2 6 1 7 3 8 11 10 9 11 10 12 5 13
REMARK SMILES IDX 6 14 7 15 8 16 4 17
REMARK H PARENT
REMARK Flexibility Score: 60.00
ROOT
ATOM      1  C   UNL     1      -2.445  29.370  50.884  1.00  0.00    -0.070 C 
ATOM      2  C   UNL     1      -2.193  30.624  51.327  1.00  0.00    -0.027 C 
ATOM      3  C   UNL     1      -1.459  28.743  49.933  1.00  0.00     0.039 C 
ENDROOT
BRANCH   2   4
ATOM      4  C   UNL     1      -3.038  31.381  52.327  1.00  0.00     0.032 C 
BRANCH   4   5
ATOM      5  C   UNL     1      -2.291  31.595  53.652  1.00  0.00     0.034 C 
BRANCH   5   6
ATOM      6  C   UNL     1      -2.787  30.702  54.780  1.00  0.00    -0.077 C 
ATOM      7  C   UNL     1      -3.733  31.282  55.803  1.00  0.00     0.039 C 
ATOM      8  C   UNL     1      -2.438  29.402  54.910  1.00  0.00    -0.023 CG0
ATOM      9  G   UNL     1      -1.452  28.668  54.031  1.00  0.00     0.000 G0
ENDBRANCH   5   6
ENDBRANCH   4   5
ENDBRANCH   2   4
BRANCH   1  10
ATOM     10  C   UNL     1      -3.670  28.578  51.300  1.00  0.00     0.111 C 
BRANCH  10  11
ATOM     11  C   UNL     1      -3.430  27.849  52.593  1.00  0.00     0.163 C 
ATOM     12  O   UNL     1      -4.412  27.396  53.239  1.00  0.00    -0.294 OA
BRANCH  11  13
ATOM     13  C   UNL     1      -2.055  27.631  53.111  1.00  0.00    -0.002 C 
ATOM     14  C   UNL     1      -1.354  26.521  52.752  1.00  0.00    -0.069 C 
ATOM     15  C   UNL     1      -1.910  25.534  51.750  1.00  0.00     0.039 C 
ATOM     16  C   UNL     1       0.026  26.255  53.310  1.00  0.00     0.039 C 
BRANCH  13  17
ATOM     17  C   UNL     1      -1.441  28.665  54.048  1.00  0.00     0.066 CG0
ATOM     18  G   UNL     1      -2.456  29.388  54.904  1.00  0.00     0.000 G0
ENDBRANCH  13  17
ENDBRANCH  11  13
ENDBRANCH  10  11
ENDBRANCH   1  10
TORSDOF 0
ENDMDL
MODEL 6
REMARK VINA RESULT:    -3.402      2.328      4.368
REMARK INTER + INTRA:          -4.304
REMARK INTER:                  -4.988
REMARK INTRA:                   0.684
REMARK UNBOUND:                 0.490
REMARK SMILES CC1=CCC(=C(C)C)C(=O)CC(C)=CCC1
REMARK SMILES IDX 12 1 14 2 13 3 15 4 16 5 2 6 1 7 3 8 11 10 9 11 10 12 5 13
REMARK SMILES IDX 6 14 7 15 8 16 4 17
REMARK H PARENT
REMARK Flexibility Score: 60.00
ROOT
ATOM      1  C   UNL     1      -2.105  28.548  50.851  1.00  0.00    -0.070 C 
ATOM      2  C   UNL     1      -1.456  27.410  51.190  1.00  0.00    -0.027 C 
ATOM      3  C   UNL     1      -1.582  29.340  49.680  1.00  0.00     0.039 C 
ENDROOT
BRANCH   2   4
ATOM      4  C   UNL     1      -1.876  26.464  52.293  1.00  0.00     0.032 C 
BRANCH   4   5
ATOM      5  C   UNL     1      -0.706  26.136  53.233  1.00  0.00     0.034 C 
BRANCH   5   6
ATOM      6  C   UNL     1      -0.187  27.343  54.002  1.00  0.00    -0.077 C 
ATOM      7  C   UNL     1       1.303  27.568  54.082  1.00  0.00     0.039 C 
ATOM      8  C   UNL     1      -0.994  28.242  54.610  1.00  0.00    -0.023 CG0
ATOM      9  G   UNL     1      -2.500  28.148  54.699  1.00  0.00     0.000 G0
ENDBRANCH   5   6
ENDBRANCH   4   5
ENDBRANCH   2   4
BRANCH   1  10
ATOM     10  C   UNL     1      -3.324  29.057  51.596  1.00  0.00     0.111 C 
BRANCH  10  11
ATOM     11  C   UNL     1      -2.925  29.865  52.799  1.00  0.00     0.163 C 
ATOM     12  O   UNL     1      -2.347  30.973  52.636  1.00  0.00    -0.294 OA
BRANCH  11  13
ATOM     13  C   UNL     1      -3.220  29.394  54.177  1.00  0.00    -0.002 C 
ATOM     14  C   UNL     1      -4.123  30.057  54.950  1.00  0.00    -0.069 C 
ATOM     15  C   UNL     1      -4.914  31.224  54.403  1.00  0.00     0.039 C 
ATOM     16  C   UNL     1      -4.398  29.625  56.372  1.00  0.00     0.039 C 
BRANCH  13  17
ATOM     17  C   UNL     1      -2.499  28.162  54.711  1.00  0.00     0.066 CG0
ATOM     18  G   UNL     1      -0.993  28.248  54.615  1.00  0.00     0.000 G0
ENDBRANCH  13  17
ENDBRANCH  11  13
ENDBRANCH  10  11
ENDBRANCH   1  10
TORSDOF 0
ENDMDL
MODEL 7
REMARK VINA RESULT:    -3.355      1.673      2.669
REMARK INTER + INTRA:          -4.238
REMARK INTER:                  -4.757
REMARK INTRA:                   0.518
REMARK UNBOUND:                 0.490
REMARK SMILES CC1=CCC(=C(C)C)C(=O)CC(C)=CCC1
REMARK SMILES IDX 12 1 14 2 13 3 15 4 16 5 2 6 1 7 3 8 11 10 9 11 10 12 5 13
REMARK SMILES IDX 6 14 7 15 8 16 4 17
REMARK H PARENT
REMARK Flexibility Score: 60.00
ROOT
ATOM      1  C   UNL     1      -2.968  30.693  53.901  1.00  0.00    -0.070 C 
ATOM      2  C   UNL     1      -2.501  31.128  52.707  1.00  0.00    -0.027 C 
ATOM      3  C   UNL     1      -4.395  31.010  54.262  1.00  0.00     0.039 C 
ENDROOT
BRANCH   2   4
ATOM      4  C   UNL     1      -1.120  30.851  52.157  1.00  0.00     0.032 C 
BRANCH   4   5
ATOM      5  C   UNL     1      -1.177  29.956  50.910  1.00  0.00     0.034 C 
BRANCH   5   6
ATOM      6  C   UNL     1      -2.139  28.785  51.045  1.00  0.00    -0.077 C 
ATOM      7  C   UNL     1      -3.429  28.811  50.263  1.00  0.00     0.039 C 
ATOM      8  C   UNL     1      -1.893  27.704  51.820  1.00  0.00    -0.023 CG0
ATOM      9  G   UNL     1      -0.695  27.530  52.725  1.00  0.00     0.000 G0
ENDBRANCH   5   6
ENDBRANCH   4   5
ENDBRANCH   2   4
BRANCH   1  10
ATOM     10  C   UNL     1      -2.118  29.908  54.882  1.00  0.00     0.111 C 
BRANCH  10  11
ATOM     11  C   UNL     1      -2.234  28.429  54.636  1.00  0.00     0.163 C 
ATOM     12  O   UNL     1      -3.354  27.867  54.764  1.00  0.00    -0.294 OA
BRANCH  11  13
ATOM     13  C   UNL     1      -1.057  27.622  54.222  1.00  0.00    -0.002 C 
ATOM     14  C   UNL     1      -0.306  26.975  55.154  1.00  0.00    -0.069 C 
ATOM     15  C   UNL     1      -0.697  26.981  56.615  1.00  0.00     0.039 C 
ATOM     16  C   UNL     1       0.924  26.192  54.758  1.00  0.00     0.039 C 
BRANCH  13  17
ATOM     17  C   UNL     1      -0.705  27.528  52.741  1.00  0.00     0.066 CG0
ATOM     18  G   UNL     1      -1.890  27.711  51.821  1.00  0.00     0.000 G0
ENDBRANCH  13  17
ENDBRANCH  11  13
ENDBRANCH  10  11
ENDBRANCH   1  10
TORSDOF 0
ENDMDL
MODEL 8
REMARK VINA RESULT:    -3.320      2.110      4.004
REMARK INTER + INTRA:          -4.188
REMARK INTER:                  -4.945
REMARK INTRA:                   0.757
REMARK UNBOUND:                 0.490
REMARK SMILES CC1=CCC(=C(C)C)C(=O)CC(C)=CCC1
REMARK SMILES IDX 12 1 14 2 13 3 15 4 16 5 2 6 1 7 3 8 11 10 9 11 10 12 5 13
REMARK SMILES IDX 6 14 7 15 8 16 4 17
REMARK H PARENT
REMARK Flexibility Score: 60.00
ROOT
ATOM      1  C   UNL     1      -1.918  29.277  50.798  1.00  0.00    -0.070 C 
ATOM      2  C   UNL     1      -2.395  28.015  50.692  1.00  0.00    -0.027 C 
ATOM      3  C   UNL     1      -2.746  30.399  50.228  1.00  0.00     0.039 C 
ENDROOT
BRANCH   2   4
ATOM      4  C   UNL     1      -1.729  26.781  51.259  1.00  0.00     0.032 C 
BRANCH   4   5
ATOM      5  C   UNL     1      -2.505  26.219  52.459  1.00  0.00     0.034 C 
BRANCH   5   6
ATOM      6  C   UNL     1      -3.743  27.028  52.815  1.00  0.00    -0.077 C 
ATOM      7  C   UNL     1      -5.045  26.709  52.121  1.00  0.00     0.039 C 
ATOM      8  C   UNL     1      -3.748  28.015  53.739  1.00  0.00    -0.023 CG0
ATOM      9  G   UNL     1      -2.535  28.524  54.484  1.00  0.00     0.000 G0
ENDBRANCH   5   6
ENDBRANCH   4   5
ENDBRANCH   2   4
BRANCH   1  10
ATOM     10  C   UNL     1      -0.592  29.605  51.458  1.00  0.00     0.111 C 
BRANCH  10  11
ATOM     11  C   UNL     1      -0.614  29.255  52.920  1.00  0.00     0.163 C 
ATOM     12  O   UNL     1       0.369  28.651  53.426  1.00  0.00    -0.294 OA
BRANCH  11  13
ATOM     13  C   UNL     1      -1.763  29.628  53.785  1.00  0.00    -0.002 C 
ATOM     14  C   UNL     1      -2.116  30.935  53.930  1.00  0.00    -0.069 C 
ATOM     15  C   UNL     1      -1.419  32.026  53.149  1.00  0.00     0.039 C 
ATOM     16  C   UNL     1      -3.249  31.339  54.846  1.00  0.00     0.039 C 
BRANCH  13  17
ATOM     17  C   UNL     1      -2.538  28.531  54.506  1.00  0.00     0.066 CG0
ATOM     18  G   UNL     1      -3.728  28.017  53.729  1.00  0.00     0.000 G0
ENDBRANCH  13  17
ENDBRANCH  11  13
ENDBRANCH  10  11
ENDBRANCH   1  10
TORSDOF 0
ENDMDL
MODEL 9
REMARK VINA RESULT:    -3.310      1.899      3.533
REMARK INTER + INTRA:          -4.174
REMARK INTER:                  -4.891
REMARK INTRA:                   0.717
REMARK UNBOUND:                 0.490
REMARK SMILES CC1=CCC(=C(C)C)C(=O)CC(C)=CCC1
REMARK SMILES IDX 12 1 14 2 13 3 15 4 16 5 2 6 1 7 3 8 11 10 9 11 10 12 5 13
REMARK SMILES IDX 6 14 7 15 8 16 4 17
REMARK H PARENT
REMARK Flexibility Score: 60.00
ROOT
ATOM      1  C   UNL     1      -1.177  30.154  52.785  1.00  0.00    -0.070 C 
ATOM      2  C   UNL     1      -1.836  30.912  51.878  1.00  0.00    -0.027 C 
ATOM      3  C   UNL     1       0.218  29.695  52.447  1.00  0.00     0.039 C 
ENDROOT
BRANCH   2   4
ATOM      4  C   UNL     1      -3.212  31.507  52.074  1.00  0.00     0.032 C 
BRANCH   4   5
ATOM      5  C   UNL     1      -4.295  30.419  52.139  1.00  0.00     0.034 C 
BRANCH   5   6
ATOM      6  C   UNL     1      -4.138  29.341  51.077  1.00  0.00    -0.077 C 
ATOM      7  C   UNL     1      -4.309  29.720  49.626  1.00  0.00     0.039 C 
ATOM      8  C   UNL     1      -3.836  28.054  51.360  1.00  0.00    -0.023 CG0
ATOM      9  G   UNL     1      -3.697  27.472  52.749  1.00  0.00     0.000 G0
ENDBRANCH   5   6
ENDBRANCH   4   5
ENDBRANCH   2   4
BRANCH   1  10
ATOM     10  C   UNL     1      -1.782  29.747  54.116  1.00  0.00     0.111 C 
BRANCH  10  11
ATOM     11  C   UNL     1      -1.758  28.253  54.287  1.00  0.00     0.163 C 
ATOM     12  O   UNL     1      -1.333  27.761  55.366  1.00  0.00    -0.294 OA
BRANCH  11  13
ATOM     13  C   UNL     1      -2.247  27.346  53.216  1.00  0.00    -0.002 C 
ATOM     14  C   UNL     1      -1.416  26.417  52.672  1.00  0.00    -0.069 C 
ATOM     15  C   UNL     1      -0.012  26.217  53.198  1.00  0.00     0.039 C 
ATOM     16  C   UNL     1      -1.879  25.520  51.546  1.00  0.00     0.039 C 
BRANCH  13  17
ATOM     17  C   UNL     1      -3.690  27.470  52.740  1.00  0.00     0.066 CG0
ATOM     18  G   UNL     1      -3.823  28.054  51.352  1.00  0.00     0.000 G0
ENDBRANCH  13  17
ENDBRANCH  11  13
ENDBRANCH  10  11
ENDBRANCH   1  10
TORSDOF 0
ENDMDL
