MODEL 1
REMARK VINA RESULT:    -2.206      0.000      0.000
REMARK INTER + INTRA:         -10.946
REMARK INTER:                  -5.559
REMARK INTRA:                  -5.388
REMARK UNBOUND:                -5.388
REMARK SMILES CCCCCCCCCCCCCCCCCCCCCCCCCCCC(=O)[O-]
REMARK SMILES IDX 15 1 16 2 17 3 18 4 19 5 20 6 21 7 22 8 23 9 24 10 25 11
REMARK SMILES IDX 26 12 27 13 28 14 29 15 30 16 14 17 13 18 12 19 11 20 10 21
REMARK SMILES IDX 9 22 8 23 7 24 6 25 5 26 4 27 3 28 2 29 1 30
REMARK H PARENT
REMARK Flexibility Score: inf
ROOT
ATOM      1  C   UNL     1      -1.269  13.472 -11.146  1.00  0.00     0.000 C 
ENDROOT
BRANCH   1   2
ATOM      2  C   UNL     1      -0.421  12.196 -11.283  1.00  0.00     0.000 C 
BRANCH   2   3
ATOM      3  C   UNL     1       0.764  12.370 -12.251  1.00  0.00     0.000 C 
BRANCH   3   4
ATOM      4  C   UNL     1       1.194  13.831 -12.494  1.00  0.00     0.000 C 
BRANCH   4   5
ATOM      5  C   UNL     1       2.471  14.268 -11.755  1.00  0.00     0.000 C 
BRANCH   5   6
ATOM      6  C   UNL     1       2.219  15.398 -10.745  1.00  0.00     0.000 C 
BRANCH   6   7
ATOM      7  C   UNL     1       1.674  14.843  -9.423  1.00  0.00     0.000 C 
BRANCH   7   8
ATOM      8  C   UNL     1       2.376  13.530  -9.050  1.00  0.00     0.000 C 
BRANCH   8   9
ATOM      9  C   UNL     1       1.478  12.587  -8.228  1.00  0.00     0.000 C 
BRANCH   9  10
ATOM     10  C   UNL     1       0.165  13.215  -7.717  1.00  0.00     0.000 C 
BRANCH  10  11
ATOM     11  C   UNL     1      -0.063  13.105  -6.199  1.00  0.00     0.000 C 
BRANCH  11  12
ATOM     12  C   UNL     1       0.662  14.205  -5.405  1.00  0.00     0.006 C 
BRANCH  12  13
ATOM     13  C   UNL     1       2.090  13.797  -5.023  1.00  0.00     0.053 C 
BRANCH  13  14
ATOM     14  C   UNL     1       2.108  12.584  -4.143  1.00  0.00     0.041 C 
ATOM     15  O   UNL     1       1.660  12.648  -2.967  1.00  0.00    -0.550 OA
ATOM     16  O   UNL     1       2.601  11.378  -4.627  1.00  0.00    -0.550 OA
ENDBRANCH  13  14
ENDBRANCH  12  13
ENDBRANCH  11  12
ENDBRANCH  10  11
ENDBRANCH   9  10
ENDBRANCH   8   9
ENDBRANCH   7   8
ENDBRANCH   6   7
ENDBRANCH   5   6
ENDBRANCH   4   5
ENDBRANCH   3   4
ENDBRANCH   2   3
ENDBRANCH   1   2
BRANCH   1  17
ATOM     17  C   UNL     1      -2.761  13.163 -10.945  1.00  0.00     0.000 C 
BRANCH  17  18
ATOM     18  C   UNL     1      -3.604  13.507 -12.184  1.00  0.00     0.000 C 
BRANCH  18  19
ATOM     19  C   UNL     1      -2.774  14.140 -13.315  1.00  0.00     0.000 C 
BRANCH  19  20
ATOM     20  C   UNL     1      -2.829  13.346 -14.636  1.00  0.00     0.000 C 
BRANCH  20  21
ATOM     21  C   UNL     1      -2.382  11.886 -14.455  1.00  0.00     0.000 C 
BRANCH  21  22
ATOM     22  C   UNL     1      -3.509  10.884 -14.752  1.00  0.00    -0.000 C 
BRANCH  22  23
ATOM     23  C   UNL     1      -3.947  10.104 -13.498  1.00  0.00    -0.000 C 
BRANCH  23  24
ATOM     24  C   UNL     1      -2.764   9.693 -12.604  1.00  0.00    -0.000 C 
BRANCH  24  25
ATOM     25  C   UNL     1      -3.138   8.894 -11.338  1.00  0.00    -0.000 C 
BRANCH  25  26
ATOM     26  C   UNL     1      -3.905   9.692 -10.266  1.00  0.00    -0.000 C 
BRANCH  26  27
ATOM     27  C   UNL     1      -3.307   9.556  -8.846  1.00  0.00    -0.000 C 
BRANCH  27  28
ATOM     28  C   UNL     1      -2.052  10.416  -8.626  1.00  0.00    -0.000 C 
BRANCH  28  29
ATOM     29  C   UNL     1      -0.769   9.578  -8.537  1.00  0.00    -0.003 C 
ATOM     30  C   UNL     1      -1.088   8.108  -8.287  1.00  0.00     0.004 C 
ENDBRANCH  28  29
ENDBRANCH  27  28
ENDBRANCH  26  27
ENDBRANCH  25  26
ENDBRANCH  24  25
ENDBRANCH  23  24
ENDBRANCH  22  23
ENDBRANCH  21  22
ENDBRANCH  20  21
ENDBRANCH  19  20
ENDBRANCH  18  19
ENDBRANCH  17  18
ENDBRANCH   1  17
TORSDOF 26
ENDMDL
MODEL 2
REMARK VINA RESULT:    -2.157      2.647      5.309
REMARK INTER + INTRA:         -10.824
REMARK INTER:                  -5.113
REMARK INTRA:                  -5.711
REMARK UNBOUND:                -5.388
REMARK SMILES CCCCCCCCCCCCCCCCCCCCCCCCCCCC(=O)[O-]
REMARK SMILES IDX 15 1 16 2 17 3 18 4 19 5 20 6 21 7 22 8 23 9 24 10 25 11
REMARK SMILES IDX 26 12 27 13 28 14 29 15 30 16 14 17 13 18 12 19 11 20 10 21
REMARK SMILES IDX 9 22 8 23 7 24 6 25 5 26 4 27 3 28 2 29 1 30
REMARK H PARENT
REMARK Flexibility Score: inf
ROOT
ATOM      1  C   UNL     1      -3.801   9.146  -8.938  1.00  0.00     0.000 C 
ENDROOT
BRANCH   1   2
ATOM      2  C   UNL     1      -4.622   9.551 -10.175  1.00  0.00     0.000 C 
BRANCH   2   3
ATOM      3  C   UNL     1      -3.927   9.179 -11.498  1.00  0.00     0.000 C 
BRANCH   3   4
ATOM      4  C   UNL     1      -3.426  10.379 -12.327  1.00  0.00     0.000 C 
BRANCH   4   5
ATOM      5  C   UNL     1      -1.906  10.414 -12.573  1.00  0.00     0.000 C 
BRANCH   5   6
ATOM      6  C   UNL     1      -1.270  11.757 -12.187  1.00  0.00     0.000 C 
BRANCH   6   7
ATOM      7  C   UNL     1      -2.264  12.637 -11.420  1.00  0.00     0.000 C 
BRANCH   7   8
ATOM      8  C   UNL     1      -1.596  13.280 -10.196  1.00  0.00     0.000 C 
BRANCH   8   9
ATOM      9  C   UNL     1      -0.176  12.744  -9.942  1.00  0.00     0.000 C 
BRANCH   9  10
ATOM     10  C   UNL     1       0.497  13.257  -8.652  1.00  0.00     0.000 C 
BRANCH  10  11
ATOM     11  C   UNL     1       0.653  12.209  -7.536  1.00  0.00     0.000 C 
BRANCH  11  12
ATOM     12  C   UNL     1       2.123  11.847  -7.259  1.00  0.00     0.006 C 
BRANCH  12  13
ATOM     13  C   UNL     1       2.512  10.496  -7.872  1.00  0.00     0.053 C 
BRANCH  13  14
ATOM     14  C   UNL     1       2.531   9.403  -6.847  1.00  0.00     0.041 C 
ATOM     15  O   UNL     1       2.104   8.254  -7.139  1.00  0.00    -0.550 OA
ATOM     16  O   UNL     1       3.036   9.647  -5.575  1.00  0.00    -0.550 OA
ENDBRANCH  13  14
ENDBRANCH  12  13
ENDBRANCH  11  12
ENDBRANCH  10  11
ENDBRANCH   9  10
ENDBRANCH   8   9
ENDBRANCH   7   8
ENDBRANCH   6   7
ENDBRANCH   5   6
ENDBRANCH   4   5
ENDBRANCH   3   4
ENDBRANCH   2   3
ENDBRANCH   1   2
BRANCH   1  17
ATOM     17  C   UNL     1      -2.598  10.073  -8.705  1.00  0.00     0.000 C 
BRANCH  17  18
ATOM     18  C   UNL     1      -1.319   9.298  -8.349  1.00  0.00     0.000 C 
BRANCH  18  19
ATOM     19  C   UNL     1      -0.413   9.047  -9.568  1.00  0.00     0.000 C 
BRANCH  19  20
ATOM     20  C   UNL     1      -0.146   7.552  -9.837  1.00  0.00     0.000 C 
BRANCH  20  21
ATOM     21  C   UNL     1      -1.061   6.988 -10.938  1.00  0.00     0.000 C 
BRANCH  21  22
ATOM     22  C   UNL     1      -2.173   6.089 -10.376  1.00  0.00    -0.000 C 
BRANCH  22  23
ATOM     23  C   UNL     1      -1.892   5.640  -8.929  1.00  0.00    -0.000 C 
BRANCH  23  24
ATOM     24  C   UNL     1      -3.142   5.687  -8.034  1.00  0.00    -0.000 C 
BRANCH  24  25
ATOM     25  C   UNL     1      -4.490   5.549  -8.772  1.00  0.00    -0.000 C 
BRANCH  25  26
ATOM     26  C   UNL     1      -5.736   5.561  -7.865  1.00  0.00    -0.000 C 
BRANCH  26  27
ATOM     27  C   UNL     1      -5.774   6.752  -6.879  1.00  0.00    -0.000 C 
BRANCH  27  28
ATOM     28  C   UNL     1      -6.835   7.805  -7.234  1.00  0.00    -0.000 C 
BRANCH  28  29
ATOM     29  C   UNL     1      -7.491   7.550  -8.598  1.00  0.00    -0.003 C 
ATOM     30  C   UNL     1      -8.135   8.820  -9.145  1.00  0.00     0.004 C 
ENDBRANCH  28  29
ENDBRANCH  27  28
ENDBRANCH  26  27
ENDBRANCH  25  26
ENDBRANCH  24  25
ENDBRANCH  23  24
ENDBRANCH  22  23
ENDBRANCH  21  22
ENDBRANCH  20  21
ENDBRANCH  19  20
ENDBRANCH  18  19
ENDBRANCH  17  18
ENDBRANCH   1  17
TORSDOF 26
ENDMDL
MODEL 3
REMARK VINA RESULT:    -2.143      2.285      6.633
REMARK INTER + INTRA:         -10.788
REMARK INTER:                  -5.686
REMARK INTRA:                  -5.102
REMARK UNBOUND:                -5.388
REMARK SMILES CCCCCCCCCCCCCCCCCCCCCCCCCCCC(=O)[O-]
REMARK SMILES IDX 15 1 16 2 17 3 18 4 19 5 20 6 21 7 22 8 23 9 24 10 25 11
REMARK SMILES IDX 26 12 27 13 28 14 29 15 30 16 14 17 13 18 12 19 11 20 10 21
REMARK SMILES IDX 9 22 8 23 7 24 6 25 5 26 4 27 3 28 2 29 1 30
REMARK H PARENT
REMARK Flexibility Score: inf
ROOT
ATOM      1  C   UNL     1      -0.443  10.895  -8.702  1.00  0.00     0.000 C 
ENDROOT
BRANCH   1   2
ATOM      2  C   UNL     1      -1.163  12.245  -8.535  1.00  0.00     0.000 C 
BRANCH   2   3
ATOM      3  C   UNL     1      -0.593  13.341  -9.453  1.00  0.00     0.000 C 
BRANCH   3   4
ATOM      4  C   UNL     1      -1.154  13.342 -10.889  1.00  0.00     0.000 C 
BRANCH   4   5
ATOM      5  C   UNL     1      -2.686  13.228 -10.992  1.00  0.00     0.000 C 
BRANCH   5   6
ATOM      6  C   UNL     1      -3.141  11.961 -11.731  1.00  0.00     0.000 C 
BRANCH   6   7
ATOM      7  C   UNL     1      -1.938  11.142 -12.213  1.00  0.00     0.000 C 
BRANCH   7   8
ATOM      8  C   UNL     1      -1.950   9.736 -11.596  1.00  0.00     0.000 C 
BRANCH   8   9
ATOM      9  C   UNL     1      -3.282   9.400 -10.903  1.00  0.00     0.000 C 
BRANCH   9  10
ATOM     10  C   UNL     1      -3.295   8.073 -10.116  1.00  0.00     0.000 C 
BRANCH  10  11
ATOM     11  C   UNL     1      -1.909   7.552  -9.695  1.00  0.00     0.000 C 
BRANCH  11  12
ATOM     12  C   UNL     1      -1.719   7.532  -8.168  1.00  0.00     0.006 C 
BRANCH  12  13
ATOM     13  C   UNL     1      -0.258   7.282  -7.771  1.00  0.00     0.053 C 
BRANCH  13  14
ATOM     14  C   UNL     1      -0.146   6.304  -6.641  1.00  0.00     0.041 C 
ATOM     15  O   UNL     1      -0.634   5.148  -6.753  1.00  0.00    -0.550 OA
ATOM     16  O   UNL     1       0.513   6.662  -5.471  1.00  0.00    -0.550 OA
ENDBRANCH  13  14
ENDBRANCH  12  13
ENDBRANCH  11  12
ENDBRANCH  10  11
ENDBRANCH   9  10
ENDBRANCH   8   9
ENDBRANCH   7   8
ENDBRANCH   6   7
ENDBRANCH   5   6
ENDBRANCH   4   5
ENDBRANCH   3   4
ENDBRANCH   2   3
ENDBRANCH   1   2
BRANCH   1  17
ATOM     17  C   UNL     1       0.942  10.884  -8.036  1.00  0.00     0.000 C 
BRANCH  17  18
ATOM     18  C   UNL     1       2.075  10.627  -9.043  1.00  0.00     0.000 C 
BRANCH  18  19
ATOM     19  C   UNL     1       1.563  10.416 -10.479  1.00  0.00     0.000 C 
BRANCH  19  20
ATOM     20  C   UNL     1       2.019  11.515 -11.460  1.00  0.00     0.000 C 
BRANCH  20  21
ATOM     21  C   UNL     1       2.867  12.597 -10.768  1.00  0.00     0.000 C 
BRANCH  21  22
ATOM     22  C   UNL     1       2.554  14.009 -11.285  1.00  0.00    -0.000 C 
BRANCH  22  23
ATOM     23  C   UNL     1       3.184  15.109 -10.410  1.00  0.00    -0.000 C 
BRANCH  23  24
ATOM     24  C   UNL     1       2.254  15.581  -9.278  1.00  0.00    -0.000 C 
BRANCH  24  25
ATOM     25  C   UNL     1       2.771  15.323  -7.847  1.00  0.00    -0.000 C 
BRANCH  25  26
ATOM     26  C   UNL     1       2.097  14.148  -7.111  1.00  0.00    -0.000 C 
BRANCH  26  27
ATOM     27  C   UNL     1       1.188  14.589  -5.941  1.00  0.00    -0.000 C 
BRANCH  27  28
ATOM     28  C   UNL     1       0.275  13.468  -5.419  1.00  0.00    -0.000 C 
BRANCH  28  29
ATOM     29  C   UNL     1       0.463  13.200  -3.920  1.00  0.00    -0.003 C 
ATOM     30  C   UNL     1      -0.793  13.562  -3.134  1.00  0.00     0.004 C 
ENDBRANCH  28  29
ENDBRANCH  27  28
ENDBRANCH  26  27
ENDBRANCH  25  26
ENDBRANCH  24  25
ENDBRANCH  23  24
ENDBRANCH  22  23
ENDBRANCH  21  22
ENDBRANCH  20  21
ENDBRANCH  19  20
ENDBRANCH  18  19
ENDBRANCH  17  18
ENDBRANCH   1  17
TORSDOF 26
ENDMDL
MODEL 4
REMARK VINA RESULT:    -2.141      2.928      5.571
REMARK INTER + INTRA:         -10.784
REMARK INTER:                  -5.217
REMARK INTRA:                  -5.567
REMARK UNBOUND:                -5.388
REMARK SMILES CCCCCCCCCCCCCCCCCCCCCCCCCCCC(=O)[O-]
REMARK SMILES IDX 15 1 16 2 17 3 18 4 19 5 20 6 21 7 22 8 23 9 24 10 25 11
REMARK SMILES IDX 26 12 27 13 28 14 29 15 30 16 14 17 13 18 12 19 11 20 10 21
REMARK SMILES IDX 9 22 8 23 7 24 6 25 5 26 4 27 3 28 2 29 1 30
REMARK H PARENT
REMARK Flexibility Score: inf
ROOT
ATOM      1  C   UNL     1      -2.003  10.532  -8.382  1.00  0.00     0.000 C 
ENDROOT
BRANCH   1   2
ATOM      2  C   UNL     1      -0.571  10.008  -8.591  1.00  0.00     0.000 C 
BRANCH   2   3
ATOM      3  C   UNL     1      -0.271   9.669 -10.063  1.00  0.00     0.000 C 
BRANCH   3   4
ATOM      4  C   UNL     1       1.035  10.275 -10.615  1.00  0.00     0.000 C 
BRANCH   4   5
ATOM      5  C   UNL     1       0.991  10.677 -12.101  1.00  0.00     0.000 C 
BRANCH   5   6
ATOM      6  C   UNL     1      -0.344  10.327 -12.775  1.00  0.00     0.000 C 
BRANCH   6   7
ATOM      7  C   UNL     1      -1.095  11.595 -13.199  1.00  0.00     0.000 C 
BRANCH   7   8
ATOM      8  C   UNL     1      -2.458  11.684 -12.498  1.00  0.00     0.000 C 
BRANCH   8   9
ATOM      9  C   UNL     1      -2.555  12.879 -11.533  1.00  0.00     0.000 C 
BRANCH   9  10
ATOM     10  C   UNL     1      -1.231  13.633 -11.290  1.00  0.00     0.000 C 
BRANCH  10  11
ATOM     11  C   UNL     1      -0.693  13.559  -9.850  1.00  0.00     0.000 C 
BRANCH  11  12
ATOM     12  C   UNL     1       0.829  13.764  -9.770  1.00  0.00     0.006 C 
BRANCH  12  13
ATOM     13  C   UNL     1       1.376  14.519 -10.988  1.00  0.00     0.053 C 
BRANCH  13  14
ATOM     14  C   UNL     1       1.903  15.872 -10.616  1.00  0.00     0.041 C 
ATOM     15  O   UNL     1       2.126  16.154  -9.409  1.00  0.00    -0.550 OA
ATOM     16  O   UNL     1       2.165  16.814 -11.604  1.00  0.00    -0.550 OA
ENDBRANCH  13  14
ENDBRANCH  12  13
ENDBRANCH  11  12
ENDBRANCH  10  11
ENDBRANCH   9  10
ENDBRANCH   8   9
ENDBRANCH   7   8
ENDBRANCH   6   7
ENDBRANCH   5   6
ENDBRANCH   4   5
ENDBRANCH   3   4
ENDBRANCH   2   3
ENDBRANCH   1   2
BRANCH   1  17
ATOM     17  C   UNL     1      -2.986   9.977  -9.425  1.00  0.00     0.000 C 
BRANCH  17  18
ATOM     18  C   UNL     1      -4.104   9.135  -8.789  1.00  0.00     0.000 C 
BRANCH  18  19
ATOM     19  C   UNL     1      -4.557   7.968  -9.684  1.00  0.00     0.000 C 
BRANCH  19  20
ATOM     20  C   UNL     1      -3.807   7.901 -11.031  1.00  0.00     0.000 C 
BRANCH  20  21
ATOM     21  C   UNL     1      -3.028   6.585 -11.197  1.00  0.00     0.000 C 
BRANCH  21  22
ATOM     22  C   UNL     1      -1.732   6.560 -10.371  1.00  0.00    -0.000 C 
BRANCH  22  23
ATOM     23  C   UNL     1      -1.421   5.161  -9.807  1.00  0.00    -0.000 C 
BRANCH  23  24
ATOM     24  C   UNL     1      -1.697   5.048  -8.297  1.00  0.00    -0.000 C 
BRANCH  24  25
ATOM     25  C   UNL     1      -1.973   6.383  -7.574  1.00  0.00    -0.000 C 
BRANCH  25  26
ATOM     26  C   UNL     1      -0.799   6.928  -6.738  1.00  0.00    -0.000 C 
BRANCH  26  27
ATOM     27  C   UNL     1       0.506   6.114  -6.898  1.00  0.00    -0.000 C 
BRANCH  27  28
ATOM     28  C   UNL     1       1.576   6.833  -7.735  1.00  0.00    -0.000 C 
BRANCH  28  29
ATOM     29  C   UNL     1       2.179   8.045  -7.012  1.00  0.00    -0.003 C 
ATOM     30  C   UNL     1       3.081   7.607  -5.863  1.00  0.00     0.004 C 
ENDBRANCH  28  29
ENDBRANCH  27  28
ENDBRANCH  26  27
ENDBRANCH  25  26
ENDBRANCH  24  25
ENDBRANCH  23  24
ENDBRANCH  22  23
ENDBRANCH  21  22
ENDBRANCH  20  21
ENDBRANCH  19  20
ENDBRANCH  18  19
ENDBRANCH  17  18
ENDBRANCH   1  17
TORSDOF 26
ENDMDL
MODEL 5
REMARK VINA RESULT:    -2.125      2.099      4.469
REMARK INTER + INTRA:         -10.743
REMARK INTER:                  -5.376
REMARK INTRA:                  -5.367
REMARK UNBOUND:                -5.388
REMARK SMILES CCCCCCCCCCCCCCCCCCCCCCCCCCCC(=O)[O-]
REMARK SMILES IDX 15 1 16 2 17 3 18 4 19 5 20 6 21 7 22 8 23 9 24 10 25 11
REMARK SMILES IDX 26 12 27 13 28 14 29 15 30 16 14 17 13 18 12 19 11 20 10 21
REMARK SMILES IDX 9 22 8 23 7 24 6 25 5 26 4 27 3 28 2 29 1 30
REMARK H PARENT
REMARK Flexibility Score: inf
ROOT
ATOM      1  C   UNL     1      -4.126  13.770 -13.556  1.00  0.00     0.000 C 
ENDROOT
BRANCH   1   2
ATOM      2  C   UNL     1      -3.723  13.677 -12.073  1.00  0.00     0.000 C 
BRANCH   2   3
ATOM      3  C   UNL     1      -2.210  13.473 -11.880  1.00  0.00     0.000 C 
BRANCH   3   4
ATOM      4  C   UNL     1      -1.784  13.090 -10.448  1.00  0.00     0.000 C 
BRANCH   4   5
ATOM      5  C   UNL     1      -2.206  11.680  -9.996  1.00  0.00     0.000 C 
BRANCH   5   6
ATOM      6  C   UNL     1      -1.614  11.287  -8.635  1.00  0.00     0.000 C 
BRANCH   6   7
ATOM      7  C   UNL     1      -1.011   9.878  -8.681  1.00  0.00     0.000 C 
BRANCH   7   8
ATOM      8  C   UNL     1      -0.912   9.372 -10.127  1.00  0.00     0.000 C 
BRANCH   8   9
ATOM      9  C   UNL     1       0.534   9.355 -10.655  1.00  0.00     0.000 C 
BRANCH   9  10
ATOM     10  C   UNL     1       0.814  10.318 -11.828  1.00  0.00     0.000 C 
BRANCH  10  11
ATOM     11  C   UNL     1       1.534  11.622 -11.443  1.00  0.00     0.000 C 
BRANCH  11  12
ATOM     12  C   UNL     1       2.070  11.606 -10.001  1.00  0.00     0.006 C 
BRANCH  12  13
ATOM     13  C   UNL     1       1.726  12.893  -9.241  1.00  0.00     0.053 C 
BRANCH  13  14
ATOM     14  C   UNL     1       1.722  12.681  -7.758  1.00  0.00     0.041 C 
ATOM     15  O   UNL     1       1.592  13.662  -6.979  1.00  0.00    -0.550 OA
ATOM     16  O   UNL     1       1.843  11.399  -7.236  1.00  0.00    -0.550 OA
ENDBRANCH  13  14
ENDBRANCH  12  13
ENDBRANCH  11  12
ENDBRANCH  10  11
ENDBRANCH   9  10
ENDBRANCH   8   9
ENDBRANCH   7   8
ENDBRANCH   6   7
ENDBRANCH   5   6
ENDBRANCH   4   5
ENDBRANCH   3   4
ENDBRANCH   2   3
ENDBRANCH   1   2
BRANCH   1  17
ATOM     17  C   UNL     1      -5.110  12.662 -13.965  1.00  0.00     0.000 C 
BRANCH  17  18
ATOM     18  C   UNL     1      -5.880  12.088 -12.764  1.00  0.00     0.000 C 
BRANCH  18  19
ATOM     19  C   UNL     1      -5.828  10.551 -12.700  1.00  0.00     0.000 C 
BRANCH  19  20
ATOM     20  C   UNL     1      -4.409   9.994 -12.463  1.00  0.00     0.000 C 
BRANCH  20  21
ATOM     21  C   UNL     1      -4.374   8.957 -11.327  1.00  0.00     0.000 C 
BRANCH  21  22
ATOM     22  C   UNL     1      -5.200   9.393 -10.107  1.00  0.00    -0.000 C 
BRANCH  22  23
ATOM     23  C   UNL     1      -4.623   8.855  -8.784  1.00  0.00    -0.000 C 
BRANCH  23  24
ATOM     24  C   UNL     1      -4.483   7.322  -8.771  1.00  0.00    -0.000 C 
BRANCH  24  25
ATOM     25  C   UNL     1      -3.261   6.776  -8.003  1.00  0.00    -0.000 C 
BRANCH  25  26
ATOM     26  C   UNL     1      -2.180   6.116  -8.881  1.00  0.00    -0.000 C 
BRANCH  26  27
ATOM     27  C   UNL     1      -0.771   6.130  -8.245  1.00  0.00    -0.000 C 
BRANCH  27  28
ATOM     28  C   UNL     1      -0.772   6.542  -6.764  1.00  0.00    -0.000 C 
BRANCH  28  29
ATOM     29  C   UNL     1       0.642   6.654  -6.179  1.00  0.00    -0.003 C 
ATOM     30  C   UNL     1       1.520   7.565  -7.032  1.00  0.00     0.004 C 
ENDBRANCH  28  29
ENDBRANCH  27  28
ENDBRANCH  26  27
ENDBRANCH  25  26
ENDBRANCH  24  25
ENDBRANCH  23  24
ENDBRANCH  22  23
ENDBRANCH  21  22
ENDBRANCH  20  21
ENDBRANCH  19  20
ENDBRANCH  18  19
ENDBRANCH  17  18
ENDBRANCH   1  17
TORSDOF 26
ENDMDL
MODEL 6
REMARK VINA RESULT:    -2.084      2.364      5.233
REMARK INTER + INTRA:         -10.638
REMARK INTER:                  -5.649
REMARK INTRA:                  -4.989
REMARK UNBOUND:                -5.388
REMARK SMILES CCCCCCCCCCCCCCCCCCCCCCCCCCCC(=O)[O-]
REMARK SMILES IDX 15 1 16 2 17 3 18 4 19 5 20 6 21 7 22 8 23 9 24 10 25 11
REMARK SMILES IDX 26 12 27 13 28 14 29 15 30 16 14 17 13 18 12 19 11 20 10 21
REMARK SMILES IDX 9 22 8 23 7 24 6 25 5 26 4 27 3 28 2 29 1 30
REMARK H PARENT
REMARK Flexibility Score: inf
ROOT
ATOM      1  C   UNL     1       2.395   7.373  -8.408  1.00  0.00     0.000 C 
ENDROOT
BRANCH   1   2
ATOM      2  C   UNL     1       2.213   8.342  -7.226  1.00  0.00     0.000 C 
BRANCH   2   3
ATOM      3  C   UNL     1       3.404   9.304  -7.058  1.00  0.00     0.000 C 
BRANCH   3   4
ATOM      4  C   UNL     1       3.391  10.131  -5.756  1.00  0.00     0.000 C 
BRANCH   4   5
ATOM      5  C   UNL     1       3.333  11.657  -5.952  1.00  0.00     0.000 C 
BRANCH   5   6
ATOM      6  C   UNL     1       2.366  12.346  -4.977  1.00  0.00     0.000 C 
BRANCH   6   7
ATOM      7  C   UNL     1       2.297  13.854  -5.244  1.00  0.00     0.000 C 
BRANCH   7   8
ATOM      8  C   UNL     1       0.840  14.337  -5.289  1.00  0.00     0.000 C 
BRANCH   8   9
ATOM      9  C   UNL     1      -0.163  13.241  -4.890  1.00  0.00     0.000 C 
BRANCH   9  10
ATOM     10  C   UNL     1      -0.832  13.436  -3.513  1.00  0.00     0.000 C 
BRANCH  10  11
ATOM     11  C   UNL     1      -0.399  14.701  -2.752  1.00  0.00     0.000 C 
BRANCH  11  12
ATOM     12  C   UNL     1       0.346  14.385  -1.444  1.00  0.00     0.006 C 
BRANCH  12  13
ATOM     13  C   UNL     1       1.308  13.200  -1.597  1.00  0.00     0.053 C 
BRANCH  13  14
ATOM     14  C   UNL     1       1.047  12.133  -0.577  1.00  0.00     0.041 C 
ATOM     15  O   UNL     1       0.546  12.433   0.538  1.00  0.00    -0.550 OA
ATOM     16  O   UNL     1       1.341  10.806  -0.866  1.00  0.00    -0.550 OA
ENDBRANCH  13  14
ENDBRANCH  12  13
ENDBRANCH  11  12
ENDBRANCH  10  11
ENDBRANCH   9  10
ENDBRANCH   8   9
ENDBRANCH   7   8
ENDBRANCH   6   7
ENDBRANCH   5   6
ENDBRANCH   4   5
ENDBRANCH   3   4
ENDBRANCH   2   3
ENDBRANCH   1   2
BRANCH   1  17
ATOM     17  C   UNL     1       1.219   7.431  -9.397  1.00  0.00     0.000 C 
BRANCH  17  18
ATOM     18  C   UNL     1      -0.033   8.078  -8.783  1.00  0.00     0.000 C 
BRANCH  18  19
ATOM     19  C   UNL     1      -1.258   8.011  -9.713  1.00  0.00     0.000 C 
BRANCH  19  20
ATOM     20  C   UNL     1      -1.560   9.344 -10.427  1.00  0.00     0.000 C 
BRANCH  20  21
ATOM     21  C   UNL     1      -2.969   9.871 -10.103  1.00  0.00     0.000 C 
BRANCH  21  22
ATOM     22  C   UNL     1      -3.388  11.031 -11.019  1.00  0.00    -0.000 C 
BRANCH  22  23
ATOM     23  C   UNL     1      -2.195  11.905 -11.445  1.00  0.00    -0.000 C 
BRANCH  23  24
ATOM     24  C   UNL     1      -2.082  13.204 -10.628  1.00  0.00    -0.000 C 
BRANCH  24  25
ATOM     25  C   UNL     1      -0.830  13.315  -9.732  1.00  0.00    -0.000 C 
BRANCH  25  26
ATOM     26  C   UNL     1      -0.862  12.451  -8.457  1.00  0.00    -0.000 C 
BRANCH  26  27
ATOM     27  C   UNL     1       0.443  11.657  -8.213  1.00  0.00    -0.000 C 
BRANCH  27  28
ATOM     28  C   UNL     1       1.594  12.072  -9.143  1.00  0.00    -0.000 C 
BRANCH  28  29
ATOM     29  C   UNL     1       2.071  10.926 -10.045  1.00  0.00    -0.003 C 
ATOM     30  C   UNL     1       1.525  11.077 -11.461  1.00  0.00     0.004 C 
ENDBRANCH  28  29
ENDBRANCH  27  28
ENDBRANCH  26  27
ENDBRANCH  25  26
ENDBRANCH  24  25
ENDBRANCH  23  24
ENDBRANCH  22  23
ENDBRANCH  21  22
ENDBRANCH  20  21
ENDBRANCH  19  20
ENDBRANCH  18  19
ENDBRANCH  17  18
ENDBRANCH   1  17
TORSDOF 26
ENDMDL
MODEL 7
REMARK VINA RESULT:    -2.082      2.274      6.259
REMARK INTER + INTRA:         -10.633
REMARK INTER:                  -5.393
REMARK INTRA:                  -5.240
REMARK UNBOUND:                -5.388
REMARK SMILES CCCCCCCCCCCCCCCCCCCCCCCCCCCC(=O)[O-]
REMARK SMILES IDX 15 1 16 2 17 3 18 4 19 5 20 6 21 7 22 8 23 9 24 10 25 11
REMARK SMILES IDX 26 12 27 13 28 14 29 15 30 16 14 17 13 18 12 19 11 20 10 21
REMARK SMILES IDX 9 22 8 23 7 24 6 25 5 26 4 27 3 28 2 29 1 30
REMARK H PARENT
REMARK Flexibility Score: inf
ROOT
ATOM      1  C   UNL     1      -1.214  11.451 -13.698  1.00  0.00     0.000 C 
ENDROOT
BRANCH   1   2
ATOM      2  C   UNL     1      -1.038   9.940 -13.467  1.00  0.00     0.000 C 
BRANCH   2   3
ATOM      3  C   UNL     1      -2.170   9.333 -12.618  1.00  0.00     0.000 C 
BRANCH   3   4
ATOM      4  C   UNL     1      -3.390  10.253 -12.409  1.00  0.00     0.000 C 
BRANCH   4   5
ATOM      5  C   UNL     1      -4.286   9.887 -11.212  1.00  0.00     0.000 C 
BRANCH   5   6
ATOM      6  C   UNL     1      -4.933   8.501 -11.353  1.00  0.00     0.000 C 
BRANCH   6   7
ATOM      7  C   UNL     1      -5.084   7.822  -9.987  1.00  0.00     0.000 C 
BRANCH   7   8
ATOM      8  C   UNL     1      -3.953   8.244  -9.038  1.00  0.00     0.000 C 
BRANCH   8   9
ATOM      9  C   UNL     1      -2.932   7.119  -8.789  1.00  0.00     0.000 C 
BRANCH   9  10
ATOM     10  C   UNL     1      -1.794   7.026  -9.826  1.00  0.00     0.000 C 
BRANCH  10  11
ATOM     11  C   UNL     1      -1.025   5.693  -9.833  1.00  0.00     0.000 C 
BRANCH  11  12
ATOM     12  C   UNL     1      -0.445   5.331  -8.455  1.00  0.00     0.006 C 
BRANCH  12  13
ATOM     13  C   UNL     1       0.516   6.406  -7.931  1.00  0.00     0.053 C 
BRANCH  13  14
ATOM     14  C   UNL     1       0.295   6.691  -6.477  1.00  0.00     0.041 C 
ATOM     15  O   UNL     1      -0.873   6.836  -6.030  1.00  0.00    -0.550 OA
ATOM     16  O   UNL     1       1.380   6.777  -5.611  1.00  0.00    -0.550 OA
ENDBRANCH  13  14
ENDBRANCH  12  13
ENDBRANCH  11  12
ENDBRANCH  10  11
ENDBRANCH   9  10
ENDBRANCH   8   9
ENDBRANCH   7   8
ENDBRANCH   6   7
ENDBRANCH   5   6
ENDBRANCH   4   5
ENDBRANCH   3   4
ENDBRANCH   2   3
ENDBRANCH   1   2
BRANCH   1  17
ATOM     17  C   UNL     1       0.007  12.260 -13.232  1.00  0.00     0.000 C 
BRANCH  17  18
ATOM     18  C   UNL     1      -0.386  13.490 -12.397  1.00  0.00     0.000 C 
BRANCH  18  19
ATOM     19  C   UNL     1      -1.908  13.621 -12.208  1.00  0.00     0.000 C 
BRANCH  19  20
ATOM     20  C   UNL     1      -2.379  13.290 -10.777  1.00  0.00     0.000 C 
BRANCH  20  21
ATOM     21  C   UNL     1      -1.203  12.976  -9.836  1.00  0.00     0.000 C 
BRANCH  21  22
ATOM     22  C   UNL     1      -1.519  11.830  -8.863  1.00  0.00    -0.000 C 
BRANCH  22  23
ATOM     23  C   UNL     1      -1.062  10.460  -9.398  1.00  0.00    -0.000 C 
BRANCH  23  24
ATOM     24  C   UNL     1       0.356  10.492  -9.994  1.00  0.00    -0.000 C 
BRANCH  24  25
ATOM     25  C   UNL     1       1.458   9.866  -9.112  1.00  0.00    -0.000 C 
BRANCH  25  26
ATOM     26  C   UNL     1       2.449  10.872  -8.495  1.00  0.00    -0.000 C 
BRANCH  26  27
ATOM     27  C   UNL     1       1.855  11.689  -7.324  1.00  0.00    -0.000 C 
BRANCH  27  28
ATOM     28  C   UNL     1       1.745  13.193  -7.622  1.00  0.00    -0.000 C 
BRANCH  28  29
ATOM     29  C   UNL     1       1.209  13.996  -6.429  1.00  0.00    -0.003 C 
ATOM     30  C   UNL     1      -0.033  13.337  -5.837  1.00  0.00     0.004 C 
ENDBRANCH  28  29
ENDBRANCH  27  28
ENDBRANCH  26  27
ENDBRANCH  25  26
ENDBRANCH  24  25
ENDBRANCH  23  24
ENDBRANCH  22  23
ENDBRANCH  21  22
ENDBRANCH  20  21
ENDBRANCH  19  20
ENDBRANCH  18  19
ENDBRANCH  17  18
ENDBRANCH   1  17
TORSDOF 26
ENDMDL
MODEL 8
REMARK VINA RESULT:    -2.077      2.643      5.841
REMARK INTER + INTRA:         -10.621
REMARK INTER:                  -4.865
REMARK INTRA:                  -5.756
REMARK UNBOUND:                -5.388
REMARK SMILES CCCCCCCCCCCCCCCCCCCCCCCCCCCC(=O)[O-]
REMARK SMILES IDX 15 1 16 2 17 3 18 4 19 5 20 6 21 7 22 8 23 9 24 10 25 11
REMARK SMILES IDX 26 12 27 13 28 14 29 15 30 16 14 17 13 18 12 19 11 20 10 21
REMARK SMILES IDX 9 22 8 23 7 24 6 25 5 26 4 27 3 28 2 29 1 30
REMARK H PARENT
REMARK Flexibility Score: inf
ROOT
ATOM      1  C   UNL     1       0.606  11.448 -10.633  1.00  0.00     0.000 C 
ENDROOT
BRANCH   1   2
ATOM      2  C   UNL     1       0.086  10.111 -10.076  1.00  0.00     0.000 C 
BRANCH   2   3
ATOM      3  C   UNL     1      -0.151  10.153  -8.555  1.00  0.00     0.000 C 
BRANCH   3   4
ATOM      4  C   UNL     1      -1.616   9.944  -8.121  1.00  0.00     0.000 C 
BRANCH   4   5
ATOM      5  C   UNL     1      -2.672  10.433  -9.128  1.00  0.00     0.000 C 
BRANCH   5   6
ATOM      6  C   UNL     1      -3.840   9.450  -9.294  1.00  0.00     0.000 C 
BRANCH   6   7
ATOM      7  C   UNL     1      -3.381   8.005  -9.060  1.00  0.00     0.000 C 
BRANCH   7   8
ATOM      8  C   UNL     1      -3.038   7.318 -10.389  1.00  0.00     0.000 C 
BRANCH   8   9
ATOM      9  C   UNL     1      -1.570   6.859 -10.461  1.00  0.00     0.000 C 
BRANCH   9  10
ATOM     10  C   UNL     1      -1.315   5.410  -9.997  1.00  0.00     0.000 C 
BRANCH  10  11
ATOM     11  C   UNL     1      -0.618   5.276  -8.632  1.00  0.00     0.000 C 
BRANCH  11  12
ATOM     12  C   UNL     1       0.100   6.565  -8.198  1.00  0.00     0.006 C 
BRANCH  12  13
ATOM     13  C   UNL     1       0.145   6.718  -6.673  1.00  0.00     0.053 C 
BRANCH  13  14
ATOM     14  C   UNL     1       1.527   6.513  -6.132  1.00  0.00     0.041 C 
ATOM     15  O   UNL     1       2.043   5.365  -6.129  1.00  0.00    -0.550 OA
ATOM     16  O   UNL     1       2.253   7.595  -5.647  1.00  0.00    -0.550 OA
ENDBRANCH  13  14
ENDBRANCH  12  13
ENDBRANCH  11  12
ENDBRANCH  10  11
ENDBRANCH   9  10
ENDBRANCH   8   9
ENDBRANCH   7   8
ENDBRANCH   6   7
ENDBRANCH   5   6
ENDBRANCH   4   5
ENDBRANCH   3   4
ENDBRANCH   2   3
ENDBRANCH   1   2
BRANCH   1  17
ATOM     17  C   UNL     1       0.657  12.548  -9.561  1.00  0.00     0.000 C 
BRANCH  17  18
ATOM     18  C   UNL     1      -0.422  13.623  -9.771  1.00  0.00     0.000 C 
BRANCH  18  19
ATOM     19  C   UNL     1      -1.111  13.519 -11.144  1.00  0.00     0.000 C 
BRANCH  19  20
ATOM     20  C   UNL     1      -2.645  13.383 -11.052  1.00  0.00     0.000 C 
BRANCH  20  21
ATOM     21  C   UNL     1      -3.335  13.679 -12.395  1.00  0.00     0.000 C 
BRANCH  21  22
ATOM     22  C   UNL     1      -4.757  13.102 -12.465  1.00  0.00    -0.000 C 
BRANCH  22  23
ATOM     23  C   UNL     1      -4.798  11.597 -12.142  1.00  0.00    -0.000 C 
BRANCH  23  24
ATOM     24  C   UNL     1      -4.680  10.711 -13.395  1.00  0.00    -0.000 C 
BRANCH  24  25
ATOM     25  C   UNL     1      -3.561   9.650 -13.352  1.00  0.00    -0.000 C 
BRANCH  25  26
ATOM     26  C   UNL     1      -2.212  10.147 -12.796  1.00  0.00    -0.000 C 
BRANCH  26  27
ATOM     27  C   UNL     1      -1.109  10.278 -13.872  1.00  0.00    -0.000 C 
BRANCH  27  28
ATOM     28  C   UNL     1      -1.039  11.675 -14.510  1.00  0.00    -0.000 C 
BRANCH  28  29
ATOM     29  C   UNL     1       0.366  12.289 -14.439  1.00  0.00    -0.003 C 
ATOM     30  C   UNL     1       1.428  11.212 -14.245  1.00  0.00     0.004 C 
ENDBRANCH  28  29
ENDBRANCH  27  28
ENDBRANCH  26  27
ENDBRANCH  25  26
ENDBRANCH  24  25
ENDBRANCH  23  24
ENDBRANCH  22  23
ENDBRANCH  21  22
ENDBRANCH  20  21
ENDBRANCH  19  20
ENDBRANCH  18  19
ENDBRANCH  17  18
ENDBRANCH   1  17
TORSDOF 26
ENDMDL
MODEL 9
REMARK VINA RESULT:    -2.019      5.152      9.084
REMARK INTER + INTRA:         -10.475
REMARK INTER:                  -4.573
REMARK INTRA:                  -5.902
REMARK UNBOUND:                -5.388
REMARK SMILES CCCCCCCCCCCCCCCCCCCCCCCCCCCC(=O)[O-]
REMARK SMILES IDX 15 1 16 2 17 3 18 4 19 5 20 6 21 7 22 8 23 9 24 10 25 11
REMARK SMILES IDX 26 12 27 13 28 14 29 15 30 16 14 17 13 18 12 19 11 20 10 21
REMARK SMILES IDX 9 22 8 23 7 24 6 25 5 26 4 27 3 28 2 29 1 30
REMARK H PARENT
REMARK Flexibility Score: inf
ROOT
ATOM      1  C   UNL     1      -0.166  13.246  -6.364  1.00  0.00     0.000 C 
ENDROOT
BRANCH   1   2
ATOM      2  C   UNL     1       0.666  13.117  -7.653  1.00  0.00     0.000 C 
BRANCH   2   3
ATOM      3  C   UNL     1       1.633  11.920  -7.619  1.00  0.00     0.000 C 
BRANCH   3   4
ATOM      4  C   UNL     1       3.124  12.294  -7.496  1.00  0.00     0.000 C 
BRANCH   4   5
ATOM      5  C   UNL     1       3.451  13.774  -7.766  1.00  0.00     0.000 C 
BRANCH   5   6
ATOM      6  C   UNL     1       3.995  14.501  -6.527  1.00  0.00     0.000 C 
BRANCH   6   7
ATOM      7  C   UNL     1       4.327  13.507  -5.407  1.00  0.00     0.000 C 
BRANCH   7   8
ATOM      8  C   UNL     1       4.148  14.157  -4.028  1.00  0.00     0.000 C 
BRANCH   8   9
ATOM      9  C   UNL     1       3.901  15.674  -4.110  1.00  0.00     0.000 C 
BRANCH   9  10
ATOM     10  C   UNL     1       2.814  16.213  -3.158  1.00  0.00     0.000 C 
BRANCH  10  11
ATOM     11  C   UNL     1       2.154  17.530  -3.601  1.00  0.00     0.000 C 
BRANCH  11  12
ATOM     12  C   UNL     1       1.432  17.411  -4.954  1.00  0.00     0.006 C 
BRANCH  12  13
ATOM     13  C   UNL     1       1.853  18.512  -5.934  1.00  0.00     0.053 C 
BRANCH  13  14
ATOM     14  C   UNL     1       2.864  18.021  -6.926  1.00  0.00     0.041 C 
ATOM     15  O   UNL     1       2.488  17.465  -7.991  1.00  0.00    -0.550 OA
ATOM     16  O   UNL     1       4.222  18.195  -6.681  1.00  0.00    -0.550 OA
ENDBRANCH  13  14
ENDBRANCH  12  13
ENDBRANCH  11  12
ENDBRANCH  10  11
ENDBRANCH   9  10
ENDBRANCH   8   9
ENDBRANCH   7   8
ENDBRANCH   6   7
ENDBRANCH   5   6
ENDBRANCH   4   5
ENDBRANCH   3   4
ENDBRANCH   2   3
ENDBRANCH   1   2
BRANCH   1  17
ATOM     17  C   UNL     1       0.597  13.978  -5.248  1.00  0.00     0.000 C 
BRANCH  17  18
ATOM     18  C   UNL     1       0.488  13.257  -3.893  1.00  0.00     0.000 C 
BRANCH  18  19
ATOM     19  C   UNL     1      -0.747  13.690  -3.083  1.00  0.00     0.000 C 
BRANCH  19  20
ATOM     20  C   UNL     1      -0.660  15.138  -2.559  1.00  0.00     0.000 C 
BRANCH  20  21
ATOM     21  C   UNL     1      -1.733  15.437  -1.497  1.00  0.00     0.000 C 
BRANCH  21  22
ATOM     22  C   UNL     1      -1.137  16.018  -0.206  1.00  0.00    -0.000 C 
BRANCH  22  23
ATOM     23  C   UNL     1      -0.051  17.074  -0.483  1.00  0.00    -0.000 C 
BRANCH  23  24
ATOM     24  C   UNL     1       1.308  16.716   0.146  1.00  0.00    -0.000 C 
BRANCH  24  25
ATOM     25  C   UNL     1       1.430  15.273   0.677  1.00  0.00    -0.000 C 
BRANCH  25  26
ATOM     26  C   UNL     1       2.220  14.308  -0.230  1.00  0.00    -0.000 C 
BRANCH  26  27
ATOM     27  C   UNL     1       1.628  12.881  -0.281  1.00  0.00    -0.000 C 
BRANCH  27  28
ATOM     28  C   UNL     1       0.363  12.712   0.576  1.00  0.00    -0.000 C 
BRANCH  28  29
ATOM     29  C   UNL     1      -0.619  11.689  -0.012  1.00  0.00    -0.003 C 
ATOM     30  C   UNL     1      -2.064  12.123   0.210  1.00  0.00     0.004 C 
ENDBRANCH  28  29
ENDBRANCH  27  28
ENDBRANCH  26  27
ENDBRANCH  25  26
ENDBRANCH  24  25
ENDBRANCH  23  24
ENDBRANCH  22  23
ENDBRANCH  21  22
ENDBRANCH  20  21
ENDBRANCH  19  20
ENDBRANCH  18  19
ENDBRANCH  17  18
ENDBRANCH   1  17
TORSDOF 26
ENDMDL
