MODEL 1
REMARK VINA RESULT:    -4.578      0.000      0.000
REMARK INTER + INTRA:          -6.329
REMARK INTER:                  -6.451
REMARK INTRA:                   0.122
REMARK UNBOUND:                 0.122
REMARK SMILES CC1=CCC(=C(C)C)C(=O)CC(C)=CCC1
REMARK SMILES IDX 12 1 14 2 13 3 15 4 16 5 2 6 1 7 3 8 11 10 9 11 10 12 5 13
REMARK SMILES IDX 6 14 7 15 8 16 4 17
REMARK H PARENT
REMARK Flexibility Score: 60.00
ROOT
ATOM      1  C   UNL     1      -3.749  -2.735  -2.084  1.00  0.00    -0.070 C 
ATOM      2  C   UNL     1      -2.427  -3.047  -2.136  1.00  0.00    -0.027 C 
ATOM      3  C   UNL     1      -4.747  -3.725  -2.633  1.00  0.00     0.039 C 
ENDROOT
BRANCH   2   4
ATOM      4  C   UNL     1      -1.288  -2.144  -1.725  1.00  0.00     0.032 C 
BRANCH   4   5
ATOM      5  C   UNL     1      -1.057  -2.113  -0.208  1.00  0.00     0.034 C 
BRANCH   5   6
ATOM      6  C   UNL     1      -1.003  -0.679   0.284  1.00  0.00    -0.077 C 
ATOM      7  C   UNL     1       0.045   0.236  -0.294  1.00  0.00     0.039 C 
ATOM      8  C   UNL     1      -1.897  -0.157   1.157  1.00  0.00    -0.023 CG0
ATOM      9  G   UNL     1      -3.003  -0.918   1.850  1.00  0.00     0.000 G0
ENDBRANCH   5   6
ENDBRANCH   4   5
ENDBRANCH   2   4
BRANCH   1  10
ATOM     10  C   UNL     1      -4.316  -1.511  -1.376  1.00  0.00     0.111 C 
BRANCH  10  11
ATOM     11  C   UNL     1      -4.697  -1.759   0.062  1.00  0.00     0.163 C 
ATOM     12  O   UNL     1      -5.270  -2.849   0.336  1.00  0.00    -0.294 OA
BRANCH  11  13
ATOM     13  C   UNL     1      -4.369  -0.795   1.165  1.00  0.00    -0.002 C 
ATOM     14  C   UNL     1      -5.239   0.210   1.497  1.00  0.00    -0.069 C 
ATOM     15  C   UNL     1      -4.889   1.252   2.537  1.00  0.00     0.039 C 
ATOM     16  C   UNL     1      -6.617   0.306   0.881  1.00  0.00     0.039 C 
BRANCH  13  17
ATOM     17  C   UNL     1      -3.021  -0.920   1.873  1.00  0.00     0.066 CG0
ATOM     18  G   UNL     1      -1.933  -0.146   1.166  1.00  0.00     0.000 G0
ENDBRANCH  13  17
ENDBRANCH  11  13
ENDBRANCH  10  11
ENDBRANCH   1  10
TORSDOF 0
ENDMDL
MODEL 2
REMARK VINA RESULT:    -4.547      1.703      4.054
REMARK INTER + INTRA:          -6.285
REMARK INTER:                  -6.484
REMARK INTRA:                   0.199
REMARK UNBOUND:                 0.122
REMARK SMILES CC1=CCC(=C(C)C)C(=O)CC(C)=CCC1
REMARK SMILES IDX 12 1 14 2 13 3 15 4 16 5 2 6 1 7 3 8 11 10 9 11 10 12 5 13
REMARK SMILES IDX 6 14 7 15 8 16 4 17
REMARK H PARENT
REMARK Flexibility Score: 60.00
ROOT
ATOM      1  C   UNL     1      -3.896   0.517   2.132  1.00  0.00    -0.070 C 
ATOM      2  C   UNL     1      -2.571   0.805   2.227  1.00  0.00    -0.027 C 
ATOM      3  C   UNL     1      -4.892   1.525   2.651  1.00  0.00     0.039 C 
ENDROOT
BRANCH   2   4
ATOM      4  C   UNL     1      -1.435  -0.118   1.850  1.00  0.00     0.032 C 
BRANCH   4   5
ATOM      5  C   UNL     1      -1.175  -0.173   0.338  1.00  0.00     0.034 C 
BRANCH   5   6
ATOM      6  C   UNL     1      -1.139  -1.614  -0.135  1.00  0.00    -0.077 C 
ATOM      7  C   UNL     1      -0.140  -2.548   0.497  1.00  0.00     0.039 C 
ATOM      8  C   UNL     1      -2.008  -2.123  -1.039  1.00  0.00    -0.023 CG0
ATOM      9  G   UNL     1      -3.064  -1.343  -1.786  1.00  0.00     0.000 G0
ENDBRANCH   5   6
ENDBRANCH   4   5
ENDBRANCH   2   4
BRANCH   1  10
ATOM     10  C   UNL     1      -4.463  -0.695   1.404  1.00  0.00     0.111 C 
BRANCH  10  11
ATOM     11  C   UNL     1      -4.764  -0.448  -0.053  1.00  0.00     0.163 C 
ATOM     12  O   UNL     1      -5.272   0.664  -0.365  1.00  0.00    -0.294 OA
BRANCH  11  13
ATOM     13  C   UNL     1      -4.429  -1.439  -1.129  1.00  0.00    -0.002 C 
ATOM     14  C   UNL     1      -5.313  -2.431  -1.465  1.00  0.00    -0.069 C 
ATOM     15  C   UNL     1      -4.961  -3.500  -2.476  1.00  0.00     0.039 C 
ATOM     16  C   UNL     1      -6.708  -2.485  -0.883  1.00  0.00     0.039 C 
BRANCH  13  17
ATOM     17  C   UNL     1      -3.062  -1.357  -1.804  1.00  0.00     0.066 CG0
ATOM     18  G   UNL     1      -2.004  -2.119  -1.040  1.00  0.00     0.000 G0
ENDBRANCH  13  17
ENDBRANCH  11  13
ENDBRANCH  10  11
ENDBRANCH   1  10
TORSDOF 0
ENDMDL
MODEL 3
REMARK VINA RESULT:    -4.286      1.948      4.807
REMARK INTER + INTRA:          -5.918
REMARK INTER:                  -6.087
REMARK INTRA:                   0.168
REMARK UNBOUND:                 0.122
REMARK SMILES CC1=CCC(=C(C)C)C(=O)CC(C)=CCC1
REMARK SMILES IDX 12 1 14 2 13 3 15 4 16 5 2 6 1 7 3 8 11 10 9 11 10 12 5 13
REMARK SMILES IDX 6 14 7 15 8 16 4 17
REMARK H PARENT
REMARK Flexibility Score: 60.00
ROOT
ATOM      1  C   UNL     1      -4.715   0.419   1.707  1.00  0.00    -0.070 C 
ATOM      2  C   UNL     1      -5.601   0.257   0.688  1.00  0.00    -0.027 C 
ATOM      3  C   UNL     1      -4.890   1.597   2.634  1.00  0.00     0.039 C 
ENDROOT
BRANCH   2   4
ATOM      4  C   UNL     1      -5.529  -0.800  -0.388  1.00  0.00     0.032 C 
BRANCH   4   5
ATOM      5  C   UNL     1      -4.353  -0.604  -1.353  1.00  0.00     0.034 C 
BRANCH   5   6
ATOM      6  C   UNL     1      -3.598  -1.909  -1.531  1.00  0.00    -0.077 C 
ATOM      7  C   UNL     1      -4.333  -3.085  -2.121  1.00  0.00     0.039 C 
ATOM      8  C   UNL     1      -2.279  -2.050  -1.260  1.00  0.00    -0.023 CG0
ATOM      9  G   UNL     1      -1.384  -0.994  -0.654  1.00  0.00     0.000 G0
ENDBRANCH   5   6
ENDBRANCH   4   5
ENDBRANCH   2   4
BRANCH   1  10
ATOM     10  C   UNL     1      -3.633  -0.588   2.073  1.00  0.00     0.111 C 
BRANCH  10  11
ATOM     11  C   UNL     1      -2.244  -0.170   1.658  1.00  0.00     0.163 C 
ATOM     12  O   UNL     1      -1.835   0.961   2.039  1.00  0.00    -0.294 OA
BRANCH  11  13
ATOM     13  C   UNL     1      -1.330  -1.064   0.872  1.00  0.00    -0.002 C 
ATOM     14  C   UNL     1      -0.441  -1.889   1.509  1.00  0.00    -0.069 C 
ATOM     15  C   UNL     1       0.557  -2.727   0.739  1.00  0.00     0.039 C 
ATOM     16  C   UNL     1      -0.440  -2.050   3.012  1.00  0.00     0.039 C 
BRANCH  13  17
ATOM     17  C   UNL     1      -1.369  -0.994  -0.654  1.00  0.00     0.066 CG0
ATOM     18  G   UNL     1      -2.275  -2.048  -1.248  1.00  0.00     0.000 G0
ENDBRANCH  13  17
ENDBRANCH  11  13
ENDBRANCH  10  11
ENDBRANCH   1  10
TORSDOF 0
ENDMDL
MODEL 4
REMARK VINA RESULT:    -4.101      1.678      2.938
REMARK INTER + INTRA:          -5.657
REMARK INTER:                  -5.824
REMARK INTRA:                   0.166
REMARK UNBOUND:                 0.122
REMARK SMILES CC1=CCC(=C(C)C)C(=O)CC(C)=CCC1
REMARK SMILES IDX 12 1 14 2 13 3 15 4 16 5 2 6 1 7 3 8 11 10 9 11 10 12 5 13
REMARK SMILES IDX 6 14 7 15 8 16 4 17
REMARK H PARENT
REMARK Flexibility Score: 60.00
ROOT
ATOM      1  C   UNL     1      -5.636  -2.508  -0.834  1.00  0.00    -0.070 C 
ATOM      2  C   UNL     1      -5.168  -3.043  -1.993  1.00  0.00    -0.027 C 
ATOM      3  C   UNL     1      -7.098  -2.143  -0.746  1.00  0.00     0.039 C 
ENDROOT
BRANCH   2   4
ATOM      4  C   UNL     1      -3.727  -3.379  -2.294  1.00  0.00     0.032 C 
BRANCH   4   5
ATOM      5  C   UNL     1      -2.868  -2.145  -2.604  1.00  0.00     0.034 C 
BRANCH   5   6
ATOM      6  C   UNL     1      -1.551  -2.223  -1.856  1.00  0.00    -0.077 C 
ATOM      7  C   UNL     1      -0.560  -3.284  -2.261  1.00  0.00     0.039 C 
ATOM      8  C   UNL     1      -1.186  -1.341  -0.896  1.00  0.00    -0.023 CG0
ATOM      9  G   UNL     1      -2.045  -0.225  -0.349  1.00  0.00     0.000 G0
ENDBRANCH   5   6
ENDBRANCH   4   5
ENDBRANCH   2   4
BRANCH   1  10
ATOM     10  C   UNL     1      -4.820  -2.380   0.446  1.00  0.00     0.111 C 
BRANCH  10  11
ATOM     11  C   UNL     1      -4.328  -0.981   0.719  1.00  0.00     0.163 C 
ATOM     12  O   UNL     1      -5.193  -0.074   0.860  1.00  0.00    -0.294 OA
BRANCH  11  13
ATOM     13  C   UNL     1      -2.872  -0.651   0.883  1.00  0.00    -0.002 C 
ATOM     14  C   UNL     1      -2.284  -0.680   2.120  1.00  0.00    -0.069 C 
ATOM     15  C   UNL     1      -0.846  -0.258   2.326  1.00  0.00     0.039 C 
ATOM     16  C   UNL     1      -3.022  -1.184   3.341  1.00  0.00     0.039 C 
BRANCH  13  17
ATOM     17  C   UNL     1      -2.073  -0.226  -0.347  1.00  0.00     0.066 CG0
ATOM     18  G   UNL     1      -1.204  -1.344  -0.874  1.00  0.00     0.000 G0
ENDBRANCH  13  17
ENDBRANCH  11  13
ENDBRANCH  10  11
ENDBRANCH   1  10
TORSDOF 0
ENDMDL
MODEL 5
REMARK VINA RESULT:    -4.095      1.456      3.987
REMARK INTER + INTRA:          -5.648
REMARK INTER:                  -5.774
REMARK INTRA:                   0.126
REMARK UNBOUND:                 0.122
REMARK SMILES CC1=CCC(=C(C)C)C(=O)CC(C)=CCC1
REMARK SMILES IDX 12 1 14 2 13 3 15 4 16 5 2 6 1 7 3 8 11 10 9 11 10 12 5 13
REMARK SMILES IDX 6 14 7 15 8 16 4 17
REMARK H PARENT
REMARK Flexibility Score: 60.00
ROOT
ATOM      1  C   UNL     1      -5.352   0.135   0.716  1.00  0.00    -0.070 C 
ATOM      2  C   UNL     1      -4.960   0.648   1.913  1.00  0.00    -0.027 C 
ATOM      3  C   UNL     1      -6.804  -0.230   0.529  1.00  0.00     0.039 C 
ENDROOT
BRANCH   2   4
ATOM      4  C   UNL     1      -3.542   0.980   2.312  1.00  0.00     0.032 C 
BRANCH   4   5
ATOM      5  C   UNL     1      -2.693  -0.261   2.619  1.00  0.00     0.034 C 
BRANCH   5   6
ATOM      6  C   UNL     1      -1.346  -0.158   1.927  1.00  0.00    -0.077 C 
ATOM      7  C   UNL     1      -0.383   0.904   2.392  1.00  0.00     0.039 C 
ATOM      8  C   UNL     1      -0.934  -1.019   0.967  1.00  0.00    -0.023 CG0
ATOM      9  G   UNL     1      -1.760  -2.132   0.366  1.00  0.00     0.000 G0
ENDBRANCH   5   6
ENDBRANCH   4   5
ENDBRANCH   2   4
BRANCH   1  10
ATOM     10  C   UNL     1      -4.455   0.031  -0.510  1.00  0.00     0.111 C 
BRANCH  10  11
ATOM     11  C   UNL     1      -3.963  -1.367  -0.791  1.00  0.00     0.163 C 
ATOM     12  O   UNL     1      -4.829  -2.264  -0.981  1.00  0.00    -0.294 OA
BRANCH  11  13
ATOM     13  C   UNL     1      -2.505  -1.705  -0.907  1.00  0.00    -0.002 C 
ATOM     14  C   UNL     1      -1.873  -1.666  -2.122  1.00  0.00    -0.069 C 
ATOM     15  C   UNL     1      -0.431  -2.097  -2.281  1.00  0.00     0.039 C 
ATOM     16  C   UNL     1      -2.563  -1.144  -3.362  1.00  0.00     0.039 C 
BRANCH  13  17
ATOM     17  C   UNL     1      -1.753  -2.148   0.346  1.00  0.00     0.066 CG0
ATOM     18  G   UNL     1      -0.961  -1.019   0.964  1.00  0.00     0.000 G0
ENDBRANCH  13  17
ENDBRANCH  11  13
ENDBRANCH  10  11
ENDBRANCH   1  10
TORSDOF 0
ENDMDL
MODEL 6
REMARK VINA RESULT:    -3.914      1.463      3.834
REMARK INTER + INTRA:          -5.394
REMARK INTER:                  -5.721
REMARK INTRA:                   0.327
REMARK UNBOUND:                 0.122
REMARK SMILES CC1=CCC(=C(C)C)C(=O)CC(C)=CCC1
REMARK SMILES IDX 12 1 14 2 13 3 15 4 16 5 2 6 1 7 3 8 11 10 9 11 10 12 5 13
REMARK SMILES IDX 6 14 7 15 8 16 4 17
REMARK H PARENT
REMARK Flexibility Score: 60.00
ROOT
ATOM      1  C   UNL     1      -4.951  -2.553  -1.872  1.00  0.00    -0.070 C 
ATOM      2  C   UNL     1      -6.112  -2.346  -1.195  1.00  0.00    -0.027 C 
ATOM      3  C   UNL     1      -4.855  -3.748  -2.789  1.00  0.00     0.039 C 
ENDROOT
BRANCH   2   4
ATOM      4  C   UNL     1      -6.357  -1.265  -0.168  1.00  0.00     0.032 C 
BRANCH   4   5
ATOM      5  C   UNL     1      -5.637  -1.519   1.163  1.00  0.00     0.034 C 
BRANCH   5   6
ATOM      6  C   UNL     1      -4.748  -0.339   1.510  1.00  0.00    -0.077 C 
ATOM      7  C   UNL     1      -5.404   0.971   1.861  1.00  0.00     0.039 C 
ATOM      8  C   UNL     1      -3.399  -0.423   1.598  1.00  0.00    -0.023 CG0
ATOM      9  G   UNL     1      -2.567  -1.641   1.273  1.00  0.00     0.000 G0
ENDBRANCH   5   6
ENDBRANCH   4   5
ENDBRANCH   2   4
BRANCH   1  10
ATOM     10  C   UNL     1      -3.778  -1.582  -1.885  1.00  0.00     0.111 C 
BRANCH  10  11
ATOM     11  C   UNL     1      -2.514  -2.143  -1.285  1.00  0.00     0.163 C 
ATOM     12  O   UNL     1      -1.982  -3.132  -1.861  1.00  0.00    -0.294 OA
BRANCH  11  13
ATOM     13  C   UNL     1      -1.849  -1.538  -0.083  1.00  0.00    -0.002 C 
ATOM     14  C   UNL     1      -0.619  -0.943  -0.189  1.00  0.00    -0.069 C 
ATOM     15  C   UNL     1       0.114  -0.414   1.024  1.00  0.00     0.039 C 
ATOM     16  C   UNL     1       0.052  -0.735  -1.529  1.00  0.00     0.039 C 
BRANCH  13  17
ATOM     17  C   UNL     1      -2.543  -1.650   1.273  1.00  0.00     0.066 CG0
ATOM     18  G   UNL     1      -3.385  -0.434   1.583  1.00  0.00     0.000 G0
ENDBRANCH  13  17
ENDBRANCH  11  13
ENDBRANCH  10  11
ENDBRANCH   1  10
TORSDOF 0
ENDMDL
MODEL 7
REMARK VINA RESULT:    -3.899      1.860      3.496
REMARK INTER + INTRA:          -5.372
REMARK INTER:                  -5.507
REMARK INTRA:                   0.134
REMARK UNBOUND:                 0.122
REMARK SMILES CC1=CCC(=C(C)C)C(=O)CC(C)=CCC1
REMARK SMILES IDX 12 1 14 2 13 3 15 4 16 5 2 6 1 7 3 8 11 10 9 11 10 12 5 13
REMARK SMILES IDX 6 14 7 15 8 16 4 17
REMARK H PARENT
REMARK Flexibility Score: 60.00
ROOT
ATOM      1  C   UNL     1      -0.355  -1.488   1.240  1.00  0.00    -0.070 C 
ATOM      2  C   UNL     1       0.378  -1.902   0.172  1.00  0.00    -0.027 C 
ATOM      3  C   UNL     1       0.116  -1.859   2.625  1.00  0.00     0.039 C 
ENDROOT
BRANCH   2   4
ATOM      4  C   UNL     1       0.013  -1.707  -1.281  1.00  0.00     0.032 C 
BRANCH   4   5
ATOM      5  C   UNL     1      -1.215  -2.521  -1.711  1.00  0.00     0.034 C 
BRANCH   5   6
ATOM      6  C   UNL     1      -2.192  -1.637  -2.464  1.00  0.00    -0.077 C 
ATOM      7  C   UNL     1      -1.734  -1.000  -3.751  1.00  0.00     0.039 C 
ATOM      8  C   UNL     1      -3.477  -1.452  -2.081  1.00  0.00    -0.023 CG0
ATOM      9  G   UNL     1      -4.109  -1.994  -0.820  1.00  0.00     0.000 G0
ENDBRANCH   5   6
ENDBRANCH   4   5
ENDBRANCH   2   4
BRANCH   1  10
ATOM     10  C   UNL     1      -1.549  -0.547   1.151  1.00  0.00     0.111 C 
BRANCH  10  11
ATOM     11  C   UNL     1      -2.881  -1.233   1.330  1.00  0.00     0.163 C 
ATOM     12  O   UNL     1      -3.038  -1.945   2.359  1.00  0.00    -0.294 OA
BRANCH  11  13
ATOM     13  C   UNL     1      -4.022  -1.050   0.372  1.00  0.00    -0.002 C 
ATOM     14  C   UNL     1      -4.972  -0.088   0.592  1.00  0.00    -0.069 C 
ATOM     15  C   UNL     1      -6.184   0.051  -0.305  1.00  0.00     0.039 C 
ATOM     16  C   UNL     1      -4.840   0.921   1.711  1.00  0.00     0.039 C 
BRANCH  13  17
ATOM     17  C   UNL     1      -4.136  -1.995  -0.823  1.00  0.00     0.066 CG0
ATOM     18  G   UNL     1      -3.478  -1.429  -2.060  1.00  0.00     0.000 G0
ENDBRANCH  13  17
ENDBRANCH  11  13
ENDBRANCH  10  11
ENDBRANCH   1  10
TORSDOF 0
ENDMDL
MODEL 8
REMARK VINA RESULT:    -3.701      1.926      4.056
REMARK INTER + INTRA:          -5.093
REMARK INTER:                  -5.282
REMARK INTRA:                   0.189
REMARK UNBOUND:                 0.122
REMARK SMILES CC1=CCC(=C(C)C)C(=O)CC(C)=CCC1
REMARK SMILES IDX 12 1 14 2 13 3 15 4 16 5 2 6 1 7 3 8 11 10 9 11 10 12 5 13
REMARK SMILES IDX 6 14 7 15 8 16 4 17
REMARK H PARENT
REMARK Flexibility Score: 60.00
ROOT
ATOM      1  C   UNL     1      -2.389  -0.763  -1.955  1.00  0.00    -0.070 C 
ATOM      2  C   UNL     1      -3.725  -0.510  -1.936  1.00  0.00    -0.027 C 
ATOM      3  C   UNL     1      -1.794  -1.407  -3.183  1.00  0.00     0.039 C 
ENDROOT
BRANCH   2   4
ATOM      4  C   UNL     1      -4.506   0.037  -0.765  1.00  0.00     0.032 C 
BRANCH   4   5
ATOM      5  C   UNL     1      -4.551  -0.919   0.434  1.00  0.00     0.034 C 
BRANCH   5   6
ATOM      6  C   UNL     1      -4.210  -0.175   1.711  1.00  0.00    -0.077 C 
ATOM      7  C   UNL     1      -5.068   1.000   2.105  1.00  0.00     0.039 C 
ATOM      8  C   UNL     1      -3.224  -0.557   2.556  1.00  0.00    -0.023 CG0
ATOM      9  G   UNL     1      -2.256  -1.694   2.327  1.00  0.00     0.000 G0
ENDBRANCH   5   6
ENDBRANCH   4   5
ENDBRANCH   2   4
BRANCH   1  10
ATOM     10  C   UNL     1      -1.413  -0.310  -0.877  1.00  0.00     0.111 C 
BRANCH  10  11
ATOM     11  C   UNL     1      -0.989  -1.411   0.063  1.00  0.00     0.163 C 
ATOM     12  O   UNL     1      -0.563  -2.484  -0.446  1.00  0.00    -0.294 OA
BRANCH  11  13
ATOM     13  C   UNL     1      -1.001  -1.251   1.556  1.00  0.00    -0.002 C 
ATOM     14  C   UNL     1       0.095  -0.761   2.215  1.00  0.00    -0.069 C 
ATOM     15  C   UNL     1       0.143  -0.682   3.726  1.00  0.00     0.039 C 
ATOM     16  C   UNL     1       1.297  -0.223   1.472  1.00  0.00     0.039 C 
BRANCH  13  17
ATOM     17  C   UNL     1      -2.238  -1.700   2.332  1.00  0.00     0.066 CG0
ATOM     18  G   UNL     1      -3.209  -0.565   2.559  1.00  0.00     0.000 G0
ENDBRANCH  13  17
ENDBRANCH  11  13
ENDBRANCH  10  11
ENDBRANCH   1  10
TORSDOF 0
ENDMDL
MODEL 9
REMARK VINA RESULT:    -3.563      1.784      3.323
REMARK INTER + INTRA:          -4.899
REMARK INTER:                  -5.055
REMARK INTRA:                   0.156
REMARK UNBOUND:                 0.122
REMARK SMILES CC1=CCC(=C(C)C)C(=O)CC(C)=CCC1
REMARK SMILES IDX 12 1 14 2 13 3 15 4 16 5 2 6 1 7 3 8 11 10 9 11 10 12 5 13
REMARK SMILES IDX 6 14 7 15 8 16 4 17
REMARK H PARENT
REMARK Flexibility Score: 60.00
ROOT
ATOM      1  C   UNL     1      -5.038  -2.044  -0.389  1.00  0.00    -0.070 C 
ATOM      2  C   UNL     1      -4.861  -2.752  -1.537  1.00  0.00    -0.027 C 
ATOM      3  C   UNL     1      -6.201  -2.399   0.505  1.00  0.00     0.039 C 
ENDROOT
BRANCH   2   4
ATOM      4  C   UNL     1      -3.816  -2.479  -2.593  1.00  0.00     0.032 C 
BRANCH   4   5
ATOM      5  C   UNL     1      -2.441  -3.068  -2.252  1.00  0.00     0.034 C 
BRANCH   5   6
ATOM      6  C   UNL     1      -1.365  -2.011  -2.409  1.00  0.00    -0.077 C 
ATOM      7  C   UNL     1      -1.167  -1.389  -3.767  1.00  0.00     0.039 C 
ATOM      8  C   UNL     1      -0.626  -1.541  -1.377  1.00  0.00    -0.023 CG0
ATOM      9  G   UNL     1      -0.672  -2.048   0.046  1.00  0.00     0.000 G0
ENDBRANCH   5   6
ENDBRANCH   4   5
ENDBRANCH   2   4
BRANCH   1  10
ATOM     10  C   UNL     1      -4.059  -1.004   0.139  1.00  0.00     0.111 C 
BRANCH  10  11
ATOM     11  C   UNL     1      -3.015  -1.567   1.072  1.00  0.00     0.163 C 
ATOM     12  O   UNL     1      -3.394  -2.400   1.940  1.00  0.00    -0.294 OA
BRANCH  11  13
ATOM     13  C   UNL     1      -1.559  -1.217   0.964  1.00  0.00    -0.002 C 
ATOM     14  C   UNL     1      -1.050  -0.132   1.628  1.00  0.00    -0.069 C 
ATOM     15  C   UNL     1       0.391   0.298   1.458  1.00  0.00     0.039 C 
ATOM     16  C   UNL     1      -1.883   0.668   2.604  1.00  0.00     0.039 C 
BRANCH  13  17
ATOM     17  C   UNL     1      -0.667  -2.061   0.056  1.00  0.00     0.066 CG0
ATOM     18  G   UNL     1      -0.619  -1.521  -1.355  1.00  0.00     0.000 G0
ENDBRANCH  13  17
ENDBRANCH  11  13
ENDBRANCH  10  11
ENDBRANCH   1  10
TORSDOF 0
ENDMDL
