MODEL 1
REMARK VINA RESULT:    -5.681      0.000      0.000
REMARK INTER + INTRA:         -13.255
REMARK INTER:                 -10.995
REMARK INTRA:                  -2.260
REMARK UNBOUND:                -2.260
REMARK SMILES CCCCCCCCCCCCCCCCCC(=O)[O-]
REMARK SMILES IDX 10 1 11 2 12 3 13 4 14 5 15 6 16 7 17 8 18 9 19 10 20 11
REMARK SMILES IDX 9 12 8 13 7 14 6 15 5 16 4 17 3 18 2 19 1 20
REMARK H PARENT
REMARK Flexibility Score: inf
ROOT
ATOM      1  C   UNL     1      -4.660 -30.443 -53.567  1.00  0.00     0.000 C 
ENDROOT
BRANCH   1   2
ATOM      2  C   UNL     1      -5.233 -29.296 -54.417  1.00  0.00     0.000 C 
BRANCH   2   3
ATOM      3  C   UNL     1      -4.794 -27.912 -53.916  1.00  0.00     0.000 C 
BRANCH   3   4
ATOM      4  C   UNL     1      -4.793 -27.861 -52.380  1.00  0.00     0.000 C 
BRANCH   4   5
ATOM      5  C   UNL     1      -6.044 -27.171 -51.811  1.00  0.00     0.000 C 
BRANCH   5   6
ATOM      6  C   UNL     1      -6.343 -27.590 -50.361  1.00  0.00     0.000 C 
BRANCH   6   7
ATOM      7  C   UNL     1      -6.141 -29.096 -50.127  1.00  0.00     0.006 C 
BRANCH   7   8
ATOM      8  C   UNL     1      -6.634 -29.547 -48.746  1.00  0.00     0.053 C 
BRANCH   8   9
ATOM      9  C   UNL     1      -7.857 -30.399 -48.878  1.00  0.00     0.041 C 
ATOM     10  O   UNL     1      -8.942 -30.039 -48.348  1.00  0.00    -0.550 OA
ATOM     11  O   UNL     1      -7.808 -31.576 -49.615  1.00  0.00    -0.550 OA
ENDBRANCH   8   9
ENDBRANCH   7   8
ENDBRANCH   6   7
ENDBRANCH   5   6
ENDBRANCH   4   5
ENDBRANCH   3   4
ENDBRANCH   2   3
ENDBRANCH   1   2
BRANCH   1  12
ATOM     12  C   UNL     1      -5.618 -31.638 -53.459  1.00  0.00     0.000 C 
BRANCH  12  13
ATOM     13  C   UNL     1      -5.428 -32.374 -52.129  1.00  0.00    -0.000 C 
BRANCH  13  14
ATOM     14  C   UNL     1      -4.154 -31.903 -51.412  1.00  0.00    -0.000 C 
BRANCH  14  15
ATOM     15  C   UNL     1      -3.310 -33.066 -50.865  1.00  0.00    -0.000 C 
BRANCH  15  16
ATOM     16  C   UNL     1      -2.207 -33.543 -51.835  1.00  0.00    -0.000 C 
BRANCH  16  17
ATOM     17  C   UNL     1      -1.533 -32.372 -52.573  1.00  0.00    -0.000 C 
BRANCH  17  18
ATOM     18  C   UNL     1      -0.163 -32.006 -51.963  1.00  0.00    -0.000 C 
BRANCH  18  19
ATOM     19  C   UNL     1       0.024 -30.499 -51.727  1.00  0.00    -0.003 C 
ATOM     20  C   UNL     1      -1.286 -29.715 -51.793  1.00  0.00     0.004 C 
ENDBRANCH  18  19
ENDBRANCH  17  18
ENDBRANCH  16  17
ENDBRANCH  15  16
ENDBRANCH  14  15
ENDBRANCH  13  14
ENDBRANCH  12  13
ENDBRANCH   1  12
TORSDOF 16
ENDMDL
MODEL 2
REMARK VINA RESULT:    -5.602      1.329      3.764
REMARK INTER + INTRA:         -13.101
REMARK INTER:                 -10.754
REMARK INTRA:                  -2.347
REMARK UNBOUND:                -2.260
REMARK SMILES CCCCCCCCCCCCCCCCCC(=O)[O-]
REMARK SMILES IDX 10 1 11 2 12 3 13 4 14 5 15 6 16 7 17 8 18 9 19 10 20 11
REMARK SMILES IDX 9 12 8 13 7 14 6 15 5 16 4 17 3 18 2 19 1 20
REMARK H PARENT
REMARK Flexibility Score: inf
ROOT
ATOM      1  C   UNL     1      -0.476 -30.243 -51.325  1.00  0.00     0.000 C 
ENDROOT
BRANCH   1   2
ATOM      2  C   UNL     1      -0.413 -28.718 -51.520  1.00  0.00     0.000 C 
BRANCH   2   3
ATOM      3  C   UNL     1      -1.270 -28.238 -52.700  1.00  0.00     0.000 C 
BRANCH   3   4
ATOM      4  C   UNL     1      -2.732 -28.685 -52.534  1.00  0.00     0.000 C 
BRANCH   4   5
ATOM      5  C   UNL     1      -3.701 -27.875 -53.410  1.00  0.00     0.000 C 
BRANCH   5   6
ATOM      6  C   UNL     1      -5.109 -27.775 -52.798  1.00  0.00     0.000 C 
BRANCH   6   7
ATOM      7  C   UNL     1      -5.209 -28.470 -51.430  1.00  0.00     0.006 C 
BRANCH   7   8
ATOM      8  C   UNL     1      -6.173 -27.751 -50.476  1.00  0.00     0.053 C 
BRANCH   8   9
ATOM      9  C   UNL     1      -6.471 -28.609 -49.287  1.00  0.00     0.041 C 
ATOM     10  O   UNL     1      -6.789 -28.081 -48.188  1.00  0.00    -0.550 OA
ATOM     11  O   UNL     1      -6.432 -29.993 -49.400  1.00  0.00    -0.550 OA
ENDBRANCH   8   9
ENDBRANCH   7   8
ENDBRANCH   6   7
ENDBRANCH   5   6
ENDBRANCH   4   5
ENDBRANCH   3   4
ENDBRANCH   2   3
ENDBRANCH   1   2
BRANCH   1  12
ATOM     12  C   UNL     1       0.429 -31.004 -52.304  1.00  0.00     0.000 C 
BRANCH  12  13
ATOM     13  C   UNL     1      -0.386 -31.588 -53.462  1.00  0.00    -0.000 C 
BRANCH  13  14
ATOM     14  C   UNL     1      -0.532 -33.111 -53.325  1.00  0.00    -0.000 C 
BRANCH  14  15
ATOM     15  C   UNL     1      -1.951 -33.542 -52.917  1.00  0.00    -0.000 C 
BRANCH  15  16
ATOM     16  C   UNL     1      -2.141 -33.691 -51.392  1.00  0.00    -0.000 C 
BRANCH  16  17
ATOM     17  C   UNL     1      -3.534 -33.224 -50.930  1.00  0.00    -0.000 C 
BRANCH  17  18
ATOM     18  C   UNL     1      -3.963 -31.905 -51.606  1.00  0.00    -0.000 C 
BRANCH  18  19
ATOM     19  C   UNL     1      -5.286 -32.012 -52.382  1.00  0.00    -0.003 C 
ATOM     20  C   UNL     1      -5.183 -31.487 -53.814  1.00  0.00     0.004 C 
ENDBRANCH  18  19
ENDBRANCH  17  18
ENDBRANCH  16  17
ENDBRANCH  15  16
ENDBRANCH  14  15
ENDBRANCH  13  14
ENDBRANCH  12  13
ENDBRANCH   1  12
TORSDOF 16
ENDMDL
MODEL 3
REMARK VINA RESULT:    -5.564      2.447      5.359
REMARK INTER + INTRA:         -13.029
REMARK INTER:                 -10.892
REMARK INTRA:                  -2.137
REMARK UNBOUND:                -2.260
REMARK SMILES CCCCCCCCCCCCCCCCCC(=O)[O-]
REMARK SMILES IDX 10 1 11 2 12 3 13 4 14 5 15 6 16 7 17 8 18 9 19 10 20 11
REMARK SMILES IDX 9 12 8 13 7 14 6 15 5 16 4 17 3 18 2 19 1 20
REMARK H PARENT
REMARK Flexibility Score: inf
ROOT
ATOM      1  C   UNL     1       0.113 -32.753 -52.512  1.00  0.00     0.000 C 
ENDROOT
BRANCH   1   2
ATOM      2  C   UNL     1       1.011 -31.650 -53.097  1.00  0.00     0.000 C 
BRANCH   2   3
ATOM      3  C   UNL     1       0.369 -30.257 -53.009  1.00  0.00     0.000 C 
BRANCH   3   4
ATOM      4  C   UNL     1      -0.314 -30.053 -51.648  1.00  0.00     0.000 C 
BRANCH   4   5
ATOM      5  C   UNL     1      -1.374 -28.941 -51.680  1.00  0.00     0.000 C 
BRANCH   5   6
ATOM      6  C   UNL     1      -2.662 -29.370 -52.405  1.00  0.00     0.000 C 
BRANCH   6   7
ATOM      7  C   UNL     1      -3.266 -28.240 -53.254  1.00  0.00     0.006 C 
BRANCH   7   8
ATOM      8  C   UNL     1      -4.788 -28.128 -53.085  1.00  0.00     0.053 C 
BRANCH   8   9
ATOM      9  C   UNL     1      -5.480 -28.370 -54.389  1.00  0.00     0.041 C 
ATOM     10  O   UNL     1      -5.423 -29.504 -54.936  1.00  0.00    -0.550 OA
ATOM     11  O   UNL     1      -6.218 -27.354 -54.984  1.00  0.00    -0.550 OA
ENDBRANCH   8   9
ENDBRANCH   7   8
ENDBRANCH   6   7
ENDBRANCH   5   6
ENDBRANCH   4   5
ENDBRANCH   3   4
ENDBRANCH   2   3
ENDBRANCH   1   2
BRANCH   1  12
ATOM     12  C   UNL     1      -0.942 -33.252 -53.510  1.00  0.00     0.000 C 
BRANCH  12  13
ATOM     13  C   UNL     1      -2.355 -32.891 -53.039  1.00  0.00    -0.000 C 
BRANCH  13  14
ATOM     14  C   UNL     1      -2.622 -33.428 -51.625  1.00  0.00    -0.000 C 
BRANCH  14  15
ATOM     15  C   UNL     1      -3.669 -32.603 -50.859  1.00  0.00    -0.000 C 
BRANCH  15  16
ATOM     16  C   UNL     1      -4.964 -32.344 -51.660  1.00  0.00    -0.000 C 
BRANCH  16  17
ATOM     17  C   UNL     1      -5.690 -31.068 -51.198  1.00  0.00    -0.000 C 
BRANCH  17  18
ATOM     18  C   UNL     1      -6.717 -31.350 -50.081  1.00  0.00    -0.000 C 
BRANCH  18  19
ATOM     19  C   UNL     1      -7.225 -30.082 -49.376  1.00  0.00    -0.003 C 
ATOM     20  C   UNL     1      -6.331 -28.866 -49.613  1.00  0.00     0.004 C 
ENDBRANCH  18  19
ENDBRANCH  17  18
ENDBRANCH  16  17
ENDBRANCH  15  16
ENDBRANCH  14  15
ENDBRANCH  13  14
ENDBRANCH  12  13
ENDBRANCH   1  12
TORSDOF 16
ENDMDL
MODEL 4
REMARK VINA RESULT:    -5.549      1.364      3.496
REMARK INTER + INTRA:         -13.000
REMARK INTER:                 -10.771
REMARK INTRA:                  -2.229
REMARK UNBOUND:                -2.260
REMARK SMILES CCCCCCCCCCCCCCCCCC(=O)[O-]
REMARK SMILES IDX 10 1 11 2 12 3 13 4 14 5 15 6 16 7 17 8 18 9 19 10 20 11
REMARK SMILES IDX 9 12 8 13 7 14 6 15 5 16 4 17 3 18 2 19 1 20
REMARK H PARENT
REMARK Flexibility Score: inf
ROOT
ATOM      1  C   UNL     1      -3.428 -29.197 -52.684  1.00  0.00     0.000 C 
ENDROOT
BRANCH   1   2
ATOM      2  C   UNL     1      -4.755 -28.894 -53.401  1.00  0.00     0.000 C 
BRANCH   2   3
ATOM      3  C   UNL     1      -5.348 -30.129 -54.093  1.00  0.00     0.000 C 
BRANCH   3   4
ATOM      4  C   UNL     1      -4.700 -31.419 -53.564  1.00  0.00     0.000 C 
BRANCH   4   5
ATOM      5  C   UNL     1      -5.607 -32.175 -52.580  1.00  0.00     0.000 C 
BRANCH   5   6
ATOM      6  C   UNL     1      -5.236 -31.910 -51.111  1.00  0.00     0.000 C 
BRANCH   6   7
ATOM      7  C   UNL     1      -6.412 -31.344 -50.298  1.00  0.00     0.006 C 
BRANCH   7   8
ATOM      8  C   UNL     1      -6.333 -29.820 -50.132  1.00  0.00     0.053 C 
BRANCH   8   9
ATOM      9  C   UNL     1      -7.115 -29.381 -48.935  1.00  0.00     0.041 C 
ATOM     10  O   UNL     1      -8.179 -29.978 -48.618  1.00  0.00    -0.550 OA
ATOM     11  O   UNL     1      -6.653 -28.334 -48.148  1.00  0.00    -0.550 OA
ENDBRANCH   8   9
ENDBRANCH   7   8
ENDBRANCH   6   7
ENDBRANCH   5   6
ENDBRANCH   4   5
ENDBRANCH   3   4
ENDBRANCH   2   3
ENDBRANCH   1   2
BRANCH   1  12
ATOM     12  C   UNL     1      -2.434 -28.028 -52.754  1.00  0.00     0.000 C 
BRANCH  12  13
ATOM     13  C   UNL     1      -0.994 -28.540 -52.865  1.00  0.00    -0.000 C 
BRANCH  13  14
ATOM     14  C   UNL     1      -0.434 -28.923 -51.487  1.00  0.00    -0.000 C 
BRANCH  14  15
ATOM     15  C   UNL     1      -0.397 -30.443 -51.257  1.00  0.00    -0.000 C 
BRANCH  15  16
ATOM     16  C   UNL     1       0.829 -31.137 -51.888  1.00  0.00    -0.000 C 
BRANCH  16  17
ATOM     17  C   UNL     1       0.428 -32.306 -52.807  1.00  0.00    -0.000 C 
BRANCH  17  18
ATOM     18  C   UNL     1      -1.043 -32.214 -53.264  1.00  0.00    -0.000 C 
BRANCH  18  19
ATOM     19  C   UNL     1      -1.829 -33.522 -53.081  1.00  0.00    -0.003 C 
ATOM     20  C   UNL     1      -2.246 -33.772 -51.633  1.00  0.00     0.004 C 
ENDBRANCH  18  19
ENDBRANCH  17  18
ENDBRANCH  16  17
ENDBRANCH  15  16
ENDBRANCH  14  15
ENDBRANCH  13  14
ENDBRANCH  12  13
ENDBRANCH   1  12
TORSDOF 16
ENDMDL
MODEL 5
REMARK VINA RESULT:    -5.503      1.251      4.623
REMARK INTER + INTRA:         -12.911
REMARK INTER:                 -10.493
REMARK INTRA:                  -2.418
REMARK UNBOUND:                -2.260
REMARK SMILES CCCCCCCCCCCCCCCCCC(=O)[O-]
REMARK SMILES IDX 10 1 11 2 12 3 13 4 14 5 15 6 16 7 17 8 18 9 19 10 20 11
REMARK SMILES IDX 9 12 8 13 7 14 6 15 5 16 4 17 3 18 2 19 1 20
REMARK H PARENT
REMARK Flexibility Score: inf
ROOT
ATOM      1  C   UNL     1      -0.712 -32.590 -53.239  1.00  0.00     0.000 C 
ENDROOT
BRANCH   1   2
ATOM      2  C   UNL     1      -2.170 -32.977 -52.941  1.00  0.00     0.000 C 
BRANCH   2   3
ATOM      3  C   UNL     1      -2.399 -33.326 -51.463  1.00  0.00     0.000 C 
BRANCH   3   4
ATOM      4  C   UNL     1      -3.766 -32.812 -50.984  1.00  0.00     0.000 C 
BRANCH   4   5
ATOM      5  C   UNL     1      -4.738 -32.547 -52.145  1.00  0.00     0.000 C 
BRANCH   5   6
ATOM      6  C   UNL     1      -6.102 -32.020 -51.667  1.00  0.00     0.000 C 
BRANCH   6   7
ATOM      7  C   UNL     1      -6.014 -31.295 -50.315  1.00  0.00     0.006 C 
BRANCH   7   8
ATOM      8  C   UNL     1      -7.340 -31.329 -49.543  1.00  0.00     0.053 C 
BRANCH   8   9
ATOM      9  C   UNL     1      -7.532 -30.060 -48.773  1.00  0.00     0.041 C 
ATOM     10  O   UNL     1      -8.666 -29.765 -48.309  1.00  0.00    -0.550 OA
ATOM     11  O   UNL     1      -6.452 -29.218 -48.539  1.00  0.00    -0.550 OA
ENDBRANCH   8   9
ENDBRANCH   7   8
ENDBRANCH   6   7
ENDBRANCH   5   6
ENDBRANCH   4   5
ENDBRANCH   3   4
ENDBRANCH   2   3
ENDBRANCH   1   2
BRANCH   1  12
ATOM     12  C   UNL     1       0.132 -32.431 -51.966  1.00  0.00     0.000 C 
BRANCH  12  13
ATOM     13  C   UNL     1       0.618 -30.987 -51.807  1.00  0.00    -0.000 C 
BRANCH  13  14
ATOM     14  C   UNL     1      -0.549 -30.041 -51.487  1.00  0.00    -0.000 C 
BRANCH  14  15
ATOM     15  C   UNL     1      -0.556 -28.780 -52.368  1.00  0.00    -0.000 C 
BRANCH  15  16
ATOM     16  C   UNL     1      -1.969 -28.220 -52.638  1.00  0.00    -0.000 C 
BRANCH  16  17
ATOM     17  C   UNL     1      -3.072 -29.255 -52.351  1.00  0.00    -0.000 C 
BRANCH  17  18
ATOM     18  C   UNL     1      -4.182 -29.241 -53.423  1.00  0.00    -0.000 C 
BRANCH  18  19
ATOM     19  C   UNL     1      -5.265 -28.178 -53.176  1.00  0.00    -0.003 C 
ATOM     20  C   UNL     1      -5.568 -27.965 -51.693  1.00  0.00     0.004 C 
ENDBRANCH  18  19
ENDBRANCH  17  18
ENDBRANCH  16  17
ENDBRANCH  15  16
ENDBRANCH  14  15
ENDBRANCH  13  14
ENDBRANCH  12  13
ENDBRANCH   1  12
TORSDOF 16
ENDMDL
MODEL 6
REMARK VINA RESULT:    -5.495      3.038      6.785
REMARK INTER + INTRA:         -12.895
REMARK INTER:                 -11.224
REMARK INTRA:                  -1.672
REMARK UNBOUND:                -2.260
REMARK SMILES CCCCCCCCCCCCCCCCCC(=O)[O-]
REMARK SMILES IDX 10 1 11 2 12 3 13 4 14 5 15 6 16 7 17 8 18 9 19 10 20 11
REMARK SMILES IDX 9 12 8 13 7 14 6 15 5 16 4 17 3 18 2 19 1 20
REMARK H PARENT
REMARK Flexibility Score: inf
ROOT
ATOM      1  C   UNL     1      -5.470 -27.823 -53.273  1.00  0.00     0.000 C 
ENDROOT
BRANCH   1   2
ATOM      2  C   UNL     1      -4.785 -29.195 -53.163  1.00  0.00     0.000 C 
BRANCH   2   3
ATOM      3  C   UNL     1      -5.246 -30.175 -54.252  1.00  0.00     0.000 C 
BRANCH   3   4
ATOM      4  C   UNL     1      -5.249 -31.619 -53.725  1.00  0.00     0.000 C 
BRANCH   4   5
ATOM      5  C   UNL     1      -5.294 -31.687 -52.190  1.00  0.00     0.000 C 
BRANCH   5   6
ATOM      6  C   UNL     1      -4.196 -32.593 -51.605  1.00  0.00     0.000 C 
BRANCH   6   7
ATOM      7  C   UNL     1      -2.903 -32.564 -52.435  1.00  0.00     0.006 C 
BRANCH   7   8
ATOM      8  C   UNL     1      -1.943 -31.451 -51.989  1.00  0.00     0.053 C 
BRANCH   8   9
ATOM      9  C   UNL     1      -0.538 -31.961 -51.932  1.00  0.00     0.041 C 
ATOM     10  O   UNL     1      -0.209 -32.988 -52.585  1.00  0.00    -0.550 OA
ATOM     11  O   UNL     1       0.418 -31.284 -51.186  1.00  0.00    -0.550 OA
ENDBRANCH   8   9
ENDBRANCH   7   8
ENDBRANCH   6   7
ENDBRANCH   5   6
ENDBRANCH   4   5
ENDBRANCH   3   4
ENDBRANCH   2   3
ENDBRANCH   1   2
BRANCH   1  12
ATOM     12  C   UNL     1      -5.974 -27.299 -51.920  1.00  0.00     0.000 C 
BRANCH  12  13
ATOM     13  C   UNL     1      -5.665 -28.297 -50.798  1.00  0.00    -0.000 C 
BRANCH  13  14
ATOM     14  C   UNL     1      -6.277 -27.840 -49.466  1.00  0.00    -0.000 C 
BRANCH  14  15
ATOM     15  C   UNL     1      -6.391 -28.978 -48.438  1.00  0.00    -0.000 C 
BRANCH  15  16
ATOM     16  C   UNL     1      -6.648 -30.363 -49.070  1.00  0.00    -0.000 C 
BRANCH  16  17
ATOM     17  C   UNL     1      -8.084 -30.860 -48.822  1.00  0.00    -0.000 C 
BRANCH  17  18
ATOM     18  C   UNL     1      -8.853 -29.959 -47.834  1.00  0.00    -0.000 C 
BRANCH  18  19
ATOM     19  C   UNL     1     -10.341 -30.321 -47.697  1.00  0.00    -0.003 C 
ATOM     20  C   UNL     1     -10.753 -30.629 -46.259  1.00  0.00     0.004 C 
ENDBRANCH  18  19
ENDBRANCH  17  18
ENDBRANCH  16  17
ENDBRANCH  15  16
ENDBRANCH  14  15
ENDBRANCH  13  14
ENDBRANCH  12  13
ENDBRANCH   1  12
TORSDOF 16
ENDMDL
MODEL 7
REMARK VINA RESULT:    -5.491      1.739      4.420
REMARK INTER + INTRA:         -12.887
REMARK INTER:                 -11.087
REMARK INTRA:                  -1.801
REMARK UNBOUND:                -2.260
REMARK SMILES CCCCCCCCCCCCCCCCCC(=O)[O-]
REMARK SMILES IDX 10 1 11 2 12 3 13 4 14 5 15 6 16 7 17 8 18 9 19 10 20 11
REMARK SMILES IDX 9 12 8 13 7 14 6 15 5 16 4 17 3 18 2 19 1 20
REMARK H PARENT
REMARK Flexibility Score: inf
ROOT
ATOM      1  C   UNL     1      -1.945 -33.133 -52.622  1.00  0.00     0.000 C 
ENDROOT
BRANCH   1   2
ATOM      2  C   UNL     1      -3.149 -32.929 -51.686  1.00  0.00     0.000 C 
BRANCH   2   3
ATOM      3  C   UNL     1      -4.234 -32.035 -52.305  1.00  0.00     0.000 C 
BRANCH   3   4
ATOM      4  C   UNL     1      -5.568 -32.197 -51.559  1.00  0.00     0.000 C 
BRANCH   4   5
ATOM      5  C   UNL     1      -5.951 -30.945 -50.755  1.00  0.00     0.000 C 
BRANCH   5   6
ATOM      6  C   UNL     1      -7.118 -31.198 -49.784  1.00  0.00     0.000 C 
BRANCH   6   7
ATOM      7  C   UNL     1      -7.450 -29.968 -48.925  1.00  0.00     0.006 C 
BRANCH   7   8
ATOM      8  C   UNL     1      -6.236 -29.050 -48.720  1.00  0.00     0.053 C 
BRANCH   8   9
ATOM      9  C   UNL     1      -6.675 -27.629 -48.555  1.00  0.00     0.041 C 
ATOM     10  O   UNL     1      -7.043 -27.206 -47.426  1.00  0.00    -0.550 OA
ATOM     11  O   UNL     1      -6.646 -26.761 -49.640  1.00  0.00    -0.550 OA
ENDBRANCH   8   9
ENDBRANCH   7   8
ENDBRANCH   6   7
ENDBRANCH   5   6
ENDBRANCH   4   5
ENDBRANCH   3   4
ENDBRANCH   2   3
ENDBRANCH   1   2
BRANCH   1  12
ATOM     12  C   UNL     1      -0.601 -32.870 -51.927  1.00  0.00     0.000 C 
BRANCH  12  13
ATOM     13  C   UNL     1       0.002 -31.539 -52.388  1.00  0.00    -0.000 C 
BRANCH  13  14
ATOM     14  C   UNL     1       0.016 -30.512 -51.247  1.00  0.00    -0.000 C 
BRANCH  14  15
ATOM     15  C   UNL     1      -0.650 -29.180 -51.632  1.00  0.00    -0.000 C 
BRANCH  15  16
ATOM     16  C   UNL     1      -1.804 -29.332 -52.646  1.00  0.00    -0.000 C 
BRANCH  16  17
ATOM     17  C   UNL     1      -2.617 -28.034 -52.804  1.00  0.00    -0.000 C 
BRANCH  17  18
ATOM     18  C   UNL     1      -4.136 -28.276 -52.686  1.00  0.00    -0.000 C 
BRANCH  18  19
ATOM     19  C   UNL     1      -4.887 -28.148 -54.021  1.00  0.00    -0.003 C 
ATOM     20  C   UNL     1      -5.544 -29.454 -54.466  1.00  0.00     0.004 C 
ENDBRANCH  18  19
ENDBRANCH  17  18
ENDBRANCH  16  17
ENDBRANCH  15  16
ENDBRANCH  14  15
ENDBRANCH  13  14
ENDBRANCH  12  13
ENDBRANCH   1  12
TORSDOF 16
ENDMDL
MODEL 8
REMARK VINA RESULT:    -5.489      0.983      2.999
REMARK INTER + INTRA:         -12.883
REMARK INTER:                 -10.694
REMARK INTRA:                  -2.189
REMARK UNBOUND:                -2.260
REMARK SMILES CCCCCCCCCCCCCCCCCC(=O)[O-]
REMARK SMILES IDX 10 1 11 2 12 3 13 4 14 5 15 6 16 7 17 8 18 9 19 10 20 11
REMARK SMILES IDX 9 12 8 13 7 14 6 15 5 16 4 17 3 18 2 19 1 20
REMARK H PARENT
REMARK Flexibility Score: inf
ROOT
ATOM      1  C   UNL     1      -2.867 -28.744 -52.774  1.00  0.00     0.000 C 
ENDROOT
BRANCH   1   2
ATOM      2  C   UNL     1      -3.843 -27.803 -53.501  1.00  0.00     0.000 C 
BRANCH   2   3
ATOM      3  C   UNL     1      -5.307 -28.056 -53.113  1.00  0.00     0.000 C 
BRANCH   3   4
ATOM      4  C   UNL     1      -5.933 -26.800 -52.487  1.00  0.00     0.000 C 
BRANCH   4   5
ATOM      5  C   UNL     1      -6.377 -27.023 -51.032  1.00  0.00     0.000 C 
BRANCH   5   6
ATOM      6  C   UNL     1      -5.900 -28.373 -50.469  1.00  0.00     0.000 C 
BRANCH   6   7
ATOM      7  C   UNL     1      -6.362 -28.606 -49.021  1.00  0.00     0.006 C 
BRANCH   7   8
ATOM      8  C   UNL     1      -6.392 -30.094 -48.646  1.00  0.00     0.053 C 
BRANCH   8   9
ATOM      9  C   UNL     1      -7.732 -30.686 -48.950  1.00  0.00     0.041 C 
ATOM     10  O   UNL     1      -7.817 -31.769 -49.589  1.00  0.00    -0.550 OA
ATOM     11  O   UNL     1      -8.888 -30.060 -48.499  1.00  0.00    -0.550 OA
ENDBRANCH   8   9
ENDBRANCH   7   8
ENDBRANCH   6   7
ENDBRANCH   5   6
ENDBRANCH   4   5
ENDBRANCH   3   4
ENDBRANCH   2   3
ENDBRANCH   1   2
BRANCH   1  12
ATOM     12  C   UNL     1      -1.451 -28.162 -52.664  1.00  0.00     0.000 C 
BRANCH  12  13
ATOM     13  C   UNL     1      -0.404 -29.278 -52.580  1.00  0.00    -0.000 C 
BRANCH  13  14
ATOM     14  C   UNL     1      -0.631 -30.159 -51.342  1.00  0.00    -0.000 C 
BRANCH  14  15
ATOM     15  C   UNL     1      -0.674 -31.660 -51.675  1.00  0.00    -0.000 C 
BRANCH  15  16
ATOM     16  C   UNL     1      -1.302 -31.973 -53.051  1.00  0.00    -0.000 C 
BRANCH  16  17
ATOM     17  C   UNL     1      -2.744 -32.497 -52.927  1.00  0.00    -0.000 C 
BRANCH  17  18
ATOM     18  C   UNL     1      -3.124 -32.829 -51.469  1.00  0.00    -0.000 C 
BRANCH  18  19
ATOM     19  C   UNL     1      -4.522 -32.332 -51.066  1.00  0.00    -0.003 C 
ATOM     20  C   UNL     1      -5.283 -31.685 -52.223  1.00  0.00     0.004 C 
ENDBRANCH  18  19
ENDBRANCH  17  18
ENDBRANCH  16  17
ENDBRANCH  15  16
ENDBRANCH  14  15
ENDBRANCH  13  14
ENDBRANCH  12  13
ENDBRANCH   1  12
TORSDOF 16
ENDMDL
MODEL 9
REMARK VINA RESULT:    -5.482      3.081      6.447
REMARK INTER + INTRA:         -12.869
REMARK INTER:                 -10.658
REMARK INTRA:                  -2.212
REMARK UNBOUND:                -2.260
REMARK SMILES CCCCCCCCCCCCCCCCCC(=O)[O-]
REMARK SMILES IDX 10 1 11 2 12 3 13 4 14 5 15 6 16 7 17 8 18 9 19 10 20 11
REMARK SMILES IDX 9 12 8 13 7 14 6 15 5 16 4 17 3 18 2 19 1 20
REMARK H PARENT
REMARK Flexibility Score: inf
ROOT
ATOM      1  C   UNL     1      -5.376 -32.343 -52.461  1.00  0.00     0.000 C 
ENDROOT
BRANCH   1   2
ATOM      2  C   UNL     1      -4.508 -32.317 -51.191  1.00  0.00     0.000 C 
BRANCH   2   3
ATOM      3  C   UNL     1      -3.334 -33.305 -51.257  1.00  0.00     0.000 C 
BRANCH   3   4
ATOM      4  C   UNL     1      -2.027 -32.634 -50.807  1.00  0.00     0.000 C 
BRANCH   4   5
ATOM      5  C   UNL     1      -0.986 -32.550 -51.935  1.00  0.00     0.000 C 
BRANCH   5   6
ATOM      6  C   UNL     1      -1.174 -31.307 -52.823  1.00  0.00     0.000 C 
BRANCH   6   7
ATOM      7  C   UNL     1      -1.677 -30.088 -52.033  1.00  0.00     0.006 C 
BRANCH   7   8
ATOM      8  C   UNL     1      -0.535 -29.161 -51.593  1.00  0.00     0.053 C 
BRANCH   8   9
ATOM      9  C   UNL     1      -0.349 -28.053 -52.580  1.00  0.00     0.041 C 
ATOM     10  O   UNL     1      -0.747 -26.888 -52.310  1.00  0.00    -0.550 OA
ATOM     11  O   UNL     1       0.296 -28.296 -53.787  1.00  0.00    -0.550 OA
ENDBRANCH   8   9
ENDBRANCH   7   8
ENDBRANCH   6   7
ENDBRANCH   5   6
ENDBRANCH   4   5
ENDBRANCH   3   4
ENDBRANCH   2   3
ENDBRANCH   1   2
BRANCH   1  12
ATOM     12  C   UNL     1      -4.770 -31.526 -53.611  1.00  0.00     0.000 C 
BRANCH  12  13
ATOM     13  C   UNL     1      -5.588 -30.257 -53.871  1.00  0.00    -0.000 C 
BRANCH  13  14
ATOM     14  C   UNL     1      -4.710 -29.001 -53.772  1.00  0.00    -0.000 C 
BRANCH  14  15
ATOM     15  C   UNL     1      -5.144 -28.056 -52.639  1.00  0.00    -0.000 C 
BRANCH  15  16
ATOM     16  C   UNL     1      -5.185 -28.728 -51.250  1.00  0.00    -0.000 C 
BRANCH  16  17
ATOM     17  C   UNL     1      -6.212 -28.067 -50.312  1.00  0.00    -0.000 C 
BRANCH  17  18
ATOM     18  C   UNL     1      -6.375 -28.838 -48.985  1.00  0.00    -0.000 C 
BRANCH  18  19
ATOM     19  C   UNL     1      -6.802 -30.303 -49.171  1.00  0.00    -0.003 C 
ATOM     20  C   UNL     1      -8.228 -30.575 -48.694  1.00  0.00     0.004 C 
ENDBRANCH  18  19
ENDBRANCH  17  18
ENDBRANCH  16  17
ENDBRANCH  15  16
ENDBRANCH  14  15
ENDBRANCH  13  14
ENDBRANCH  12  13
ENDBRANCH   1  12
TORSDOF 16
ENDMDL
