MODEL 1
REMARK VINA RESULT:    -4.482      0.000      0.000
REMARK INTER + INTRA:         -13.376
REMARK INTER:                  -9.721
REMARK INTRA:                  -3.655
REMARK UNBOUND:                -3.655
REMARK SMILES CCCCCCCCCCCCCCCCCCCCCC(=O)[O-]
REMARK SMILES IDX 12 1 11 2 10 3 9 4 8 5 7 6 6 7 5 8 4 9 3 10 2 11 1 12 13 13
REMARK SMILES IDX 14 14 15 15 16 16 17 17 18 18 19 19 20 20 21 21 22 22 23 23
REMARK SMILES IDX 24 24
REMARK H PARENT
REMARK Flexibility Score: inf
ROOT
ATOM      1  C   UNL     1      49.941 -37.474  -2.742  1.00  0.00     0.000 C 
ENDROOT
BRANCH   1   2
ATOM      2  C   UNL     1      48.585 -37.853  -2.124  1.00  0.00     0.000 C 
BRANCH   2   3
ATOM      3  C   UNL     1      47.777 -36.626  -1.663  1.00  0.00     0.000 C 
BRANCH   3   4
ATOM      4  C   UNL     1      46.273 -36.879  -1.435  1.00  0.00    -0.000 C 
BRANCH   4   5
ATOM      5  C   UNL     1      45.966 -38.143  -0.603  1.00  0.00    -0.000 C 
BRANCH   5   6
ATOM      6  C   UNL     1      44.909 -39.041  -1.274  1.00  0.00    -0.000 C 
BRANCH   6   7
ATOM      7  C   UNL     1      45.526 -39.993  -2.326  1.00  0.00    -0.000 C 
BRANCH   7   8
ATOM      8  C   UNL     1      45.032 -39.723  -3.757  1.00  0.00    -0.000 C 
BRANCH   8   9
ATOM      9  C   UNL     1      46.133 -39.254  -4.725  1.00  0.00    -0.000 C 
BRANCH   9  10
ATOM     10  C   UNL     1      45.958 -37.793  -5.200  1.00  0.00    -0.000 C 
BRANCH  10  11
ATOM     11  C   UNL     1      44.611 -37.189  -4.778  1.00  0.00    -0.003 C 
ATOM     12  C   UNL     1      44.728 -35.683  -4.552  1.00  0.00     0.004 C 
ENDBRANCH  10  11
ENDBRANCH   9  10
ENDBRANCH   8   9
ENDBRANCH   7   8
ENDBRANCH   6   7
ENDBRANCH   5   6
ENDBRANCH   4   5
ENDBRANCH   3   4
ENDBRANCH   2   3
ENDBRANCH   1   2
BRANCH   1  13
ATOM     13  C   UNL     1      49.808 -36.838  -4.136  1.00  0.00     0.000 C 
BRANCH  13  14
ATOM     14  C   UNL     1      49.526 -37.855  -5.262  1.00  0.00     0.000 C 
BRANCH  14  15
ATOM     15  C   UNL     1      50.729 -38.781  -5.521  1.00  0.00     0.000 C 
BRANCH  15  16
ATOM     16  C   UNL     1      50.350 -40.268  -5.494  1.00  0.00     0.000 C 
BRANCH  16  17
ATOM     17  C   UNL     1      49.211 -40.570  -4.504  1.00  0.00     0.000 C 
BRANCH  17  18
ATOM     18  C   UNL     1      49.701 -41.294  -3.239  1.00  0.00     0.000 C 
BRANCH  18  19
ATOM     19  C   UNL     1      51.143 -41.812  -3.375  1.00  0.00     0.000 C 
BRANCH  19  20
ATOM     20  C   UNL     1      52.066 -41.270  -2.271  1.00  0.00     0.006 C 
BRANCH  20  21
ATOM     21  C   UNL     1      52.683 -39.913  -2.633  1.00  0.00     0.053 C 
BRANCH  21  22
ATOM     22  C   UNL     1      54.099 -39.834  -2.155  1.00  0.00     0.041 C 
ATOM     23  O   UNL     1      54.641 -38.714  -1.959  1.00  0.00    -0.550 OA
ATOM     24  O   UNL     1      54.803 -40.999  -1.874  1.00  0.00    -0.550 OA
ENDBRANCH  21  22
ENDBRANCH  20  21
ENDBRANCH  19  20
ENDBRANCH  18  19
ENDBRANCH  17  18
ENDBRANCH  16  17
ENDBRANCH  15  16
ENDBRANCH  14  15
ENDBRANCH  13  14
ENDBRANCH   1  13
TORSDOF 20
ENDMDL
MODEL 2
REMARK VINA RESULT:    -4.454      1.361      4.066
REMARK INTER + INTRA:         -13.316
REMARK INTER:                  -9.813
REMARK INTRA:                  -3.503
REMARK UNBOUND:                -3.655
REMARK SMILES CCCCCCCCCCCCCCCCCCCCCC(=O)[O-]
REMARK SMILES IDX 12 1 11 2 10 3 9 4 8 5 7 6 6 7 5 8 4 9 3 10 2 11 1 12 13 13
REMARK SMILES IDX 14 14 15 15 16 16 17 17 18 18 19 19 20 20 21 21 22 22 23 23
REMARK SMILES IDX 24 24
REMARK H PARENT
REMARK Flexibility Score: inf
ROOT
ATOM      1  C   UNL     1      45.891 -37.624  -1.423  1.00  0.00     0.000 C 
ENDROOT
BRANCH   1   2
ATOM      2  C   UNL     1      46.225 -38.242  -0.055  1.00  0.00     0.000 C 
BRANCH   2   3
ATOM      3  C   UNL     1      47.649 -37.901   0.420  1.00  0.00     0.000 C 
BRANCH   3   4
ATOM      4  C   UNL     1      47.915 -36.404   0.677  1.00  0.00    -0.000 C 
BRANCH   4   5
ATOM      5  C   UNL     1      49.029 -35.802  -0.207  1.00  0.00    -0.000 C 
BRANCH   5   6
ATOM      6  C   UNL     1      48.467 -35.105  -1.460  1.00  0.00    -0.000 C 
BRANCH   6   7
ATOM      7  C   UNL     1      48.942 -35.775  -2.771  1.00  0.00    -0.000 C 
BRANCH   7   8
ATOM      8  C   UNL     1      49.625 -37.135  -2.548  1.00  0.00    -0.000 C 
BRANCH   8   9
ATOM      9  C   UNL     1      50.553 -37.569  -3.697  1.00  0.00    -0.000 C 
BRANCH   9  10
ATOM     10  C   UNL     1      50.273 -36.834  -5.029  1.00  0.00    -0.000 C 
BRANCH  10  11
ATOM     11  C   UNL     1      51.001 -37.471  -6.223  1.00  0.00    -0.003 C 
ATOM     12  C   UNL     1      51.069 -38.990  -6.081  1.00  0.00     0.004 C 
ENDBRANCH  10  11
ENDBRANCH   9  10
ENDBRANCH   8   9
ENDBRANCH   7   8
ENDBRANCH   6   7
ENDBRANCH   5   6
ENDBRANCH   4   5
ENDBRANCH   3   4
ENDBRANCH   2   3
ENDBRANCH   1   2
BRANCH   1  13
ATOM     13  C   UNL     1      44.713 -38.322  -2.125  1.00  0.00     0.000 C 
BRANCH  13  14
ATOM     14  C   UNL     1      45.046 -38.834  -3.542  1.00  0.00     0.000 C 
BRANCH  14  15
ATOM     15  C   UNL     1      46.449 -38.398  -4.001  1.00  0.00     0.000 C 
BRANCH  15  16
ATOM     16  C   UNL     1      47.355 -39.587  -4.353  1.00  0.00     0.000 C 
BRANCH  16  17
ATOM     17  C   UNL     1      47.490 -40.590  -3.194  1.00  0.00     0.000 C 
BRANCH  17  18
ATOM     18  C   UNL     1      48.935 -40.714  -2.682  1.00  0.00     0.000 C 
BRANCH  18  19
ATOM     19  C   UNL     1      49.858 -41.430  -3.683  1.00  0.00     0.000 C 
BRANCH  19  20
ATOM     20  C   UNL     1      51.226 -41.777  -3.073  1.00  0.00     0.006 C 
BRANCH  20  21
ATOM     21  C   UNL     1      52.068 -40.531  -2.769  1.00  0.00     0.053 C 
BRANCH  21  22
ATOM     22  C   UNL     1      53.346 -40.913  -2.089  1.00  0.00     0.041 C 
ATOM     23  O   UNL     1      53.509 -42.086  -1.658  1.00  0.00    -0.550 OA
ATOM     24  O   UNL     1      54.378 -39.989  -1.979  1.00  0.00    -0.550 OA
ENDBRANCH  21  22
ENDBRANCH  20  21
ENDBRANCH  19  20
ENDBRANCH  18  19
ENDBRANCH  17  18
ENDBRANCH  16  17
ENDBRANCH  15  16
ENDBRANCH  14  15
ENDBRANCH  13  14
ENDBRANCH   1  13
TORSDOF 20
ENDMDL
MODEL 3
REMARK VINA RESULT:    -4.403      3.008      6.394
REMARK INTER + INTRA:         -13.206
REMARK INTER:                  -9.547
REMARK INTRA:                  -3.659
REMARK UNBOUND:                -3.655
REMARK SMILES CCCCCCCCCCCCCCCCCCCCCC(=O)[O-]
REMARK SMILES IDX 12 1 11 2 10 3 9 4 8 5 7 6 6 7 5 8 4 9 3 10 2 11 1 12 13 13
REMARK SMILES IDX 14 14 15 15 16 16 17 17 18 18 19 19 20 20 21 21 22 22 23 23
REMARK SMILES IDX 24 24
REMARK H PARENT
REMARK Flexibility Score: inf
ROOT
ATOM      1  C   UNL     1      45.196 -39.919  -3.757  1.00  0.00     0.000 C 
ENDROOT
BRANCH   1   2
ATOM      2  C   UNL     1      46.549 -40.637  -3.622  1.00  0.00     0.000 C 
BRANCH   2   3
ATOM      3  C   UNL     1      47.634 -40.041  -4.536  1.00  0.00     0.000 C 
BRANCH   3   4
ATOM      4  C   UNL     1      48.750 -41.019  -4.955  1.00  0.00    -0.000 C 
BRANCH   4   5
ATOM      5  C   UNL     1      49.209 -41.971  -3.829  1.00  0.00    -0.000 C 
BRANCH   5   6
ATOM      6  C   UNL     1      50.689 -41.765  -3.457  1.00  0.00    -0.000 C 
BRANCH   6   7
ATOM      7  C   UNL     1      50.929 -40.430  -2.712  1.00  0.00    -0.000 C 
BRANCH   7   8
ATOM      8  C   UNL     1      51.894 -39.485  -3.449  1.00  0.00    -0.000 C 
BRANCH   8   9
ATOM      9  C   UNL     1      51.340 -38.066  -3.667  1.00  0.00    -0.000 C 
BRANCH   9  10
ATOM     10  C   UNL     1      50.551 -37.905  -4.988  1.00  0.00    -0.000 C 
BRANCH  10  11
ATOM     11  C   UNL     1      51.466 -37.679  -6.201  1.00  0.00    -0.003 C 
ATOM     12  C   UNL     1      51.663 -38.972  -6.991  1.00  0.00     0.004 C 
ENDBRANCH  10  11
ENDBRANCH   9  10
ENDBRANCH   8   9
ENDBRANCH   7   8
ENDBRANCH   6   7
ENDBRANCH   5   6
ENDBRANCH   4   5
ENDBRANCH   3   4
ENDBRANCH   2   3
ENDBRANCH   1   2
BRANCH   1  13
ATOM     13  C   UNL     1      45.275 -38.652  -4.626  1.00  0.00     0.000 C 
BRANCH  13  14
ATOM     14  C   UNL     1      44.956 -37.350  -3.861  1.00  0.00     0.000 C 
BRANCH  14  15
ATOM     15  C   UNL     1      44.593 -37.617  -2.388  1.00  0.00     0.000 C 
BRANCH  15  16
ATOM     16  C   UNL     1      45.622 -37.034  -1.408  1.00  0.00     0.000 C 
BRANCH  16  17
ATOM     17  C   UNL     1      46.566 -38.104  -0.835  1.00  0.00     0.000 C 
BRANCH  17  18
ATOM     18  C   UNL     1      47.979 -38.036  -1.439  1.00  0.00     0.000 C 
BRANCH  18  19
ATOM     19  C   UNL     1      48.235 -36.720  -2.195  1.00  0.00     0.000 C 
BRANCH  19  20
ATOM     20  C   UNL     1      49.321 -35.862  -1.525  1.00  0.00     0.006 C 
BRANCH  20  21
ATOM     21  C   UNL     1      49.023 -35.587  -0.045  1.00  0.00     0.053 C 
BRANCH  21  22
ATOM     22  C   UNL     1      47.969 -34.532   0.091  1.00  0.00     0.041 C 
ATOM     23  O   UNL     1      47.114 -34.606   1.013  1.00  0.00    -0.550 OA
ATOM     24  O   UNL     1      47.965 -33.439  -0.767  1.00  0.00    -0.550 OA
ENDBRANCH  21  22
ENDBRANCH  20  21
ENDBRANCH  19  20
ENDBRANCH  18  19
ENDBRANCH  17  18
ENDBRANCH  16  17
ENDBRANCH  15  16
ENDBRANCH  14  15
ENDBRANCH  13  14
ENDBRANCH   1  13
TORSDOF 20
ENDMDL
MODEL 4
REMARK VINA RESULT:    -4.367      1.825      4.104
REMARK INTER + INTRA:         -13.128
REMARK INTER:                  -9.830
REMARK INTRA:                  -3.297
REMARK UNBOUND:                -3.655
REMARK SMILES CCCCCCCCCCCCCCCCCCCCCC(=O)[O-]
REMARK SMILES IDX 12 1 11 2 10 3 9 4 8 5 7 6 6 7 5 8 4 9 3 10 2 11 1 12 13 13
REMARK SMILES IDX 14 14 15 15 16 16 17 17 18 18 19 19 20 20 21 21 22 22 23 23
REMARK SMILES IDX 24 24
REMARK H PARENT
REMARK Flexibility Score: inf
ROOT
ATOM      1  C   UNL     1      47.310 -40.395  -3.512  1.00  0.00     0.000 C 
ENDROOT
BRANCH   1   2
ATOM      2  C   UNL     1      46.667 -39.241  -2.724  1.00  0.00     0.000 C 
BRANCH   2   3
ATOM      3  C   UNL     1      47.681 -38.154  -2.327  1.00  0.00     0.000 C 
BRANCH   3   4
ATOM      4  C   UNL     1      47.410 -36.755  -2.919  1.00  0.00    -0.000 C 
BRANCH   4   5
ATOM      5  C   UNL     1      48.416 -35.675  -2.466  1.00  0.00    -0.000 C 
BRANCH   5   6
ATOM      6  C   UNL     1      49.213 -36.106  -1.221  1.00  0.00    -0.000 C 
BRANCH   6   7
ATOM      7  C   UNL     1      48.702 -35.427   0.072  1.00  0.00    -0.000 C 
BRANCH   7   8
ATOM      8  C   UNL     1      48.690 -36.366   1.291  1.00  0.00    -0.000 C 
BRANCH   8   9
ATOM      9  C   UNL     1      47.604 -37.455   1.235  1.00  0.00    -0.000 C 
BRANCH   9  10
ATOM     10  C   UNL     1      46.168 -36.891   1.121  1.00  0.00    -0.000 C 
BRANCH  10  11
ATOM     11  C   UNL     1      45.219 -37.833   0.366  1.00  0.00    -0.003 C 
ATOM     12  C   UNL     1      44.387 -38.671   1.335  1.00  0.00     0.004 C 
ENDBRANCH  10  11
ENDBRANCH   9  10
ENDBRANCH   8   9
ENDBRANCH   7   8
ENDBRANCH   6   7
ENDBRANCH   5   6
ENDBRANCH   4   5
ENDBRANCH   3   4
ENDBRANCH   2   3
ENDBRANCH   1   2
BRANCH   1  13
ATOM     13  C   UNL     1      48.606 -40.914  -2.865  1.00  0.00     0.000 C 
BRANCH  13  14
ATOM     14  C   UNL     1      49.649 -41.423  -3.881  1.00  0.00     0.000 C 
BRANCH  14  15
ATOM     15  C   UNL     1      49.436 -40.821  -5.283  1.00  0.00     0.000 C 
BRANCH  15  16
ATOM     16  C   UNL     1      50.523 -39.806  -5.663  1.00  0.00     0.000 C 
BRANCH  16  17
ATOM     17  C   UNL     1      50.191 -38.379  -5.193  1.00  0.00     0.000 C 
BRANCH  17  18
ATOM     18  C   UNL     1      51.006 -37.955  -3.960  1.00  0.00     0.000 C 
BRANCH  18  19
ATOM     19  C   UNL     1      52.328 -38.732  -3.829  1.00  0.00     0.000 C 
BRANCH  19  20
ATOM     20  C   UNL     1      52.475 -39.410  -2.457  1.00  0.00     0.006 C 
BRANCH  20  21
ATOM     21  C   UNL     1      53.918 -39.844  -2.168  1.00  0.00     0.053 C 
BRANCH  21  22
ATOM     22  C   UNL     1      53.979 -41.315  -1.895  1.00  0.00     0.041 C 
ATOM     23  O   UNL     1      52.919 -41.990  -1.820  1.00  0.00    -0.550 OA
ATOM     24  O   UNL     1      55.210 -41.949  -1.776  1.00  0.00    -0.550 OA
ENDBRANCH  21  22
ENDBRANCH  20  21
ENDBRANCH  19  20
ENDBRANCH  18  19
ENDBRANCH  17  18
ENDBRANCH  16  17
ENDBRANCH  15  16
ENDBRANCH  14  15
ENDBRANCH  13  14
ENDBRANCH   1  13
TORSDOF 20
ENDMDL
MODEL 5
REMARK VINA RESULT:    -4.285      1.376      3.135
REMARK INTER + INTRA:         -12.949
REMARK INTER:                  -9.960
REMARK INTRA:                  -2.990
REMARK UNBOUND:                -3.655
REMARK SMILES CCCCCCCCCCCCCCCCCCCCCC(=O)[O-]
REMARK SMILES IDX 12 1 11 2 10 3 9 4 8 5 7 6 6 7 5 8 4 9 3 10 2 11 1 12 13 13
REMARK SMILES IDX 14 14 15 15 16 16 17 17 18 18 19 19 20 20 21 21 22 22 23 23
REMARK SMILES IDX 24 24
REMARK H PARENT
REMARK Flexibility Score: inf
ROOT
ATOM      1  C   UNL     1      49.091 -36.057  -6.008  1.00  0.00     0.000 C 
ENDROOT
BRANCH   1   2
ATOM      2  C   UNL     1      48.074 -34.921  -6.202  1.00  0.00     0.000 C 
BRANCH   2   3
ATOM      3  C   UNL     1      46.672 -35.434  -6.578  1.00  0.00     0.000 C 
BRANCH   3   4
ATOM      4  C   UNL     1      45.677 -35.545  -5.404  1.00  0.00    -0.000 C 
BRANCH   4   5
ATOM      5  C   UNL     1      44.635 -36.672  -5.568  1.00  0.00    -0.000 C 
BRANCH   5   6
ATOM      6  C   UNL     1      45.290 -38.062  -5.667  1.00  0.00    -0.000 C 
BRANCH   6   7
ATOM      7  C   UNL     1      45.005 -38.939  -4.424  1.00  0.00    -0.000 C 
BRANCH   7   8
ATOM      8  C   UNL     1      46.278 -39.505  -3.773  1.00  0.00    -0.000 C 
BRANCH   8   9
ATOM      9  C   UNL     1      46.915 -38.575  -2.725  1.00  0.00    -0.000 C 
BRANCH   9  10
ATOM     10  C   UNL     1      47.160 -39.258  -1.359  1.00  0.00    -0.000 C 
BRANCH  10  11
ATOM     11  C   UNL     1      46.302 -40.516  -1.161  1.00  0.00    -0.003 C 
ATOM     12  C   UNL     1      44.996 -40.185  -0.441  1.00  0.00     0.004 C 
ENDBRANCH  10  11
ENDBRANCH   9  10
ENDBRANCH   8   9
ENDBRANCH   7   8
ENDBRANCH   6   7
ENDBRANCH   5   6
ENDBRANCH   4   5
ENDBRANCH   3   4
ENDBRANCH   2   3
ENDBRANCH   1   2
BRANCH   1  13
ATOM     13  C   UNL     1      49.193 -36.528  -4.547  1.00  0.00     0.000 C 
BRANCH  13  14
ATOM     14  C   UNL     1      50.257 -37.621  -4.317  1.00  0.00     0.000 C 
BRANCH  14  15
ATOM     15  C   UNL     1      50.822 -38.168  -5.641  1.00  0.00     0.000 C 
BRANCH  15  16
ATOM     16  C   UNL     1      50.624 -39.684  -5.788  1.00  0.00     0.000 C 
BRANCH  16  17
ATOM     17  C   UNL     1      49.356 -40.186  -5.077  1.00  0.00     0.000 C 
BRANCH  17  18
ATOM     18  C   UNL     1      49.619 -41.414  -4.189  1.00  0.00     0.000 C 
BRANCH  18  19
ATOM     19  C   UNL     1      50.132 -41.032  -2.789  1.00  0.00     0.000 C 
BRANCH  19  20
ATOM     20  C   UNL     1      51.635 -41.310  -2.620  1.00  0.00     0.006 C 
BRANCH  20  21
ATOM     21  C   UNL     1      52.471 -40.024  -2.593  1.00  0.00     0.053 C 
BRANCH  21  22
ATOM     22  C   UNL     1      53.872 -40.318  -2.151  1.00  0.00     0.041 C 
ATOM     23  O   UNL     1      54.711 -39.384  -2.041  1.00  0.00    -0.550 OA
ATOM     24  O   UNL     1      54.235 -41.615  -1.809  1.00  0.00    -0.550 OA
ENDBRANCH  21  22
ENDBRANCH  20  21
ENDBRANCH  19  20
ENDBRANCH  18  19
ENDBRANCH  17  18
ENDBRANCH  16  17
ENDBRANCH  15  16
ENDBRANCH  14  15
ENDBRANCH  13  14
ENDBRANCH   1  13
TORSDOF 20
ENDMDL
MODEL 6
REMARK VINA RESULT:    -4.279      1.595      4.030
REMARK INTER + INTRA:         -12.937
REMARK INTER:                  -9.398
REMARK INTRA:                  -3.540
REMARK UNBOUND:                -3.655
REMARK SMILES CCCCCCCCCCCCCCCCCCCCCC(=O)[O-]
REMARK SMILES IDX 12 1 11 2 10 3 9 4 8 5 7 6 6 7 5 8 4 9 3 10 2 11 1 12 13 13
REMARK SMILES IDX 14 14 15 15 16 16 17 17 18 18 19 19 20 20 21 21 22 22 23 23
REMARK SMILES IDX 24 24
REMARK H PARENT
REMARK Flexibility Score: inf
ROOT
ATOM      1  C   UNL     1      47.398 -39.148  -1.826  1.00  0.00     0.000 C 
ENDROOT
BRANCH   1   2
ATOM      2  C   UNL     1      46.258 -38.375  -2.512  1.00  0.00     0.000 C 
BRANCH   2   3
ATOM      3  C   UNL     1      45.547 -39.203  -3.597  1.00  0.00     0.000 C 
BRANCH   3   4
ATOM      4  C   UNL     1      45.744 -38.699  -5.042  1.00  0.00    -0.000 C 
BRANCH   4   5
ATOM      5  C   UNL     1      45.429 -37.200  -5.234  1.00  0.00    -0.000 C 
BRANCH   5   6
ATOM      6  C   UNL     1      46.559 -36.456  -5.970  1.00  0.00    -0.000 C 
BRANCH   6   7
ATOM      7  C   UNL     1      46.885 -35.089  -5.321  1.00  0.00    -0.000 C 
BRANCH   7   8
ATOM      8  C   UNL     1      48.349 -34.966  -4.862  1.00  0.00    -0.000 C 
BRANCH   8   9
ATOM      9  C   UNL     1      48.537 -34.146  -3.573  1.00  0.00    -0.000 C 
BRANCH   9  10
ATOM     10  C   UNL     1      47.566 -34.548  -2.438  1.00  0.00    -0.000 C 
BRANCH  10  11
ATOM     11  C   UNL     1      48.290 -34.844  -1.116  1.00  0.00    -0.003 C 
ATOM     12  C   UNL     1      49.359 -35.919  -1.301  1.00  0.00     0.004 C 
ENDBRANCH  10  11
ENDBRANCH   9  10
ENDBRANCH   8   9
ENDBRANCH   7   8
ENDBRANCH   6   7
ENDBRANCH   5   6
ENDBRANCH   4   5
ENDBRANCH   3   4
ENDBRANCH   2   3
ENDBRANCH   1   2
BRANCH   1  13
ATOM     13  C   UNL     1      47.490 -40.613  -2.284  1.00  0.00     0.000 C 
BRANCH  13  14
ATOM     14  C   UNL     1      48.831 -40.974  -2.956  1.00  0.00     0.000 C 
BRANCH  14  15
ATOM     15  C   UNL     1      48.707 -41.058  -4.489  1.00  0.00     0.000 C 
BRANCH  15  16
ATOM     16  C   UNL     1      49.667 -40.103  -5.214  1.00  0.00     0.000 C 
BRANCH  16  17
ATOM     17  C   UNL     1      49.365 -38.624  -4.919  1.00  0.00     0.000 C 
BRANCH  17  18
ATOM     18  C   UNL     1      50.471 -37.944  -4.094  1.00  0.00     0.000 C 
BRANCH  18  19
ATOM     19  C   UNL     1      51.865 -38.530  -4.379  1.00  0.00     0.000 C 
BRANCH  19  20
ATOM     20  C   UNL     1      52.631 -38.872  -3.090  1.00  0.00     0.006 C 
BRANCH  20  21
ATOM     21  C   UNL     1      52.413 -40.325  -2.645  1.00  0.00     0.053 C 
BRANCH  21  22
ATOM     22  C   UNL     1      53.656 -40.873  -2.016  1.00  0.00     0.041 C 
ATOM     23  O   UNL     1      53.680 -42.057  -1.587  1.00  0.00    -0.550 OA
ATOM     24  O   UNL     1      54.805 -40.093  -1.951  1.00  0.00    -0.550 OA
ENDBRANCH  21  22
ENDBRANCH  20  21
ENDBRANCH  19  20
ENDBRANCH  18  19
ENDBRANCH  17  18
ENDBRANCH  16  17
ENDBRANCH  15  16
ENDBRANCH  14  15
ENDBRANCH  13  14
ENDBRANCH   1  13
TORSDOF 20
ENDMDL
MODEL 7
REMARK VINA RESULT:    -4.276      1.397      2.783
REMARK INTER + INTRA:         -12.930
REMARK INTER:                  -9.381
REMARK INTRA:                  -3.550
REMARK UNBOUND:                -3.655
REMARK SMILES CCCCCCCCCCCCCCCCCCCCCC(=O)[O-]
REMARK SMILES IDX 12 1 11 2 10 3 9 4 8 5 7 6 6 7 5 8 4 9 3 10 2 11 1 12 13 13
REMARK SMILES IDX 14 14 15 15 16 16 17 17 18 18 19 19 20 20 21 21 22 22 23 23
REMARK SMILES IDX 24 24
REMARK H PARENT
REMARK Flexibility Score: inf
ROOT
ATOM      1  C   UNL     1      47.859 -37.143   0.494  1.00  0.00     0.000 C 
ENDROOT
BRANCH   1   2
ATOM      2  C   UNL     1      46.543 -37.081  -0.300  1.00  0.00     0.000 C 
BRANCH   2   3
ATOM      3  C   UNL     1      46.129 -38.448  -0.874  1.00  0.00     0.000 C 
BRANCH   3   4
ATOM      4  C   UNL     1      47.287 -39.437  -1.116  1.00  0.00    -0.000 C 
BRANCH   4   5
ATOM      5  C   UNL     1      47.088 -40.351  -2.344  1.00  0.00    -0.000 C 
BRANCH   5   6
ATOM      6  C   UNL     1      45.825 -39.984  -3.146  1.00  0.00    -0.000 C 
BRANCH   6   7
ATOM      7  C   UNL     1      46.143 -39.627  -4.617  1.00  0.00    -0.000 C 
BRANCH   7   8
ATOM      8  C   UNL     1      45.375 -38.395  -5.126  1.00  0.00    -0.000 C 
BRANCH   8   9
ATOM      9  C   UNL     1      45.399 -37.196  -4.160  1.00  0.00    -0.000 C 
BRANCH   9  10
ATOM     10  C   UNL     1      45.731 -35.852  -4.849  1.00  0.00    -0.000 C 
BRANCH  10  11
ATOM     11  C   UNL     1      45.997 -36.007  -6.353  1.00  0.00    -0.003 C 
ATOM     12  C   UNL     1      47.198 -35.169  -6.790  1.00  0.00     0.004 C 
ENDBRANCH  10  11
ENDBRANCH   9  10
ENDBRANCH   8   9
ENDBRANCH   7   8
ENDBRANCH   6   7
ENDBRANCH   5   6
ENDBRANCH   4   5
ENDBRANCH   3   4
ENDBRANCH   2   3
ENDBRANCH   1   2
BRANCH   1  13
ATOM     13  C   UNL     1      48.875 -36.076   0.053  1.00  0.00     0.000 C 
BRANCH  13  14
ATOM     14  C   UNL     1      48.796 -35.720  -1.446  1.00  0.00     0.000 C 
BRANCH  14  15
ATOM     15  C   UNL     1      49.614 -36.693  -2.317  1.00  0.00     0.000 C 
BRANCH  15  16
ATOM     16  C   UNL     1      49.369 -36.492  -3.819  1.00  0.00     0.000 C 
BRANCH  16  17
ATOM     17  C   UNL     1      49.044 -37.809  -4.546  1.00  0.00     0.000 C 
BRANCH  17  18
ATOM     18  C   UNL     1      50.284 -38.692  -4.761  1.00  0.00     0.000 C 
BRANCH  18  19
ATOM     19  C   UNL     1      50.194 -40.031  -4.009  1.00  0.00     0.000 C 
BRANCH  19  20
ATOM     20  C   UNL     1      51.454 -40.322  -3.177  1.00  0.00     0.006 C 
BRANCH  20  21
ATOM     21  C   UNL     1      52.414 -39.126  -3.127  1.00  0.00     0.053 C 
BRANCH  21  22
ATOM     22  C   UNL     1      53.665 -39.488  -2.386  1.00  0.00     0.041 C 
ATOM     23  O   UNL     1      54.468 -38.588  -2.021  1.00  0.00    -0.550 OA
ATOM     24  O   UNL     1      53.916 -40.813  -2.053  1.00  0.00    -0.550 OA
ENDBRANCH  21  22
ENDBRANCH  20  21
ENDBRANCH  19  20
ENDBRANCH  18  19
ENDBRANCH  17  18
ENDBRANCH  16  17
ENDBRANCH  15  16
ENDBRANCH  14  15
ENDBRANCH  13  14
ENDBRANCH   1  13
TORSDOF 20
ENDMDL
MODEL 8
REMARK VINA RESULT:    -4.257      2.594      5.083
REMARK INTER + INTRA:         -12.890
REMARK INTER:                  -9.184
REMARK INTRA:                  -3.706
REMARK UNBOUND:                -3.655
REMARK SMILES CCCCCCCCCCCCCCCCCCCCCC(=O)[O-]
REMARK SMILES IDX 12 1 11 2 10 3 9 4 8 5 7 6 6 7 5 8 4 9 3 10 2 11 1 12 13 13
REMARK SMILES IDX 14 14 15 15 16 16 17 17 18 18 19 19 20 20 21 21 22 22 23 23
REMARK SMILES IDX 24 24
REMARK H PARENT
REMARK Flexibility Score: inf
ROOT
ATOM      1  C   UNL     1      51.209 -40.482  -2.573  1.00  0.00     0.000 C 
ENDROOT
BRANCH   1   2
ATOM      2  C   UNL     1      52.070 -39.472  -3.351  1.00  0.00     0.000 C 
BRANCH   2   3
ATOM      3  C   UNL     1      51.261 -38.262  -3.853  1.00  0.00     0.000 C 
BRANCH   3   4
ATOM      4  C   UNL     1      51.188 -38.111  -5.386  1.00  0.00    -0.000 C 
BRANCH   4   5
ATOM      5  C   UNL     1      50.498 -36.813  -5.858  1.00  0.00    -0.000 C 
BRANCH   5   6
ATOM      6  C   UNL     1      49.082 -36.659  -5.271  1.00  0.00    -0.000 C 
BRANCH   6   7
ATOM      7  C   UNL     1      48.551 -35.210  -5.384  1.00  0.00    -0.000 C 
BRANCH   7   8
ATOM      8  C   UNL     1      47.016 -35.125  -5.438  1.00  0.00    -0.000 C 
BRANCH   8   9
ATOM      9  C   UNL     1      46.400 -35.687  -6.731  1.00  0.00    -0.000 C 
BRANCH   9  10
ATOM     10  C   UNL     1      45.202 -36.634  -6.486  1.00  0.00    -0.000 C 
BRANCH  10  11
ATOM     11  C   UNL     1      45.549 -37.799  -5.548  1.00  0.00    -0.003 C 
ATOM     12  C   UNL     1      44.303 -38.326  -4.839  1.00  0.00     0.004 C 
ENDBRANCH  10  11
ENDBRANCH   9  10
ENDBRANCH   8   9
ENDBRANCH   7   8
ENDBRANCH   6   7
ENDBRANCH   5   6
ENDBRANCH   4   5
ENDBRANCH   3   4
ENDBRANCH   2   3
ENDBRANCH   1   2
BRANCH   1  13
ATOM     13  C   UNL     1      50.960 -41.784  -3.353  1.00  0.00     0.000 C 
BRANCH  13  14
ATOM     14  C   UNL     1      49.482 -42.011  -3.732  1.00  0.00     0.000 C 
BRANCH  14  15
ATOM     15  C   UNL     1      49.036 -41.106  -4.896  1.00  0.00     0.000 C 
BRANCH  15  16
ATOM     16  C   UNL     1      47.967 -40.086  -4.478  1.00  0.00     0.000 C 
BRANCH  16  17
ATOM     17  C   UNL     1      47.287 -40.454  -3.148  1.00  0.00     0.000 C 
BRANCH  17  18
ATOM     18  C   UNL     1      47.680 -39.511  -1.999  1.00  0.00     0.000 C 
BRANCH  18  19
ATOM     19  C   UNL     1      46.623 -38.423  -1.739  1.00  0.00     0.000 C 
BRANCH  19  20
ATOM     20  C   UNL     1      47.127 -37.018  -2.106  1.00  0.00     0.006 C 
BRANCH  20  21
ATOM     21  C   UNL     1      48.585 -36.788  -1.687  1.00  0.00     0.053 C 
BRANCH  21  22
ATOM     22  C   UNL     1      48.648 -36.065  -0.377  1.00  0.00     0.041 C 
ATOM     23  O   UNL     1      48.842 -34.821  -0.348  1.00  0.00    -0.550 OA
ATOM     24  O   UNL     1      48.437 -36.758   0.809  1.00  0.00    -0.550 OA
ENDBRANCH  21  22
ENDBRANCH  20  21
ENDBRANCH  19  20
ENDBRANCH  18  19
ENDBRANCH  17  18
ENDBRANCH  16  17
ENDBRANCH  15  16
ENDBRANCH  14  15
ENDBRANCH  13  14
ENDBRANCH   1  13
TORSDOF 20
ENDMDL
MODEL 9
REMARK VINA RESULT:    -4.228      1.695      4.393
REMARK INTER + INTRA:         -12.827
REMARK INTER:                  -9.281
REMARK INTRA:                  -3.546
REMARK UNBOUND:                -3.655
REMARK SMILES CCCCCCCCCCCCCCCCCCCCCC(=O)[O-]
REMARK SMILES IDX 12 1 11 2 10 3 9 4 8 5 7 6 6 7 5 8 4 9 3 10 2 11 1 12 13 13
REMARK SMILES IDX 14 14 15 15 16 16 17 17 18 18 19 19 20 20 21 21 22 22 23 23
REMARK SMILES IDX 24 24
REMARK H PARENT
REMARK Flexibility Score: inf
ROOT
ATOM      1  C   UNL     1      44.688 -39.346  -0.657  1.00  0.00     0.000 C 
ENDROOT
BRANCH   1   2
ATOM      2  C   UNL     1      45.157 -37.882  -0.607  1.00  0.00     0.000 C 
BRANCH   2   3
ATOM      3  C   UNL     1      44.352 -36.967  -1.547  1.00  0.00     0.000 C 
BRANCH   3   4
ATOM      4  C   UNL     1      45.198 -36.039  -2.443  1.00  0.00    -0.000 C 
BRANCH   4   5
ATOM      5  C   UNL     1      45.986 -36.778  -3.547  1.00  0.00    -0.000 C 
BRANCH   5   6
ATOM      6  C   UNL     1      47.476 -36.390  -3.560  1.00  0.00    -0.000 C 
BRANCH   6   7
ATOM      7  C   UNL     1      48.248 -36.968  -2.350  1.00  0.00    -0.000 C 
BRANCH   7   8
ATOM      8  C   UNL     1      49.479 -36.133  -1.956  1.00  0.00    -0.000 C 
BRANCH   8   9
ATOM      9  C   UNL     1      49.378 -35.484  -0.565  1.00  0.00    -0.000 C 
BRANCH   9  10
ATOM     10  C   UNL     1      47.923 -35.253  -0.093  1.00  0.00    -0.000 C 
BRANCH  10  11
ATOM     11  C   UNL     1      47.678 -35.745   1.341  1.00  0.00    -0.003 C 
ATOM     12  C   UNL     1      47.994 -37.234   1.474  1.00  0.00     0.004 C 
ENDBRANCH  10  11
ENDBRANCH   9  10
ENDBRANCH   8   9
ENDBRANCH   7   8
ENDBRANCH   6   7
ENDBRANCH   5   6
ENDBRANCH   4   5
ENDBRANCH   3   4
ENDBRANCH   2   3
ENDBRANCH   1   2
BRANCH   1  13
ATOM     13  C   UNL     1      45.851 -40.351  -0.597  1.00  0.00     0.000 C 
BRANCH  13  14
ATOM     14  C   UNL     1      46.842 -40.229  -1.773  1.00  0.00     0.000 C 
BRANCH  14  15
ATOM     15  C   UNL     1      46.133 -40.289  -3.138  1.00  0.00     0.000 C 
BRANCH  15  16
ATOM     16  C   UNL     1      47.116 -40.294  -4.318  1.00  0.00     0.000 C 
BRANCH  16  17
ATOM     17  C   UNL     1      48.422 -41.042  -3.996  1.00  0.00     0.000 C 
BRANCH  17  18
ATOM     18  C   UNL     1      49.544 -40.738  -5.002  1.00  0.00     0.000 C 
BRANCH  18  19
ATOM     19  C   UNL     1      50.233 -39.390  -4.729  1.00  0.00     0.000 C 
BRANCH  19  20
ATOM     20  C   UNL     1      50.849 -39.321  -3.321  1.00  0.00     0.006 C 
BRANCH  20  21
ATOM     21  C   UNL     1      52.283 -38.776  -3.333  1.00  0.00     0.053 C 
BRANCH  21  22
ATOM     22  C   UNL     1      53.179 -39.637  -2.498  1.00  0.00     0.041 C 
ATOM     23  O   UNL     1      52.870 -40.836  -2.267  1.00  0.00    -0.550 OA
ATOM     24  O   UNL     1      54.382 -39.130  -2.020  1.00  0.00    -0.550 OA
ENDBRANCH  21  22
ENDBRANCH  20  21
ENDBRANCH  19  20
ENDBRANCH  18  19
ENDBRANCH  17  18
ENDBRANCH  16  17
ENDBRANCH  15  16
ENDBRANCH  14  15
ENDBRANCH  13  14
ENDBRANCH   1  13
TORSDOF 20
ENDMDL
