MODEL 1
REMARK VINA RESULT:    -3.385      0.000      0.000
REMARK INTER + INTRA:          -4.568
REMARK INTER:                  -5.166
REMARK INTRA:                   0.599
REMARK UNBOUND:                 0.599
REMARK SMILES CC1=CCC[C@H](C)C(=O)C[C@@H](C(C)C)C(=O)C1
REMARK SMILES IDX 8 1 9 2 6 3 7 4 5 5 4 6 3 7 2 8 1 9 10 11 11 12 15 13 16 14
REMARK SMILES IDX 17 15 12 17 13 18 14 19
REMARK H PARENT
REMARK Flexibility Score: 70.00
ROOT
ATOM      1  C   UNL     1       0.660 -12.978   9.270  1.00  0.00     0.136 C 
ATOM      2  O   UNL     1       0.231 -12.017   9.894  1.00  0.00    -0.299 OA
ENDROOT
BRANCH   1   3
ATOM      3  C   UNL     1       1.358 -12.774   7.936  1.00  0.00     0.053 C 
ATOM      4  C   UNL     1       0.516 -11.946   6.953  1.00  0.00     0.016 C 
BRANCH   3   5
ATOM      5  C   UNL     1       2.766 -12.171   8.123  1.00  0.00     0.015 C 
BRANCH   5   6
ATOM      6  C   UNL     1       3.901 -13.212   8.063  1.00  0.00     0.028 C 
BRANCH   6   7
ATOM      7  C   UNL     1       4.551 -13.371   9.413  1.00  0.00    -0.028 C 
ATOM      8  C   UNL     1       4.633 -14.537  10.095  1.00  0.00    -0.070 CG0
ATOM      9  C   UNL     1       5.378 -14.539  11.406  1.00  0.00     0.039 C 
ATOM     10  G   UNL     1       3.993 -15.830   9.610  1.00  0.00     0.000 G0
ENDBRANCH   6   7
ENDBRANCH   5   6
ENDBRANCH   3   5
ENDBRANCH   1   3
BRANCH   1  11
ATOM     11  C   UNL     1       0.487 -14.361   9.851  1.00  0.00     0.087 C 
BRANCH  11  12
ATOM     12  C   UNL     1       1.770 -14.860  10.567  1.00  0.00     0.066 C 
BRANCH  12  13
ATOM     13  C   UNL     1       2.513 -15.887   9.723  1.00  0.00     0.140 C 
ATOM     14  O   UNL     1       1.894 -16.790   9.177  1.00  0.00    -0.299 OA
BRANCH  13  15
ATOM     15  C   UNL     1       4.018 -15.850   9.607  1.00  0.00     0.106 CG0
ATOM     16  G   UNL     1       4.604 -14.528  10.080  1.00  0.00     0.000 G0
ENDBRANCH  13  15
ENDBRANCH  12  13
BRANCH  12  17
ATOM     17  C   UNL     1       1.470 -15.373  12.009  1.00  0.00    -0.006 C 
ATOM     18  C   UNL     1       1.525 -14.229  13.035  1.00  0.00     0.008 C 
ATOM     19  C   UNL     1       2.368 -16.536  12.466  1.00  0.00     0.008 C 
ENDBRANCH  12  17
ENDBRANCH  11  12
ENDBRANCH   1  11
TORSDOF 1
ENDMDL
MODEL 2
REMARK VINA RESULT:    -3.233      2.077      4.021
REMARK INTER + INTRA:          -4.335
REMARK INTER:                  -4.086
REMARK INTRA:                  -0.248
REMARK UNBOUND:                 0.599
REMARK SMILES CC1=CCC[C@H](C)C(=O)C[C@@H](C(C)C)C(=O)C1
REMARK SMILES IDX 8 1 9 2 6 3 7 4 5 5 4 6 3 7 2 8 1 9 10 11 11 12 15 13 16 14
REMARK SMILES IDX 17 15 12 17 13 18 14 19
REMARK H PARENT
REMARK Flexibility Score: 70.00
ROOT
ATOM      1  C   UNL     1       2.266 -15.833  10.088  1.00  0.00     0.136 C 
ATOM      2  O   UNL     1       2.048 -16.563  11.045  1.00  0.00    -0.299 OA
ENDROOT
BRANCH   1   3
ATOM      3  C   UNL     1       1.114 -15.305   9.250  1.00  0.00     0.053 C 
ATOM      4  C   UNL     1       0.250 -16.432   8.662  1.00  0.00     0.016 C 
BRANCH   3   5
ATOM      5  C   UNL     1       0.261 -14.291  10.040  1.00  0.00     0.015 C 
BRANCH   5   6
ATOM      6  C   UNL     1       0.589 -12.820   9.720  1.00  0.00     0.028 C 
BRANCH   6   7
ATOM      7  C   UNL     1       1.231 -12.700   8.362  1.00  0.00    -0.028 C 
ATOM      8  C   UNL     1       2.531 -12.385   8.150  1.00  0.00    -0.070 CG0
ATOM      9  C   UNL     1       3.034 -12.373   6.729  1.00  0.00     0.039 C 
ATOM     10  G   UNL     1       3.491 -12.023   9.275  1.00  0.00     0.000 G0
ENDBRANCH   6   7
ENDBRANCH   5   6
ENDBRANCH   3   5
ENDBRANCH   1   3
BRANCH   1  11
ATOM     11  C   UNL     1       3.694 -15.469   9.759  1.00  0.00     0.087 C 
BRANCH  11  12
ATOM     12  C   UNL     1       4.170 -14.212  10.536  1.00  0.00     0.066 C 
BRANCH  12  13
ATOM     13  C   UNL     1       4.509 -13.069   9.588  1.00  0.00     0.140 C 
ATOM     14  O   UNL     1       5.633 -12.982   9.115  1.00  0.00    -0.299 OA
BRANCH  13  15
ATOM     15  C   UNL     1       3.494 -11.996   9.276  1.00  0.00     0.106 CG0
ATOM     16  G   UNL     1       2.551 -12.398   8.150  1.00  0.00     0.000 G0
ENDBRANCH  13  15
ENDBRANCH  12  13
BRANCH  12  17
ATOM     17  C   UNL     1       5.336 -14.541  11.519  1.00  0.00    -0.006 C 
ATOM     18  C   UNL     1       5.813 -15.994  11.360  1.00  0.00     0.008 C 
ATOM     19  C   UNL     1       5.019 -14.246  12.995  1.00  0.00     0.008 C 
ENDBRANCH  12  17
ENDBRANCH  11  12
ENDBRANCH   1  11
TORSDOF 1
ENDMDL
MODEL 3
REMARK VINA RESULT:    -3.230      1.750      3.898
REMARK INTER + INTRA:          -4.331
REMARK INTER:                  -5.331
REMARK INTRA:                   1.000
REMARK UNBOUND:                 0.599
REMARK SMILES CC1=CCC[C@H](C)C(=O)C[C@@H](C(C)C)C(=O)C1
REMARK SMILES IDX 8 1 9 2 6 3 7 4 5 5 4 6 3 7 2 8 1 9 10 11 11 12 15 13 16 14
REMARK SMILES IDX 17 15 12 17 13 18 14 19
REMARK H PARENT
REMARK Flexibility Score: 70.00
ROOT
ATOM      1  C   UNL     1       0.927 -13.879   9.022  1.00  0.00     0.136 C 
ATOM      2  O   UNL     1       0.375 -13.373   8.055  1.00  0.00    -0.299 OA
ENDROOT
BRANCH   1   3
ATOM      3  C   UNL     1       0.460 -15.223   9.553  1.00  0.00     0.053 C 
ATOM      4  C   UNL     1      -0.272 -16.054   8.486  1.00  0.00     0.016 C 
BRANCH   3   5
ATOM      5  C   UNL     1       1.623 -16.015  10.185  1.00  0.00     0.015 C 
BRANCH   5   6
ATOM      6  C   UNL     1       1.843 -15.708  11.680  1.00  0.00     0.028 C 
BRANCH   6   7
ATOM      7  C   UNL     1       3.239 -16.087  12.103  1.00  0.00    -0.028 C 
ATOM      8  C   UNL     1       4.319 -15.276  12.011  1.00  0.00    -0.070 CG0
ATOM      9  C   UNL     1       5.634 -15.785  12.542  1.00  0.00     0.039 C 
ATOM     10  G   UNL     1       4.265 -13.891  11.380  1.00  0.00     0.000 G0
ENDBRANCH   6   7
ENDBRANCH   5   6
ENDBRANCH   3   5
ENDBRANCH   1   3
BRANCH   1  11
ATOM     11  C   UNL     1       2.076 -13.146   9.673  1.00  0.00     0.087 C 
BRANCH  11  12
ATOM     12  C   UNL     1       3.420 -13.399   8.940  1.00  0.00     0.066 C 
BRANCH  12  13
ATOM     13  C   UNL     1       4.495 -13.883   9.904  1.00  0.00     0.140 C 
ATOM     14  O   UNL     1       5.541 -14.343   9.469  1.00  0.00    -0.299 OA
BRANCH  13  15
ATOM     15  C   UNL     1       4.260 -13.870  11.395  1.00  0.00     0.106 CG0
ATOM     16  G   UNL     1       4.337 -15.261  12.007  1.00  0.00     0.000 G0
ENDBRANCH  13  15
ENDBRANCH  12  13
BRANCH  12  17
ATOM     17  C   UNL     1       3.874 -12.158   8.109  1.00  0.00    -0.006 C 
ATOM     18  C   UNL     1       3.263 -12.172   6.699  1.00  0.00     0.008 C 
ATOM     19  C   UNL     1       5.400 -11.979   8.024  1.00  0.00     0.008 C 
ENDBRANCH  12  17
ENDBRANCH  11  12
ENDBRANCH   1  11
TORSDOF 1
ENDMDL
MODEL 4
REMARK VINA RESULT:    -2.999      2.002      4.294
REMARK INTER + INTRA:          -3.978
REMARK INTER:                  -4.108
REMARK INTRA:                   0.129
REMARK UNBOUND:                 0.599
REMARK SMILES CC1=CCC[C@H](C)C(=O)C[C@@H](C(C)C)C(=O)C1
REMARK SMILES IDX 8 1 9 2 6 3 7 4 5 5 4 6 3 7 2 8 1 9 10 11 11 12 15 13 16 14
REMARK SMILES IDX 17 15 12 17 13 18 14 19
REMARK H PARENT
REMARK Flexibility Score: 70.00
ROOT
ATOM      1  C   UNL     1       0.959 -12.836  12.844  1.00  0.00     0.136 C 
ATOM      2  O   UNL     1      -0.013 -12.206  13.239  1.00  0.00    -0.299 OA
ENDROOT
BRANCH   1   3
ATOM      3  C   UNL     1       1.816 -13.615  13.826  1.00  0.00     0.053 C 
ATOM      4  C   UNL     1       2.278 -12.754  15.014  1.00  0.00     0.016 C 
BRANCH   3   5
ATOM      5  C   UNL     1       1.105 -14.899  14.301  1.00  0.00     0.015 C 
BRANCH   5   6
ATOM      6  C   UNL     1       1.797 -16.198  13.844  1.00  0.00     0.028 C 
BRANCH   6   7
ATOM      7  C   UNL     1       3.262 -15.958  13.583  1.00  0.00    -0.028 C 
ATOM      8  C   UNL     1       3.824 -15.895  12.353  1.00  0.00    -0.070 CG0
ATOM      9  C   UNL     1       5.296 -15.580  12.263  1.00  0.00     0.039 C 
ATOM     10  G   UNL     1       3.045 -16.149  11.070  1.00  0.00     0.000 G0
ENDBRANCH   6   7
ENDBRANCH   5   6
ENDBRANCH   3   5
ENDBRANCH   1   3
BRANCH   1  11
ATOM     11  C   UNL     1       1.284 -12.827  11.369  1.00  0.00     0.087 C 
BRANCH  11  12
ATOM     12  C   UNL     1       1.190 -14.243  10.741  1.00  0.00     0.066 C 
BRANCH  12  13
ATOM     13  C   UNL     1       2.571 -14.813  10.448  1.00  0.00     0.140 C 
ATOM     14  O   UNL     1       3.310 -14.245   9.657  1.00  0.00    -0.299 OA
BRANCH  13  15
ATOM     15  C   UNL     1       3.017 -16.116  11.068  1.00  0.00     0.106 CG0
ATOM     16  G   UNL     1       3.817 -15.906  12.346  1.00  0.00     0.000 G0
ENDBRANCH  13  15
ENDBRANCH  12  13
BRANCH  12  17
ATOM     17  C   UNL     1       0.254 -14.265   9.492  1.00  0.00    -0.006 C 
ATOM     18  C   UNL     1       0.233 -15.652   8.830  1.00  0.00     0.008 C 
ATOM     19  C   UNL     1       0.573 -13.183   8.445  1.00  0.00     0.008 C 
ENDBRANCH  12  17
ENDBRANCH  11  12
ENDBRANCH   1  11
TORSDOF 1
ENDMDL
MODEL 5
REMARK VINA RESULT:    -2.927      2.064      4.891
REMARK INTER + INTRA:          -3.869
REMARK INTER:                  -3.754
REMARK INTRA:                  -0.115
REMARK UNBOUND:                 0.599
REMARK SMILES CC1=CCC[C@H](C)C(=O)C[C@@H](C(C)C)C(=O)C1
REMARK SMILES IDX 8 1 9 2 6 3 7 4 5 5 4 6 3 7 2 8 1 9 10 11 11 12 15 13 16 14
REMARK SMILES IDX 17 15 12 17 13 18 14 19
REMARK H PARENT
REMARK Flexibility Score: 70.00
ROOT
ATOM      1  C   UNL     1       1.831 -15.902  10.792  1.00  0.00     0.136 C 
ATOM      2  O   UNL     1       2.008 -16.798   9.978  1.00  0.00    -0.299 OA
ENDROOT
BRANCH   1   3
ATOM      3  C   UNL     1       2.485 -15.972  12.161  1.00  0.00     0.053 C 
ATOM      4  C   UNL     1       2.147 -17.273  12.909  1.00  0.00     0.016 C 
BRANCH   3   5
ATOM      5  C   UNL     1       4.009 -15.753  12.069  1.00  0.00     0.015 C 
BRANCH   5   6
ATOM      6  C   UNL     1       4.489 -14.443  12.725  1.00  0.00     0.028 C 
BRANCH   6   7
ATOM      7  C   UNL     1       3.574 -14.045  13.854  1.00  0.00    -0.028 C 
ATOM      8  C   UNL     1       2.668 -13.041  13.794  1.00  0.00    -0.070 CG0
ATOM      9  C   UNL     1       1.780 -12.817  14.992  1.00  0.00     0.039 C 
ATOM     10  G   UNL     1       2.524 -12.125  12.587  1.00  0.00     0.000 G0
ENDBRANCH   6   7
ENDBRANCH   5   6
ENDBRANCH   3   5
ENDBRANCH   1   3
BRANCH   1  11
ATOM     11  C   UNL     1       0.955 -14.733  10.410  1.00  0.00     0.087 C 
BRANCH  11  12
ATOM     12  C   UNL     1       1.737 -13.392  10.415  1.00  0.00     0.066 C 
BRANCH  12  13
ATOM     13  C   UNL     1       1.409 -12.563  11.649  1.00  0.00     0.140 C 
ATOM     14  O   UNL     1       0.259 -12.201  11.853  1.00  0.00    -0.299 OA
BRANCH  13  15
ATOM     15  C   UNL     1       2.500 -12.116  12.593  1.00  0.00     0.106 CG0
ATOM     16  G   UNL     1       2.645 -13.043  13.792  1.00  0.00     0.000 G0
ENDBRANCH  13  15
ENDBRANCH  12  13
BRANCH  12  17
ATOM     17  C   UNL     1       1.537 -12.597   9.088  1.00  0.00    -0.006 C 
ATOM     18  C   UNL     1       0.614 -13.348   8.115  1.00  0.00     0.008 C 
ATOM     19  C   UNL     1       2.848 -12.209   8.381  1.00  0.00     0.008 C 
ENDBRANCH  12  17
ENDBRANCH  11  12
ENDBRANCH   1  11
TORSDOF 1
ENDMDL
MODEL 6
REMARK VINA RESULT:    -2.882      4.638      7.405
REMARK INTER + INTRA:          -3.800
REMARK INTER:                  -3.508
REMARK INTRA:                  -0.292
REMARK UNBOUND:                 0.599
REMARK SMILES CC1=CCC[C@H](C)C(=O)C[C@@H](C(C)C)C(=O)C1
REMARK SMILES IDX 8 1 9 2 6 3 7 4 5 5 4 6 3 7 2 8 1 9 10 11 11 12 15 13 16 14
REMARK SMILES IDX 17 15 12 17 13 18 14 19
REMARK H PARENT
REMARK Flexibility Score: 70.00
ROOT
ATOM      1  C   UNL     1       0.857 -16.003  16.116  1.00  0.00     0.136 C 
ATOM      2  O   UNL     1       0.448 -14.850  16.129  1.00  0.00    -0.299 OA
ENDROOT
BRANCH   1   3
ATOM      3  C   UNL     1      -0.076 -17.150  16.466  1.00  0.00     0.053 C 
ATOM      4  C   UNL     1      -0.786 -17.727  15.230  1.00  0.00     0.016 C 
BRANCH   3   5
ATOM      5  C   UNL     1       0.655 -18.249  17.264  1.00  0.00     0.015 C 
BRANCH   5   6
ATOM      6  C   UNL     1       0.669 -19.621  16.561  1.00  0.00     0.028 C 
BRANCH   6   7
ATOM      7  C   UNL     1       2.050 -20.223  16.593  1.00  0.00    -0.028 C 
ATOM      8  C   UNL     1       2.970 -20.091  15.608  1.00  0.00    -0.070 CG0
ATOM      9  C   UNL     1       4.332 -20.699  15.826  1.00  0.00     0.039 C 
ATOM     10  G   UNL     1       2.681 -19.380  14.293  1.00  0.00     0.000 G0
ENDBRANCH   6   7
ENDBRANCH   5   6
ENDBRANCH   3   5
ENDBRANCH   1   3
BRANCH   1  11
ATOM     11  C   UNL     1       2.298 -16.262  15.746  1.00  0.00     0.087 C 
BRANCH  11  12
ATOM     12  C   UNL     1       2.446 -16.757  14.283  1.00  0.00     0.066 C 
BRANCH  12  13
ATOM     13  C   UNL     1       3.309 -18.010  14.205  1.00  0.00     0.140 C 
ATOM     14  O   UNL     1       4.513 -17.909  14.019  1.00  0.00    -0.299 OA
BRANCH  13  15
ATOM     15  C   UNL     1       2.687 -19.383  14.281  1.00  0.00     0.106 CG0
ATOM     16  G   UNL     1       2.972 -20.076  15.606  1.00  0.00     0.000 G0
ENDBRANCH  13  15
ENDBRANCH  12  13
BRANCH  12  17
ATOM     17  C   UNL     1       2.944 -15.626  13.332  1.00  0.00    -0.006 C 
ATOM     18  C   UNL     1       3.715 -14.542  14.103  1.00  0.00     0.008 C 
ATOM     19  C   UNL     1       1.835 -14.982  12.481  1.00  0.00     0.008 C 
ENDBRANCH  12  17
ENDBRANCH  11  12
ENDBRANCH   1  11
TORSDOF 1
ENDMDL
MODEL 7
REMARK VINA RESULT:    -2.880      2.555      3.844
REMARK INTER + INTRA:          -3.797
REMARK INTER:                  -4.120
REMARK INTRA:                   0.324
REMARK UNBOUND:                 0.599
REMARK SMILES CC1=CCC[C@H](C)C(=O)C[C@@H](C(C)C)C(=O)C1
REMARK SMILES IDX 8 1 9 2 6 3 7 4 5 5 4 6 3 7 2 8 1 9 10 11 11 12 15 13 16 14
REMARK SMILES IDX 17 15 12 17 13 18 14 19
REMARK H PARENT
REMARK Flexibility Score: 70.00
ROOT
ATOM      1  C   UNL     1       1.759 -16.044  11.601  1.00  0.00     0.136 C 
ATOM      2  O   UNL     1       1.385 -14.932  11.947  1.00  0.00    -0.299 OA
ENDROOT
BRANCH   1   3
ATOM      3  C   UNL     1       1.956 -16.360  10.128  1.00  0.00     0.053 C 
ATOM      4  C   UNL     1       0.777 -15.886   9.263  1.00  0.00     0.016 C 
BRANCH   3   5
ATOM      5  C   UNL     1       3.299 -15.807   9.607  1.00  0.00     0.015 C 
BRANCH   5   6
ATOM      6  C   UNL     1       3.961 -14.789  10.555  1.00  0.00     0.028 C 
BRANCH   6   7
ATOM      7  C   UNL     1       5.379 -15.196  10.868  1.00  0.00    -0.028 C 
ATOM      8  C   UNL     1       5.851 -15.445  12.112  1.00  0.00    -0.070 CG0
ATOM      9  C   UNL     1       7.279 -15.909  12.246  1.00  0.00     0.039 C 
ATOM     10  G   UNL     1       5.015 -15.259  13.370  1.00  0.00     0.000 G0
ENDBRANCH   6   7
ENDBRANCH   5   6
ENDBRANCH   3   5
ENDBRANCH   1   3
BRANCH   1  11
ATOM     11  C   UNL     1       2.023 -17.087  12.660  1.00  0.00     0.087 C 
BRANCH  11  12
ATOM     12  C   UNL     1       2.740 -16.493  13.901  1.00  0.00     0.066 C 
BRANCH  12  13
ATOM     13  C   UNL     1       4.253 -16.528  13.738  1.00  0.00     0.140 C 
ATOM     14  O   UNL     1       4.865 -17.565  13.951  1.00  0.00    -0.299 OA
BRANCH  13  15
ATOM     15  C   UNL     1       5.022 -15.277  13.386  1.00  0.00     0.106 CG0
ATOM     16  G   UNL     1       5.848 -15.442  12.118  1.00  0.00     0.000 G0
ENDBRANCH  13  15
ENDBRANCH  12  13
BRANCH  12  17
ATOM     17  C   UNL     1       2.263 -17.164  15.226  1.00  0.00    -0.006 C 
ATOM     18  C   UNL     1       0.795 -17.610  15.135  1.00  0.00     0.008 C 
ATOM     19  C   UNL     1       2.477 -16.302  16.483  1.00  0.00     0.008 C 
ENDBRANCH  12  17
ENDBRANCH  11  12
ENDBRANCH   1  11
TORSDOF 1
ENDMDL
MODEL 8
REMARK VINA RESULT:    -2.874      2.139      4.291
REMARK INTER + INTRA:          -3.788
REMARK INTER:                  -3.973
REMARK INTRA:                   0.185
REMARK UNBOUND:                 0.599
REMARK SMILES CC1=CCC[C@H](C)C(=O)C[C@@H](C(C)C)C(=O)C1
REMARK SMILES IDX 8 1 9 2 6 3 7 4 5 5 4 6 3 7 2 8 1 9 10 11 11 12 15 13 16 14
REMARK SMILES IDX 17 15 12 17 13 18 14 19
REMARK H PARENT
REMARK Flexibility Score: 70.00
ROOT
ATOM      1  C   UNL     1       4.280 -15.244   9.585  1.00  0.00     0.136 C 
ATOM      2  O   UNL     1       4.511 -16.387   9.215  1.00  0.00    -0.299 OA
ENDROOT
BRANCH   1   3
ATOM      3  C   UNL     1       5.323 -14.469  10.372  1.00  0.00     0.053 C 
ATOM      4  C   UNL     1       4.849 -13.055  10.743  1.00  0.00     0.016 C 
BRANCH   3   5
ATOM      5  C   UNL     1       5.789 -15.254  11.616  1.00  0.00     0.015 C 
BRANCH   5   6
ATOM      6  C   UNL     1       4.897 -15.042  12.855  1.00  0.00     0.028 C 
BRANCH   6   7
ATOM      7  C   UNL     1       4.328 -16.353  13.333  1.00  0.00    -0.028 C 
ATOM      8  C   UNL     1       3.022 -16.701  13.253  1.00  0.00    -0.070 CG0
ATOM      9  C   UNL     1       2.627 -18.080  13.717  1.00  0.00     0.039 C 
ATOM     10  G   UNL     1       1.942 -15.758  12.741  1.00  0.00     0.000 G0
ENDBRANCH   6   7
ENDBRANCH   5   6
ENDBRANCH   3   5
ENDBRANCH   1   3
BRANCH   1  11
ATOM     11  C   UNL     1       2.946 -14.622   9.245  1.00  0.00     0.087 C 
BRANCH  11  12
ATOM     12  C   UNL     1       2.068 -14.396  10.504  1.00  0.00     0.066 C 
BRANCH  12  13
ATOM     13  C   UNL     1       1.832 -15.698  11.258  1.00  0.00     0.140 C 
ATOM     14  O   UNL     1       1.511 -16.707  10.646  1.00  0.00    -0.299 OA
BRANCH  13  15
ATOM     15  C   UNL     1       1.919 -15.747  12.764  1.00  0.00     0.106 CG0
ATOM     16  G   UNL     1       3.002 -16.698  13.253  1.00  0.00     0.000 G0
ENDBRANCH  13  15
ENDBRANCH  12  13
BRANCH  12  17
ATOM     17  C   UNL     1       0.741 -13.651  10.163  1.00  0.00    -0.006 C 
ATOM     18  C   UNL     1       0.508 -13.582   8.645  1.00  0.00     0.008 C 
ATOM     19  C   UNL     1       0.628 -12.246  10.780  1.00  0.00     0.008 C 
ENDBRANCH  12  17
ENDBRANCH  11  12
ENDBRANCH   1  11
TORSDOF 1
ENDMDL
MODEL 9
REMARK VINA RESULT:    -2.758     14.300     16.659
REMARK INTER + INTRA:          -3.611
REMARK INTER:                  -3.707
REMARK INTRA:                   0.096
REMARK UNBOUND:                 0.599
REMARK SMILES CC1=CCC[C@H](C)C(=O)C[C@@H](C(C)C)C(=O)C1
REMARK SMILES IDX 8 1 9 2 6 3 7 4 5 5 4 6 3 7 2 8 1 9 10 11 11 12 15 13 16 14
REMARK SMILES IDX 17 15 12 17 13 18 14 19
REMARK H PARENT
REMARK Flexibility Score: 70.00
ROOT
ATOM      1  C   UNL     1       0.429 -29.289  10.204  1.00  0.00     0.136 C 
ATOM      2  O   UNL     1       0.808 -28.867   9.120  1.00  0.00    -0.299 OA
ENDROOT
BRANCH   1   3
ATOM      3  C   UNL     1       0.769 -28.536  11.479  1.00  0.00     0.053 C 
ATOM      4  C   UNL     1       0.676 -27.011  11.303  1.00  0.00     0.016 C 
BRANCH   3   5
ATOM      5  C   UNL     1      -0.088 -29.022  12.666  1.00  0.00     0.015 C 
BRANCH   5   6
ATOM      6  C   UNL     1      -1.299 -28.118  12.969  1.00  0.00     0.028 C 
BRANCH   6   7
ATOM      7  C   UNL     1      -2.432 -28.922  13.554  1.00  0.00    -0.028 C 
ATOM      8  C   UNL     1      -3.392 -29.541  12.828  1.00  0.00    -0.070 CG0
ATOM      9  C   UNL     1      -4.417 -30.364  13.566  1.00  0.00     0.039 C 
ATOM     10  G   UNL     1      -3.492 -29.424  11.313  1.00  0.00     0.000 G0
ENDBRANCH   6   7
ENDBRANCH   5   6
ENDBRANCH   3   5
ENDBRANCH   1   3
BRANCH   1  11
ATOM     11  C   UNL     1      -0.381 -30.563  10.249  1.00  0.00     0.087 C 
BRANCH  11  12
ATOM     12  C   UNL     1      -1.770 -30.397   9.576  1.00  0.00     0.066 C 
BRANCH  12  13
ATOM     13  C   UNL     1      -2.899 -30.601  10.576  1.00  0.00     0.140 C 
ATOM     14  O   UNL     1      -3.359 -31.720  10.756  1.00  0.00    -0.299 OA
BRANCH  13  15
ATOM     15  C   UNL     1      -3.512 -29.427  11.301  1.00  0.00     0.106 CG0
ATOM     16  G   UNL     1      -3.395 -29.552  12.813  1.00  0.00     0.000 G0
ENDBRANCH  13  15
ENDBRANCH  12  13
BRANCH  12  17
ATOM     17  C   UNL     1      -1.917 -31.300   8.312  1.00  0.00    -0.006 C 
ATOM     18  C   UNL     1      -0.634 -31.294   7.464  1.00  0.00     0.008 C 
ATOM     19  C   UNL     1      -3.134 -30.964   7.434  1.00  0.00     0.008 C 
ENDBRANCH  12  17
ENDBRANCH  11  12
ENDBRANCH   1  11
TORSDOF 1
ENDMDL
