MODEL 1
REMARK VINA RESULT:    29.102      0.000      0.000
REMARK INTER + INTRA:          40.527
REMARK INTER:                  40.161
REMARK INTRA:                   0.366
REMARK UNBOUND:                 0.366
REMARK SMILES O=C([O-])[C@H]1O[C@H](Oc2cc3oc(-c4ccccc4)cc(=O)c3c(O)c2O)[C@H](O)[C@H](O)[C@@H]1O
REMARK SMILES IDX 7 1 6 2 4 3 31 4 5 5 29 6 27 7 2 8 1 9 3 10 32 11 30 13
REMARK SMILES IDX 28 15 8 17 25 18 9 19 23 20 10 21 22 22 11 23 20 24 12 25
REMARK SMILES IDX 19 26 21 27 26 28 24 30 13 32 14 33 18 34 15 35 17 36 16 37
REMARK H PARENT 32 12 30 14 28 16 26 29 24 31
REMARK Flexibility Score: inf
ROOT
ATOM      1  O   UNL     1       1.963 -13.783  10.436  1.00  0.00    -0.458 OA
ENDROOT
BRANCH   1   2
ATOM      2  C   UNL     1       2.134 -15.002   9.704  1.00  0.00     0.339 C 
ATOM      3  C   UNL     1       1.312 -14.085   7.703  1.00  0.00     0.199 C 
ATOM      4  C   UNL     1       2.678 -14.165   6.983  1.00  0.00     0.180 C 
ATOM      5  O   UNL     1       1.182 -15.125   8.658  1.00  0.00    -0.328 OA
ATOM      6  C   UNL     1       3.839 -14.146   7.999  1.00  0.00     0.181 C 
ATOM      7  C   UNL     1       3.572 -15.123   9.165  1.00  0.00     0.214 C 
BRANCH   3   8
ATOM      8  C   UNL     1       0.198 -14.229   6.708  1.00  0.00     0.073 C 
ATOM      9  O   UNL     1       0.446 -14.241   5.473  1.00  0.00    -0.547 OA
ATOM     10  O   UNL     1      -1.113 -14.385   7.145  1.00  0.00    -0.547 OA
ENDBRANCH   3   8
BRANCH   4  11
ATOM     11  O   UNL     1       2.828 -13.093   6.086  1.00  0.00    -0.387 OA
ATOM     12  H   UNL     1       1.918 -12.760   5.873  1.00  0.00     0.211 HD
ENDBRANCH   4  11
BRANCH   6  13
ATOM     13  O   UNL     1       4.126 -12.846   8.461  1.00  0.00    -0.387 OA
ATOM     14  H   UNL     1       4.593 -12.351   7.742  1.00  0.00     0.211 HD
ENDBRANCH   6  13
BRANCH   7  15
ATOM     15  O   UNL     1       4.489 -14.914  10.208  1.00  0.00    -0.384 OA
ATOM     16  H   UNL     1       4.758 -15.812  10.535  1.00  0.00     0.211 HD
ENDBRANCH   7  15
ENDBRANCH   1   2
BRANCH   1  17
ATOM     17  C   UNL     1       1.910 -13.629  11.834  1.00  0.00     0.172 A 
ATOM     18  C   UNL     1       2.758 -14.306  12.746  1.00  0.00     0.201 A 
ATOM     19  C   UNL     1       0.952 -12.738  12.319  1.00  0.00     0.098 A 
ATOM     20  C   UNL     1       2.582 -14.119  14.143  1.00  0.00     0.176 A 
ATOM     21  C   UNL     1       0.797 -12.517  13.685  1.00  0.00     0.146 A 
ATOM     22  C   UNL     1       1.606 -13.205  14.612  1.00  0.00     0.111 A 
ATOM     23  O   UNL     1      -0.128 -11.655  14.096  1.00  0.00    -0.456 OA
ATOM     24  C   UNL     1       1.385 -12.947  15.983  1.00  0.00     0.197 A 
ATOM     25  C   UNL     1      -0.354 -11.380  15.378  1.00  0.00     0.138 A 
ATOM     26  C   UNL     1       0.402 -12.033  16.365  1.00  0.00     0.100 A 
ATOM     27  O   UNL     1       2.056 -13.525  16.880  1.00  0.00    -0.289 OA
BRANCH  18  28
ATOM     28  O   UNL     1       3.776 -15.125  12.252  1.00  0.00    -0.502 OA
ATOM     29  H   UNL     1       3.789 -16.131  12.324  1.00  0.00     0.293 HD
ENDBRANCH  18  28
BRANCH  20  30
ATOM     30  O   UNL     1       3.347 -14.830  15.073  1.00  0.00    -0.504 OA
ATOM     31  H   UNL     1       2.972 -15.480  15.747  1.00  0.00     0.293 HD
ENDBRANCH  20  30
BRANCH  25  32
ATOM     32  C   UNL     1      -1.413 -10.399  15.723  1.00  0.00     0.017 A 
ATOM     33  C   UNL     1      -2.404 -10.088  14.772  1.00  0.00     0.012 A 
ATOM     34  C   UNL     1      -1.439  -9.742  16.969  1.00  0.00     0.012 A 
ATOM     35  C   UNL     1      -3.408  -9.161  15.070  1.00  0.00     0.001 A 
ATOM     36  C   UNL     1      -2.444  -8.815  17.260  1.00  0.00     0.001 A 
ATOM     37  C   UNL     1      -3.430  -8.528  16.313  1.00  0.00     0.000 A 
ENDBRANCH  25  32
ENDBRANCH   1  17
TORSDOF 9
ENDMDL
MODEL 2
REMARK VINA RESULT:    30.114      3.301      4.775
REMARK INTER + INTRA:          41.923
REMARK INTER:                  43.228
REMARK INTRA:                  -1.305
REMARK UNBOUND:                 0.366
REMARK SMILES O=C([O-])[C@H]1O[C@H](Oc2cc3oc(-c4ccccc4)cc(=O)c3c(O)c2O)[C@H](O)[C@H](O)[C@@H]1O
REMARK SMILES IDX 7 1 6 2 4 3 31 4 5 5 29 6 27 7 2 8 1 9 3 10 32 11 30 13
REMARK SMILES IDX 28 15 8 17 25 18 9 19 23 20 10 21 22 22 11 23 20 24 12 25
REMARK SMILES IDX 19 26 21 27 26 28 24 30 13 32 14 33 18 34 15 35 17 36 16 37
REMARK H PARENT 32 12 30 14 28 16 26 29 24 31
REMARK Flexibility Score: inf
ROOT
ATOM      1  O   UNL     1       2.490 -14.140   9.778  1.00  0.00    -0.458 OA
ENDROOT
BRANCH   1   2
ATOM      2  C   UNL     1       2.569 -15.120   8.738  1.00  0.00     0.339 C 
ATOM      3  C   UNL     1       1.213 -13.884   7.270  1.00  0.00     0.199 C 
ATOM      4  C   UNL     1       2.363 -13.609   6.273  1.00  0.00     0.180 C 
ATOM      5  O   UNL     1       1.401 -15.125   7.930  1.00  0.00    -0.328 OA
ATOM      6  C   UNL     1       3.732 -13.670   6.981  1.00  0.00     0.181 C 
ATOM      7  C   UNL     1       3.835 -14.918   7.885  1.00  0.00     0.214 C 
BRANCH   3   8
ATOM      8  C   UNL     1      -0.097 -13.941   6.541  1.00  0.00     0.073 C 
ATOM      9  O   UNL     1      -0.122 -14.109   5.293  1.00  0.00    -0.547 OA
ATOM     10  O   UNL     1      -1.292 -13.845   7.244  1.00  0.00    -0.547 OA
ENDBRANCH   3   8
BRANCH   4  11
ATOM     11  O   UNL     1       2.205 -12.348   5.673  1.00  0.00    -0.387 OA
ATOM     12  H   UNL     1       1.379 -11.946   6.047  1.00  0.00     0.211 HD
ENDBRANCH   4  11
BRANCH   6  13
ATOM     13  O   UNL     1       4.025 -12.487   7.687  1.00  0.00    -0.387 OA
ATOM     14  H   UNL     1       4.788 -12.660   8.293  1.00  0.00     0.211 HD
ENDBRANCH   6  13
BRANCH   7  15
ATOM     15  O   UNL     1       4.962 -14.835   8.719  1.00  0.00    -0.384 OA
ATOM     16  H   UNL     1       5.752 -14.751   8.124  1.00  0.00     0.211 HD
ENDBRANCH   7  15
ENDBRANCH   1   2
BRANCH   1  17
ATOM     17  C   UNL     1       2.113 -14.347  11.118  1.00  0.00     0.172 A 
ATOM     18  C   UNL     1       0.808 -14.713  11.534  1.00  0.00     0.201 A 
ATOM     19  C   UNL     1       3.116 -14.180  12.073  1.00  0.00     0.098 A 
ATOM     20  C   UNL     1       0.521 -14.843  12.919  1.00  0.00     0.176 A 
ATOM     21  C   UNL     1       2.855 -14.343  13.431  1.00  0.00     0.146 A 
ATOM     22  C   UNL     1       1.556 -14.673  13.870  1.00  0.00     0.111 A 
ATOM     23  O   UNL     1       3.847 -14.177  14.301  1.00  0.00    -0.456 OA
ATOM     24  C   UNL     1       1.357 -14.808  15.262  1.00  0.00     0.197 A 
ATOM     25  C   UNL     1       3.696 -14.307  15.616  1.00  0.00     0.138 A 
ATOM     26  C   UNL     1       2.430 -14.623  16.135  1.00  0.00     0.100 A 
ATOM     27  O   UNL     1       0.227 -15.091  15.742  1.00  0.00    -0.289 OA
BRANCH  18  28
ATOM     28  O   UNL     1      -0.168 -14.970  10.569  1.00  0.00    -0.502 OA
ATOM     29  H   UNL     1      -0.740 -14.264  10.129  1.00  0.00     0.293 HD
ENDBRANCH  18  28
BRANCH  20  30
ATOM     30  O   UNL     1      -0.773 -15.125  13.369  1.00  0.00    -0.504 OA
ATOM     31  H   UNL     1      -1.427 -14.434  13.705  1.00  0.00     0.293 HD
ENDBRANCH  20  30
BRANCH  25  32
ATOM     32  C   UNL     1       4.873 -14.099  16.495  1.00  0.00     0.017 A 
ATOM     33  C   UNL     1       6.003 -14.927  16.347  1.00  0.00     0.012 A 
ATOM     34  C   UNL     1       4.884 -13.111  17.501  1.00  0.00     0.012 A 
ATOM     35  C   UNL     1       7.122 -14.755  17.168  1.00  0.00     0.001 A 
ATOM     36  C   UNL     1       6.005 -12.946  18.319  1.00  0.00     0.001 A 
ATOM     37  C   UNL     1       7.124 -13.764  18.151  1.00  0.00     0.000 A 
ENDBRANCH  25  32
ENDBRANCH   1  17
TORSDOF 9
ENDMDL
