MODEL 1
REMARK VINA RESULT:    -3.228      0.000      0.000
REMARK INTER + INTRA:          -5.274
REMARK INTER:                  -4.738
REMARK INTRA:                  -0.536
REMARK UNBOUND:                -0.536
REMARK SMILES O=C([O-])CCCCCCCC(=O)[O-]
REMARK SMILES IDX 7 1 6 2 5 3 4 4 2 5 1 6 3 7 8 8 9 9 10 10 11 11 12 12 13 13
REMARK H PARENT
REMARK Flexibility Score: inf
ROOT
ATOM      1  C   UNL     1      -0.269  -3.014   8.308  1.00  0.00     0.000 C 
ENDROOT
BRANCH   1   2
ATOM      2  C   UNL     1       0.639  -1.795   8.079  1.00  0.00     0.000 C 
BRANCH   2   3
ATOM      3  C   UNL     1       0.221  -0.966   6.852  1.00  0.00     0.006 C 
BRANCH   3   4
ATOM      4  C   UNL     1      -0.660   0.232   7.235  1.00  0.00     0.053 C 
BRANCH   4   5
ATOM      5  C   UNL     1      -0.515   1.365   6.266  1.00  0.00     0.041 C 
ATOM      6  O   UNL     1       0.464   1.400   5.474  1.00  0.00    -0.550 OA
ATOM      7  O   UNL     1      -1.475   2.367   6.217  1.00  0.00    -0.550 OA
ENDBRANCH   4   5
ENDBRANCH   3   4
ENDBRANCH   2   3
ENDBRANCH   1   2
BRANCH   1   8
ATOM      8  C   UNL     1      -0.807  -3.604   6.992  1.00  0.00     0.000 C 
BRANCH   8   9
ATOM      9  C   UNL     1      -2.331  -3.807   7.018  1.00  0.00     0.006 C 
BRANCH   9  10
ATOM     10  C   UNL     1      -3.084  -2.756   6.191  1.00  0.00     0.053 C 
BRANCH  10  11
ATOM     11  C   UNL     1      -4.050  -3.419   5.261  1.00  0.00     0.041 C 
ATOM     12  O   UNL     1      -4.680  -4.446   5.628  1.00  0.00    -0.550 OA
ATOM     13  O   UNL     1      -4.220  -2.933   3.972  1.00  0.00    -0.550 OA
ENDBRANCH  10  11
ENDBRANCH   9  10
ENDBRANCH   8   9
ENDBRANCH   1   8
TORSDOF 8
ENDMDL
MODEL 2
REMARK VINA RESULT:    -3.196      0.449      5.268
REMARK INTER + INTRA:          -5.227
REMARK INTER:                  -4.788
REMARK INTRA:                  -0.439
REMARK UNBOUND:                -0.536
REMARK SMILES O=C([O-])CCCCCCCC(=O)[O-]
REMARK SMILES IDX 7 1 6 2 5 3 4 4 2 5 1 6 3 7 8 8 9 9 10 10 11 11 12 12 13 13
REMARK H PARENT
REMARK Flexibility Score: inf
ROOT
ATOM      1  C   UNL     1       0.090  -3.208   8.026  1.00  0.00     0.000 C 
ENDROOT
BRANCH   1   2
ATOM      2  C   UNL     1      -0.749  -3.303   6.742  1.00  0.00     0.000 C 
BRANCH   2   3
ATOM      3  C   UNL     1      -2.251  -3.484   7.027  1.00  0.00     0.006 C 
BRANCH   3   4
ATOM      4  C   UNL     1      -3.116  -2.516   6.207  1.00  0.00     0.053 C 
BRANCH   4   5
ATOM      5  C   UNL     1      -4.047  -3.242   5.286  1.00  0.00     0.041 C 
ATOM      6  O   UNL     1      -4.754  -4.190   5.718  1.00  0.00    -0.550 OA
ATOM      7  O   UNL     1      -4.156  -2.853   3.957  1.00  0.00    -0.550 OA
ENDBRANCH   4   5
ENDBRANCH   3   4
ENDBRANCH   2   3
ENDBRANCH   1   2
BRANCH   1   8
ATOM      8  C   UNL     1       0.360  -1.753   8.449  1.00  0.00     0.000 C 
BRANCH   8   9
ATOM      9  C   UNL     1       0.402  -0.790   7.251  1.00  0.00     0.006 C 
BRANCH   9  10
ATOM     10  C   UNL     1       0.169   0.672   7.656  1.00  0.00     0.053 C 
BRANCH  10  11
ATOM     11  C   UNL     1      -0.151   1.502   6.453  1.00  0.00     0.041 C 
ATOM     12  O   UNL     1       0.496   1.344   5.384  1.00  0.00    -0.550 OA
ATOM     13  O   UNL     1      -1.130   2.484   6.526  1.00  0.00    -0.550 OA
ENDBRANCH  10  11
ENDBRANCH   9  10
ENDBRANCH   8   9
ENDBRANCH   1   8
TORSDOF 8
ENDMDL
MODEL 3
REMARK VINA RESULT:    -3.153      2.544      2.903
REMARK INTER + INTRA:          -5.164
REMARK INTER:                  -4.216
REMARK INTRA:                  -0.948
REMARK UNBOUND:                -0.536
REMARK SMILES O=C([O-])CCCCCCCC(=O)[O-]
REMARK SMILES IDX 7 1 6 2 5 3 4 4 2 5 1 6 3 7 8 8 9 9 10 10 11 11 12 12 13 13
REMARK H PARENT
REMARK Flexibility Score: inf
ROOT
ATOM      1  C   UNL     1       0.759  -1.861   8.432  1.00  0.00     0.000 C 
ENDROOT
BRANCH   1   2
ATOM      2  C   UNL     1       0.679  -0.459   9.058  1.00  0.00     0.000 C 
BRANCH   2   3
ATOM      3  C   UNL     1       1.201   0.641   8.116  1.00  0.00     0.006 C 
BRANCH   3   4
ATOM      4  C   UNL     1       0.177   1.768   7.919  1.00  0.00     0.053 C 
BRANCH   4   5
ATOM      5  C   UNL     1      -0.316   1.834   6.506  1.00  0.00     0.041 C 
ATOM      6  O   UNL     1      -1.412   2.398   6.244  1.00  0.00    -0.550 OA
ATOM      7  O   UNL     1       0.447   1.301   5.476  1.00  0.00    -0.550 OA
ENDBRANCH   4   5
ENDBRANCH   3   4
ENDBRANCH   2   3
ENDBRANCH   1   2
BRANCH   1   8
ATOM      8  C   UNL     1      -0.020  -1.963   7.109  1.00  0.00     0.000 C 
BRANCH   8   9
ATOM      9  C   UNL     1      -1.518  -2.232   7.327  1.00  0.00     0.006 C 
BRANCH   9  10
ATOM     10  C   UNL     1      -2.407  -1.089   6.818  1.00  0.00     0.053 C 
BRANCH  10  11
ATOM     11  C   UNL     1      -3.034  -0.365   7.967  1.00  0.00     0.041 C 
ATOM     12  O   UNL     1      -2.800  -0.729   9.149  1.00  0.00    -0.550 OA
ATOM     13  O   UNL     1      -3.917   0.681   7.731  1.00  0.00    -0.550 OA
ENDBRANCH  10  11
ENDBRANCH   9  10
ENDBRANCH   8   9
ENDBRANCH   1   8
TORSDOF 8
ENDMDL
MODEL 4
REMARK VINA RESULT:    -3.123     11.572     13.232
REMARK INTER + INTRA:          -5.120
REMARK INTER:                  -4.533
REMARK INTRA:                  -0.587
REMARK UNBOUND:                -0.536
REMARK SMILES O=C([O-])CCCCCCCC(=O)[O-]
REMARK SMILES IDX 7 1 6 2 5 3 4 4 2 5 1 6 3 7 8 8 9 9 10 10 11 11 12 12 13 13
REMARK H PARENT
REMARK Flexibility Score: inf
ROOT
ATOM      1  C   UNL     1      -7.457  -0.539  -2.182  1.00  0.00     0.000 C 
ENDROOT
BRANCH   1   2
ATOM      2  C   UNL     1      -7.746  -1.743  -3.093  1.00  0.00     0.000 C 
BRANCH   2   3
ATOM      3  C   UNL     1      -6.812  -1.798  -4.316  1.00  0.00     0.006 C 
BRANCH   3   4
ATOM      4  C   UNL     1      -5.764  -2.913  -4.193  1.00  0.00     0.053 C 
BRANCH   4   5
ATOM      5  C   UNL     1      -5.791  -3.838  -5.371  1.00  0.00     0.041 C 
ATOM      6  O   UNL     1      -4.723  -4.346  -5.802  1.00  0.00    -0.550 OA
ATOM      7  O   UNL     1      -7.000  -4.163  -5.974  1.00  0.00    -0.550 OA
ENDBRANCH   4   5
ENDBRANCH   3   4
ENDBRANCH   2   3
ENDBRANCH   1   2
BRANCH   1   8
ATOM      8  C   UNL     1      -6.994   0.700  -2.969  1.00  0.00     0.000 C 
BRANCH   8   9
ATOM      9  C   UNL     1      -8.168   1.584  -3.420  1.00  0.00     0.006 C 
BRANCH   9  10
ATOM     10  C   UNL     1      -8.404   1.529  -4.936  1.00  0.00     0.053 C 
BRANCH  10  11
ATOM     11  C   UNL     1      -7.157   1.909  -5.671  1.00  0.00     0.041 C 
ATOM     12  O   UNL     1      -6.708   3.082  -5.593  1.00  0.00    -0.550 OA
ATOM     13  O   UNL     1      -6.519   0.980  -6.483  1.00  0.00    -0.550 OA
ENDBRANCH  10  11
ENDBRANCH   9  10
ENDBRANCH   8   9
ENDBRANCH   1   8
TORSDOF 8
ENDMDL
MODEL 5
REMARK VINA RESULT:    -3.119      3.190      4.117
REMARK INTER + INTRA:          -5.114
REMARK INTER:                  -4.573
REMARK INTRA:                  -0.541
REMARK UNBOUND:                -0.536
REMARK SMILES O=C([O-])CCCCCCCC(=O)[O-]
REMARK SMILES IDX 7 1 6 2 5 3 4 4 2 5 1 6 3 7 8 8 9 9 10 10 11 11 12 12 13 13
REMARK H PARENT
REMARK Flexibility Score: inf
ROOT
ATOM      1  C   UNL     1       0.055  -2.340   6.884  1.00  0.00     0.000 C 
ENDROOT
BRANCH   1   2
ATOM      2  C   UNL     1       0.432  -1.614   8.186  1.00  0.00     0.000 C 
BRANCH   2   3
ATOM      3  C   UNL     1      -0.102  -0.171   8.236  1.00  0.00     0.006 C 
BRANCH   3   4
ATOM      4  C   UNL     1      -1.029   0.144   7.053  1.00  0.00     0.053 C 
BRANCH   4   5
ATOM      5  C   UNL     1      -0.565   1.342   6.283  1.00  0.00     0.041 C 
ATOM      6  O   UNL     1       0.466   1.271   5.563  1.00  0.00    -0.550 OA
ATOM      7  O   UNL     1      -1.286   2.528   6.337  1.00  0.00    -0.550 OA
ENDBRANCH   4   5
ENDBRANCH   3   4
ENDBRANCH   2   3
ENDBRANCH   1   2
BRANCH   1   8
ATOM      8  C   UNL     1      -0.731  -3.639   7.139  1.00  0.00     0.000 C 
BRANCH   8   9
ATOM      9  C   UNL     1      -0.039  -4.554   8.162  1.00  0.00     0.006 C 
BRANCH   9  10
ATOM     10  C   UNL     1       0.826  -5.636   7.502  1.00  0.00     0.053 C 
BRANCH  10  11
ATOM     11  C   UNL     1       2.270  -5.245   7.542  1.00  0.00     0.041 C 
ATOM     12  O   UNL     1       3.094  -5.785   6.758  1.00  0.00    -0.550 OA
ATOM     13  O   UNL     1       2.714  -4.322   8.479  1.00  0.00    -0.550 OA
ENDBRANCH  10  11
ENDBRANCH   9  10
ENDBRANCH   8   9
ENDBRANCH   1   8
TORSDOF 8
ENDMDL
MODEL 6
REMARK VINA RESULT:    -3.062      1.486      5.019
REMARK INTER + INTRA:          -5.029
REMARK INTER:                  -4.376
REMARK INTRA:                  -0.653
REMARK UNBOUND:                -0.536
REMARK SMILES O=C([O-])CCCCCCCC(=O)[O-]
REMARK SMILES IDX 7 1 6 2 5 3 4 4 2 5 1 6 3 7 8 8 9 9 10 10 11 11 12 12 13 13
REMARK H PARENT
REMARK Flexibility Score: inf
ROOT
ATOM      1  C   UNL     1       0.663  -0.760   9.089  1.00  0.00     0.000 C 
ENDROOT
BRANCH   1   2
ATOM      2  C   UNL     1       0.803  -2.069   8.296  1.00  0.00     0.000 C 
BRANCH   2   3
ATOM      3  C   UNL     1      -0.025  -2.068   6.998  1.00  0.00     0.006 C 
BRANCH   3   4
ATOM      4  C   UNL     1      -0.895  -3.326   6.864  1.00  0.00     0.053 C 
BRANCH   4   5
ATOM      5  C   UNL     1      -2.329  -2.988   6.596  1.00  0.00     0.041 C 
ATOM      6  O   UNL     1      -3.190  -3.904   6.514  1.00  0.00    -0.550 OA
ATOM      7  O   UNL     1      -2.720  -1.662   6.468  1.00  0.00    -0.550 OA
ENDBRANCH   4   5
ENDBRANCH   3   4
ENDBRANCH   2   3
ENDBRANCH   1   2
BRANCH   1   8
ATOM      8  C   UNL     1      -0.727  -0.119   8.931  1.00  0.00     0.000 C 
BRANCH   8   9
ATOM      9  C   UNL     1      -0.665   1.416   8.872  1.00  0.00     0.006 C 
BRANCH   9  10
ATOM     10  C   UNL     1       0.321   1.930   7.815  1.00  0.00     0.053 C 
BRANCH  10  11
ATOM     11  C   UNL     1      -0.258   1.776   6.444  1.00  0.00     0.041 C 
ATOM     12  O   UNL     1      -1.442   2.136   6.212  1.00  0.00    -0.550 OA
ATOM     13  O   UNL     1       0.493   1.188   5.434  1.00  0.00    -0.550 OA
ENDBRANCH  10  11
ENDBRANCH   9  10
ENDBRANCH   8   9
ENDBRANCH   1   8
TORSDOF 8
ENDMDL
MODEL 7
REMARK VINA RESULT:    -3.031      1.750      2.457
REMARK INTER + INTRA:          -4.984
REMARK INTER:                  -4.327
REMARK INTRA:                  -0.657
REMARK UNBOUND:                -0.536
REMARK SMILES O=C([O-])CCCCCCCC(=O)[O-]
REMARK SMILES IDX 7 1 6 2 5 3 4 4 2 5 1 6 3 7 8 8 9 9 10 10 11 11 12 12 13 13
REMARK H PARENT
REMARK Flexibility Score: inf
ROOT
ATOM      1  C   UNL     1       0.582  -1.393   9.438  1.00  0.00     0.000 C 
ENDROOT
BRANCH   1   2
ATOM      2  C   UNL     1       1.462  -0.133   9.451  1.00  0.00     0.000 C 
BRANCH   2   3
ATOM      3  C   UNL     1       1.260   0.745   8.202  1.00  0.00     0.006 C 
BRANCH   3   4
ATOM      4  C   UNL     1      -0.218   0.848   7.801  1.00  0.00     0.053 C 
BRANCH   4   5
ATOM      5  C   UNL     1      -0.386   1.446   6.438  1.00  0.00     0.041 C 
ATOM      6  O   UNL     1       0.523   1.321   5.575  1.00  0.00    -0.550 OA
ATOM      7  O   UNL     1      -1.558   2.116   6.110  1.00  0.00    -0.550 OA
ENDBRANCH   4   5
ENDBRANCH   3   4
ENDBRANCH   2   3
ENDBRANCH   1   2
BRANCH   1   8
ATOM      8  C   UNL     1       1.291  -2.603   8.805  1.00  0.00     0.000 C 
BRANCH   8   9
ATOM      9  C   UNL     1       0.347  -3.454   7.941  1.00  0.00     0.006 C 
BRANCH   9  10
ATOM     10  C   UNL     1      -0.284  -2.658   6.790  1.00  0.00     0.053 C 
BRANCH  10  11
ATOM     11  C   UNL     1      -1.777  -2.711   6.877  1.00  0.00     0.041 C 
ATOM     12  O   UNL     1      -2.458  -1.662   6.726  1.00  0.00    -0.550 OA
ATOM     13  O   UNL     1      -2.414  -3.909   7.172  1.00  0.00    -0.550 OA
ENDBRANCH  10  11
ENDBRANCH   9  10
ENDBRANCH   8   9
ENDBRANCH   1   8
TORSDOF 8
ENDMDL
MODEL 8
REMARK VINA RESULT:    -3.021      3.202      5.646
REMARK INTER + INTRA:          -4.969
REMARK INTER:                  -4.451
REMARK INTRA:                  -0.518
REMARK UNBOUND:                -0.536
REMARK SMILES O=C([O-])CCCCCCCC(=O)[O-]
REMARK SMILES IDX 7 1 6 2 5 3 4 4 2 5 1 6 3 7 8 8 9 9 10 10 11 11 12 12 13 13
REMARK H PARENT
REMARK Flexibility Score: inf
ROOT
ATOM      1  C   UNL     1      -0.648  -0.935   8.756  1.00  0.00     0.000 C 
ENDROOT
BRANCH   1   2
ATOM      2  C   UNL     1      -1.118  -2.118   7.894  1.00  0.00     0.000 C 
BRANCH   2   3
ATOM      3  C   UNL     1       0.038  -2.799   7.140  1.00  0.00     0.006 C 
BRANCH   3   4
ATOM      4  C   UNL     1       0.267  -4.241   7.613  1.00  0.00     0.053 C 
BRANCH   4   5
ATOM      5  C   UNL     1       1.714  -4.517   7.885  1.00  0.00     0.041 C 
ATOM      6  O   UNL     1       2.312  -3.909   8.812  1.00  0.00    -0.550 OA
ATOM      7  O   UNL     1       2.395  -5.467   7.135  1.00  0.00    -0.550 OA
ENDBRANCH   4   5
ENDBRANCH   3   4
ENDBRANCH   2   3
ENDBRANCH   1   2
BRANCH   1   8
ATOM      8  C   UNL     1       0.871  -0.708   8.669  1.00  0.00     0.000 C 
BRANCH   8   9
ATOM      9  C   UNL     1       1.229   0.647   8.035  1.00  0.00     0.006 C 
BRANCH   9  10
ATOM     10  C   UNL     1       0.015   1.573   7.889  1.00  0.00     0.053 C 
BRANCH  10  11
ATOM     11  C   UNL     1      -0.327   1.761   6.445  1.00  0.00     0.041 C 
ATOM     12  O   UNL     1      -1.429   2.275   6.116  1.00  0.00    -0.550 OA
ATOM     13  O   UNL     1       0.548   1.323   5.460  1.00  0.00    -0.550 OA
ENDBRANCH  10  11
ENDBRANCH   9  10
ENDBRANCH   8   9
ENDBRANCH   1   8
TORSDOF 8
ENDMDL
MODEL 9
REMARK VINA RESULT:    -2.980     11.858     12.608
REMARK INTER + INTRA:          -4.909
REMARK INTER:                  -4.358
REMARK INTRA:                  -0.551
REMARK UNBOUND:                -0.536
REMARK SMILES O=C([O-])CCCCCCCC(=O)[O-]
REMARK SMILES IDX 7 1 6 2 5 3 4 4 2 5 1 6 3 7 8 8 9 9 10 10 11 11 12 12 13 13
REMARK H PARENT
REMARK Flexibility Score: inf
ROOT
ATOM      1  C   UNL     1      -7.763  -1.347  -3.470  1.00  0.00     0.000 C 
ENDROOT
BRANCH   1   2
ATOM      2  C   UNL     1      -6.993  -0.217  -2.768  1.00  0.00     0.000 C 
BRANCH   2   3
ATOM      3  C   UNL     1      -6.313   0.743  -3.762  1.00  0.00     0.006 C 
BRANCH   3   4
ATOM      4  C   UNL     1      -6.644   0.396  -5.220  1.00  0.00     0.053 C 
BRANCH   4   5
ATOM      5  C   UNL     1      -7.325   1.529  -5.924  1.00  0.00     0.041 C 
ATOM      6  O   UNL     1      -8.577   1.649  -5.866  1.00  0.00    -0.550 OA
ATOM      7  O   UNL     1      -6.575   2.470  -6.618  1.00  0.00    -0.550 OA
ENDBRANCH   4   5
ENDBRANCH   3   4
ENDBRANCH   2   3
ENDBRANCH   1   2
BRANCH   1   8
ATOM      8  C   UNL     1      -7.839  -2.627  -2.620  1.00  0.00     0.000 C 
BRANCH   8   9
ATOM      9  C   UNL     1      -7.131  -3.819  -3.284  1.00  0.00     0.006 C 
BRANCH   9  10
ATOM     10  C   UNL     1      -5.902  -3.399  -4.102  1.00  0.00     0.053 C 
BRANCH  10  11
ATOM     11  C   UNL     1      -5.867  -4.132  -5.405  1.00  0.00     0.041 C 
ATOM     12  O   UNL     1      -6.940  -4.427  -5.995  1.00  0.00    -0.550 OA
ATOM     13  O   UNL     1      -4.653  -4.533  -5.946  1.00  0.00    -0.550 OA
ENDBRANCH  10  11
ENDBRANCH   9  10
ENDBRANCH   8   9
ENDBRANCH   1   8
TORSDOF 8
ENDMDL
