MODEL 1
REMARK VINA RESULT:    -4.196      0.000      0.000
REMARK INTER + INTRA:          -7.853
REMARK INTER:                  -7.139
REMARK INTRA:                  -0.714
REMARK UNBOUND:                -0.714
REMARK SMILES CCCCCCCCCCCCCC(=O)[O-]
REMARK SMILES IDX 8 1 9 2 10 3 11 4 12 5 13 6 14 7 15 8 16 9 7 10 6 11 5 12
REMARK SMILES IDX 4 13 3 14 2 15 1 16
REMARK H PARENT
REMARK Flexibility Score: inf
ROOT
ATOM      1  C   UNL     1      24.661  18.993  26.020  1.00  0.00     0.000 C 
ENDROOT
BRANCH   1   2
ATOM      2  C   UNL     1      25.619  19.603  24.981  1.00  0.00     0.000 C 
BRANCH   2   3
ATOM      3  C   UNL     1      26.428  20.783  25.545  1.00  0.00     0.000 C 
BRANCH   3   4
ATOM      4  C   UNL     1      27.943  20.534  25.511  1.00  0.00     0.000 C 
BRANCH   4   5
ATOM      5  C   UNL     1      28.293  19.411  24.523  1.00  0.00     0.006 C 
BRANCH   5   6
ATOM      6  C   UNL     1      28.736  19.955  23.158  1.00  0.00     0.053 C 
BRANCH   6   7
ATOM      7  C   UNL     1      30.218  19.853  22.973  1.00  0.00     0.041 C 
ATOM      8  O   UNL     1      30.913  19.182  23.782  1.00  0.00    -0.550 OA
ATOM      9  O   UNL     1      30.838  20.524  21.927  1.00  0.00    -0.550 OA
ENDBRANCH   6   7
ENDBRANCH   5   6
ENDBRANCH   4   5
ENDBRANCH   3   4
ENDBRANCH   2   3
ENDBRANCH   1   2
BRANCH   1  10
ATOM     10  C   UNL     1      23.209  19.459  25.826  1.00  0.00     0.000 C 
BRANCH  10  11
ATOM     11  C   UNL     1      22.633  20.146  27.076  1.00  0.00    -0.000 C 
BRANCH  11  12
ATOM     12  C   UNL     1      22.374  21.645  26.857  1.00  0.00    -0.000 C 
BRANCH  12  13
ATOM     13  C   UNL     1      23.676  22.455  26.727  1.00  0.00    -0.000 C 
BRANCH  13  14
ATOM     14  C   UNL     1      23.435  23.972  26.766  1.00  0.00    -0.000 C 
BRANCH  14  15
ATOM     15  C   UNL     1      24.563  24.730  27.484  1.00  0.00    -0.003 C 
ATOM     16  C   UNL     1      25.346  25.602  26.508  1.00  0.00     0.004 C 
ENDBRANCH  14  15
ENDBRANCH  13  14
ENDBRANCH  12  13
ENDBRANCH  11  12
ENDBRANCH  10  11
ENDBRANCH   1  10
TORSDOF 12
ENDMDL
MODEL 2
REMARK VINA RESULT:    -3.994      0.935      1.245
REMARK INTER + INTRA:          -7.509
REMARK INTER:                  -6.855
REMARK INTRA:                  -0.654
REMARK UNBOUND:                -0.714
REMARK SMILES CCCCCCCCCCCCCC(=O)[O-]
REMARK SMILES IDX 8 1 9 2 10 3 11 4 12 5 13 6 14 7 15 8 16 9 7 10 6 11 5 12
REMARK SMILES IDX 4 13 3 14 2 15 1 16
REMARK H PARENT
REMARK Flexibility Score: inf
ROOT
ATOM      1  C   UNL     1      25.137  19.741  26.305  1.00  0.00     0.000 C 
ENDROOT
BRANCH   1   2
ATOM      2  C   UNL     1      25.955  20.208  25.088  1.00  0.00     0.000 C 
BRANCH   2   3
ATOM      3  C   UNL     1      27.438  19.818  25.189  1.00  0.00     0.000 C 
BRANCH   3   4
ATOM      4  C   UNL     1      28.362  21.034  25.354  1.00  0.00     0.000 C 
BRANCH   4   5
ATOM      5  C   UNL     1      29.644  20.866  24.525  1.00  0.00     0.006 C 
BRANCH   5   6
ATOM      6  C   UNL     1      29.388  20.134  23.201  1.00  0.00     0.053 C 
BRANCH   6   7
ATOM      7  C   UNL     1      30.593  20.153  22.312  1.00  0.00     0.041 C 
ATOM      8  O   UNL     1      30.911  21.206  21.699  1.00  0.00    -0.550 OA
ATOM      9  O   UNL     1      31.346  19.000  22.135  1.00  0.00    -0.550 OA
ENDBRANCH   6   7
ENDBRANCH   5   6
ENDBRANCH   4   5
ENDBRANCH   3   4
ENDBRANCH   2   3
ENDBRANCH   1   2
BRANCH   1  10
ATOM     10  C   UNL     1      23.809  19.079  25.902  1.00  0.00     0.000 C 
BRANCH  10  11
ATOM     11  C   UNL     1      22.616  20.048  25.971  1.00  0.00    -0.000 C 
BRANCH  11  12
ATOM     12  C   UNL     1      22.724  21.034  27.145  1.00  0.00    -0.000 C 
BRANCH  12  13
ATOM     13  C   UNL     1      22.808  22.498  26.679  1.00  0.00    -0.000 C 
BRANCH  13  14
ATOM     14  C   UNL     1      24.232  23.067  26.772  1.00  0.00    -0.000 C 
BRANCH  14  15
ATOM     15  C   UNL     1      24.265  24.477  27.382  1.00  0.00    -0.003 C 
ATOM     16  C   UNL     1      25.066  25.435  26.507  1.00  0.00     0.004 C 
ENDBRANCH  14  15
ENDBRANCH  13  14
ENDBRANCH  12  13
ENDBRANCH  11  12
ENDBRANCH  10  11
ENDBRANCH   1  10
TORSDOF 12
ENDMDL
MODEL 3
REMARK VINA RESULT:    -3.905      3.369      6.738
REMARK INTER + INTRA:          -7.357
REMARK INTER:                  -6.578
REMARK INTRA:                  -0.779
REMARK UNBOUND:                -0.714
REMARK SMILES CCCCCCCCCCCCCC(=O)[O-]
REMARK SMILES IDX 8 1 9 2 10 3 11 4 12 5 13 6 14 7 15 8 16 9 7 10 6 11 5 12
REMARK SMILES IDX 4 13 3 14 2 15 1 16
REMARK H PARENT
REMARK Flexibility Score: inf
ROOT
ATOM      1  C   UNL     1      25.523  19.574  26.056  1.00  0.00     0.000 C 
ENDROOT
BRANCH   1   2
ATOM      2  C   UNL     1      24.155  18.973  26.420  1.00  0.00     0.000 C 
BRANCH   2   3
ATOM      3  C   UNL     1      22.984  19.889  26.026  1.00  0.00     0.000 C 
BRANCH   3   4
ATOM      4  C   UNL     1      22.537  20.809  27.172  1.00  0.00     0.000 C 
BRANCH   4   5
ATOM      5  C   UNL     1      22.641  22.286  26.761  1.00  0.00     0.006 C 
BRANCH   5   6
ATOM      6  C   UNL     1      24.091  22.722  26.517  1.00  0.00     0.053 C 
BRANCH   6   7
ATOM      7  C   UNL     1      24.283  24.186  26.769  1.00  0.00     0.041 C 
ATOM      8  O   UNL     1      24.820  24.914  25.894  1.00  0.00    -0.550 OA
ATOM      9  O   UNL     1      23.897  24.740  27.983  1.00  0.00    -0.550 OA
ENDBRANCH   6   7
ENDBRANCH   5   6
ENDBRANCH   4   5
ENDBRANCH   3   4
ENDBRANCH   2   3
ENDBRANCH   1   2
BRANCH   1  10
ATOM     10  C   UNL     1      25.746  19.651  24.536  1.00  0.00     0.000 C 
BRANCH  10  11
ATOM     11  C   UNL     1      27.223  19.870  24.162  1.00  0.00    -0.000 C 
BRANCH  11  12
ATOM     12  C   UNL     1      27.865  21.024  24.948  1.00  0.00    -0.000 C 
BRANCH  12  13
ATOM     13  C   UNL     1      29.403  20.984  24.900  1.00  0.00    -0.000 C 
BRANCH  13  14
ATOM     14  C   UNL     1      29.937  19.854  24.007  1.00  0.00    -0.000 C 
BRANCH  14  15
ATOM     15  C   UNL     1      30.339  20.348  22.608  1.00  0.00    -0.003 C 
ATOM     16  C   UNL     1      30.458  19.185  21.629  1.00  0.00     0.004 C 
ENDBRANCH  14  15
ENDBRANCH  13  14
ENDBRANCH  12  13
ENDBRANCH  11  12
ENDBRANCH  10  11
ENDBRANCH   1  10
TORSDOF 12
ENDMDL
MODEL 4
REMARK VINA RESULT:    -3.811     20.552     22.386
REMARK INTER + INTRA:          -7.198
REMARK INTER:                  -6.450
REMARK INTRA:                  -0.748
REMARK UNBOUND:                -0.714
REMARK SMILES CCCCCCCCCCCCCC(=O)[O-]
REMARK SMILES IDX 8 1 9 2 10 3 11 4 12 5 13 6 14 7 15 8 16 9 7 10 6 11 5 12
REMARK SMILES IDX 4 13 3 14 2 15 1 16
REMARK H PARENT
REMARK Flexibility Score: inf
ROOT
ATOM      1  C   UNL     1      17.221  34.789   9.969  1.00  0.00     0.000 C 
ENDROOT
BRANCH   1   2
ATOM      2  C   UNL     1      16.095  33.741   9.916  1.00  0.00     0.000 C 
BRANCH   2   3
ATOM      3  C   UNL     1      15.488  33.455  11.299  1.00  0.00     0.000 C 
BRANCH   3   4
ATOM      4  C   UNL     1      15.081  31.985  11.477  1.00  0.00     0.000 C 
BRANCH   4   5
ATOM      5  C   UNL     1      13.662  31.875  12.055  1.00  0.00     0.006 C 
BRANCH   5   6
ATOM      6  C   UNL     1      12.878  30.701  11.453  1.00  0.00     0.053 C 
BRANCH   6   7
ATOM      7  C   UNL     1      13.378  29.382  11.957  1.00  0.00     0.041 C 
ATOM      8  O   UNL     1      13.513  28.412  11.165  1.00  0.00    -0.550 OA
ATOM      9  O   UNL     1      13.662  29.214  13.306  1.00  0.00    -0.550 OA
ENDBRANCH   6   7
ENDBRANCH   5   6
ENDBRANCH   4   5
ENDBRANCH   3   4
ENDBRANCH   2   3
ENDBRANCH   1   2
BRANCH   1  10
ATOM     10  C   UNL     1      18.459  34.284  10.729  1.00  0.00     0.000 C 
BRANCH  10  11
ATOM     11  C   UNL     1      19.757  34.975  10.278  1.00  0.00    -0.000 C 
BRANCH  11  12
ATOM     12  C   UNL     1      19.575  36.485  10.057  1.00  0.00    -0.000 C 
BRANCH  12  13
ATOM     13  C   UNL     1      20.163  37.324  11.205  1.00  0.00    -0.000 C 
BRANCH  13  14
ATOM     14  C   UNL     1      19.190  38.400  11.710  1.00  0.00    -0.000 C 
BRANCH  14  15
ATOM     15  C   UNL     1      18.426  39.088  10.567  1.00  0.00    -0.003 C 
ATOM     16  C   UNL     1      16.921  38.888  10.714  1.00  0.00     0.004 C 
ENDBRANCH  14  15
ENDBRANCH  13  14
ENDBRANCH  12  13
ENDBRANCH  11  12
ENDBRANCH  10  11
ENDBRANCH   1  10
TORSDOF 12
ENDMDL
MODEL 5
REMARK VINA RESULT:    -3.181      3.192      6.081
REMARK INTER + INTRA:          -6.126
REMARK INTER:                  -5.344
REMARK INTRA:                  -0.782
REMARK UNBOUND:                -0.714
REMARK SMILES CCCCCCCCCCCCCC(=O)[O-]
REMARK SMILES IDX 8 1 9 2 10 3 11 4 12 5 13 6 14 7 15 8 16 9 7 10 6 11 5 12
REMARK SMILES IDX 4 13 3 14 2 15 1 16
REMARK H PARENT
REMARK Flexibility Score: inf
ROOT
ATOM      1  C   UNL     1      23.846  19.087  26.624  1.00  0.00     0.000 C 
ENDROOT
BRANCH   1   2
ATOM      2  C   UNL     1      22.539  19.620  27.238  1.00  0.00     0.000 C 
BRANCH   2   3
ATOM      3  C   UNL     1      22.248  21.075  26.835  1.00  0.00     0.000 C 
BRANCH   3   4
ATOM      4  C   UNL     1      23.504  21.958  26.849  1.00  0.00     0.000 C 
BRANCH   4   5
ATOM      5  C   UNL     1      23.131  23.445  26.749  1.00  0.00     0.006 C 
BRANCH   5   6
ATOM      6  C   UNL     1      24.172  24.352  27.419  1.00  0.00     0.053 C 
BRANCH   6   7
ATOM      7  C   UNL     1      24.876  25.221  26.423  1.00  0.00     0.041 C 
ATOM      8  O   UNL     1      25.834  25.953  26.787  1.00  0.00    -0.550 OA
ATOM      9  O   UNL     1      24.454  25.248  25.100  1.00  0.00    -0.550 OA
ENDBRANCH   6   7
ENDBRANCH   5   6
ENDBRANCH   4   5
ENDBRANCH   3   4
ENDBRANCH   2   3
ENDBRANCH   1   2
BRANCH   1  10
ATOM     10  C   UNL     1      23.753  18.916  25.099  1.00  0.00     0.000 C 
BRANCH  10  11
ATOM     11  C   UNL     1      25.109  19.099  24.396  1.00  0.00    -0.000 C 
BRANCH  11  12
ATOM     12  C   UNL     1      26.040  20.061  25.151  1.00  0.00    -0.000 C 
BRANCH  12  13
ATOM     13  C   UNL     1      27.275  20.456  24.323  1.00  0.00    -0.000 C 
BRANCH  13  14
ATOM     14  C   UNL     1      28.451  20.916  25.199  1.00  0.00    -0.000 C 
BRANCH  14  15
ATOM     15  C   UNL     1      29.779  20.960  24.427  1.00  0.00    -0.003 C 
ATOM     16  C   UNL     1      29.664  20.230  23.093  1.00  0.00     0.004 C 
ENDBRANCH  14  15
ENDBRANCH  13  14
ENDBRANCH  12  13
ENDBRANCH  11  12
ENDBRANCH  10  11
ENDBRANCH   1  10
TORSDOF 12
ENDMDL
MODEL 6
REMARK VINA RESULT:    -2.696      1.167      2.063
REMARK INTER + INTRA:          -5.301
REMARK INTER:                  -4.077
REMARK INTRA:                  -1.223
REMARK UNBOUND:                -0.714
REMARK SMILES CCCCCCCCCCCCCC(=O)[O-]
REMARK SMILES IDX 8 1 9 2 10 3 11 4 12 5 13 6 14 7 15 8 16 9 7 10 6 11 5 12
REMARK SMILES IDX 4 13 3 14 2 15 1 16
REMARK H PARENT
REMARK Flexibility Score: inf
ROOT
ATOM      1  C   UNL     1      23.029  19.432  27.160  1.00  0.00     0.000 C 
ENDROOT
BRANCH   1   2
ATOM      2  C   UNL     1      23.567  19.402  25.719  1.00  0.00     0.000 C 
BRANCH   2   3
ATOM      3  C   UNL     1      25.058  19.034  25.653  1.00  0.00     0.000 C 
BRANCH   3   4
ATOM      4  C   UNL     1      25.973  20.175  26.120  1.00  0.00     0.000 C 
BRANCH   4   5
ATOM      5  C   UNL     1      26.472  21.002  24.926  1.00  0.00     0.006 C 
BRANCH   5   6
ATOM      6  C   UNL     1      27.257  20.153  23.918  1.00  0.00     0.053 C 
BRANCH   6   7
ATOM      7  C   UNL     1      28.733  20.387  24.022  1.00  0.00     0.041 C 
ATOM      8  O   UNL     1      29.522  19.821  23.220  1.00  0.00    -0.550 OA
ATOM      9  O   UNL     1      29.239  21.204  25.024  1.00  0.00    -0.550 OA
ENDBRANCH   6   7
ENDBRANCH   5   6
ENDBRANCH   4   5
ENDBRANCH   3   4
ENDBRANCH   2   3
ENDBRANCH   1   2
BRANCH   1  10
ATOM     10  C   UNL     1      22.059  20.601  27.402  1.00  0.00     0.000 C 
BRANCH  10  11
ATOM     11  C   UNL     1      22.434  21.860  26.601  1.00  0.00    -0.000 C 
BRANCH  11  12
ATOM     12  C   UNL     1      23.456  22.743  27.335  1.00  0.00    -0.000 C 
BRANCH  12  13
ATOM     13  C   UNL     1      24.200  23.697  26.384  1.00  0.00    -0.000 C 
BRANCH  13  14
ATOM     14  C   UNL     1      25.137  24.661  27.128  1.00  0.00    -0.000 C 
BRANCH  14  15
ATOM     15  C   UNL     1      25.218  26.041  26.457  1.00  0.00    -0.003 C 
ATOM     16  C   UNL     1      25.161  25.917  24.938  1.00  0.00     0.004 C 
ENDBRANCH  14  15
ENDBRANCH  13  14
ENDBRANCH  12  13
ENDBRANCH  11  12
ENDBRANCH  10  11
ENDBRANCH   1  10
TORSDOF 12
ENDMDL
MODEL 7
REMARK VINA RESULT:    -2.464      1.150      1.691
REMARK INTER + INTRA:          -4.906
REMARK INTER:                  -4.289
REMARK INTRA:                  -0.618
REMARK UNBOUND:                -0.714
REMARK SMILES CCCCCCCCCCCCCC(=O)[O-]
REMARK SMILES IDX 8 1 9 2 10 3 11 4 12 5 13 6 14 7 15 8 16 9 7 10 6 11 5 12
REMARK SMILES IDX 4 13 3 14 2 15 1 16
REMARK H PARENT
REMARK Flexibility Score: inf
ROOT
ATOM      1  C   UNL     1      25.270  19.514  26.009  1.00  0.00     0.000 C 
ENDROOT
BRANCH   1   2
ATOM      2  C   UNL     1      25.236  19.263  24.491  1.00  0.00     0.000 C 
BRANCH   2   3
ATOM      3  C   UNL     1      26.464  19.843  23.770  1.00  0.00     0.000 C 
BRANCH   3   4
ATOM      4  C   UNL     1      27.770  19.135  24.160  1.00  0.00     0.000 C 
BRANCH   4   5
ATOM      5  C   UNL     1      28.711  20.093  24.906  1.00  0.00     0.006 C 
BRANCH   5   6
ATOM      6  C   UNL     1      29.764  20.714  23.979  1.00  0.00     0.053 C 
BRANCH   6   7
ATOM      7  C   UNL     1      30.545  19.669  23.244  1.00  0.00     0.041 C 
ATOM      8  O   UNL     1      31.324  18.903  23.871  1.00  0.00    -0.550 OA
ATOM      9  O   UNL     1      30.437  19.561  21.864  1.00  0.00    -0.550 OA
ENDBRANCH   6   7
ENDBRANCH   5   6
ENDBRANCH   4   5
ENDBRANCH   3   4
ENDBRANCH   2   3
ENDBRANCH   1   2
BRANCH   1  10
ATOM     10  C   UNL     1      25.791  20.916  26.362  1.00  0.00     0.000 C 
BRANCH  10  11
ATOM     11  C   UNL     1      24.928  22.040  25.764  1.00  0.00    -0.000 C 
BRANCH  11  12
ATOM     12  C   UNL     1      23.731  22.403  26.656  1.00  0.00    -0.000 C 
BRANCH  12  13
ATOM     13  C   UNL     1      23.595  23.921  26.870  1.00  0.00    -0.000 C 
BRANCH  13  14
ATOM     14  C   UNL     1      24.889  24.562  27.395  1.00  0.00    -0.000 C 
BRANCH  14  15
ATOM     15  C   UNL     1      25.418  25.666  26.467  1.00  0.00    -0.003 C 
ATOM     16  C   UNL     1      24.614  25.729  25.173  1.00  0.00     0.004 C 
ENDBRANCH  14  15
ENDBRANCH  13  14
ENDBRANCH  12  13
ENDBRANCH  11  12
ENDBRANCH  10  11
ENDBRANCH   1  10
TORSDOF 12
ENDMDL
MODEL 8
REMARK VINA RESULT:    -2.450     19.729     21.387
REMARK INTER + INTRA:          -4.882
REMARK INTER:                  -4.271
REMARK INTRA:                  -0.611
REMARK UNBOUND:                -0.714
REMARK SMILES CCCCCCCCCCCCCC(=O)[O-]
REMARK SMILES IDX 8 1 9 2 10 3 11 4 12 5 13 6 14 7 15 8 16 9 7 10 6 11 5 12
REMARK SMILES IDX 4 13 3 14 2 15 1 16
REMARK H PARENT
REMARK Flexibility Score: inf
ROOT
ATOM      1  C   UNL     1      13.820  30.834  11.535  1.00  0.00     0.000 C 
ENDROOT
BRANCH   1   2
ATOM      2  C   UNL     1      12.921  32.083  11.567  1.00  0.00     0.000 C 
BRANCH   2   3
ATOM      3  C   UNL     1      13.681  33.367  11.196  1.00  0.00     0.000 C 
BRANCH   3   4
ATOM      4  C   UNL     1      14.953  33.089  10.381  1.00  0.00     0.000 C 
BRANCH   4   5
ATOM      5  C   UNL     1      16.030  34.147  10.667  1.00  0.00     0.006 C 
BRANCH   5   6
ATOM      6  C   UNL     1      17.416  33.524  10.876  1.00  0.00     0.053 C 
BRANCH   6   7
ATOM      7  C   UNL     1      18.515  34.480  10.528  1.00  0.00     0.041 C 
ATOM      8  O   UNL     1      18.239  35.643  10.129  1.00  0.00    -0.550 OA
ATOM      9  O   UNL     1      19.841  34.079  10.614  1.00  0.00    -0.550 OA
ENDBRANCH   6   7
ENDBRANCH   5   6
ENDBRANCH   4   5
ENDBRANCH   3   4
ENDBRANCH   2   3
ENDBRANCH   1   2
BRANCH   1  10
ATOM     10  C   UNL     1      13.430  29.801  12.606  1.00  0.00     0.000 C 
BRANCH  10  11
ATOM     11  C   UNL     1      13.988  28.398  12.309  1.00  0.00    -0.000 C 
BRANCH  11  12
ATOM     12  C   UNL     1      12.898  27.414  11.858  1.00  0.00    -0.000 C 
BRANCH  12  13
ATOM     13  C   UNL     1      12.877  27.218  10.332  1.00  0.00    -0.000 C 
BRANCH  13  14
ATOM     14  C   UNL     1      13.749  26.038   9.875  1.00  0.00    -0.000 C 
BRANCH  14  15
ATOM     15  C   UNL     1      13.044  24.683  10.043  1.00  0.00    -0.003 C 
ATOM     16  C   UNL     1      13.868  23.739  10.912  1.00  0.00     0.004 C 
ENDBRANCH  14  15
ENDBRANCH  13  14
ENDBRANCH  12  13
ENDBRANCH  11  12
ENDBRANCH  10  11
ENDBRANCH   1  10
TORSDOF 12
ENDMDL
