MODEL 1
REMARK VINA RESULT:     8.735      0.000      0.000
REMARK INTER + INTRA:          16.082
REMARK INTER:                  16.905
REMARK INTRA:                  -0.823
REMARK UNBOUND:                -0.823
REMARK SMILES CCCCCCCCCCCCCCCCCC(=O)[O-]
REMARK SMILES IDX 10 1 11 2 12 3 13 4 14 5 15 6 16 7 17 8 18 9 19 10 20 11
REMARK SMILES IDX 9 12 8 13 7 14 6 15 5 16 4 17 3 18 2 19 1 20
REMARK H PARENT
REMARK Flexibility Score: inf
ROOT
ATOM      1  C   UNL     1     -32.261  12.783  17.487  1.00  0.00     0.000 C 
ENDROOT
BRANCH   1   2
ATOM      2  C   UNL     1     -33.687  12.760  16.914  1.00  0.00     0.000 C 
BRANCH   2   3
ATOM      3  C   UNL     1     -34.068  14.076  16.217  1.00  0.00     0.000 C 
BRANCH   3   4
ATOM      4  C   UNL     1     -34.227  15.250  17.203  1.00  0.00     0.000 C 
BRANCH   4   5
ATOM      5  C   UNL     1     -34.837  16.533  16.603  1.00  0.00     0.000 C 
BRANCH   5   6
ATOM      6  C   UNL     1     -35.288  17.584  17.634  1.00  0.00     0.000 C 
BRANCH   6   7
ATOM      7  C   UNL     1     -36.815  17.657  17.782  1.00  0.00     0.006 C 
BRANCH   7   8
ATOM      8  C   UNL     1     -37.448  16.274  17.600  1.00  0.00     0.053 C 
BRANCH   8   9
ATOM      9  C   UNL     1     -38.823  16.246  18.188  1.00  0.00     0.041 C 
ATOM     10  O   UNL     1     -39.057  15.571  19.225  1.00  0.00    -0.550 OA
ATOM     11  O   UNL     1     -39.842  16.994  17.609  1.00  0.00    -0.550 OA
ENDBRANCH   8   9
ENDBRANCH   7   8
ENDBRANCH   6   7
ENDBRANCH   5   6
ENDBRANCH   4   5
ENDBRANCH   3   4
ENDBRANCH   2   3
ENDBRANCH   1   2
BRANCH   1  12
ATOM     12  C   UNL     1     -32.207  12.388  18.973  1.00  0.00     0.000 C 
BRANCH  12  13
ATOM     13  C   UNL     1     -33.502  12.769  19.723  1.00  0.00    -0.000 C 
BRANCH  13  14
ATOM     14  C   UNL     1     -33.745  11.937  20.993  1.00  0.00    -0.000 C 
BRANCH  14  15
ATOM     15  C   UNL     1     -34.220  10.508  20.689  1.00  0.00    -0.000 C 
BRANCH  15  16
ATOM     16  C   UNL     1     -33.298   9.426  21.280  1.00  0.00    -0.000 C 
BRANCH  16  17
ATOM     17  C   UNL     1     -33.796   8.774  22.583  1.00  0.00    -0.000 C 
BRANCH  17  18
ATOM     18  C   UNL     1     -34.379   7.368  22.364  1.00  0.00    -0.000 C 
BRANCH  18  19
ATOM     19  C   UNL     1     -35.039   6.799  23.630  1.00  0.00    -0.003 C 
ATOM     20  C   UNL     1     -34.292   7.175  24.911  1.00  0.00     0.004 C 
ENDBRANCH  18  19
ENDBRANCH  17  18
ENDBRANCH  16  17
ENDBRANCH  15  16
ENDBRANCH  14  15
ENDBRANCH  13  14
ENDBRANCH  12  13
ENDBRANCH   1  12
TORSDOF 16
ENDMDL
MODEL 2
REMARK VINA RESULT:     8.824      3.693      9.004
REMARK INTER + INTRA:          16.255
REMARK INTER:                  16.863
REMARK INTRA:                  -0.608
REMARK UNBOUND:                -0.823
REMARK SMILES CCCCCCCCCCCCCCCCCC(=O)[O-]
REMARK SMILES IDX 10 1 11 2 12 3 13 4 14 5 15 6 16 7 17 8 18 9 19 10 20 11
REMARK SMILES IDX 9 12 8 13 7 14 6 15 5 16 4 17 3 18 2 19 1 20
REMARK H PARENT
REMARK Flexibility Score: inf
ROOT
ATOM      1  C   UNL     1     -33.355  12.690  17.012  1.00  0.00     0.000 C 
ENDROOT
BRANCH   1   2
ATOM      2  C   UNL     1     -32.320  12.856  18.137  1.00  0.00     0.000 C 
BRANCH   2   3
ATOM      3  C   UNL     1     -32.890  12.518  19.524  1.00  0.00     0.000 C 
BRANCH   3   4
ATOM      4  C   UNL     1     -33.271  11.032  19.666  1.00  0.00     0.000 C 
BRANCH   4   5
ATOM      5  C   UNL     1     -33.991  10.661  20.979  1.00  0.00     0.000 C 
BRANCH   5   6
ATOM      6  C   UNL     1     -33.516   9.353  21.637  1.00  0.00     0.000 C 
BRANCH   6   7
ATOM      7  C   UNL     1     -34.676   8.504  22.179  1.00  0.00     0.006 C 
BRANCH   7   8
ATOM      8  C   UNL     1     -34.160   7.191  22.774  1.00  0.00     0.053 C 
BRANCH   8   9
ATOM      9  C   UNL     1     -34.666   7.014  24.171  1.00  0.00     0.041 C 
ATOM     10  O   UNL     1     -33.864   6.777  25.111  1.00  0.00    -0.550 OA
ATOM     11  O   UNL     1     -36.024   7.147  24.441  1.00  0.00    -0.550 OA
ENDBRANCH   8   9
ENDBRANCH   7   8
ENDBRANCH   6   7
ENDBRANCH   5   6
ENDBRANCH   4   5
ENDBRANCH   3   4
ENDBRANCH   2   3
ENDBRANCH   1   2
BRANCH   1  12
ATOM     12  C   UNL     1     -33.691  14.016  16.308  1.00  0.00     0.000 C 
BRANCH  12  13
ATOM     13  C   UNL     1     -34.534  14.951  17.201  1.00  0.00    -0.000 C 
BRANCH  13  14
ATOM     14  C   UNL     1     -34.890  16.287  16.529  1.00  0.00    -0.000 C 
BRANCH  14  15
ATOM     15  C   UNL     1     -35.153  17.413  17.542  1.00  0.00    -0.000 C 
BRANCH  15  16
ATOM     16  C   UNL     1     -36.652  17.663  17.792  1.00  0.00    -0.000 C 
BRANCH  16  17
ATOM     17  C   UNL     1     -37.593  16.528  17.350  1.00  0.00    -0.000 C 
BRANCH  17  18
ATOM     18  C   UNL     1     -38.537  16.063  18.471  1.00  0.00    -0.000 C 
BRANCH  18  19
ATOM     19  C   UNL     1     -39.982  16.545  18.265  1.00  0.00    -0.003 C 
ATOM     20  C   UNL     1     -40.180  17.278  16.936  1.00  0.00     0.004 C 
ENDBRANCH  18  19
ENDBRANCH  17  18
ENDBRANCH  16  17
ENDBRANCH  15  16
ENDBRANCH  14  15
ENDBRANCH  13  14
ENDBRANCH  12  13
ENDBRANCH   1  12
TORSDOF 16
ENDMDL
MODEL 3
REMARK VINA RESULT:     9.421      1.741      2.253
REMARK INTER + INTRA:          17.410
REMARK INTER:                  18.087
REMARK INTRA:                  -0.676
REMARK UNBOUND:                -0.823
REMARK SMILES CCCCCCCCCCCCCCCCCC(=O)[O-]
REMARK SMILES IDX 10 1 11 2 12 3 13 4 14 5 15 6 16 7 17 8 18 9 19 10 20 11
REMARK SMILES IDX 9 12 8 13 7 14 6 15 5 16 4 17 3 18 2 19 1 20
REMARK H PARENT
REMARK Flexibility Score: inf
ROOT
ATOM      1  C   UNL     1     -32.267  12.898  17.919  1.00  0.00     0.000 C 
ENDROOT
BRANCH   1   2
ATOM      2  C   UNL     1     -33.528  12.676  17.069  1.00  0.00     0.000 C 
BRANCH   2   3
ATOM      3  C   UNL     1     -33.990  13.952  16.347  1.00  0.00     0.000 C 
BRANCH   3   4
ATOM      4  C   UNL     1     -34.357  15.089  17.319  1.00  0.00     0.000 C 
BRANCH   4   5
ATOM      5  C   UNL     1     -34.786  16.412  16.652  1.00  0.00     0.000 C 
BRANCH   5   6
ATOM      6  C   UNL     1     -35.176  17.538  17.626  1.00  0.00     0.000 C 
BRANCH   6   7
ATOM      7  C   UNL     1     -36.694  17.643  17.838  1.00  0.00     0.006 C 
BRANCH   7   8
ATOM      8  C   UNL     1     -37.381  16.306  17.542  1.00  0.00     0.053 C 
BRANCH   8   9
ATOM      9  C   UNL     1     -38.757  16.284  18.128  1.00  0.00     0.041 C 
ATOM     10  O   UNL     1     -39.684  16.949  17.596  1.00  0.00    -0.550 OA
ATOM     11  O   UNL     1     -39.025  15.500  19.245  1.00  0.00    -0.550 OA
ENDBRANCH   8   9
ENDBRANCH   7   8
ENDBRANCH   6   7
ENDBRANCH   5   6
ENDBRANCH   4   5
ENDBRANCH   3   4
ENDBRANCH   2   3
ENDBRANCH   1   2
BRANCH   1  12
ATOM     12  C   UNL     1     -32.441  12.442  19.378  1.00  0.00     0.000 C 
BRANCH  12  13
ATOM     13  C   UNL     1     -33.627  11.468  19.544  1.00  0.00    -0.000 C 
BRANCH  13  14
ATOM     14  C   UNL     1     -34.040  11.245  21.009  1.00  0.00    -0.000 C 
BRANCH  14  15
ATOM     15  C   UNL     1     -33.961  12.527  21.853  1.00  0.00    -0.000 C 
BRANCH  15  16
ATOM     16  C   UNL     1     -34.600  12.374  23.245  1.00  0.00    -0.000 C 
BRANCH  16  17
ATOM     17  C   UNL     1     -33.758  11.602  24.277  1.00  0.00    -0.000 C 
BRANCH  17  18
ATOM     18  C   UNL     1     -34.523  11.317  25.580  1.00  0.00    -0.000 C 
BRANCH  18  19
ATOM     19  C   UNL     1     -34.171   9.947  26.183  1.00  0.00    -0.003 C 
ATOM     20  C   UNL     1     -32.899   9.980  27.033  1.00  0.00     0.004 C 
ENDBRANCH  18  19
ENDBRANCH  17  18
ENDBRANCH  16  17
ENDBRANCH  15  16
ENDBRANCH  14  15
ENDBRANCH  13  14
ENDBRANCH  12  13
ENDBRANCH   1  12
TORSDOF 16
ENDMDL
MODEL 4
REMARK VINA RESULT:     9.695      4.291      8.863
REMARK INTER + INTRA:          17.940
REMARK INTER:                  18.769
REMARK INTRA:                  -0.829
REMARK UNBOUND:                -0.823
REMARK SMILES CCCCCCCCCCCCCCCCCC(=O)[O-]
REMARK SMILES IDX 10 1 11 2 12 3 13 4 14 5 15 6 16 7 17 8 18 9 19 10 20 11
REMARK SMILES IDX 9 12 8 13 7 14 6 15 5 16 4 17 3 18 2 19 1 20
REMARK H PARENT
REMARK Flexibility Score: inf
ROOT
ATOM      1  C   UNL     1     -32.775  12.734  17.670  1.00  0.00     0.000 C 
ENDROOT
BRANCH   1   2
ATOM      2  C   UNL     1     -33.093  12.703  19.173  1.00  0.00     0.000 C 
BRANCH   2   3
ATOM      3  C   UNL     1     -33.289  11.275  19.710  1.00  0.00     0.000 C 
BRANCH   3   4
ATOM      4  C   UNL     1     -34.004  11.243  21.073  1.00  0.00     0.000 C 
BRANCH   4   5
ATOM      5  C   UNL     1     -33.994  12.574  21.852  1.00  0.00     0.000 C 
BRANCH   5   6
ATOM      6  C   UNL     1     -34.577  12.502  23.276  1.00  0.00     0.000 C 
BRANCH   6   7
ATOM      7  C   UNL     1     -33.666  11.745  24.253  1.00  0.00     0.006 C 
BRANCH   7   8
ATOM      8  C   UNL     1     -34.479  11.145  25.405  1.00  0.00     0.053 C 
BRANCH   8   9
ATOM      9  C   UNL     1     -33.583  10.411  26.352  1.00  0.00     0.041 C 
ATOM     10  O   UNL     1     -33.881   9.249  26.735  1.00  0.00    -0.550 OA
ATOM     11  O   UNL     1     -32.399  10.996  26.785  1.00  0.00    -0.550 OA
ENDBRANCH   8   9
ENDBRANCH   7   8
ENDBRANCH   6   7
ENDBRANCH   5   6
ENDBRANCH   4   5
ENDBRANCH   3   4
ENDBRANCH   2   3
ENDBRANCH   1   2
BRANCH   1  12
ATOM     12  C   UNL     1     -33.767  13.594  16.866  1.00  0.00     0.000 C 
BRANCH  12  13
ATOM     13  C   UNL     1     -34.142  14.894  17.609  1.00  0.00    -0.000 C 
BRANCH  13  14
ATOM     14  C   UNL     1     -34.954  15.880  16.752  1.00  0.00    -0.000 C 
BRANCH  14  15
ATOM     15  C   UNL     1     -35.291  17.181  17.498  1.00  0.00    -0.000 C 
BRANCH  15  16
ATOM     16  C   UNL     1     -36.803  17.384  17.704  1.00  0.00    -0.000 C 
BRANCH  16  17
ATOM     17  C   UNL     1     -37.608  16.104  17.994  1.00  0.00    -0.000 C 
BRANCH  17  18
ATOM     18  C   UNL     1     -39.122  16.357  18.086  1.00  0.00    -0.000 C 
BRANCH  18  19
ATOM     19  C   UNL     1     -39.574  17.558  17.239  1.00  0.00    -0.003 C 
ATOM     20  C   UNL     1     -40.936  17.341  16.579  1.00  0.00     0.004 C 
ENDBRANCH  18  19
ENDBRANCH  17  18
ENDBRANCH  16  17
ENDBRANCH  15  16
ENDBRANCH  14  15
ENDBRANCH  13  14
ENDBRANCH  12  13
ENDBRANCH   1  12
TORSDOF 16
ENDMDL
MODEL 5
REMARK VINA RESULT:    10.255      3.429      9.168
REMARK INTER + INTRA:          19.024
REMARK INTER:                  19.795
REMARK INTRA:                  -0.771
REMARK UNBOUND:                -0.823
REMARK SMILES CCCCCCCCCCCCCCCCCC(=O)[O-]
REMARK SMILES IDX 10 1 11 2 12 3 13 4 14 5 15 6 16 7 17 8 18 9 19 10 20 11
REMARK SMILES IDX 9 12 8 13 7 14 6 15 5 16 4 17 3 18 2 19 1 20
REMARK H PARENT
REMARK Flexibility Score: inf
ROOT
ATOM      1  C   UNL     1     -33.662  11.961  20.115  1.00  0.00     0.000 C 
ENDROOT
BRANCH   1   2
ATOM      2  C   UNL     1     -33.292  10.499  20.416  1.00  0.00     0.000 C 
BRANCH   2   3
ATOM      3  C   UNL     1     -34.271   9.828  21.393  1.00  0.00     0.000 C 
BRANCH   3   4
ATOM      4  C   UNL     1     -33.597   8.759  22.273  1.00  0.00     0.000 C 
BRANCH   4   5
ATOM      5  C   UNL     1     -34.402   7.456  22.456  1.00  0.00     0.000 C 
BRANCH   5   6
ATOM      6  C   UNL     1     -34.848   7.161  23.899  1.00  0.00     0.000 C 
BRANCH   6   7
ATOM      7  C   UNL     1     -33.999   7.897  24.947  1.00  0.00     0.006 C 
BRANCH   7   8
ATOM      8  C   UNL     1     -34.810   9.004  25.627  1.00  0.00     0.053 C 
BRANCH   8   9
ATOM      9  C   UNL     1     -33.903  10.083  26.131  1.00  0.00     0.041 C 
ATOM     10  O   UNL     1     -33.032   9.823  27.002  1.00  0.00    -0.550 OA
ATOM     11  O   UNL     1     -33.997  11.369  25.612  1.00  0.00    -0.550 OA
ENDBRANCH   8   9
ENDBRANCH   7   8
ENDBRANCH   6   7
ENDBRANCH   5   6
ENDBRANCH   4   5
ENDBRANCH   3   4
ENDBRANCH   2   3
ENDBRANCH   1   2
BRANCH   1  12
ATOM     12  C   UNL     1     -32.563  12.708  19.339  1.00  0.00     0.000 C 
BRANCH  12  13
ATOM     13  C   UNL     1     -32.678  12.489  17.815  1.00  0.00    -0.000 C 
BRANCH  13  14
ATOM     14  C   UNL     1     -33.876  13.211  17.178  1.00  0.00    -0.000 C 
BRANCH  14  15
ATOM     15  C   UNL     1     -34.031  14.659  17.670  1.00  0.00    -0.000 C 
BRANCH  15  16
ATOM     16  C   UNL     1     -34.958  15.505  16.778  1.00  0.00    -0.000 C 
BRANCH  16  17
ATOM     17  C   UNL     1     -35.077  16.989  17.169  1.00  0.00    -0.000 C 
BRANCH  17  18
ATOM     18  C   UNL     1     -36.441  17.337  17.788  1.00  0.00    -0.000 C 
BRANCH  18  19
ATOM     19  C   UNL     1     -37.418  16.151  17.772  1.00  0.00    -0.003 C 
ATOM     20  C   UNL     1     -38.845  16.550  18.149  1.00  0.00     0.004 C 
ENDBRANCH  18  19
ENDBRANCH  17  18
ENDBRANCH  16  17
ENDBRANCH  15  16
ENDBRANCH  14  15
ENDBRANCH  13  14
ENDBRANCH  12  13
ENDBRANCH   1  12
TORSDOF 16
ENDMDL
MODEL 6
REMARK VINA RESULT:    10.483      2.008      4.058
REMARK INTER + INTRA:          19.465
REMARK INTER:                  20.460
REMARK INTRA:                  -0.995
REMARK UNBOUND:                -0.823
REMARK SMILES CCCCCCCCCCCCCCCCCC(=O)[O-]
REMARK SMILES IDX 10 1 11 2 12 3 13 4 14 5 15 6 16 7 17 8 18 9 19 10 20 11
REMARK SMILES IDX 9 12 8 13 7 14 6 15 5 16 4 17 3 18 2 19 1 20
REMARK H PARENT
REMARK Flexibility Score: inf
ROOT
ATOM      1  C   UNL     1     -33.530  10.443  20.560  1.00  0.00     0.000 C 
ENDROOT
BRANCH   1   2
ATOM      2  C   UNL     1     -33.812  11.948  20.422  1.00  0.00     0.000 C 
BRANCH   2   3
ATOM      3  C   UNL     1     -32.866  12.641  19.429  1.00  0.00     0.000 C 
BRANCH   3   4
ATOM      4  C   UNL     1     -33.176  12.288  17.962  1.00  0.00     0.000 C 
BRANCH   4   5
ATOM      5  C   UNL     1     -32.790  13.367  16.930  1.00  0.00     0.000 C 
BRANCH   5   6
ATOM      6  C   UNL     1     -33.971  14.164  16.346  1.00  0.00     0.000 C 
BRANCH   6   7
ATOM      7  C   UNL     1     -34.511  15.224  17.317  1.00  0.00     0.006 C 
BRANCH   7   8
ATOM      8  C   UNL     1     -35.350  16.268  16.574  1.00  0.00     0.053 C 
BRANCH   8   9
ATOM      9  C   UNL     1     -35.777  17.358  17.507  1.00  0.00     0.041 C 
ATOM     10  O   UNL     1     -36.986  17.470  17.841  1.00  0.00    -0.550 OA
ATOM     11  O   UNL     1     -34.832  18.230  18.036  1.00  0.00    -0.550 OA
ENDBRANCH   8   9
ENDBRANCH   7   8
ENDBRANCH   6   7
ENDBRANCH   5   6
ENDBRANCH   4   5
ENDBRANCH   3   4
ENDBRANCH   2   3
ENDBRANCH   1   2
BRANCH   1  12
ATOM     12  C   UNL     1     -34.255   9.806  21.758  1.00  0.00     0.000 C 
BRANCH  12  13
ATOM     13  C   UNL     1     -33.504   8.571  22.301  1.00  0.00    -0.000 C 
BRANCH  13  14
ATOM     14  C   UNL     1     -34.361   7.295  22.335  1.00  0.00    -0.000 C 
BRANCH  14  15
ATOM     15  C   UNL     1     -35.112   7.115  23.663  1.00  0.00    -0.000 C 
BRANCH  15  16
ATOM     16  C   UNL     1     -34.241   7.421  24.896  1.00  0.00    -0.000 C 
BRANCH  16  17
ATOM     17  C   UNL     1     -34.656   8.663  25.706  1.00  0.00    -0.000 C 
BRANCH  17  18
ATOM     18  C   UNL     1     -33.558   9.143  26.669  1.00  0.00    -0.000 C 
BRANCH  18  19
ATOM     19  C   UNL     1     -33.189  10.620  26.454  1.00  0.00    -0.003 C 
ATOM     20  C   UNL     1     -34.001  11.280  25.338  1.00  0.00     0.004 C 
ENDBRANCH  18  19
ENDBRANCH  17  18
ENDBRANCH  16  17
ENDBRANCH  15  16
ENDBRANCH  14  15
ENDBRANCH  13  14
ENDBRANCH  12  13
ENDBRANCH   1  12
TORSDOF 16
ENDMDL
