MODEL 1
REMARK VINA RESULT:    -3.791      0.000      0.000
REMARK INTER + INTRA:          -5.905
REMARK INTER:                  -5.786
REMARK INTRA:                  -0.119
REMARK UNBOUND:                -0.119
REMARK SMILES CC1=CCC[C@H](C)C(=O)C[C@H](C(C)C)C(=O)C1
REMARK SMILES IDX 8 1 9 2 6 3 7 4 5 5 4 6 3 7 2 8 1 9 10 11 11 12 15 13 16 14
REMARK SMILES IDX 17 15 12 17 13 18 14 19
REMARK H PARENT
REMARK Flexibility Score: 70.00
ROOT
ATOM      1  C   UNL     1       0.694  27.217  54.660  1.00  0.00     0.136 C 
ATOM      2  O   UNL     1       1.832  27.341  55.093  1.00  0.00    -0.299 OA
ENDROOT
BRANCH   1   3
ATOM      3  C   UNL     1      -0.268  26.316  55.425  1.00  0.00     0.053 C 
ATOM      4  C   UNL     1       0.501  25.109  55.974  1.00  0.00     0.016 C 
BRANCH   3   5
ATOM      5  C   UNL     1      -0.967  27.075  56.579  1.00  0.00     0.015 C 
BRANCH   5   6
ATOM      6  C   UNL     1      -2.308  27.715  56.182  1.00  0.00     0.028 C 
BRANCH   6   7
ATOM      7  C   UNL     1      -2.350  29.180  56.538  1.00  0.00    -0.028 C 
ATOM      8  C   UNL     1      -2.513  30.200  55.664  1.00  0.00    -0.070 CG0
ATOM      9  C   UNL     1      -2.511  31.604  56.219  1.00  0.00     0.039 C 
ATOM     10  G   UNL     1      -2.806  29.999  54.186  1.00  0.00     0.000 G0
ENDBRANCH   6   7
ENDBRANCH   5   6
ENDBRANCH   3   5
ENDBRANCH   1   3
BRANCH   1  11
ATOM     11  C   UNL     1       0.359  27.962  53.377  1.00  0.00     0.087 C 
BRANCH  11  12
ATOM     12  C   UNL     1      -1.139  28.193  53.058  1.00  0.00     0.066 C 
BRANCH  12  13
ATOM     13  C   UNL     1      -1.636  29.621  53.296  1.00  0.00     0.140 C 
ATOM     14  O   UNL     1      -0.979  30.529  52.807  1.00  0.00    -0.299 OA
BRANCH  13  15
ATOM     15  C   UNL     1      -2.813  30.013  54.175  1.00  0.00     0.106 CG0
ATOM     16  G   UNL     1      -2.507  30.189  55.653  1.00  0.00     0.000 G0
ENDBRANCH  13  15
ENDBRANCH  12  13
BRANCH  12  17
ATOM     17  C   UNL     1      -1.536  27.623  51.659  1.00  0.00    -0.006 C 
ATOM     18  C   UNL     1      -1.681  26.093  51.694  1.00  0.00     0.008 C 
ATOM     19  C   UNL     1      -2.793  28.253  51.039  1.00  0.00     0.008 C 
ENDBRANCH  12  17
ENDBRANCH  11  12
ENDBRANCH   1  11
TORSDOF 1
ENDMDL
MODEL 2
REMARK VINA RESULT:    -3.537      1.750      4.064
REMARK INTER + INTRA:          -5.518
REMARK INTER:                  -5.130
REMARK INTRA:                  -0.387
REMARK UNBOUND:                -0.119
REMARK SMILES CC1=CCC[C@H](C)C(=O)C[C@H](C(C)C)C(=O)C1
REMARK SMILES IDX 8 1 9 2 6 3 7 4 5 5 4 6 3 7 2 8 1 9 10 11 11 12 15 13 16 14
REMARK SMILES IDX 17 15 12 17 13 18 14 19
REMARK H PARENT
REMARK Flexibility Score: 70.00
ROOT
ATOM      1  C   UNL     1      -0.852  29.674  51.645  1.00  0.00     0.136 C 
ATOM      2  O   UNL     1       0.227  30.221  51.829  1.00  0.00    -0.299 OA
ENDROOT
BRANCH   1   3
ATOM      3  C   UNL     1      -1.824  30.321  50.667  1.00  0.00     0.053 C 
ATOM      4  C   UNL     1      -2.772  29.250  50.116  1.00  0.00     0.016 C 
BRANCH   3   5
ATOM      5  C   UNL     1      -2.633  31.460  51.333  1.00  0.00     0.015 C 
BRANCH   5   6
ATOM      6  C   UNL     1      -3.785  30.967  52.225  1.00  0.00     0.028 C 
BRANCH   6   7
ATOM      7  C   UNL     1      -3.604  31.408  53.657  1.00  0.00    -0.028 C 
ATOM      8  C   UNL     1      -3.418  30.587  54.717  1.00  0.00    -0.070 CG0
ATOM      9  C   UNL     1      -3.273  31.225  56.078  1.00  0.00     0.039 C 
ATOM     10  G   UNL     1      -3.238  29.083  54.592  1.00  0.00     0.000 G0
ENDBRANCH   6   7
ENDBRANCH   5   6
ENDBRANCH   3   5
ENDBRANCH   1   3
BRANCH   1  11
ATOM     11  C   UNL     1      -1.126  28.406  52.438  1.00  0.00     0.087 C 
BRANCH  11  12
ATOM     12  C   UNL     1      -0.707  28.394  53.929  1.00  0.00     0.066 C 
BRANCH  12  13
ATOM     13  C   UNL     1      -1.862  28.524  54.925  1.00  0.00     0.140 C 
ATOM     14  O   UNL     1      -1.682  28.078  56.050  1.00  0.00    -0.299 OA
BRANCH  13  15
ATOM     15  C   UNL     1      -3.247  29.064  54.608  1.00  0.00     0.106 CG0
ATOM     16  G   UNL     1      -3.412  30.571  54.712  1.00  0.00     0.000 G0
ENDBRANCH  13  15
ENDBRANCH  12  13
BRANCH  12  17
ATOM     17  C   UNL     1       0.264  27.215  54.257  1.00  0.00    -0.006 C 
ATOM     18  C   UNL     1      -0.058  25.968  53.416  1.00  0.00     0.008 C 
ATOM     19  C   UNL     1       1.758  27.557  54.134  1.00  0.00     0.008 C 
ENDBRANCH  12  17
ENDBRANCH  11  12
ENDBRANCH   1  11
TORSDOF 1
ENDMDL
MODEL 3
REMARK VINA RESULT:    -3.500      1.553      4.007
REMARK INTER + INTRA:          -5.461
REMARK INTER:                  -5.405
REMARK INTRA:                  -0.055
REMARK UNBOUND:                -0.119
REMARK SMILES CC1=CCC[C@H](C)C(=O)C[C@H](C(C)C)C(=O)C1
REMARK SMILES IDX 8 1 9 2 6 3 7 4 5 5 4 6 3 7 2 8 1 9 10 11 11 12 15 13 16 14
REMARK SMILES IDX 17 15 12 17 13 18 14 19
REMARK H PARENT
REMARK Flexibility Score: 70.00
ROOT
ATOM      1  C   UNL     1      -0.887  27.469  55.384  1.00  0.00     0.136 C 
ATOM      2  O   UNL     1      -0.591  26.961  56.457  1.00  0.00    -0.299 OA
ENDROOT
BRANCH   1   3
ATOM      3  C   UNL     1       0.096  27.325  54.229  1.00  0.00     0.053 C 
ATOM      4  C   UNL     1       1.491  27.022  54.789  1.00  0.00     0.016 C 
BRANCH   3   5
ATOM      5  C   UNL     1      -0.337  26.212  53.244  1.00  0.00     0.015 C 
BRANCH   5   6
ATOM      6  C   UNL     1      -1.651  26.513  52.502  1.00  0.00     0.028 C 
BRANCH   6   7
ATOM      7  C   UNL     1      -1.466  27.590  51.462  1.00  0.00    -0.028 C 
ATOM      8  C   UNL     1      -2.117  28.775  51.429  1.00  0.00    -0.070 CG0
ATOM      9  C   UNL     1      -1.802  29.716  50.291  1.00  0.00     0.039 C 
ATOM     10  G   UNL     1      -3.056  29.247  52.527  1.00  0.00     0.000 G0
ENDBRANCH   6   7
ENDBRANCH   5   6
ENDBRANCH   3   5
ENDBRANCH   1   3
BRANCH   1  11
ATOM     11  C   UNL     1      -2.207  28.221  55.317  1.00  0.00     0.087 C 
BRANCH  11  12
ATOM     12  C   UNL     1      -2.146  29.744  55.043  1.00  0.00     0.066 C 
BRANCH  12  13
ATOM     13  C   UNL     1      -2.439  30.151  53.596  1.00  0.00     0.140 C 
ATOM     14  O   UNL     1      -2.246  31.321  53.296  1.00  0.00    -0.299 OA
BRANCH  13  15
ATOM     15  C   UNL     1      -3.049  29.254  52.531  1.00  0.00     0.106 CG0
ATOM     16  G   UNL     1      -2.106  28.797  51.430  1.00  0.00     0.000 G0
ENDBRANCH  13  15
ENDBRANCH  12  13
BRANCH  12  17
ATOM     17  C   UNL     1      -2.959  30.564  56.095  1.00  0.00    -0.006 C 
ATOM     18  C   UNL     1      -3.428  29.678  57.260  1.00  0.00     0.008 C 
ATOM     19  C   UNL     1      -2.239  31.808  56.640  1.00  0.00     0.008 C 
ENDBRANCH  12  17
ENDBRANCH  11  12
ENDBRANCH   1  11
TORSDOF 1
ENDMDL
MODEL 4
REMARK VINA RESULT:    -3.493      1.756      3.956
REMARK INTER + INTRA:          -5.449
REMARK INTER:                  -5.487
REMARK INTRA:                   0.038
REMARK UNBOUND:                -0.119
REMARK SMILES CC1=CCC[C@H](C)C(=O)C[C@H](C(C)C)C(=O)C1
REMARK SMILES IDX 8 1 9 2 6 3 7 4 5 5 4 6 3 7 2 8 1 9 10 11 11 12 15 13 16 14
REMARK SMILES IDX 17 15 12 17 13 18 14 19
REMARK H PARENT
REMARK Flexibility Score: 70.00
ROOT
ATOM      1  C   UNL     1      -0.766  29.811  52.665  1.00  0.00     0.136 C 
ATOM      2  O   UNL     1       0.080  29.947  51.791  1.00  0.00    -0.299 OA
ENDROOT
BRANCH   1   3
ATOM      3  C   UNL     1      -1.444  31.063  53.205  1.00  0.00     0.053 C 
ATOM      4  C   UNL     1      -0.543  32.276  52.945  1.00  0.00     0.016 C 
BRANCH   3   5
ATOM      5  C   UNL     1      -2.835  31.283  52.562  1.00  0.00     0.015 C 
BRANCH   5   6
ATOM      6  C   UNL     1      -4.004  31.192  53.559  1.00  0.00     0.028 C 
BRANCH   6   7
ATOM      7  C   UNL     1      -3.529  31.333  54.984  1.00  0.00    -0.028 C 
ATOM      8  C   UNL     1      -3.205  30.313  55.812  1.00  0.00    -0.070 CG0
ATOM      9  C   UNL     1      -2.764  30.662  57.213  1.00  0.00     0.039 C 
ATOM     10  G   UNL     1      -3.157  28.859  55.372  1.00  0.00     0.000 G0
ENDBRANCH   6   7
ENDBRANCH   5   6
ENDBRANCH   3   5
ENDBRANCH   1   3
BRANCH   1  11
ATOM     11  C   UNL     1      -1.040  28.394  53.145  1.00  0.00     0.087 C 
BRANCH  11  12
ATOM     12  C   UNL     1      -0.669  28.054  54.610  1.00  0.00     0.066 C 
BRANCH  12  13
ATOM     13  C   UNL     1      -1.833  28.127  55.602  1.00  0.00     0.140 C 
ATOM     14  O   UNL     1      -1.732  27.468  56.628  1.00  0.00    -0.299 OA
BRANCH  13  15
ATOM     15  C   UNL     1      -3.145  28.860  55.376  1.00  0.00     0.106 CG0
ATOM     16  G   UNL     1      -3.175  30.315  55.812  1.00  0.00     0.000 G0
ENDBRANCH  13  15
ENDBRANCH  12  13
BRANCH  12  17
ATOM     17  C   UNL     1       0.155  26.732  54.715  1.00  0.00    -0.006 C 
ATOM     18  C   UNL     1       0.413  26.115  53.331  1.00  0.00     0.008 C 
ATOM     19  C   UNL     1       1.479  26.858  55.487  1.00  0.00     0.008 C 
ENDBRANCH  12  17
ENDBRANCH  11  12
ENDBRANCH   1  11
TORSDOF 1
ENDMDL
MODEL 5
REMARK VINA RESULT:    -3.380      2.013      4.256
REMARK INTER + INTRA:          -5.277
REMARK INTER:                  -4.998
REMARK INTRA:                  -0.280
REMARK UNBOUND:                -0.119
REMARK SMILES CC1=CCC[C@H](C)C(=O)C[C@H](C(C)C)C(=O)C1
REMARK SMILES IDX 8 1 9 2 6 3 7 4 5 5 4 6 3 7 2 8 1 9 10 11 11 12 15 13 16 14
REMARK SMILES IDX 17 15 12 17 13 18 14 19
REMARK H PARENT
REMARK Flexibility Score: 70.00
ROOT
ATOM      1  C   UNL     1      -2.775  29.727  50.576  1.00  0.00     0.136 C 
ATOM      2  O   UNL     1      -2.413  30.864  50.306  1.00  0.00    -0.299 OA
ENDROOT
BRANCH   1   3
ATOM      3  C   UNL     1      -4.256  29.491  50.840  1.00  0.00     0.053 C 
ATOM      4  C   UNL     1      -5.045  29.742  49.550  1.00  0.00     0.016 C 
BRANCH   3   5
ATOM      5  C   UNL     1      -4.524  28.057  51.359  1.00  0.00     0.015 C 
BRANCH   5   6
ATOM      6  C   UNL     1      -4.650  27.961  52.889  1.00  0.00     0.028 C 
BRANCH   6   7
ATOM      7  C   UNL     1      -4.662  29.327  53.531  1.00  0.00    -0.028 C 
ATOM      8  C   UNL     1      -3.634  29.889  54.207  1.00  0.00    -0.070 CG0
ATOM      9  C   UNL     1      -3.851  31.265  54.791  1.00  0.00     0.039 C 
ATOM     10  G   UNL     1      -2.255  29.261  54.311  1.00  0.00     0.000 G0
ENDBRANCH   6   7
ENDBRANCH   5   6
ENDBRANCH   3   5
ENDBRANCH   1   3
BRANCH   1  11
ATOM     11  C   UNL     1      -1.694  28.659  50.648  1.00  0.00     0.087 C 
BRANCH  11  12
ATOM     12  C   UNL     1      -1.042  28.397  52.028  1.00  0.00     0.066 C 
BRANCH  12  13
ATOM     13  C   UNL     1      -1.339  29.456  53.093  1.00  0.00     0.140 C 
ATOM     14  O   UNL     1      -0.739  30.517  53.007  1.00  0.00    -0.299 OA
BRANCH  13  15
ATOM     15  C   UNL     1      -2.235  29.263  54.306  1.00  0.00     0.106 CG0
ATOM     16  G   UNL     1      -3.622  29.877  54.212  1.00  0.00     0.000 G0
ENDBRANCH  13  15
ENDBRANCH  12  13
BRANCH  12  17
ATOM     17  C   UNL     1      -1.282  26.935  52.522  1.00  0.00    -0.006 C 
ATOM     18  C   UNL     1      -1.590  25.987  51.352  1.00  0.00     0.008 C 
ATOM     19  C   UNL     1      -0.151  26.352  53.385  1.00  0.00     0.008 C 
ENDBRANCH  12  17
ENDBRANCH  11  12
ENDBRANCH   1  11
TORSDOF 1
ENDMDL
MODEL 6
REMARK VINA RESULT:    -3.364      2.053      4.200
REMARK INTER + INTRA:          -5.254
REMARK INTER:                  -5.307
REMARK INTRA:                   0.053
REMARK UNBOUND:                -0.119
REMARK SMILES CC1=CCC[C@H](C)C(=O)C[C@H](C(C)C)C(=O)C1
REMARK SMILES IDX 8 1 9 2 6 3 7 4 5 5 4 6 3 7 2 8 1 9 10 11 11 12 15 13 16 14
REMARK SMILES IDX 17 15 12 17 13 18 14 19
REMARK H PARENT
REMARK Flexibility Score: 70.00
ROOT
ATOM      1  C   UNL     1      -0.491  29.777  52.207  1.00  0.00     0.136 C 
ATOM      2  O   UNL     1      -0.117  29.916  51.051  1.00  0.00    -0.299 OA
ENDROOT
BRANCH   1   3
ATOM      3  C   UNL     1      -1.530  30.753  52.746  1.00  0.00     0.053 C 
ATOM      4  C   UNL     1      -0.855  32.098  53.037  1.00  0.00     0.016 C 
BRANCH   3   5
ATOM      5  C   UNL     1      -2.702  30.947  51.752  1.00  0.00     0.015 C 
BRANCH   5   6
ATOM      6  C   UNL     1      -4.019  30.297  52.208  1.00  0.00     0.028 C 
BRANCH   6   7
ATOM      7  C   UNL     1      -3.951  29.858  53.650  1.00  0.00    -0.028 C 
ATOM      8  C   UNL     1      -3.763  28.590  54.080  1.00  0.00    -0.070 CG0
ATOM      9  C   UNL     1      -3.741  28.352  55.571  1.00  0.00     0.039 C 
ATOM     10  G   UNL     1      -3.466  27.424  53.151  1.00  0.00     0.000 G0
ENDBRANCH   6   7
ENDBRANCH   5   6
ENDBRANCH   3   5
ENDBRANCH   1   3
BRANCH   1  11
ATOM     11  C   UNL     1       0.142  28.648  53.005  1.00  0.00     0.087 C 
BRANCH  11  12
ATOM     12  C   UNL     1      -0.812  27.667  53.732  1.00  0.00     0.066 C 
BRANCH  12  13
ATOM     13  C   UNL     1      -1.978  27.154  52.883  1.00  0.00     0.140 C 
ATOM     14  O   UNL     1      -1.698  26.556  51.854  1.00  0.00    -0.299 OA
BRANCH  13  15
ATOM     15  C   UNL     1      -3.451  27.416  53.152  1.00  0.00     0.106 CG0
ATOM     16  G   UNL     1      -3.759  28.582  54.077  1.00  0.00     0.000 G0
ENDBRANCH  13  15
ENDBRANCH  12  13
BRANCH  12  17
ATOM     17  C   UNL     1      -0.035  26.531  54.469  1.00  0.00    -0.006 C 
ATOM     18  C   UNL     1       1.447  26.502  54.060  1.00  0.00     0.008 C 
ATOM     19  C   UNL     1      -0.153  26.558  56.002  1.00  0.00     0.008 C 
ENDBRANCH  12  17
ENDBRANCH  11  12
ENDBRANCH   1  11
TORSDOF 1
ENDMDL
MODEL 7
REMARK VINA RESULT:    -3.319      2.059      3.796
REMARK INTER + INTRA:          -5.184
REMARK INTER:                  -4.866
REMARK INTRA:                  -0.318
REMARK UNBOUND:                -0.119
REMARK SMILES CC1=CCC[C@H](C)C(=O)C[C@H](C(C)C)C(=O)C1
REMARK SMILES IDX 8 1 9 2 6 3 7 4 5 5 4 6 3 7 2 8 1 9 10 11 11 12 15 13 16 14
REMARK SMILES IDX 17 15 12 17 13 18 14 19
REMARK H PARENT
REMARK Flexibility Score: 70.00
ROOT
ATOM      1  C   UNL     1      -2.027  28.629  55.463  1.00  0.00     0.136 C 
ATOM      2  O   UNL     1      -1.974  27.696  56.253  1.00  0.00    -0.299 OA
ENDROOT
BRANCH   1   3
ATOM      3  C   UNL     1      -3.097  29.692  55.684  1.00  0.00     0.053 C 
ATOM      4  C   UNL     1      -2.549  31.056  55.250  1.00  0.00     0.016 C 
BRANCH   3   5
ATOM      5  C   UNL     1      -4.396  29.366  54.908  1.00  0.00     0.015 C 
BRANCH   5   6
ATOM      6  C   UNL     1      -4.763  30.411  53.841  1.00  0.00     0.028 C 
BRANCH   6   7
ATOM      7  C   UNL     1      -4.918  29.781  52.479  1.00  0.00    -0.028 C 
ATOM      8  C   UNL     1      -4.013  29.839  51.475  1.00  0.00    -0.070 CG0
ATOM      9  C   UNL     1      -4.363  29.153  50.176  1.00  0.00     0.039 C 
ATOM     10  G   UNL     1      -2.632  30.456  51.626  1.00  0.00     0.000 G0
ENDBRANCH   6   7
ENDBRANCH   5   6
ENDBRANCH   3   5
ENDBRANCH   1   3
BRANCH   1  11
ATOM     11  C   UNL     1      -1.029  28.621  54.317  1.00  0.00     0.087 C 
BRANCH  11  12
ATOM     12  C   UNL     1      -1.572  28.301  52.902  1.00  0.00     0.066 C 
BRANCH  12  13
ATOM     13  C   UNL     1      -1.498  29.461  51.905  1.00  0.00     0.140 C 
ATOM     14  O   UNL     1      -0.417  29.669  51.371  1.00  0.00    -0.299 OA
BRANCH  13  15
ATOM     15  C   UNL     1      -2.620  30.440  51.602  1.00  0.00     0.106 CG0
ATOM     16  G   UNL     1      -4.009  29.838  51.472  1.00  0.00     0.000 G0
ENDBRANCH  13  15
ENDBRANCH  12  13
BRANCH  12  17
ATOM     17  C   UNL     1      -0.995  26.963  52.340  1.00  0.00    -0.006 C 
ATOM     18  C   UNL     1      -0.037  26.297  53.341  1.00  0.00     0.008 C 
ATOM     19  C   UNL     1      -2.054  25.948  51.877  1.00  0.00     0.008 C 
ENDBRANCH  12  17
ENDBRANCH  11  12
ENDBRANCH   1  11
TORSDOF 1
ENDMDL
MODEL 8
REMARK VINA RESULT:    -3.213      1.993      4.862
REMARK INTER + INTRA:          -5.023
REMARK INTER:                  -5.083
REMARK INTRA:                   0.059
REMARK UNBOUND:                -0.119
REMARK SMILES CC1=CCC[C@H](C)C(=O)C[C@H](C(C)C)C(=O)C1
REMARK SMILES IDX 8 1 9 2 6 3 7 4 5 5 4 6 3 7 2 8 1 9 10 11 11 12 15 13 16 14
REMARK SMILES IDX 17 15 12 17 13 18 14 19
REMARK H PARENT
REMARK Flexibility Score: 70.00
ROOT
ATOM      1  C   UNL     1      -3.769  28.962  52.306  1.00  0.00     0.136 C 
ATOM      2  O   UNL     1      -4.043  30.039  51.795  1.00  0.00    -0.299 OA
ENDROOT
BRANCH   1   3
ATOM      3  C   UNL     1      -3.511  27.777  51.384  1.00  0.00     0.053 C 
ATOM      4  C   UNL     1      -2.534  28.199  50.281  1.00  0.00     0.016 C 
BRANCH   3   5
ATOM      5  C   UNL     1      -2.949  26.560  52.160  1.00  0.00     0.015 C 
BRANCH   5   6
ATOM      6  C   UNL     1      -1.478  26.243  51.840  1.00  0.00     0.028 C 
BRANCH   6   7
ATOM      7  C   UNL     1      -0.625  26.258  53.084  1.00  0.00    -0.028 C 
ATOM      8  C   UNL     1       0.015  27.338  53.589  1.00  0.00    -0.070 CG0
ATOM      9  C   UNL     1       0.836  27.143  54.841  1.00  0.00     0.039 C 
ATOM     10  G   UNL     1      -0.140  28.742  53.028  1.00  0.00     0.000 G0
ENDBRANCH   6   7
ENDBRANCH   5   6
ENDBRANCH   3   5
ENDBRANCH   1   3
BRANCH   1  11
ATOM     11  C   UNL     1      -3.738  28.909  53.826  1.00  0.00     0.087 C 
BRANCH  11  12
ATOM     12  C   UNL     1      -2.365  29.106  54.517  1.00  0.00     0.066 C 
BRANCH  12  13
ATOM     13  C   UNL     1      -1.246  29.604  53.598  1.00  0.00     0.140 C 
ATOM     14  O   UNL     1      -1.304  30.768  53.229  1.00  0.00    -0.299 OA
BRANCH  13  15
ATOM     15  C   UNL     1      -0.130  28.749  53.020  1.00  0.00     0.106 CG0
ATOM     16  G   UNL     1      -0.012  27.343  53.585  1.00  0.00     0.000 G0
ENDBRANCH  13  15
ENDBRANCH  12  13
BRANCH  12  17
ATOM     17  C   UNL     1      -2.488  29.922  55.843  1.00  0.00    -0.006 C 
ATOM     18  C   UNL     1      -3.706  30.859  55.819  1.00  0.00     0.008 C 
ATOM     19  C   UNL     1      -2.508  29.071  57.124  1.00  0.00     0.008 C 
ENDBRANCH  12  17
ENDBRANCH  11  12
ENDBRANCH   1  11
TORSDOF 1
ENDMDL
MODEL 9
REMARK VINA RESULT:    -3.091      2.299      4.567
REMARK INTER + INTRA:          -4.836
REMARK INTER:                  -5.136
REMARK INTRA:                   0.300
REMARK UNBOUND:                -0.119
REMARK SMILES CC1=CCC[C@H](C)C(=O)C[C@H](C(C)C)C(=O)C1
REMARK SMILES IDX 8 1 9 2 6 3 7 4 5 5 4 6 3 7 2 8 1 9 10 11 11 12 15 13 16 14
REMARK SMILES IDX 17 15 12 17 13 18 14 19
REMARK H PARENT
REMARK Flexibility Score: 70.00
ROOT
ATOM      1  C   UNL     1      -3.923  28.034  51.707  1.00  0.00     0.136 C 
ATOM      2  O   UNL     1      -3.790  28.191  50.501  1.00  0.00    -0.299 OA
ENDROOT
BRANCH   1   3
ATOM      3  C   UNL     1      -3.801  26.620  52.261  1.00  0.00     0.053 C 
ATOM      4  C   UNL     1      -5.116  25.869  52.023  1.00  0.00     0.016 C 
BRANCH   3   5
ATOM      5  C   UNL     1      -2.622  25.852  51.615  1.00  0.00     0.015 C 
BRANCH   5   6
ATOM      6  C   UNL     1      -1.243  26.468  51.906  1.00  0.00     0.028 C 
BRANCH   6   7
ATOM      7  C   UNL     1      -0.819  26.228  53.334  1.00  0.00    -0.028 C 
ATOM      8  C   UNL     1      -0.567  27.188  54.254  1.00  0.00    -0.070 CG0
ATOM      9  C   UNL     1      -0.137  26.742  55.631  1.00  0.00     0.039 C 
ATOM     10  G   UNL     1      -0.800  28.669  54.006  1.00  0.00     0.000 G0
ENDBRANCH   6   7
ENDBRANCH   5   6
ENDBRANCH   3   5
ENDBRANCH   1   3
BRANCH   1  11
ATOM     11  C   UNL     1      -4.227  29.273  52.534  1.00  0.00     0.087 C 
BRANCH  11  12
ATOM     12  C   UNL     1      -3.028  29.998  53.196  1.00  0.00     0.066 C 
BRANCH  12  13
ATOM     13  C   UNL     1      -2.238  29.154  54.199  1.00  0.00     0.140 C 
ATOM     14  O   UNL     1      -2.772  28.921  55.274  1.00  0.00    -0.299 OA
BRANCH  13  15
ATOM     15  C   UNL     1      -0.808  28.671  54.017  1.00  0.00     0.106 CG0
ATOM     16  G   UNL     1      -0.574  27.188  54.251  1.00  0.00     0.000 G0
ENDBRANCH  13  15
ENDBRANCH  12  13
BRANCH  12  17
ATOM     17  C   UNL     1      -2.125  30.718  52.144  1.00  0.00    -0.006 C 
ATOM     18  C   UNL     1      -2.932  31.154  50.911  1.00  0.00     0.008 C 
ATOM     19  C   UNL     1      -1.324  31.910  52.692  1.00  0.00     0.008 C 
ENDBRANCH  12  17
ENDBRANCH  11  12
ENDBRANCH   1  11
TORSDOF 1
ENDMDL
