MODEL 1
REMARK VINA RESULT:    -3.787      0.000      0.000
REMARK INTER + INTRA:          -6.202
REMARK INTER:                  -5.447
REMARK INTRA:                  -0.754
REMARK UNBOUND:                -0.754
REMARK SMILES O=C(CO)[C@H](O)[C@H](O)[C@H](O)CO
REMARK SMILES IDX 7 1 9 2 11 3 12 4 10 6 5 8 2 9 1 10 3 11 4 12 6 14 8 16
REMARK H PARENT 12 5 10 7 4 13 6 15 8 17
REMARK Flexibility Score: inf
ROOT
ATOM      1  C   UNL     1      -2.244 -51.430   5.065  1.00  0.00     0.181 C 
ENDROOT
BRANCH   1   2
ATOM      2  C   UNL     1      -1.222 -51.807   3.956  1.00  0.00     0.171 C 
BRANCH   2   3
ATOM      3  C   UNL     1      -1.850 -51.828   2.551  1.00  0.00     0.190 C 
BRANCH   3   4
ATOM      4  O   UNL     1      -1.176 -50.946   1.696  1.00  0.00    -0.394 OA
ATOM      5  H   UNL     1      -0.237 -50.917   2.015  1.00  0.00     0.210 HD
ENDBRANCH   3   4
ENDBRANCH   2   3
BRANCH   2   6
ATOM      6  O   UNL     1      -0.107 -50.949   3.971  1.00  0.00    -0.388 OA
ATOM      7  H   UNL     1       0.677 -51.480   4.272  1.00  0.00     0.211 HD
ENDBRANCH   2   6
ENDBRANCH   1   2
BRANCH   1   8
ATOM      8  C   UNL     1      -1.858 -52.054   6.432  1.00  0.00     0.214 C 
BRANCH   8   9
ATOM      9  C   UNL     1      -2.598 -51.404   7.585  1.00  0.00     0.189 C 
ATOM     10  O   UNL     1      -3.313 -50.437   7.364  1.00  0.00    -0.294 OA
BRANCH   9  11
ATOM     11  C   UNL     1      -2.492 -51.917   8.994  1.00  0.00     0.234 C 
BRANCH  11  12
ATOM     12  O   UNL     1      -1.165 -51.817   9.426  1.00  0.00    -0.388 OA
ATOM     13  H   UNL     1      -1.087 -50.936   9.876  1.00  0.00     0.211 HD
ENDBRANCH  11  12
ENDBRANCH   9  11
ENDBRANCH   8   9
BRANCH   8  14
ATOM     14  O   UNL     1      -0.471 -52.007   6.663  1.00  0.00    -0.382 OA
ATOM     15  H   UNL     1      -0.285 -52.467   7.522  1.00  0.00     0.211 HD
ENDBRANCH   8  14
ENDBRANCH   1   8
BRANCH   1  16
ATOM     16  O   UNL     1      -3.519 -51.904   4.702  1.00  0.00    -0.387 OA
ATOM     17  H   UNL     1      -3.581 -51.857   3.713  1.00  0.00     0.211 HD
ENDBRANCH   1  16
TORSDOF 10
ENDMDL
MODEL 2
REMARK VINA RESULT:    -3.569      1.600      5.560
REMARK INTER + INTRA:          -5.888
REMARK INTER:                  -4.930
REMARK INTRA:                  -0.958
REMARK UNBOUND:                -0.754
REMARK SMILES O=C(CO)[C@H](O)[C@H](O)[C@H](O)CO
REMARK SMILES IDX 7 1 9 2 11 3 12 4 10 6 5 8 2 9 1 10 3 11 4 12 6 14 8 16
REMARK H PARENT 12 5 10 7 4 13 6 15 8 17
REMARK Flexibility Score: inf
ROOT
ATOM      1  C   UNL     1      -1.780 -51.468   3.843  1.00  0.00     0.181 C 
ENDROOT
BRANCH   1   2
ATOM      2  C   UNL     1      -2.440 -51.995   5.148  1.00  0.00     0.171 C 
BRANCH   2   3
ATOM      3  C   UNL     1      -1.451 -52.077   6.324  1.00  0.00     0.190 C 
BRANCH   3   4
ATOM      4  O   UNL     1      -0.816 -50.843   6.523  1.00  0.00    -0.394 OA
ATOM      5  H   UNL     1      -1.188 -50.477   7.368  1.00  0.00     0.210 HD
ENDBRANCH   3   4
ENDBRANCH   2   3
BRANCH   2   6
ATOM      6  O   UNL     1      -3.554 -51.217   5.511  1.00  0.00    -0.388 OA
ATOM      7  H   UNL     1      -4.065 -51.725   6.195  1.00  0.00     0.211 HD
ENDBRANCH   2   6
ENDBRANCH   1   2
BRANCH   1   8
ATOM      8  C   UNL     1      -2.511 -51.995   2.580  1.00  0.00     0.214 C 
BRANCH   8   9
ATOM      9  C   UNL     1      -2.062 -51.280   1.321  1.00  0.00     0.189 C 
ATOM     10  O   UNL     1      -0.867 -51.101   1.132  1.00  0.00    -0.294 OA
BRANCH   9  11
ATOM     11  C   UNL     1      -3.038 -50.794   0.286  1.00  0.00     0.234 C 
BRANCH  11  12
ATOM     12  O   UNL     1      -3.815 -51.870  -0.158  1.00  0.00    -0.388 OA
ATOM     13  H   UNL     1      -4.569 -51.473  -0.668  1.00  0.00     0.211 HD
ENDBRANCH  11  12
ENDBRANCH   9  11
ENDBRANCH   8   9
BRANCH   8  14
ATOM     14  O   UNL     1      -3.910 -51.915   2.707  1.00  0.00    -0.382 OA
ATOM     15  H   UNL     1      -4.225 -52.731   3.173  1.00  0.00     0.211 HD
ENDBRANCH   8  14
ENDBRANCH   1   8
BRANCH   1  16
ATOM     16  O   UNL     1      -0.440 -51.897   3.795  1.00  0.00    -0.387 OA
ATOM     17  H   UNL     1      -0.433 -52.871   3.986  1.00  0.00     0.211 HD
ENDBRANCH   1  16
TORSDOF 10
ENDMDL
MODEL 3
REMARK VINA RESULT:    -3.523      1.505      2.636
REMARK INTER + INTRA:          -5.822
REMARK INTER:                  -4.894
REMARK INTRA:                  -0.928
REMARK UNBOUND:                -0.754
REMARK SMILES O=C(CO)[C@H](O)[C@H](O)[C@H](O)CO
REMARK SMILES IDX 7 1 9 2 11 3 12 4 10 6 5 8 2 9 1 10 3 11 4 12 6 14 8 16
REMARK H PARENT 12 5 10 7 4 13 6 15 8 17
REMARK Flexibility Score: inf
ROOT
ATOM      1  C   UNL     1      -2.594 -51.557   2.649  1.00  0.00     0.181 C 
ENDROOT
BRANCH   1   2
ATOM      2  C   UNL     1      -1.899 -51.912   1.305  1.00  0.00     0.171 C 
BRANCH   2   3
ATOM      3  C   UNL     1      -2.872 -51.903   0.112  1.00  0.00     0.190 C 
BRANCH   3   4
ATOM      4  O   UNL     1      -3.562 -50.685   0.047  1.00  0.00    -0.394 OA
ATOM      5  H   UNL     1      -4.251 -50.721   0.760  1.00  0.00     0.210 HD
ENDBRANCH   3   4
ENDBRANCH   2   3
BRANCH   2   6
ATOM      6  O   UNL     1      -0.813 -51.058   1.045  1.00  0.00    -0.388 OA
ATOM      7  H   UNL     1      -1.177 -50.214   0.669  1.00  0.00     0.211 HD
ENDBRANCH   2   6
ENDBRANCH   1   2
BRANCH   1   8
ATOM      8  C   UNL     1      -1.806 -52.114   3.864  1.00  0.00     0.214 C 
BRANCH   8   9
ATOM      9  C   UNL     1      -2.437 -51.717   5.184  1.00  0.00     0.189 C 
ATOM     10  O   UNL     1      -3.546 -51.204   5.183  1.00  0.00    -0.294 OA
BRANCH   9  11
ATOM     11  C   UNL     1      -1.747 -51.946   6.501  1.00  0.00     0.234 C 
BRANCH  11  12
ATOM     12  O   UNL     1      -0.784 -50.950   6.698  1.00  0.00    -0.388 OA
ATOM     13  H   UNL     1      -1.194 -50.103   6.382  1.00  0.00     0.211 HD
ENDBRANCH  11  12
ENDBRANCH   9  11
ENDBRANCH   8   9
BRANCH   8  14
ATOM     14  O   UNL     1      -0.453 -51.726   3.840  1.00  0.00    -0.382 OA
ATOM     15  H   UNL     1      -0.058 -52.036   2.985  1.00  0.00     0.211 HD
ENDBRANCH   8  14
ENDBRANCH   1   8
BRANCH   1  16
ATOM     16  O   UNL     1      -3.888 -52.112   2.664  1.00  0.00    -0.387 OA
ATOM     17  H   UNL     1      -4.228 -52.043   3.594  1.00  0.00     0.211 HD
ENDBRANCH   1  16
TORSDOF 10
ENDMDL
MODEL 4
REMARK VINA RESULT:    -3.165      1.845      2.670
REMARK INTER + INTRA:          -5.308
REMARK INTER:                  -4.785
REMARK INTRA:                  -0.523
REMARK UNBOUND:                -0.754
REMARK SMILES O=C(CO)[C@H](O)[C@H](O)[C@H](O)CO
REMARK SMILES IDX 7 1 9 2 11 3 12 4 10 6 5 8 2 9 1 10 3 11 4 12 6 14 8 16
REMARK H PARENT 12 5 10 7 4 13 6 15 8 17
REMARK Flexibility Score: inf
ROOT
ATOM      1  C   UNL     1      -2.932 -51.370   6.433  1.00  0.00     0.181 C 
ENDROOT
BRANCH   1   2
ATOM      2  C   UNL     1      -1.687 -52.069   5.821  1.00  0.00     0.171 C 
BRANCH   2   3
ATOM      3  C   UNL     1      -1.528 -51.792   4.315  1.00  0.00     0.190 C 
BRANCH   3   4
ATOM      4  O   UNL     1      -0.273 -51.229   4.046  1.00  0.00    -0.394 OA
ATOM      5  H   UNL     1      -0.338 -50.834   3.137  1.00  0.00     0.210 HD
ENDBRANCH   3   4
ENDBRANCH   2   3
BRANCH   2   6
ATOM      6  O   UNL     1      -0.509 -51.710   6.501  1.00  0.00    -0.388 OA
ATOM      7  H   UNL     1      -0.473 -50.719   6.538  1.00  0.00     0.211 HD
ENDBRANCH   2   6
ENDBRANCH   1   2
BRANCH   1   8
ATOM      8  C   UNL     1      -3.406 -52.080   7.728  1.00  0.00     0.214 C 
BRANCH   8   9
ATOM      9  C   UNL     1      -4.762 -51.581   8.189  1.00  0.00     0.189 C 
ATOM     10  O   UNL     1      -5.760 -51.908   7.563  1.00  0.00    -0.294 OA
BRANCH   9  11
ATOM     11  C   UNL     1      -4.923 -50.707   9.401  1.00  0.00     0.234 C 
BRANCH  11  12
ATOM     12  O   UNL     1      -6.263 -50.323   9.521  1.00  0.00    -0.388 OA
ATOM     13  H   UNL     1      -6.801 -51.095   9.201  1.00  0.00     0.211 HD
ENDBRANCH  11  12
ENDBRANCH   9  11
ENDBRANCH   8   9
BRANCH   8  14
ATOM     14  O   UNL     1      -2.469 -51.958   8.771  1.00  0.00    -0.382 OA
ATOM     15  H   UNL     1      -2.741 -52.571   9.502  1.00  0.00     0.211 HD
ENDBRANCH   8  14
ENDBRANCH   1   8
BRANCH   1  16
ATOM     16  O   UNL     1      -3.985 -51.396   5.499  1.00  0.00    -0.387 OA
ATOM     17  H   UNL     1      -3.832 -52.173   4.901  1.00  0.00     0.211 HD
ENDBRANCH   1  16
TORSDOF 10
ENDMDL
MODEL 5
REMARK VINA RESULT:    -2.918      1.343      2.705
REMARK INTER + INTRA:          -4.953
REMARK INTER:                  -4.613
REMARK INTRA:                  -0.340
REMARK UNBOUND:                -0.754
REMARK SMILES O=C(CO)[C@H](O)[C@H](O)[C@H](O)CO
REMARK SMILES IDX 7 1 9 2 11 3 12 4 10 6 5 8 2 9 1 10 3 11 4 12 6 14 8 16
REMARK H PARENT 12 5 10 7 4 13 6 15 8 17
REMARK Flexibility Score: inf
ROOT
ATOM      1  C   UNL     1      -1.352 -51.944   3.510  1.00  0.00     0.181 C 
ENDROOT
BRANCH   1   2
ATOM      2  C   UNL     1      -1.723 -51.943   2.001  1.00  0.00     0.171 C 
BRANCH   2   3
ATOM      3  C   UNL     1      -2.475 -50.670   1.573  1.00  0.00     0.190 C 
BRANCH   3   4
ATOM      4  O   UNL     1      -3.765 -50.985   1.124  1.00  0.00    -0.394 OA
ATOM      5  H   UNL     1      -4.016 -51.829   1.582  1.00  0.00     0.210 HD
ENDBRANCH   3   4
ENDBRANCH   2   3
BRANCH   2   6
ATOM      6  O   UNL     1      -0.587 -52.124   1.191  1.00  0.00    -0.388 OA
ATOM      7  H   UNL     1       0.165 -52.391   1.783  1.00  0.00     0.211 HD
ENDBRANCH   2   6
ENDBRANCH   1   2
BRANCH   1   8
ATOM      8  C   UNL     1      -2.545 -51.488   4.391  1.00  0.00     0.214 C 
BRANCH   8   9
ATOM      9  C   UNL     1      -2.285 -51.717   5.867  1.00  0.00     0.189 C 
ATOM     10  O   UNL     1      -1.132 -51.833   6.257  1.00  0.00    -0.294 OA
BRANCH   9  11
ATOM     11  C   UNL     1      -3.400 -51.794   6.873  1.00  0.00     0.234 C 
BRANCH  11  12
ATOM     12  O   UNL     1      -3.432 -50.611   7.620  1.00  0.00    -0.388 OA
ATOM     13  H   UNL     1      -3.989 -50.804   8.418  1.00  0.00     0.211 HD
ENDBRANCH  11  12
ENDBRANCH   9  11
ENDBRANCH   8   9
BRANCH   8  14
ATOM     14  O   UNL     1      -3.750 -52.109   4.012  1.00  0.00    -0.382 OA
ATOM     15  H   UNL     1      -3.769 -53.015   4.415  1.00  0.00     0.211 HD
ENDBRANCH   8  14
ENDBRANCH   1   8
BRANCH   1  16
ATOM     16  O   UNL     1      -0.276 -51.062   3.724  1.00  0.00    -0.387 OA
ATOM     17  H   UNL     1       0.561 -51.574   3.574  1.00  0.00     0.211 HD
ENDBRANCH   1  16
TORSDOF 10
ENDMDL
MODEL 6
REMARK VINA RESULT:    -2.868      2.795      4.880
REMARK INTER + INTRA:          -4.880
REMARK INTER:                  -4.125
REMARK INTRA:                  -0.754
REMARK UNBOUND:                -0.754
REMARK SMILES O=C(CO)[C@H](O)[C@H](O)[C@H](O)CO
REMARK SMILES IDX 7 1 9 2 11 3 12 4 10 6 5 8 2 9 1 10 3 11 4 12 6 14 8 16
REMARK H PARENT 12 5 10 7 4 13 6 15 8 17
REMARK Flexibility Score: inf
ROOT
ATOM      1  C   UNL     1      -3.722 -51.397   4.878  1.00  0.00     0.181 C 
ENDROOT
BRANCH   1   2
ATOM      2  C   UNL     1      -2.901 -51.532   6.190  1.00  0.00     0.171 C 
BRANCH   2   3
ATOM      3  C   UNL     1      -1.385 -51.397   5.960  1.00  0.00     0.190 C 
BRANCH   3   4
ATOM      4  O   UNL     1      -0.672 -52.124   6.924  1.00  0.00    -0.394 OA
ATOM      5  H   UNL     1      -1.227 -52.921   7.133  1.00  0.00     0.210 HD
ENDBRANCH   3   4
ENDBRANCH   2   3
BRANCH   2   6
ATOM      6  O   UNL     1      -3.323 -50.604   7.159  1.00  0.00    -0.388 OA
ATOM      7  H   UNL     1      -4.187 -50.221   6.854  1.00  0.00     0.211 HD
ENDBRANCH   2   6
ENDBRANCH   1   2
BRANCH   1   8
ATOM      8  C   UNL     1      -5.088 -52.125   4.982  1.00  0.00     0.214 C 
BRANCH   8   9
ATOM      9  C   UNL     1      -5.999 -51.798   3.815  1.00  0.00     0.189 C 
ATOM     10  O   UNL     1      -5.527 -51.743   2.689  1.00  0.00    -0.294 OA
BRANCH   9  11
ATOM     11  C   UNL     1      -7.472 -51.551   3.995  1.00  0.00     0.234 C 
BRANCH  11  12
ATOM     12  O   UNL     1      -7.663 -50.293   4.576  1.00  0.00    -0.388 OA
ATOM     13  H   UNL     1      -6.756 -49.937   4.768  1.00  0.00     0.211 HD
ENDBRANCH  11  12
ENDBRANCH   9  11
ENDBRANCH   8   9
BRANCH   8  14
ATOM     14  O   UNL     1      -5.743 -51.849   6.197  1.00  0.00    -0.382 OA
ATOM     15  H   UNL     1      -5.919 -52.711   6.655  1.00  0.00     0.211 HD
ENDBRANCH   8  14
ENDBRANCH   1   8
BRANCH   1  16
ATOM     16  O   UNL     1      -2.994 -51.964   3.814  1.00  0.00    -0.387 OA
ATOM     17  H   UNL     1      -2.301 -52.553   4.211  1.00  0.00     0.211 HD
ENDBRANCH   1  16
TORSDOF 10
ENDMDL
MODEL 7
REMARK VINA RESULT:    -2.644      1.871      5.138
REMARK INTER + INTRA:          -4.558
REMARK INTER:                  -4.647
REMARK INTRA:                   0.089
REMARK UNBOUND:                -0.754
REMARK SMILES O=C(CO)[C@H](O)[C@H](O)[C@H](O)CO
REMARK SMILES IDX 7 1 9 2 11 3 12 4 10 6 5 8 2 9 1 10 3 11 4 12 6 14 8 16
REMARK H PARENT 12 5 10 7 4 13 6 15 8 17
REMARK Flexibility Score: inf
ROOT
ATOM      1  C   UNL     1      -2.984 -52.076   3.773  1.00  0.00     0.181 C 
ENDROOT
BRANCH   1   2
ATOM      2  C   UNL     1      -2.776 -52.005   5.312  1.00  0.00     0.171 C 
BRANCH   2   3
ATOM      3  C   UNL     1      -1.296 -52.125   5.719  1.00  0.00     0.190 C 
BRANCH   3   4
ATOM      4  O   UNL     1      -0.876 -50.974   6.399  1.00  0.00    -0.394 OA
ATOM      5  H   UNL     1       0.101 -50.901   6.239  1.00  0.00     0.210 HD
ENDBRANCH   3   4
ENDBRANCH   2   3
BRANCH   2   6
ATOM      6  O   UNL     1      -3.328 -50.831   5.853  1.00  0.00    -0.388 OA
ATOM      7  H   UNL     1      -3.966 -50.463   5.186  1.00  0.00     0.211 HD
ENDBRANCH   2   6
ENDBRANCH   1   2
BRANCH   1   8
ATOM      8  C   UNL     1      -1.956 -51.192   3.018  1.00  0.00     0.214 C 
BRANCH   8   9
ATOM      9  C   UNL     1      -2.270 -51.091   1.538  1.00  0.00     0.189 C 
ATOM     10  O   UNL     1      -3.071 -50.251   1.155  1.00  0.00    -0.294 OA
BRANCH   9  11
ATOM     11  C   UNL     1      -1.617 -51.984   0.519  1.00  0.00     0.234 C 
BRANCH  11  12
ATOM     12  O   UNL     1      -0.447 -51.374   0.052  1.00  0.00    -0.388 OA
ATOM     13  H   UNL     1       0.025 -52.061  -0.488  1.00  0.00     0.211 HD
ENDBRANCH  11  12
ENDBRANCH   9  11
ENDBRANCH   8   9
BRANCH   8  14
ATOM     14  O   UNL     1      -0.636 -51.643   3.200  1.00  0.00    -0.382 OA
ATOM     15  H   UNL     1      -0.173 -51.006   3.804  1.00  0.00     0.211 HD
ENDBRANCH   8  14
ENDBRANCH   1   8
BRANCH   1  16
ATOM     16  O   UNL     1      -4.279 -51.623   3.458  1.00  0.00    -0.387 OA
ATOM     17  H   UNL     1      -4.797 -51.595   4.305  1.00  0.00     0.211 HD
ENDBRANCH   1  16
TORSDOF 10
ENDMDL
MODEL 8
REMARK VINA RESULT:    -2.551      2.543      3.265
REMARK INTER + INTRA:          -4.424
REMARK INTER:                  -3.735
REMARK INTRA:                  -0.689
REMARK UNBOUND:                -0.754
REMARK SMILES O=C(CO)[C@H](O)[C@H](O)[C@H](O)CO
REMARK SMILES IDX 7 1 9 2 11 3 12 4 10 6 5 8 2 9 1 10 3 11 4 12 6 14 8 16
REMARK H PARENT 12 5 10 7 4 13 6 15 8 17
REMARK Flexibility Score: inf
ROOT
ATOM      1  C   UNL     1      -4.533 -51.606   4.116  1.00  0.00     0.181 C 
ENDROOT
BRANCH   1   2
ATOM      2  C   UNL     1      -4.760 -52.114   2.665  1.00  0.00     0.171 C 
BRANCH   2   3
ATOM      3  C   UNL     1      -6.246 -52.122   2.263  1.00  0.00     0.190 C 
BRANCH   3   4
ATOM      4  O   UNL     1      -6.425 -51.494   1.023  1.00  0.00    -0.394 OA
ATOM      5  H   UNL     1      -5.577 -51.016   0.832  1.00  0.00     0.210 HD
ENDBRANCH   3   4
ENDBRANCH   2   3
BRANCH   2   6
ATOM      6  O   UNL     1      -4.016 -51.364   1.736  1.00  0.00    -0.388 OA
ATOM      7  H   UNL     1      -3.061 -51.417   2.002  1.00  0.00     0.211 HD
ENDBRANCH   2   6
ENDBRANCH   1   2
BRANCH   1   8
ATOM      8  C   UNL     1      -3.190 -52.123   4.698  1.00  0.00     0.214 C 
BRANCH   8   9
ATOM      9  C   UNL     1      -2.936 -51.599   6.098  1.00  0.00     0.189 C 
ATOM     10  O   UNL     1      -3.834 -51.015   6.687  1.00  0.00    -0.294 OA
BRANCH   9  11
ATOM     11  C   UNL     1      -1.616 -51.785   6.793  1.00  0.00     0.234 C 
BRANCH  11  12
ATOM     12  O   UNL     1      -0.727 -50.788   6.375  1.00  0.00    -0.388 OA
ATOM     13  H   UNL     1      -0.172 -51.195   5.660  1.00  0.00     0.211 HD
ENDBRANCH  11  12
ENDBRANCH   9  11
ENDBRANCH   8   9
BRANCH   8  14
ATOM     14  O   UNL     1      -2.100 -51.817   3.863  1.00  0.00    -0.382 OA
ATOM     15  H   UNL     1      -1.889 -52.622   3.324  1.00  0.00     0.211 HD
ENDBRANCH   8  14
ENDBRANCH   1   8
BRANCH   1  16
ATOM     16  O   UNL     1      -5.581 -52.064   4.937  1.00  0.00    -0.387 OA
ATOM     17  H   UNL     1      -6.426 -51.691   4.575  1.00  0.00     0.211 HD
ENDBRANCH   1  16
TORSDOF 10
ENDMDL
MODEL 9
REMARK VINA RESULT:    -2.231      2.827      4.628
REMARK INTER + INTRA:          -3.964
REMARK INTER:                  -3.519
REMARK INTRA:                  -0.445
REMARK UNBOUND:                -0.754
REMARK SMILES O=C(CO)[C@H](O)[C@H](O)[C@H](O)CO
REMARK SMILES IDX 7 1 9 2 11 3 12 4 10 6 5 8 2 9 1 10 3 11 4 12 6 14 8 16
REMARK H PARENT 12 5 10 7 4 13 6 15 8 17
REMARK Flexibility Score: inf
ROOT
ATOM      1  C   UNL     1      -4.310 -51.460   1.937  1.00  0.00     0.181 C 
ENDROOT
BRANCH   1   2
ATOM      2  C   UNL     1      -4.724 -52.124   0.594  1.00  0.00     0.171 C 
BRANCH   2   3
ATOM      3  C   UNL     1      -5.996 -51.502  -0.010  1.00  0.00     0.190 C 
BRANCH   3   4
ATOM      4  O   UNL     1      -7.142 -52.114   0.516  1.00  0.00    -0.394 OA
ATOM      5  H   UNL     1      -7.916 -51.644   0.109  1.00  0.00     0.210 HD
ENDBRANCH   3   4
ENDBRANCH   2   3
BRANCH   2   6
ATOM      6  O   UNL     1      -3.677 -52.082  -0.345  1.00  0.00    -0.388 OA
ATOM      7  H   UNL     1      -3.343 -51.147  -0.382  1.00  0.00     0.211 HD
ENDBRANCH   2   6
ENDBRANCH   1   2
BRANCH   1   8
ATOM      8  C   UNL     1      -2.921 -51.960   2.416  1.00  0.00     0.214 C 
BRANCH   8   9
ATOM      9  C   UNL     1      -2.696 -51.690   3.891  1.00  0.00     0.189 C 
ATOM     10  O   UNL     1      -3.600 -51.198   4.551  1.00  0.00    -0.294 OA
BRANCH   9  11
ATOM     11  C   UNL     1      -1.398 -52.021   4.576  1.00  0.00     0.234 C 
BRANCH  11  12
ATOM     12  O   UNL     1      -0.362 -51.294   3.979  1.00  0.00    -0.388 OA
ATOM     13  H   UNL     1      -0.377 -51.533   3.015  1.00  0.00     0.211 HD
ENDBRANCH  11  12
ENDBRANCH   9  11
ENDBRANCH   8   9
BRANCH   8  14
ATOM     14  O   UNL     1      -1.870 -51.408   1.660  1.00  0.00    -0.382 OA
ATOM     15  H   UNL     1      -1.922 -51.783   0.743  1.00  0.00     0.211 HD
ENDBRANCH   8  14
ENDBRANCH   1   8
BRANCH   1  16
ATOM     16  O   UNL     1      -5.263 -51.775   2.924  1.00  0.00    -0.387 OA
ATOM     17  H   UNL     1      -6.087 -52.069   2.456  1.00  0.00     0.211 HD
ENDBRANCH   1  16
TORSDOF 10
ENDMDL
