MODEL 1
REMARK VINA RESULT:    -5.221      0.000      0.000
REMARK INTER + INTRA:         -10.400
REMARK INTER:                  -9.493
REMARK INTRA:                  -0.907
REMARK UNBOUND:                -0.907
REMARK SMILES CCCCCCCCCCCCCCCC(=O)[O-]
REMARK SMILES IDX 9 1 10 2 11 3 12 4 13 5 14 6 15 7 16 8 17 9 18 10 8 11 7 12
REMARK SMILES IDX 6 13 5 14 4 15 3 16 2 17 1 18
REMARK H PARENT
REMARK Flexibility Score: inf
ROOT
ATOM      1  C   UNL     1       5.793  54.946  20.064  1.00  0.00     0.000 C 
ENDROOT
BRANCH   1   2
ATOM      2  C   UNL     1       5.437  55.876  21.233  1.00  0.00     0.000 C 
BRANCH   2   3
ATOM      3  C   UNL     1       5.267  57.342  20.801  1.00  0.00     0.000 C 
BRANCH   3   4
ATOM      4  C   UNL     1       3.811  57.850  20.760  1.00  0.00     0.000 C 
BRANCH   4   5
ATOM      5  C   UNL     1       3.585  59.117  19.915  1.00  0.00     0.000 C 
BRANCH   5   6
ATOM      6  C   UNL     1       2.417  59.973  20.425  1.00  0.00     0.006 C 
BRANCH   6   7
ATOM      7  C   UNL     1       2.313  59.902  21.952  1.00  0.00     0.053 C 
BRANCH   7   8
ATOM      8  C   UNL     1       0.923  59.530  22.365  1.00  0.00     0.041 C 
ATOM      9  O   UNL     1       0.428  58.430  22.003  1.00  0.00    -0.550 OA
ATOM     10  O   UNL     1       0.193  60.376  23.189  1.00  0.00    -0.550 OA
ENDBRANCH   7   8
ENDBRANCH   6   7
ENDBRANCH   5   6
ENDBRANCH   4   5
ENDBRANCH   3   4
ENDBRANCH   2   3
ENDBRANCH   1   2
BRANCH   1  11
ATOM     11  C   UNL     1       7.146  55.333  19.448  1.00  0.00     0.000 C 
BRANCH  11  12
ATOM     12  C   UNL     1       8.291  55.304  20.473  1.00  0.00    -0.000 C 
BRANCH  12  13
ATOM     13  C   UNL     1       8.569  53.888  21.011  1.00  0.00    -0.000 C 
BRANCH  13  14
ATOM     14  C   UNL     1      10.048  53.668  21.366  1.00  0.00    -0.000 C 
BRANCH  14  15
ATOM     15  C   UNL     1      10.246  53.256  22.836  1.00  0.00    -0.000 C 
BRANCH  15  16
ATOM     16  C   UNL     1      10.139  54.447  23.801  1.00  0.00    -0.000 C 
BRANCH  16  17
ATOM     17  C   UNL     1       9.151  54.194  24.948  1.00  0.00    -0.003 C 
ATOM     18  C   UNL     1       8.017  53.275  24.504  1.00  0.00     0.004 C 
ENDBRANCH  16  17
ENDBRANCH  15  16
ENDBRANCH  14  15
ENDBRANCH  13  14
ENDBRANCH  12  13
ENDBRANCH  11  12
ENDBRANCH   1  11
TORSDOF 14
ENDMDL
MODEL 2
REMARK VINA RESULT:    -5.066      2.861      3.638
REMARK INTER + INTRA:         -10.120
REMARK INTER:                  -9.537
REMARK INTRA:                  -0.583
REMARK UNBOUND:                -0.907
REMARK SMILES CCCCCCCCCCCCCCCC(=O)[O-]
REMARK SMILES IDX 9 1 10 2 11 3 12 4 13 5 14 6 15 7 16 8 17 9 18 10 8 11 7 12
REMARK SMILES IDX 6 13 5 14 4 15 3 16 2 17 1 18
REMARK H PARENT
REMARK Flexibility Score: inf
ROOT
ATOM      1  C   UNL     1       5.019  56.683  21.242  1.00  0.00     0.000 C 
ENDROOT
BRANCH   1   2
ATOM      2  C   UNL     1       4.423  57.872  20.474  1.00  0.00     0.000 C 
BRANCH   2   3
ATOM      3  C   UNL     1       3.182  58.467  21.162  1.00  0.00     0.000 C 
BRANCH   3   4
ATOM      4  C   UNL     1       2.679  59.799  20.570  1.00  0.00     0.000 C 
BRANCH   4   5
ATOM      5  C   UNL     1       1.573  59.664  19.507  1.00  0.00     0.000 C 
BRANCH   5   6
ATOM      6  C   UNL     1       2.129  59.533  18.082  1.00  0.00     0.006 C 
BRANCH   6   7
ATOM      7  C   UNL     1       1.143  60.098  17.055  1.00  0.00     0.053 C 
BRANCH   7   8
ATOM      8  C   UNL     1       1.215  59.322  15.778  1.00  0.00     0.041 C 
ATOM      9  O   UNL     1       2.135  59.549  14.950  1.00  0.00    -0.550 OA
ATOM     10  O   UNL     1       0.293  58.314  15.524  1.00  0.00    -0.550 OA
ENDBRANCH   7   8
ENDBRANCH   6   7
ENDBRANCH   5   6
ENDBRANCH   4   5
ENDBRANCH   3   4
ENDBRANCH   2   3
ENDBRANCH   1   2
BRANCH   1  11
ATOM     11  C   UNL     1       6.537  56.596  21.025  1.00  0.00     0.000 C 
BRANCH  11  12
ATOM     12  C   UNL     1       6.910  55.760  19.789  1.00  0.00    -0.000 C 
BRANCH  12  13
ATOM     13  C   UNL     1       7.480  54.378  20.158  1.00  0.00    -0.000 C 
BRANCH  13  14
ATOM     14  C   UNL     1       8.824  54.469  20.899  1.00  0.00    -0.000 C 
BRANCH  14  15
ATOM     15  C   UNL     1       8.770  53.833  22.299  1.00  0.00    -0.000 C 
BRANCH  15  16
ATOM     16  C   UNL     1      10.167  53.537  22.866  1.00  0.00    -0.000 C 
BRANCH  16  17
ATOM     17  C   UNL     1      10.415  54.219  24.219  1.00  0.00    -0.003 C 
ATOM     18  C   UNL     1       9.136  54.273  25.049  1.00  0.00     0.004 C 
ENDBRANCH  16  17
ENDBRANCH  15  16
ENDBRANCH  14  15
ENDBRANCH  13  14
ENDBRANCH  12  13
ENDBRANCH  11  12
ENDBRANCH   1  11
TORSDOF 14
ENDMDL
MODEL 3
REMARK VINA RESULT:    -5.051      6.852     10.543
REMARK INTER + INTRA:         -10.091
REMARK INTER:                  -9.149
REMARK INTRA:                  -0.942
REMARK UNBOUND:                -0.907
REMARK SMILES CCCCCCCCCCCCCCCC(=O)[O-]
REMARK SMILES IDX 9 1 10 2 11 3 12 4 13 5 14 6 15 7 16 8 17 9 18 10 8 11 7 12
REMARK SMILES IDX 6 13 5 14 4 15 3 16 2 17 1 18
REMARK H PARENT
REMARK Flexibility Score: inf
ROOT
ATOM      1  C   UNL     1      10.207  53.608  23.273  1.00  0.00     0.000 C 
ENDROOT
BRANCH   1   2
ATOM      2  C   UNL     1      10.320  52.724  22.022  1.00  0.00     0.000 C 
BRANCH   2   3
ATOM      3  C   UNL     1       9.780  51.300  22.245  1.00  0.00     0.000 C 
BRANCH   3   4
ATOM      4  C   UNL     1      10.840  50.251  22.637  1.00  0.00     0.000 C 
BRANCH   4   5
ATOM      5  C   UNL     1      10.405  48.785  22.456  1.00  0.00     0.000 C 
BRANCH   5   6
ATOM      6  C   UNL     1      10.776  47.901  23.656  1.00  0.00     0.006 C 
BRANCH   6   7
ATOM      7  C   UNL     1      12.296  47.808  23.818  1.00  0.00     0.053 C 
BRANCH   7   8
ATOM      8  C   UNL     1      12.659  47.641  25.260  1.00  0.00     0.041 C 
ATOM      9  O   UNL     1      13.681  48.211  25.726  1.00  0.00    -0.550 OA
ATOM     10  O   UNL     1      11.844  46.895  26.101  1.00  0.00    -0.550 OA
ENDBRANCH   7   8
ENDBRANCH   6   7
ENDBRANCH   5   6
ENDBRANCH   4   5
ENDBRANCH   3   4
ENDBRANCH   2   3
ENDBRANCH   1   2
BRANCH   1  11
ATOM     11  C   UNL     1       9.145  54.700  23.079  1.00  0.00     0.000 C 
BRANCH  11  12
ATOM     12  C   UNL     1       7.716  54.133  23.045  1.00  0.00    -0.000 C 
BRANCH  12  13
ATOM     13  C   UNL     1       6.980  54.462  21.733  1.00  0.00    -0.000 C 
BRANCH  13  14
ATOM     14  C   UNL     1       7.697  55.540  20.904  1.00  0.00    -0.000 C 
BRANCH  14  15
ATOM     15  C   UNL     1       7.430  55.399  19.395  1.00  0.00    -0.000 C 
BRANCH  15  16
ATOM     16  C   UNL     1       6.977  53.982  19.008  1.00  0.00    -0.000 C 
BRANCH  16  17
ATOM     17  C   UNL     1       6.417  53.908  17.580  1.00  0.00    -0.003 C 
ATOM     18  C   UNL     1       6.838  55.125  16.761  1.00  0.00     0.004 C 
ENDBRANCH  16  17
ENDBRANCH  15  16
ENDBRANCH  14  15
ENDBRANCH  13  14
ENDBRANCH  12  13
ENDBRANCH  11  12
ENDBRANCH   1  11
TORSDOF 14
ENDMDL
MODEL 4
REMARK VINA RESULT:    -5.029      3.490      8.349
REMARK INTER + INTRA:         -10.052
REMARK INTER:                  -9.092
REMARK INTRA:                  -0.960
REMARK UNBOUND:                -0.907
REMARK SMILES CCCCCCCCCCCCCCCC(=O)[O-]
REMARK SMILES IDX 9 1 10 2 11 3 12 4 13 5 14 6 15 7 16 8 17 9 18 10 8 11 7 12
REMARK SMILES IDX 6 13 5 14 4 15 3 16 2 17 1 18
REMARK H PARENT
REMARK Flexibility Score: inf
ROOT
ATOM      1  C   UNL     1       6.372  57.003  20.101  1.00  0.00     0.000 C 
ENDROOT
BRANCH   1   2
ATOM      2  C   UNL     1       7.465  55.941  19.908  1.00  0.00     0.000 C 
BRANCH   2   3
ATOM      3  C   UNL     1       7.910  55.293  21.231  1.00  0.00     0.000 C 
BRANCH   3   4
ATOM      4  C   UNL     1       8.450  53.853  21.106  1.00  0.00     0.000 C 
BRANCH   4   5
ATOM      5  C   UNL     1       9.954  53.694  21.391  1.00  0.00     0.000 C 
BRANCH   5   6
ATOM      6  C   UNL     1      10.239  53.113  22.784  1.00  0.00     0.006 C 
BRANCH   6   7
ATOM      7  C   UNL     1      10.304  54.223  23.837  1.00  0.00     0.053 C 
BRANCH   7   8
ATOM      8  C   UNL     1       9.294  53.982  24.915  1.00  0.00     0.041 C 
ATOM      9  O   UNL     1       9.583  54.220  26.117  1.00  0.00    -0.550 OA
ATOM     10  O   UNL     1       8.018  53.542  24.587  1.00  0.00    -0.550 OA
ENDBRANCH   7   8
ENDBRANCH   6   7
ENDBRANCH   5   6
ENDBRANCH   4   5
ENDBRANCH   3   4
ENDBRANCH   2   3
ENDBRANCH   1   2
BRANCH   1  11
ATOM     11  C   UNL     1       5.371  56.569  21.182  1.00  0.00     0.000 C 
BRANCH  11  12
ATOM     12  C   UNL     1       4.264  57.610  21.413  1.00  0.00    -0.000 C 
BRANCH  12  13
ATOM     13  C   UNL     1       3.886  58.369  20.127  1.00  0.00    -0.000 C 
BRANCH  13  14
ATOM     14  C   UNL     1       2.586  59.174  20.274  1.00  0.00    -0.000 C 
BRANCH  14  15
ATOM     15  C   UNL     1       2.521  59.953  21.600  1.00  0.00    -0.000 C 
BRANCH  15  16
ATOM     16  C   UNL     1       1.191  59.745  22.342  1.00  0.00    -0.000 C 
BRANCH  16  17
ATOM     17  C   UNL     1       0.435  58.497  21.864  1.00  0.00    -0.003 C 
ATOM     18  C   UNL     1      -0.363  57.869  23.002  1.00  0.00     0.004 C 
ENDBRANCH  16  17
ENDBRANCH  15  16
ENDBRANCH  14  15
ENDBRANCH  13  14
ENDBRANCH  12  13
ENDBRANCH  11  12
ENDBRANCH   1  11
TORSDOF 14
ENDMDL
MODEL 5
REMARK VINA RESULT:    -5.025      3.588      5.417
REMARK INTER + INTRA:         -10.044
REMARK INTER:                  -9.197
REMARK INTRA:                  -0.847
REMARK UNBOUND:                -0.907
REMARK SMILES CCCCCCCCCCCCCCCC(=O)[O-]
REMARK SMILES IDX 9 1 10 2 11 3 12 4 13 5 14 6 15 7 16 8 17 9 18 10 8 11 7 12
REMARK SMILES IDX 6 13 5 14 4 15 3 16 2 17 1 18
REMARK H PARENT
REMARK Flexibility Score: inf
ROOT
ATOM      1  C   UNL     1       3.651  58.319  20.499  1.00  0.00     0.000 C 
ENDROOT
BRANCH   1   2
ATOM      2  C   UNL     1       2.792  59.071  21.527  1.00  0.00     0.000 C 
BRANCH   2   3
ATOM      3  C   UNL     1       2.446  60.503  21.084  1.00  0.00     0.000 C 
BRANCH   3   4
ATOM      4  C   UNL     1       2.221  60.684  19.569  1.00  0.00     0.000 C 
BRANCH   4   5
ATOM      5  C   UNL     1       0.797  60.367  19.077  1.00  0.00     0.000 C 
BRANCH   5   6
ATOM      6  C   UNL     1       0.643  60.524  17.558  1.00  0.00     0.006 C 
BRANCH   6   7
ATOM      7  C   UNL     1       1.628  59.620  16.811  1.00  0.00     0.053 C 
BRANCH   7   8
ATOM      8  C   UNL     1       1.789  60.077  15.395  1.00  0.00     0.041 C 
ATOM      9  O   UNL     1       1.083  61.020  14.951  1.00  0.00    -0.550 OA
ATOM     10  O   UNL     1       2.751  59.494  14.581  1.00  0.00    -0.550 OA
ENDBRANCH   7   8
ENDBRANCH   6   7
ENDBRANCH   5   6
ENDBRANCH   4   5
ENDBRANCH   3   4
ENDBRANCH   2   3
ENDBRANCH   1   2
BRANCH   1  11
ATOM     11  C   UNL     1       4.591  57.322  21.194  1.00  0.00     0.000 C 
BRANCH  11  12
ATOM     12  C   UNL     1       5.861  57.040  20.375  1.00  0.00    -0.000 C 
BRANCH  12  13
ATOM     13  C   UNL     1       6.876  56.169  21.138  1.00  0.00    -0.000 C 
BRANCH  13  14
ATOM     14  C   UNL     1       7.955  55.574  20.220  1.00  0.00    -0.000 C 
BRANCH  14  15
ATOM     15  C   UNL     1       7.673  54.107  19.852  1.00  0.00    -0.000 C 
BRANCH  15  16
ATOM     16  C   UNL     1       6.762  53.973  18.621  1.00  0.00    -0.000 C 
BRANCH  16  17
ATOM     17  C   UNL     1       7.204  54.870  17.456  1.00  0.00    -0.003 C 
ATOM     18  C   UNL     1       6.297  54.683  16.244  1.00  0.00     0.004 C 
ENDBRANCH  16  17
ENDBRANCH  15  16
ENDBRANCH  14  15
ENDBRANCH  13  14
ENDBRANCH  12  13
ENDBRANCH  11  12
ENDBRANCH   1  11
TORSDOF 14
ENDMDL
MODEL 6
REMARK VINA RESULT:    -4.993      4.627      9.647
REMARK INTER + INTRA:          -9.987
REMARK INTER:                  -9.389
REMARK INTRA:                  -0.597
REMARK UNBOUND:                -0.907
REMARK SMILES CCCCCCCCCCCCCCCC(=O)[O-]
REMARK SMILES IDX 9 1 10 2 11 3 12 4 13 5 14 6 15 7 16 8 17 9 18 10 8 11 7 12
REMARK SMILES IDX 6 13 5 14 4 15 3 16 2 17 1 18
REMARK H PARENT
REMARK Flexibility Score: inf
ROOT
ATOM      1  C   UNL     1       4.640  57.730  20.400  1.00  0.00     0.000 C 
ENDROOT
BRANCH   1   2
ATOM      2  C   UNL     1       5.302  56.644  21.261  1.00  0.00     0.000 C 
BRANCH   2   3
ATOM      3  C   UNL     1       6.804  56.483  20.970  1.00  0.00     0.000 C 
BRANCH   3   4
ATOM      4  C   UNL     1       7.144  55.842  19.609  1.00  0.00     0.000 C 
BRANCH   4   5
ATOM      5  C   UNL     1       7.926  54.518  19.689  1.00  0.00     0.000 C 
BRANCH   5   6
ATOM      6  C   UNL     1       8.310  54.138  21.126  1.00  0.00     0.006 C 
BRANCH   6   7
ATOM      7  C   UNL     1       9.804  53.817  21.227  1.00  0.00     0.053 C 
BRANCH   7   8
ATOM      8  C   UNL     1      10.076  52.961  22.424  1.00  0.00     0.041 C 
ATOM      9  O   UNL     1      10.209  53.486  23.560  1.00  0.00    -0.550 OA
ATOM     10  O   UNL     1      10.134  51.580  22.293  1.00  0.00    -0.550 OA
ENDBRANCH   7   8
ENDBRANCH   6   7
ENDBRANCH   5   6
ENDBRANCH   4   5
ENDBRANCH   3   4
ENDBRANCH   2   3
ENDBRANCH   1   2
BRANCH   1  11
ATOM     11  C   UNL     1       3.360  58.255  21.068  1.00  0.00     0.000 C 
BRANCH  11  12
ATOM     12  C   UNL     1       2.260  58.594  20.050  1.00  0.00    -0.000 C 
BRANCH  12  13
ATOM     13  C   UNL     1       2.716  59.633  19.008  1.00  0.00    -0.000 C 
BRANCH  13  14
ATOM     14  C   UNL     1       1.607  59.995  18.008  1.00  0.00    -0.000 C 
BRANCH  14  15
ATOM     15  C   UNL     1       1.893  59.463  16.592  1.00  0.00    -0.000 C 
BRANCH  15  16
ATOM     16  C   UNL     1       0.608  59.154  15.808  1.00  0.00    -0.000 C 
BRANCH  16  17
ATOM     17  C   UNL     1      -0.286  60.388  15.625  1.00  0.00    -0.003 C 
ATOM     18  C   UNL     1      -1.695  60.130  16.151  1.00  0.00     0.004 C 
ENDBRANCH  16  17
ENDBRANCH  15  16
ENDBRANCH  14  15
ENDBRANCH  13  14
ENDBRANCH  12  13
ENDBRANCH  11  12
ENDBRANCH   1  11
TORSDOF 14
ENDMDL
MODEL 7
REMARK VINA RESULT:    -4.988      3.281      4.418
REMARK INTER + INTRA:          -9.977
REMARK INTER:                  -9.316
REMARK INTRA:                  -0.661
REMARK UNBOUND:                -0.907
REMARK SMILES CCCCCCCCCCCCCCCC(=O)[O-]
REMARK SMILES IDX 9 1 10 2 11 3 12 4 13 5 14 6 15 7 16 8 17 9 18 10 8 11 7 12
REMARK SMILES IDX 6 13 5 14 4 15 3 16 2 17 1 18
REMARK H PARENT
REMARK Flexibility Score: inf
ROOT
ATOM      1  C   UNL     1       4.004  58.033  20.516  1.00  0.00     0.000 C 
ENDROOT
BRANCH   1   2
ATOM      2  C   UNL     1       3.255  58.827  21.597  1.00  0.00     0.000 C 
BRANCH   2   3
ATOM      3  C   UNL     1       1.949  59.455  21.081  1.00  0.00     0.000 C 
BRANCH   3   4
ATOM      4  C   UNL     1       2.125  60.546  20.006  1.00  0.00     0.000 C 
BRANCH   4   5
ATOM      5  C   UNL     1       1.267  60.361  18.741  1.00  0.00     0.000 C 
BRANCH   5   6
ATOM      6  C   UNL     1       1.987  59.564  17.644  1.00  0.00     0.006 C 
BRANCH   6   7
ATOM      7  C   UNL     1       1.099  59.412  16.406  1.00  0.00     0.053 C 
BRANCH   7   8
ATOM      8  C   UNL     1       1.740  60.058  15.218  1.00  0.00     0.041 C 
ATOM      9  O   UNL     1       2.655  59.463  14.591  1.00  0.00    -0.550 OA
ATOM     10  O   UNL     1       1.293  61.296  14.775  1.00  0.00    -0.550 OA
ENDBRANCH   7   8
ENDBRANCH   6   7
ENDBRANCH   5   6
ENDBRANCH   4   5
ENDBRANCH   3   4
ENDBRANCH   2   3
ENDBRANCH   1   2
BRANCH   1  11
ATOM     11  C   UNL     1       4.964  57.015  21.148  1.00  0.00     0.000 C 
BRANCH  11  12
ATOM     12  C   UNL     1       6.141  56.662  20.225  1.00  0.00    -0.000 C 
BRANCH  12  13
ATOM     13  C   UNL     1       7.422  56.311  21.005  1.00  0.00    -0.000 C 
BRANCH  13  14
ATOM     14  C   UNL     1       7.748  54.810  20.965  1.00  0.00    -0.000 C 
BRANCH  14  15
ATOM     15  C   UNL     1       8.101  54.246  22.353  1.00  0.00    -0.000 C 
BRANCH  15  16
ATOM     16  C   UNL     1       9.614  54.253  22.624  1.00  0.00    -0.000 C 
BRANCH  16  17
ATOM     17  C   UNL     1      10.388  53.313  21.689  1.00  0.00    -0.003 C 
ATOM     18  C   UNL     1      10.135  51.852  22.047  1.00  0.00     0.004 C 
ENDBRANCH  16  17
ENDBRANCH  15  16
ENDBRANCH  14  15
ENDBRANCH  13  14
ENDBRANCH  12  13
ENDBRANCH  11  12
ENDBRANCH   1  11
TORSDOF 14
ENDMDL
MODEL 8
REMARK VINA RESULT:    -4.986      6.940     10.978
REMARK INTER + INTRA:          -9.973
REMARK INTER:                  -9.268
REMARK INTRA:                  -0.705
REMARK UNBOUND:                -0.907
REMARK SMILES CCCCCCCCCCCCCCCC(=O)[O-]
REMARK SMILES IDX 9 1 10 2 11 3 12 4 13 5 14 6 15 7 16 8 17 9 18 10 8 11 7 12
REMARK SMILES IDX 6 13 5 14 4 15 3 16 2 17 1 18
REMARK H PARENT
REMARK Flexibility Score: inf
ROOT
ATOM      1  C   UNL     1      10.334  52.459  21.828  1.00  0.00     0.000 C 
ENDROOT
BRANCH   1   2
ATOM      2  C   UNL     1       9.825  51.022  22.018  1.00  0.00     0.000 C 
BRANCH   2   3
ATOM      3  C   UNL     1      10.839  50.119  22.742  1.00  0.00     0.000 C 
BRANCH   3   4
ATOM      4  C   UNL     1      10.515  48.612  22.711  1.00  0.00     0.000 C 
BRANCH   4   5
ATOM      5  C   UNL     1      11.740  47.680  22.733  1.00  0.00     0.000 C 
BRANCH   5   6
ATOM      6  C   UNL     1      12.639  47.906  23.957  1.00  0.00     0.006 C 
BRANCH   6   7
ATOM      7  C   UNL     1      11.876  47.624  25.255  1.00  0.00     0.053 C 
BRANCH   7   8
ATOM      8  C   UNL     1      12.792  47.727  26.434  1.00  0.00     0.041 C 
ATOM      9  O   UNL     1      12.484  47.179  27.525  1.00  0.00    -0.550 OA
ATOM     10  O   UNL     1      14.009  48.386  26.314  1.00  0.00    -0.550 OA
ENDBRANCH   7   8
ENDBRANCH   6   7
ENDBRANCH   5   6
ENDBRANCH   4   5
ENDBRANCH   3   4
ENDBRANCH   2   3
ENDBRANCH   1   2
BRANCH   1  11
ATOM     11  C   UNL     1      10.089  53.298  23.091  1.00  0.00     0.000 C 
BRANCH  11  12
ATOM     12  C   UNL     1       9.133  54.475  22.841  1.00  0.00    -0.000 C 
BRANCH  12  13
ATOM     13  C   UNL     1       7.811  54.036  22.184  1.00  0.00    -0.000 C 
BRANCH  13  14
ATOM     14  C   UNL     1       7.106  55.183  21.444  1.00  0.00    -0.000 C 
BRANCH  14  15
ATOM     15  C   UNL     1       7.977  55.789  20.330  1.00  0.00    -0.000 C 
BRANCH  15  16
ATOM     16  C   UNL     1       7.237  55.879  18.986  1.00  0.00    -0.000 C 
BRANCH  16  17
ATOM     17  C   UNL     1       7.250  54.553  18.212  1.00  0.00    -0.003 C 
ATOM     18  C   UNL     1       6.827  54.760  16.761  1.00  0.00     0.004 C 
ENDBRANCH  16  17
ENDBRANCH  15  16
ENDBRANCH  14  15
ENDBRANCH  13  14
ENDBRANCH  12  13
ENDBRANCH  11  12
ENDBRANCH   1  11
TORSDOF 14
ENDMDL
MODEL 9
REMARK VINA RESULT:    -4.941      6.480     10.553
REMARK INTER + INTRA:          -9.892
REMARK INTER:                  -9.079
REMARK INTRA:                  -0.813
REMARK UNBOUND:                -0.907
REMARK SMILES CCCCCCCCCCCCCCCC(=O)[O-]
REMARK SMILES IDX 9 1 10 2 11 3 12 4 13 5 14 6 15 7 16 8 17 9 18 10 8 11 7 12
REMARK SMILES IDX 6 13 5 14 4 15 3 16 2 17 1 18
REMARK H PARENT
REMARK Flexibility Score: inf
ROOT
ATOM      1  C   UNL     1       9.914  51.031  22.325  1.00  0.00     0.000 C 
ENDROOT
BRANCH   1   2
ATOM      2  C   UNL     1      10.900  49.935  22.756  1.00  0.00     0.000 C 
BRANCH   2   3
ATOM      3  C   UNL     1      10.403  48.518  22.421  1.00  0.00     0.000 C 
BRANCH   3   4
ATOM      4  C   UNL     1      11.364  47.377  22.811  1.00  0.00     0.000 C 
BRANCH   4   5
ATOM      5  C   UNL     1      10.681  46.077  23.275  1.00  0.00     0.000 C 
BRANCH   5   6
ATOM      6  C   UNL     1       9.194  46.270  23.602  1.00  0.00     0.006 C 
BRANCH   6   7
ATOM      7  C   UNL     1       8.454  44.929  23.596  1.00  0.00     0.053 C 
BRANCH   7   8
ATOM      8  C   UNL     1       6.990  45.137  23.825  1.00  0.00     0.041 C 
ATOM      9  O   UNL     1       6.389  44.483  24.717  1.00  0.00    -0.550 OA
ATOM     10  O   UNL     1       6.299  46.089  23.086  1.00  0.00    -0.550 OA
ENDBRANCH   7   8
ENDBRANCH   6   7
ENDBRANCH   5   6
ENDBRANCH   4   5
ENDBRANCH   3   4
ENDBRANCH   2   3
ENDBRANCH   1   2
BRANCH   1  11
ATOM     11  C   UNL     1      10.605  52.401  22.272  1.00  0.00     0.000 C 
BRANCH  11  12
ATOM     12  C   UNL     1       9.771  53.454  21.526  1.00  0.00    -0.000 C 
BRANCH  12  13
ATOM     13  C   UNL     1       8.919  54.317  22.475  1.00  0.00    -0.000 C 
BRANCH  13  14
ATOM     14  C   UNL     1       7.426  53.955  22.427  1.00  0.00    -0.000 C 
BRANCH  14  15
ATOM     15  C   UNL     1       6.850  54.018  21.001  1.00  0.00    -0.000 C 
BRANCH  15  16
ATOM     16  C   UNL     1       5.912  55.218  20.797  1.00  0.00    -0.000 C 
BRANCH  16  17
ATOM     17  C   UNL     1       6.671  56.535  20.579  1.00  0.00    -0.003 C 
ATOM     18  C   UNL     1       7.539  56.467  19.326  1.00  0.00     0.004 C 
ENDBRANCH  16  17
ENDBRANCH  15  16
ENDBRANCH  14  15
ENDBRANCH  13  14
ENDBRANCH  12  13
ENDBRANCH  11  12
ENDBRANCH   1  11
TORSDOF 14
ENDMDL
