MODEL 1
REMARK VINA RESULT:    -3.290      0.000      0.000
REMARK INTER + INTRA:          -4.466
REMARK INTER:                  -4.251
REMARK INTRA:                  -0.215
REMARK UNBOUND:                -0.215
REMARK SMILES CCOC(=O)C=Cc1ccc(O)c(O)c1
REMARK SMILES IDX 6 1 7 2 4 3 5 4 3 5 2 6 1 7 8 8 15 9 9 10 13 11 10 12 11 13
REMARK SMILES IDX 14 14 12 16
REMARK H PARENT 14 15 12 17
REMARK Flexibility Score: inf
ROOT
ATOM      1  C   UNL     1      19.263  65.341  15.902  1.00  0.00     0.094 C 
ATOM      2  C   UNL     1      18.174  66.115  15.791  1.00  0.00     0.016 C 
ENDROOT
BRANCH   1   3
ATOM      3  C   UNL     1      20.587  65.772  15.425  1.00  0.00     0.330 C 
ATOM      4  O   UNL     1      20.757  66.123  14.223  1.00  0.00    -0.247 OA
BRANCH   3   5
ATOM      5  O   UNL     1      21.655  65.797  16.329  1.00  0.00    -0.463 OA
BRANCH   5   6
ATOM      6  C   UNL     1      22.837  65.013  16.172  1.00  0.00     0.230 C 
ATOM      7  C   UNL     1      24.074  65.903  16.138  1.00  0.00     0.049 C 
ENDBRANCH   5   6
ENDBRANCH   3   5
ENDBRANCH   1   3
BRANCH   2   8
ATOM      8  C   UNL     1      16.823  65.708  16.250  1.00  0.00    -0.021 A 
ATOM      9  C   UNL     1      15.710  66.088  15.481  1.00  0.00     0.058 A 
ATOM     10  C   UNL     1      16.612  64.986  17.441  1.00  0.00     0.012 A 
ATOM     11  C   UNL     1      14.413  65.737  15.875  1.00  0.00     0.157 A 
ATOM     12  C   UNL     1      15.319  64.635  17.836  1.00  0.00     0.051 A 
ATOM     13  C   UNL     1      14.215  65.005  17.056  1.00  0.00     0.157 A 
BRANCH  11  14
ATOM     14  O   UNL     1      13.336  66.125  15.079  1.00  0.00    -0.504 OA
ATOM     15  H   UNL     1      13.170  65.722  14.164  1.00  0.00     0.293 HD
ENDBRANCH  11  14
BRANCH  13  16
ATOM     16  O   UNL     1      12.927  64.651  17.454  1.00  0.00    -0.504 OA
ATOM     17  H   UNL     1      12.756  64.152  18.319  1.00  0.00     0.293 HD
ENDBRANCH  13  16
ENDBRANCH   2   8
TORSDOF 6
ENDMDL
MODEL 2
REMARK VINA RESULT:    -3.105     11.235     15.583
REMARK INTER + INTRA:          -4.227
REMARK INTER:                  -3.966
REMARK INTRA:                  -0.261
REMARK UNBOUND:                -0.215
REMARK SMILES CCOC(=O)C=Cc1ccc(O)c(O)c1
REMARK SMILES IDX 6 1 7 2 4 3 5 4 3 5 2 6 1 7 8 8 15 9 9 10 13 11 10 12 11 13
REMARK SMILES IDX 14 14 12 16
REMARK H PARENT 14 15 12 17
REMARK Flexibility Score: inf
ROOT
ATOM      1  C   UNL     1      31.131  64.193  18.649  1.00  0.00     0.094 C 
ATOM      2  C   UNL     1      32.218  63.485  18.989  1.00  0.00     0.016 C 
ENDROOT
BRANCH   1   3
ATOM      3  C   UNL     1      30.946  64.754  17.302  1.00  0.00     0.330 C 
ATOM      4  O   UNL     1      31.646  64.348  16.332  1.00  0.00    -0.247 OA
BRANCH   3   5
ATOM      5  O   UNL     1      29.972  65.741  17.109  1.00  0.00    -0.463 OA
BRANCH   5   6
ATOM      6  C   UNL     1      28.732  65.502  16.446  1.00  0.00     0.230 C 
ATOM      7  C   UNL     1      27.638  65.165  17.453  1.00  0.00     0.049 C 
ENDBRANCH   5   6
ENDBRANCH   3   5
ENDBRANCH   1   3
BRANCH   2   8
ATOM      8  C   UNL     1      32.442  62.915  20.341  1.00  0.00    -0.021 A 
ATOM      9  C   UNL     1      32.654  63.796  21.414  1.00  0.00     0.058 A 
ATOM     10  C   UNL     1      32.482  61.528  20.582  1.00  0.00     0.012 A 
ATOM     11  C   UNL     1      32.878  63.310  22.708  1.00  0.00     0.157 A 
ATOM     12  C   UNL     1      32.707  61.040  21.871  1.00  0.00     0.051 A 
ATOM     13  C   UNL     1      32.903  61.926  22.939  1.00  0.00     0.157 A 
BRANCH  11  14
ATOM     14  O   UNL     1      33.075  64.218  23.747  1.00  0.00    -0.504 OA
ATOM     15  H   UNL     1      33.059  63.934  24.720  1.00  0.00     0.293 HD
ENDBRANCH  11  14
BRANCH  13  16
ATOM     16  O   UNL     1      33.125  61.434  24.225  1.00  0.00    -0.504 OA
ATOM     17  H   UNL     1      32.651  61.823  25.031  1.00  0.00     0.293 HD
ENDBRANCH  13  16
ENDBRANCH   2   8
TORSDOF 6
ENDMDL
MODEL 3
REMARK VINA RESULT:    -2.969      9.458     14.562
REMARK INTER + INTRA:          -4.051
REMARK INTER:                  -3.800
REMARK INTRA:                  -0.251
REMARK UNBOUND:                -0.215
REMARK SMILES CCOC(=O)C=Cc1ccc(O)c(O)c1
REMARK SMILES IDX 6 1 7 2 4 3 5 4 3 5 2 6 1 7 8 8 15 9 9 10 13 11 10 12 11 13
REMARK SMILES IDX 14 14 12 16
REMARK H PARENT 14 15 12 17
REMARK Flexibility Score: inf
ROOT
ATOM      1  C   UNL     1      29.711  64.954  17.908  1.00  0.00     0.094 C 
ATOM      2  C   UNL     1      31.013  64.759  18.160  1.00  0.00     0.016 C 
ENDROOT
BRANCH   1   3
ATOM      3  C   UNL     1      29.205  65.249  16.557  1.00  0.00     0.330 C 
ATOM      4  O   UNL     1      29.731  64.714  15.541  1.00  0.00    -0.247 OA
BRANCH   3   5
ATOM      5  O   UNL     1      28.122  66.124  16.418  1.00  0.00    -0.463 OA
BRANCH   5   6
ATOM      6  C   UNL     1      26.958  66.071  17.240  1.00  0.00     0.230 C 
ATOM      7  C   UNL     1      25.781  65.483  16.468  1.00  0.00     0.049 C 
ENDBRANCH   5   6
ENDBRANCH   3   5
ENDBRANCH   1   3
BRANCH   2   8
ATOM      8  C   UNL     1      31.558  64.473  19.510  1.00  0.00    -0.021 A 
ATOM      9  C   UNL     1      32.026  63.177  19.784  1.00  0.00     0.058 A 
ATOM     10  C   UNL     1      31.593  65.440  20.534  1.00  0.00     0.012 A 
ATOM     11  C   UNL     1      32.543  62.853  21.044  1.00  0.00     0.157 A 
ATOM     12  C   UNL     1      32.106  65.118  21.793  1.00  0.00     0.051 A 
ATOM     13  C   UNL     1      32.585  63.828  22.054  1.00  0.00     0.157 A 
BRANCH  11  14
ATOM     14  O   UNL     1      33.006  61.558  21.273  1.00  0.00    -0.504 OA
ATOM     15  H   UNL     1      33.924  61.253  20.970  1.00  0.00     0.293 HD
ENDBRANCH  11  14
BRANCH  13  16
ATOM     16  O   UNL     1      33.098  63.512  23.311  1.00  0.00    -0.504 OA
ATOM     17  H   UNL     1      33.304  64.229  23.996  1.00  0.00     0.293 HD
ENDBRANCH  13  16
ENDBRANCH   2   8
TORSDOF 6
ENDMDL
MODEL 4
REMARK VINA RESULT:    -2.963     10.179     13.278
REMARK INTER + INTRA:          -4.045
REMARK INTER:                  -3.762
REMARK INTRA:                  -0.282
REMARK UNBOUND:                -0.215
REMARK SMILES CCOC(=O)C=Cc1ccc(O)c(O)c1
REMARK SMILES IDX 6 1 7 2 4 3 5 4 3 5 2 6 1 7 8 8 15 9 9 10 13 11 10 12 11 13
REMARK SMILES IDX 14 14 12 16
REMARK H PARENT 14 15 12 17
REMARK Flexibility Score: inf
ROOT
ATOM      1  C   UNL     1      31.326  64.286  20.396  1.00  0.00     0.094 C 
ATOM      2  C   UNL     1      30.981  65.436  19.799  1.00  0.00     0.016 C 
ENDROOT
BRANCH   1   3
ATOM      3  C   UNL     1      32.530  64.164  21.234  1.00  0.00     0.330 C 
ATOM      4  O   UNL     1      33.025  65.176  21.804  1.00  0.00    -0.247 OA
BRANCH   3   5
ATOM      5  O   UNL     1      33.113  62.902  21.397  1.00  0.00    -0.463 OA
BRANCH   5   6
ATOM      6  C   UNL     1      33.056  61.875  20.408  1.00  0.00     0.230 C 
ATOM      7  C   UNL     1      32.150  60.737  20.865  1.00  0.00     0.049 C 
ENDBRANCH   5   6
ENDBRANCH   3   5
ENDBRANCH   1   3
BRANCH   2   8
ATOM      8  C   UNL     1      29.782  65.591  18.939  1.00  0.00    -0.021 A 
ATOM      9  C   UNL     1      29.913  65.372  17.557  1.00  0.00     0.058 A 
ATOM     10  C   UNL     1      28.528  65.982  19.449  1.00  0.00     0.012 A 
ATOM     11  C   UNL     1      28.815  65.513  16.701  1.00  0.00     0.157 A 
ATOM     12  C   UNL     1      27.431  66.125  18.597  1.00  0.00     0.051 A 
ATOM     13  C   UNL     1      27.567  65.889  17.222  1.00  0.00     0.157 A 
BRANCH  11  14
ATOM     14  O   UNL     1      28.985  65.277  15.337  1.00  0.00    -0.504 OA
ATOM     15  H   UNL     1      29.195  64.355  14.973  1.00  0.00     0.293 HD
ENDBRANCH  11  14
BRANCH  13  16
ATOM     16  O   UNL     1      26.468  66.031  16.376  1.00  0.00    -0.504 OA
ATOM     17  H   UNL     1      25.739  65.330  16.328  1.00  0.00     0.293 HD
ENDBRANCH  13  16
ENDBRANCH   2   8
TORSDOF 6
ENDMDL
MODEL 5
REMARK VINA RESULT:    -2.942     12.420     14.641
REMARK INTER + INTRA:          -4.018
REMARK INTER:                  -3.810
REMARK INTRA:                  -0.208
REMARK UNBOUND:                -0.215
REMARK SMILES CCOC(=O)C=Cc1ccc(O)c(O)c1
REMARK SMILES IDX 6 1 7 2 4 3 5 4 3 5 2 6 1 7 8 8 15 9 9 10 13 11 10 12 11 13
REMARK SMILES IDX 14 14 12 16
REMARK H PARENT 14 15 12 17
REMARK Flexibility Score: inf
ROOT
ATOM      1  C   UNL     1      29.935  65.038  18.298  1.00  0.00     0.094 C 
ATOM      2  C   UNL     1      31.074  65.190  18.990  1.00  0.00     0.016 C 
ENDROOT
BRANCH   1   3
ATOM      3  C   UNL     1      29.898  65.066  16.827  1.00  0.00     0.330 C 
ATOM      4  O   UNL     1      28.982  65.685  16.217  1.00  0.00    -0.247 OA
BRANCH   3   5
ATOM      5  O   UNL     1      30.903  64.403  16.114  1.00  0.00    -0.463 OA
BRANCH   5   6
ATOM      6  C   UNL     1      30.673  63.710  14.889  1.00  0.00     0.230 C 
ATOM      7  C   UNL     1      31.984  63.195  14.306  1.00  0.00     0.049 C 
ENDBRANCH   5   6
ENDBRANCH   3   5
ENDBRANCH   1   3
BRANCH   2   8
ATOM      8  C   UNL     1      31.146  65.179  20.472  1.00  0.00    -0.021 A 
ATOM      9  C   UNL     1      32.076  64.328  21.093  1.00  0.00     0.058 A 
ATOM     10  C   UNL     1      30.298  65.963  21.278  1.00  0.00     0.012 A 
ATOM     11  C   UNL     1      32.179  64.274  22.488  1.00  0.00     0.157 A 
ATOM     12  C   UNL     1      30.398  65.910  22.670  1.00  0.00     0.051 A 
ATOM     13  C   UNL     1      31.338  65.070  23.282  1.00  0.00     0.157 A 
BRANCH  11  14
ATOM     14  O   UNL     1      33.121  63.424  23.065  1.00  0.00    -0.504 OA
ATOM     15  H   UNL     1      32.886  62.485  23.365  1.00  0.00     0.293 HD
ENDBRANCH  11  14
BRANCH  13  16
ATOM     16  O   UNL     1      31.435  65.022  24.671  1.00  0.00    -0.504 OA
ATOM     17  H   UNL     1      30.840  65.587  25.266  1.00  0.00     0.293 HD
ENDBRANCH  13  16
ENDBRANCH   2   8
TORSDOF 6
ENDMDL
MODEL 6
REMARK VINA RESULT:    -2.843     13.420     15.531
REMARK INTER + INTRA:          -3.890
REMARK INTER:                  -3.524
REMARK INTRA:                  -0.365
REMARK UNBOUND:                -0.215
REMARK SMILES CCOC(=O)C=Cc1ccc(O)c(O)c1
REMARK SMILES IDX 6 1 7 2 4 3 5 4 3 5 2 6 1 7 8 8 15 9 9 10 13 11 10 12 11 13
REMARK SMILES IDX 14 14 12 16
REMARK H PARENT 14 15 12 17
REMARK Flexibility Score: inf
ROOT
ATOM      1  C   UNL     1      32.470  63.359  21.242  1.00  0.00     0.094 C 
ATOM      2  C   UNL     1      32.655  64.265  20.270  1.00  0.00     0.016 C 
ENDROOT
BRANCH   1   3
ATOM      3  C   UNL     1      32.779  63.644  22.653  1.00  0.00     0.330 C 
ATOM      4  O   UNL     1      32.939  62.704  23.481  1.00  0.00    -0.247 OA
BRANCH   3   5
ATOM      5  O   UNL     1      32.904  64.978  23.060  1.00  0.00    -0.463 OA
BRANCH   5   6
ATOM      6  C   UNL     1      32.140  65.551  24.119  1.00  0.00     0.230 C 
ATOM      7  C   UNL     1      30.647  65.440  23.828  1.00  0.00     0.049 C 
ENDBRANCH   5   6
ENDBRANCH   3   5
ENDBRANCH   1   3
BRANCH   2   8
ATOM      8  C   UNL     1      32.366  64.008  18.838  1.00  0.00    -0.021 A 
ATOM      9  C   UNL     1      31.273  64.661  18.245  1.00  0.00     0.058 A 
ATOM     10  C   UNL     1      33.124  63.110  18.061  1.00  0.00     0.012 A 
ATOM     11  C   UNL     1      30.953  64.447  16.899  1.00  0.00     0.157 A 
ATOM     12  C   UNL     1      32.806  62.894  16.718  1.00  0.00     0.051 A 
ATOM     13  C   UNL     1      31.723  63.561  16.130  1.00  0.00     0.157 A 
BRANCH  11  14
ATOM     14  O   UNL     1      29.865  65.123  16.346  1.00  0.00    -0.504 OA
ATOM     15  H   UNL     1      29.938  65.641  15.479  1.00  0.00     0.293 HD
ENDBRANCH  11  14
BRANCH  13  16
ATOM     16  O   UNL     1      31.411  63.344  14.789  1.00  0.00    -0.504 OA
ATOM     17  H   UNL     1      31.108  64.098  14.185  1.00  0.00     0.293 HD
ENDBRANCH  13  16
ENDBRANCH   2   8
TORSDOF 6
ENDMDL
MODEL 7
REMARK VINA RESULT:    -2.719     14.672     15.776
REMARK INTER + INTRA:          -3.729
REMARK INTER:                  -3.488
REMARK INTRA:                  -0.241
REMARK UNBOUND:                -0.215
REMARK SMILES CCOC(=O)C=Cc1ccc(O)c(O)c1
REMARK SMILES IDX 6 1 7 2 4 3 5 4 3 5 2 6 1 7 8 8 15 9 9 10 13 11 10 12 11 13
REMARK SMILES IDX 14 14 12 16
REMARK H PARENT 14 15 12 17
REMARK Flexibility Score: inf
ROOT
ATOM      1  C   UNL     1      32.929  63.361  19.130  1.00  0.00     0.094 C 
ATOM      2  C   UNL     1      31.785  63.777  19.692  1.00  0.00     0.016 C 
ENDROOT
BRANCH   1   3
ATOM      3  C   UNL     1      32.978  62.790  17.774  1.00  0.00     0.330 C 
ATOM      4  O   UNL     1      33.109  61.546  17.601  1.00  0.00    -0.247 OA
BRANCH   3   5
ATOM      5  O   UNL     1      32.866  63.651  16.676  1.00  0.00    -0.463 OA
BRANCH   5   6
ATOM      6  C   UNL     1      32.845  63.201  15.322  1.00  0.00     0.230 C 
ATOM      7  C   UNL     1      31.418  63.178  14.785  1.00  0.00     0.049 C 
ENDBRANCH   5   6
ENDBRANCH   3   5
ENDBRANCH   1   3
BRANCH   2   8
ATOM      8  C   UNL     1      31.697  64.345  21.060  1.00  0.00    -0.021 A 
ATOM      9  C   UNL     1      32.430  63.731  22.090  1.00  0.00     0.058 A 
ATOM     10  C   UNL     1      30.884  65.452  21.371  1.00  0.00     0.012 A 
ATOM     11  C   UNL     1      32.375  64.223  23.400  1.00  0.00     0.157 A 
ATOM     12  C   UNL     1      30.827  65.944  22.677  1.00  0.00     0.051 A 
ATOM     13  C   UNL     1      31.572  65.335  23.696  1.00  0.00     0.157 A 
BRANCH  11  14
ATOM     14  O   UNL     1      33.125  63.591  24.391  1.00  0.00    -0.504 OA
ATOM     15  H   UNL     1      33.591  62.705  24.232  1.00  0.00     0.293 HD
ENDBRANCH  11  14
BRANCH  13  16
ATOM     16  O   UNL     1      31.514  65.830  24.997  1.00  0.00    -0.504 OA
ATOM     17  H   UNL     1      31.910  65.321  25.778  1.00  0.00     0.293 HD
ENDBRANCH  13  16
ENDBRANCH   2   8
TORSDOF 6
ENDMDL
MODEL 8
REMARK VINA RESULT:    -2.516      8.365     13.797
REMARK INTER + INTRA:          -3.466
REMARK INTER:                  -3.275
REMARK INTRA:                  -0.191
REMARK UNBOUND:                -0.215
REMARK SMILES CCOC(=O)C=Cc1ccc(O)c(O)c1
REMARK SMILES IDX 6 1 7 2 4 3 5 4 3 5 2 6 1 7 8 8 15 9 9 10 13 11 10 12 11 13
REMARK SMILES IDX 14 14 12 16
REMARK H PARENT 14 15 12 17
REMARK Flexibility Score: inf
ROOT
ATOM      1  C   UNL     1      28.863  65.409  18.087  1.00  0.00     0.094 C 
ATOM      2  C   UNL     1      30.188  65.271  18.238  1.00  0.00     0.016 C 
ENDROOT
BRANCH   1   3
ATOM      3  C   UNL     1      28.252  65.783  16.801  1.00  0.00     0.330 C 
ATOM      4  O   UNL     1      28.967  65.972  15.777  1.00  0.00    -0.247 OA
BRANCH   3   5
ATOM      5  O   UNL     1      26.860  65.915  16.729  1.00  0.00    -0.463 OA
BRANCH   5   6
ATOM      6  C   UNL     1      26.009  64.942  16.127  1.00  0.00     0.230 C 
ATOM      7  C   UNL     1      24.578  65.461  16.035  1.00  0.00     0.049 C 
ENDBRANCH   5   6
ENDBRANCH   3   5
ENDBRANCH   1   3
BRANCH   2   8
ATOM      8  C   UNL     1      30.838  64.908  19.521  1.00  0.00    -0.021 A 
ATOM      9  C   UNL     1      30.527  65.658  20.668  1.00  0.00     0.058 A 
ATOM     10  C   UNL     1      31.778  63.864  19.626  1.00  0.00     0.012 A 
ATOM     11  C   UNL     1      31.119  65.362  21.901  1.00  0.00     0.157 A 
ATOM     12  C   UNL     1      32.371  63.567  20.856  1.00  0.00     0.051 A 
ATOM     13  C   UNL     1      32.044  64.310  21.998  1.00  0.00     0.157 A 
BRANCH  11  14
ATOM     14  O   UNL     1      30.777  66.125  23.017  1.00  0.00    -0.504 OA
ATOM     15  H   UNL     1      31.296  66.071  23.886  1.00  0.00     0.293 HD
ENDBRANCH  11  14
BRANCH  13  16
ATOM     16  O   UNL     1      32.637  64.009  23.223  1.00  0.00    -0.504 OA
ATOM     17  H   UNL     1      33.547  63.567  23.279  1.00  0.00     0.293 HD
ENDBRANCH  13  16
ENDBRANCH   2   8
TORSDOF 6
ENDMDL
MODEL 9
REMARK VINA RESULT:    -2.513     11.622     15.664
REMARK INTER + INTRA:          -3.463
REMARK INTER:                  -3.202
REMARK INTRA:                  -0.261
REMARK UNBOUND:                -0.215
REMARK SMILES CCOC(=O)C=Cc1ccc(O)c(O)c1
REMARK SMILES IDX 6 1 7 2 4 3 5 4 3 5 2 6 1 7 8 8 15 9 9 10 13 11 10 12 11 13
REMARK SMILES IDX 14 14 12 16
REMARK H PARENT 14 15 12 17
REMARK Flexibility Score: inf
ROOT
ATOM      1  C   UNL     1      31.484  64.372  18.650  1.00  0.00     0.094 C 
ATOM      2  C   UNL     1      32.510  64.954  19.288  1.00  0.00     0.016 C 
ENDROOT
BRANCH   1   3
ATOM      3  C   UNL     1      31.348  64.404  17.185  1.00  0.00     0.330 C 
ATOM      4  O   UNL     1      31.998  63.602  16.458  1.00  0.00    -0.247 OA
BRANCH   3   5
ATOM      5  O   UNL     1      30.474  65.334  16.609  1.00  0.00    -0.463 OA
BRANCH   5   6
ATOM      6  C   UNL     1      29.200  64.987  16.069  1.00  0.00     0.230 C 
ATOM      7  C   UNL     1      28.077  65.508  16.959  1.00  0.00     0.049 C 
ENDBRANCH   5   6
ENDBRANCH   3   5
ENDBRANCH   1   3
BRANCH   2   8
ATOM      8  C   UNL     1      32.672  64.951  20.762  1.00  0.00    -0.021 A 
ATOM      9  C   UNL     1      32.464  63.749  21.459  1.00  0.00     0.058 A 
ATOM     10  C   UNL     1      32.993  66.113  21.492  1.00  0.00     0.012 A 
ATOM     11  C   UNL     1      32.596  63.694  22.851  1.00  0.00     0.157 A 
ATOM     12  C   UNL     1      33.125  66.061  22.882  1.00  0.00     0.051 A 
ATOM     13  C   UNL     1      32.930  64.855  23.567  1.00  0.00     0.157 A 
BRANCH  11  14
ATOM     14  O   UNL     1      32.390  62.480  23.504  1.00  0.00    -0.504 OA
ATOM     15  H   UNL     1      32.103  61.644  23.008  1.00  0.00     0.293 HD
ENDBRANCH  11  14
BRANCH  13  16
ATOM     16  O   UNL     1      33.064  64.808  24.954  1.00  0.00    -0.504 OA
ATOM     17  H   UNL     1      32.278  64.975  25.570  1.00  0.00     0.293 HD
ENDBRANCH  13  16
ENDBRANCH   2   8
TORSDOF 6
ENDMDL
