MODEL 1
REMARK VINA RESULT:    -3.013      0.000      0.000
REMARK INTER + INTRA:          -3.370
REMARK INTER:                  -3.189
REMARK INTRA:                  -0.181
REMARK UNBOUND:                -0.181
REMARK SMILES CC(C)[C@H]1CC[C@@H](C)CC1=O
REMARK SMILES IDX 8 1 7 2 6 3 5 4 4 5 10 6 11 7 9 8 2 9 1 10 3 11
REMARK H PARENT
REMARK Flexibility Score: inf
ROOT
ATOM      1  C   UNL     1     116.249 119.214 114.075  1.00  0.00     0.008 C 
ATOM      2  C   UNL     1     117.579 119.432 113.334  1.00  0.00    -0.007 C 
ATOM      3  C   UNL     1     117.605 118.720 111.963  1.00  0.00     0.004 C 
ATOM      4  C   UNL     1     117.668 117.189 112.099  1.00  0.00     0.012 C 
ATOM      5  C   UNL     1     118.888 116.740 112.935  1.00  0.00     0.058 C 
ATOM      6  C   UNL     1     118.920 117.511 114.245  1.00  0.00     0.136 C 
ATOM      7  O   UNL     1     119.144 116.962 115.313  1.00  0.00    -0.299 OA
ATOM      8  C   UNL     1     118.780 119.010 114.201  1.00  0.00     0.079 C 
ENDROOT
BRANCH   5   9
ATOM      9  C   UNL     1     118.963 115.184 113.054  1.00  0.00    -0.007 C 
ATOM     10  C   UNL     1     117.573 114.554 113.242  1.00  0.00     0.008 C 
ATOM     11  C   UNL     1     119.719 114.492 111.905  1.00  0.00     0.008 C 
ENDBRANCH   5   9
TORSDOF 1
ENDMDL
MODEL 2
REMARK VINA RESULT:    -3.005      1.721      4.257
REMARK INTER + INTRA:          -3.361
REMARK INTER:                  -3.178
REMARK INTRA:                  -0.184
REMARK UNBOUND:                -0.181
REMARK SMILES CC(C)[C@H]1CC[C@@H](C)CC1=O
REMARK SMILES IDX 8 1 7 2 6 3 5 4 4 5 10 6 11 7 9 8 2 9 1 10 3 11
REMARK H PARENT
REMARK Flexibility Score: inf
ROOT
ATOM      1  C   UNL     1     117.466 114.264 114.266  1.00  0.00     0.008 C 
ATOM      2  C   UNL     1     118.084 114.531 112.884  1.00  0.00    -0.007 C 
ATOM      3  C   UNL     1     119.291 115.494 112.963  1.00  0.00     0.004 C 
ATOM      4  C   UNL     1     118.871 116.933 113.306  1.00  0.00     0.012 C 
ATOM      5  C   UNL     1     117.839 117.484 112.296  1.00  0.00     0.058 C 
ATOM      6  C   UNL     1     116.697 116.492 112.144  1.00  0.00     0.136 C 
ATOM      7  O   UNL     1     115.528 116.848 112.133  1.00  0.00    -0.299 OA
ATOM      8  C   UNL     1     117.029 115.046 111.886  1.00  0.00     0.079 C 
ENDROOT
BRANCH   5   9
ATOM      9  C   UNL     1     117.429 118.954 112.635  1.00  0.00    -0.007 C 
ATOM     10  C   UNL     1     117.354 119.194 114.151  1.00  0.00     0.008 C 
ATOM     11  C   UNL     1     118.299 120.030 111.960  1.00  0.00     0.008 C 
ENDBRANCH   5   9
TORSDOF 1
ENDMDL
MODEL 3
REMARK VINA RESULT:    -2.950      1.975      3.249
REMARK INTER + INTRA:          -3.303
REMARK INTER:                  -3.121
REMARK INTRA:                  -0.183
REMARK UNBOUND:                -0.181
REMARK SMILES CC(C)[C@H]1CC[C@@H](C)CC1=O
REMARK SMILES IDX 8 1 7 2 6 3 5 4 4 5 10 6 11 7 9 8 2 9 1 10 3 11
REMARK H PARENT
REMARK Flexibility Score: inf
ROOT
ATOM      1  C   UNL     1     118.771 117.620 113.998  1.00  0.00     0.008 C 
ATOM      2  C   UNL     1     118.766 117.062 112.565  1.00  0.00    -0.007 C 
ATOM      3  C   UNL     1     117.394 117.241 111.877  1.00  0.00     0.004 C 
ATOM      4  C   UNL     1     116.311 116.330 112.480  1.00  0.00     0.012 C 
ATOM      5  C   UNL     1     116.723 114.841 112.428  1.00  0.00     0.058 C 
ATOM      6  C   UNL     1     118.114 114.676 113.018  1.00  0.00     0.136 C 
ATOM      7  O   UNL     1     118.384 113.774 113.796  1.00  0.00    -0.299 OA
ATOM      8  C   UNL     1     119.212 115.587 112.536  1.00  0.00     0.079 C 
ENDROOT
BRANCH   5   9
ATOM      9  C   UNL     1     115.613 113.915 113.023  1.00  0.00    -0.007 C 
ATOM     10  C   UNL     1     114.803 114.623 114.121  1.00  0.00     0.008 C 
ATOM     11  C   UNL     1     114.673 113.292 111.975  1.00  0.00     0.008 C 
ENDBRANCH   5   9
TORSDOF 1
ENDMDL
MODEL 4
REMARK VINA RESULT:    -2.949      2.851      3.556
REMARK INTER + INTRA:          -3.302
REMARK INTER:                  -3.125
REMARK INTRA:                  -0.178
REMARK UNBOUND:                -0.181
REMARK SMILES CC(C)[C@H]1CC[C@@H](C)CC1=O
REMARK SMILES IDX 8 1 7 2 6 3 5 4 4 5 10 6 11 7 9 8 2 9 1 10 3 11
REMARK H PARENT
REMARK Flexibility Score: inf
ROOT
ATOM      1  C   UNL     1     115.481 119.247 114.305  1.00  0.00     0.008 C 
ATOM      2  C   UNL     1     114.805 119.021 112.942  1.00  0.00    -0.007 C 
ATOM      3  C   UNL     1     113.631 118.021 113.034  1.00  0.00     0.004 C 
ATOM      4  C   UNL     1     114.106 116.581 113.294  1.00  0.00     0.012 C 
ATOM      5  C   UNL     1     115.105 116.105 112.214  1.00  0.00     0.058 C 
ATOM      6  C   UNL     1     116.210 117.136 112.053  1.00  0.00     0.136 C 
ATOM      7  O   UNL     1     117.386 116.815 111.973  1.00  0.00    -0.299 OA
ATOM      8  C   UNL     1     115.826 118.581 111.876  1.00  0.00     0.079 C 
ENDROOT
BRANCH   5   9
ATOM      9  C   UNL     1     115.570 114.635 112.468  1.00  0.00    -0.007 C 
ATOM     10  C   UNL     1     115.826 114.363 113.960  1.00  0.00     0.008 C 
ATOM     11  C   UNL     1     114.641 113.560 111.875  1.00  0.00     0.008 C 
ENDBRANCH   5   9
TORSDOF 1
ENDMDL
MODEL 5
REMARK VINA RESULT:    -2.944      1.954      3.289
REMARK INTER + INTRA:          -3.297
REMARK INTER:                  -3.134
REMARK INTRA:                  -0.163
REMARK UNBOUND:                -0.181
REMARK SMILES CC(C)[C@H]1CC[C@@H](C)CC1=O
REMARK SMILES IDX 8 1 7 2 6 3 5 4 4 5 10 6 11 7 9 8 2 9 1 10 3 11
REMARK H PARENT
REMARK Flexibility Score: inf
ROOT
ATOM      1  C   UNL     1     119.452 119.505 113.802  1.00  0.00     0.008 C 
ATOM      2  C   UNL     1     119.124 119.208 112.329  1.00  0.00    -0.007 C 
ATOM      3  C   UNL     1     117.814 119.890 111.876  1.00  0.00     0.004 C 
ATOM      4  C   UNL     1     116.569 119.253 112.518  1.00  0.00     0.012 C 
ATOM      5  C   UNL     1     116.489 117.737 112.228  1.00  0.00     0.058 C 
ATOM      6  C   UNL     1     117.812 117.079 112.583  1.00  0.00     0.136 C 
ATOM      7  O   UNL     1     117.866 116.027 113.199  1.00  0.00    -0.299 OA
ATOM      8  C   UNL     1     119.084 117.693 112.058  1.00  0.00     0.079 C 
ENDROOT
BRANCH   5   9
ATOM      9  C   UNL     1     115.213 117.096 112.863  1.00  0.00    -0.007 C 
ATOM     10  C   UNL     1     114.368 118.132 113.623  1.00  0.00     0.008 C 
ATOM     11  C   UNL     1     114.337 116.304 111.875  1.00  0.00     0.008 C 
ENDBRANCH   5   9
TORSDOF 1
ENDMDL
MODEL 6
REMARK VINA RESULT:    -2.920      2.680      4.386
REMARK INTER + INTRA:          -3.271
REMARK INTER:                  -3.093
REMARK INTRA:                  -0.178
REMARK UNBOUND:                -0.181
REMARK SMILES CC(C)[C@H]1CC[C@@H](C)CC1=O
REMARK SMILES IDX 8 1 7 2 6 3 5 4 4 5 10 6 11 7 9 8 2 9 1 10 3 11
REMARK H PARENT
REMARK Flexibility Score: inf
ROOT
ATOM      1  C   UNL     1     114.355 115.723 114.111  1.00  0.00     0.008 C 
ATOM      2  C   UNL     1     114.179 116.387 112.736  1.00  0.00    -0.007 C 
ATOM      3  C   UNL     1     115.461 116.295 111.877  1.00  0.00     0.004 C 
ATOM      4  C   UNL     1     116.594 117.185 112.417  1.00  0.00     0.012 C 
ATOM      5  C   UNL     1     116.154 118.663 112.529  1.00  0.00     0.058 C 
ATOM      6  C   UNL     1     114.842 118.748 113.290  1.00  0.00     0.136 C 
ATOM      7  O   UNL     1     114.653 119.582 114.162  1.00  0.00    -0.299 OA
ATOM      8  C   UNL     1     113.709 117.848 112.873  1.00  0.00     0.079 C 
ENDROOT
BRANCH   5   9
ATOM      9  C   UNL     1     117.313 119.569 113.057  1.00  0.00    -0.007 C 
ATOM     10  C   UNL     1     118.105 118.888 114.186  1.00  0.00     0.008 C 
ATOM     11  C   UNL     1     118.266 120.087 111.964  1.00  0.00     0.008 C 
ENDBRANCH   5   9
TORSDOF 1
ENDMDL
MODEL 7
REMARK VINA RESULT:    -2.907      2.894      5.136
REMARK INTER + INTRA:          -3.258
REMARK INTER:                  -3.085
REMARK INTRA:                  -0.173
REMARK UNBOUND:                -0.181
REMARK SMILES CC(C)[C@H]1CC[C@@H](C)CC1=O
REMARK SMILES IDX 8 1 7 2 6 3 5 4 4 5 10 6 11 7 9 8 2 9 1 10 3 11
REMARK H PARENT
REMARK Flexibility Score: inf
ROOT
ATOM      1  C   UNL     1     117.633 114.369 114.022  1.00  0.00     0.008 C 
ATOM      2  C   UNL     1     117.055 114.363 112.597  1.00  0.00    -0.007 C 
ATOM      3  C   UNL     1     117.271 115.712 111.875  1.00  0.00     0.004 C 
ATOM      4  C   UNL     1     116.408 116.839 112.466  1.00  0.00     0.012 C 
ATOM      5  C   UNL     1     114.905 116.479 112.444  1.00  0.00     0.058 C 
ATOM      6  C   UNL     1     114.700 115.108 113.068  1.00  0.00     0.136 C 
ATOM      7  O   UNL     1     113.801 114.888 113.864  1.00  0.00    -0.299 OA
ATOM      8  C   UNL     1     115.565 113.968 112.599  1.00  0.00     0.079 C 
ENDROOT
BRANCH   5   9
ATOM      9  C   UNL     1     114.028 117.634 113.026  1.00  0.00    -0.007 C 
ATOM     10  C   UNL     1     114.865 118.644 113.827  1.00  0.00     0.008 C 
ATOM     11  C   UNL     1     113.157 118.360 111.984  1.00  0.00     0.008 C 
ENDBRANCH   5   9
TORSDOF 1
ENDMDL
MODEL 8
REMARK VINA RESULT:    -2.906      2.200      4.332
REMARK INTER + INTRA:          -3.257
REMARK INTER:                  -3.092
REMARK INTRA:                  -0.165
REMARK UNBOUND:                -0.181
REMARK SMILES CC(C)[C@H]1CC[C@@H](C)CC1=O
REMARK SMILES IDX 8 1 7 2 6 3 5 4 4 5 10 6 11 7 9 8 2 9 1 10 3 11
REMARK H PARENT
REMARK Flexibility Score: inf
ROOT
ATOM      1  C   UNL     1     119.357 114.215 111.932  1.00  0.00     0.008 C 
ATOM      2  C   UNL     1     119.247 114.909 113.300  1.00  0.00    -0.007 C 
ATOM      3  C   UNL     1     118.223 114.214 114.225  1.00  0.00     0.004 C 
ATOM      4  C   UNL     1     116.774 114.414 113.751  1.00  0.00     0.012 C 
ATOM      5  C   UNL     1     116.417 115.913 113.623  1.00  0.00     0.058 C 
ATOM      6  C   UNL     1     117.476 116.620 112.792  1.00  0.00     0.136 C 
ATOM      7  O   UNL     1     117.184 117.418 111.915  1.00  0.00    -0.299 OA
ATOM      8  C   UNL     1     118.925 116.408 113.144  1.00  0.00     0.079 C 
ENDROOT
BRANCH   5   9
ATOM      9  C   UNL     1     114.938 116.115 113.161  1.00  0.00    -0.007 C 
ATOM     10  C   UNL     1     114.247 114.778 112.844  1.00  0.00     0.008 C 
ATOM     11  C   UNL     1     114.077 116.952 114.125  1.00  0.00     0.008 C 
ENDBRANCH   5   9
TORSDOF 1
ENDMDL
