MODEL 1
REMARK VINA RESULT:    -3.409      0.000      0.000
REMARK INTER + INTRA:          -7.844
REMARK INTER:                  -6.199
REMARK INTRA:                  -1.645
REMARK UNBOUND:                -1.645
REMARK SMILES CCCCCCCCCCCCCC[C@@H](C)C(=O)[O-]
REMARK SMILES IDX 9 1 10 2 11 3 12 4 13 5 14 6 15 7 16 8 17 9 18 10 19 11 8 12
REMARK SMILES IDX 7 13 6 14 5 15 4 16 3 17 2 18 1 19
REMARK H PARENT
REMARK Flexibility Score: inf
ROOT
ATOM      1  C   UNL     1     -45.487 -38.597  17.108  1.00  0.00     0.000 C 
ENDROOT
BRANCH   1   2
ATOM      2  C   UNL     1     -45.767 -37.817  18.401  1.00  0.00     0.000 C 
BRANCH   2   3
ATOM      3  C   UNL     1     -44.493 -37.128  18.914  1.00  0.00     0.000 C 
BRANCH   3   4
ATOM      4  C   UNL     1     -44.796 -35.953  19.856  1.00  0.00     0.000 C 
BRANCH   4   5
ATOM      5  C   UNL     1     -45.124 -36.412  21.287  1.00  0.00     0.001 C 
BRANCH   5   6
ATOM      6  C   UNL     1     -45.685 -35.281  22.169  1.00  0.00     0.009 C 
BRANCH   6   7
ATOM      7  C   UNL     1     -44.924 -33.935  22.016  1.00  0.00     0.032 C 
ATOM      8  C   UNL     1     -45.856 -32.800  21.567  1.00  0.00     0.014 C 
BRANCH   7   9
ATOM      9  C   UNL     1     -44.256 -33.550  23.309  1.00  0.00     0.044 C 
ATOM     10  O   UNL     1     -43.012 -33.358  23.353  1.00  0.00    -0.550 OA
ATOM     11  O   UNL     1     -45.013 -33.402  24.465  1.00  0.00    -0.550 OA
ENDBRANCH   7   9
ENDBRANCH   6   7
ENDBRANCH   5   6
ENDBRANCH   4   5
ENDBRANCH   3   4
ENDBRANCH   2   3
ENDBRANCH   1   2
BRANCH   1  12
ATOM     12  C   UNL     1     -44.187 -38.156  16.413  1.00  0.00     0.000 C 
BRANCH  12  13
ATOM     13  C   UNL     1     -44.347 -37.722  14.941  1.00  0.00    -0.000 C 
BRANCH  13  14
ATOM     14  C   UNL     1     -45.685 -37.040  14.602  1.00  0.00    -0.000 C 
BRANCH  14  15
ATOM     15  C   UNL     1     -45.582 -35.507  14.580  1.00  0.00    -0.000 C 
BRANCH  15  16
ATOM     16  C   UNL     1     -45.910 -34.914  15.957  1.00  0.00    -0.000 C 
BRANCH  16  17
ATOM     17  C   UNL     1     -44.711 -34.199  16.603  1.00  0.00    -0.000 C 
BRANCH  17  18
ATOM     18  C   UNL     1     -44.904 -32.675  16.745  1.00  0.00    -0.003 C 
ATOM     19  C   UNL     1     -44.391 -31.906  15.527  1.00  0.00     0.004 C 
ENDBRANCH  17  18
ENDBRANCH  16  17
ENDBRANCH  15  16
ENDBRANCH  14  15
ENDBRANCH  13  14
ENDBRANCH  12  13
ENDBRANCH   1  12
TORSDOF 14
ENDMDL
MODEL 2
REMARK VINA RESULT:    -3.329      4.714      9.526
REMARK INTER + INTRA:          -7.698
REMARK INTER:                  -6.532
REMARK INTRA:                  -1.167
REMARK UNBOUND:                -1.645
REMARK SMILES CCCCCCCCCCCCCC[C@@H](C)C(=O)[O-]
REMARK SMILES IDX 9 1 10 2 11 3 12 4 13 5 14 6 15 7 16 8 17 9 18 10 19 11 8 12
REMARK SMILES IDX 7 13 6 14 5 15 4 16 3 17 2 18 1 19
REMARK H PARENT
REMARK Flexibility Score: inf
ROOT
ATOM      1  C   UNL     1     -41.575 -32.392  24.225  1.00  0.00     0.000 C 
ENDROOT
BRANCH   1   2
ATOM      2  C   UNL     1     -42.735 -32.091  25.186  1.00  0.00     0.000 C 
BRANCH   2   3
ATOM      3  C   UNL     1     -44.089 -32.393  24.524  1.00  0.00     0.000 C 
BRANCH   3   4
ATOM      4  C   UNL     1     -43.952 -33.291  23.285  1.00  0.00     0.000 C 
BRANCH   4   5
ATOM      5  C   UNL     1     -45.290 -33.918  22.858  1.00  0.00     0.001 C 
BRANCH   5   6
ATOM      6  C   UNL     1     -45.606 -33.709  21.366  1.00  0.00     0.009 C 
BRANCH   6   7
ATOM      7  C   UNL     1     -45.928 -35.026  20.606  1.00  0.00     0.032 C 
ATOM      8  C   UNL     1     -45.944 -34.819  19.084  1.00  0.00     0.014 C 
BRANCH   7   9
ATOM      9  C   UNL     1     -44.932 -36.100  20.953  1.00  0.00     0.044 C 
ATOM     10  O   UNL     1     -43.708 -35.941  20.703  1.00  0.00    -0.550 OA
ATOM     11  O   UNL     1     -45.361 -37.276  21.556  1.00  0.00    -0.550 OA
ENDBRANCH   7   9
ENDBRANCH   6   7
ENDBRANCH   5   6
ENDBRANCH   4   5
ENDBRANCH   3   4
ENDBRANCH   2   3
ENDBRANCH   1   2
BRANCH   1  12
ATOM     12  C   UNL     1     -40.209 -31.954  24.781  1.00  0.00     0.000 C 
BRANCH  12  13
ATOM     13  C   UNL     1     -38.991 -32.669  24.162  1.00  0.00    -0.000 C 
BRANCH  13  14
ATOM     14  C   UNL     1     -37.834 -32.954  25.138  1.00  0.00    -0.000 C 
BRANCH  14  15
ATOM     15  C   UNL     1     -38.130 -34.128  26.083  1.00  0.00    -0.000 C 
BRANCH  15  16
ATOM     16  C   UNL     1     -37.588 -33.851  27.492  1.00  0.00    -0.000 C 
BRANCH  16  17
ATOM     17  C   UNL     1     -38.294 -32.673  28.184  1.00  0.00    -0.000 C 
BRANCH  17  18
ATOM     18  C   UNL     1     -39.536 -33.090  29.000  1.00  0.00    -0.003 C 
ATOM     19  C   UNL     1     -40.835 -32.555  28.398  1.00  0.00     0.004 C 
ENDBRANCH  17  18
ENDBRANCH  16  17
ENDBRANCH  15  16
ENDBRANCH  14  15
ENDBRANCH  13  14
ENDBRANCH  12  13
ENDBRANCH   1  12
TORSDOF 14
ENDMDL
MODEL 3
REMARK VINA RESULT:    -3.316      5.904     10.460
REMARK INTER + INTRA:          -7.675
REMARK INTER:                  -5.792
REMARK INTRA:                  -1.883
REMARK UNBOUND:                -1.645
REMARK SMILES CCCCCCCCCCCCCC[C@@H](C)C(=O)[O-]
REMARK SMILES IDX 9 1 10 2 11 3 12 4 13 5 14 6 15 7 16 8 17 9 18 10 19 11 8 12
REMARK SMILES IDX 7 13 6 14 5 15 4 16 3 17 2 18 1 19
REMARK H PARENT
REMARK Flexibility Score: inf
ROOT
ATOM      1  C   UNL     1     -38.224 -34.248  25.770  1.00  0.00     0.000 C 
ENDROOT
BRANCH   1   2
ATOM      2  C   UNL     1     -37.935 -33.057  24.843  1.00  0.00     0.000 C 
BRANCH   2   3
ATOM      3  C   UNL     1     -39.148 -32.748  23.952  1.00  0.00     0.000 C 
BRANCH   3   4
ATOM      4  C   UNL     1     -40.195 -31.875  24.663  1.00  0.00     0.000 C 
BRANCH   4   5
ATOM      5  C   UNL     1     -41.486 -32.646  24.986  1.00  0.00     0.001 C 
BRANCH   5   6
ATOM      6  C   UNL     1     -42.711 -32.121  24.215  1.00  0.00     0.009 C 
BRANCH   6   7
ATOM      7  C   UNL     1     -43.918 -33.099  24.222  1.00  0.00     0.032 C 
ATOM      8  C   UNL     1     -45.112 -32.527  25.000  1.00  0.00     0.014 C 
BRANCH   7   9
ATOM      9  C   UNL     1     -44.349 -33.425  22.816  1.00  0.00     0.044 C 
ATOM     10  O   UNL     1     -43.904 -34.449  22.233  1.00  0.00    -0.550 OA
ATOM     11  O   UNL     1     -45.245 -32.595  22.155  1.00  0.00    -0.550 OA
ENDBRANCH   7   9
ENDBRANCH   6   7
ENDBRANCH   5   6
ENDBRANCH   4   5
ENDBRANCH   3   4
ENDBRANCH   2   3
ENDBRANCH   1   2
BRANCH   1  12
ATOM     12  C   UNL     1     -37.792 -33.993  27.224  1.00  0.00     0.000 C 
BRANCH  12  13
ATOM     13  C   UNL     1     -37.550 -32.513  27.586  1.00  0.00    -0.000 C 
BRANCH  13  14
ATOM     14  C   UNL     1     -38.618 -31.879  28.497  1.00  0.00    -0.000 C 
BRANCH  14  15
ATOM     15  C   UNL     1     -39.582 -32.916  29.092  1.00  0.00    -0.000 C 
BRANCH  15  16
ATOM     16  C   UNL     1     -41.037 -32.444  28.976  1.00  0.00    -0.000 C 
BRANCH  16  17
ATOM     17  C   UNL     1     -41.959 -33.497  28.339  1.00  0.00    -0.000 C 
BRANCH  17  18
ATOM     18  C   UNL     1     -43.425 -33.035  28.203  1.00  0.00    -0.003 C 
ATOM     19  C   UNL     1     -44.417 -34.188  28.360  1.00  0.00     0.004 C 
ENDBRANCH  17  18
ENDBRANCH  16  17
ENDBRANCH  15  16
ENDBRANCH  14  15
ENDBRANCH  13  14
ENDBRANCH  12  13
ENDBRANCH   1  12
TORSDOF 14
ENDMDL
MODEL 4
REMARK VINA RESULT:    -3.275      5.965     10.232
REMARK INTER + INTRA:          -7.601
REMARK INTER:                  -5.851
REMARK INTRA:                  -1.749
REMARK UNBOUND:                -1.645
REMARK SMILES CCCCCCCCCCCCCC[C@@H](C)C(=O)[O-]
REMARK SMILES IDX 9 1 10 2 11 3 12 4 13 5 14 6 15 7 16 8 17 9 18 10 19 11 8 12
REMARK SMILES IDX 7 13 6 14 5 15 4 16 3 17 2 18 1 19
REMARK H PARENT
REMARK Flexibility Score: inf
ROOT
ATOM      1  C   UNL     1     -41.014 -31.916  27.556  1.00  0.00     0.000 C 
ENDROOT
BRANCH   1   2
ATOM      2  C   UNL     1     -41.697 -33.279  27.363  1.00  0.00     0.000 C 
BRANCH   2   3
ATOM      3  C   UNL     1     -42.943 -33.399  28.253  1.00  0.00     0.000 C 
BRANCH   3   4
ATOM      4  C   UNL     1     -44.215 -32.886  27.559  1.00  0.00     0.000 C 
BRANCH   4   5
ATOM      5  C   UNL     1     -44.311 -33.338  26.092  1.00  0.00     0.001 C 
BRANCH   5   6
ATOM      6  C   UNL     1     -44.748 -32.210  25.140  1.00  0.00     0.009 C 
BRANCH   6   7
ATOM      7  C   UNL     1     -44.029 -32.242  23.763  1.00  0.00     0.032 C 
ATOM      8  C   UNL     1     -42.627 -32.859  23.864  1.00  0.00     0.014 C 
BRANCH   7   9
ATOM      9  C   UNL     1     -44.842 -33.011  22.755  1.00  0.00     0.044 C 
ATOM     10  O   UNL     1     -44.848 -34.270  22.766  1.00  0.00    -0.550 OA
ATOM     11  O   UNL     1     -45.593 -32.330  21.805  1.00  0.00    -0.550 OA
ENDBRANCH   7   9
ENDBRANCH   6   7
ENDBRANCH   5   6
ENDBRANCH   4   5
ENDBRANCH   3   4
ENDBRANCH   2   3
ENDBRANCH   1   2
BRANCH   1  12
ATOM     12  C   UNL     1     -39.889 -31.954  28.604  1.00  0.00     0.000 C 
BRANCH  12  13
ATOM     13  C   UNL     1     -39.288 -33.349  28.870  1.00  0.00    -0.000 C 
BRANCH  13  14
ATOM     14  C   UNL     1     -38.070 -33.713  28.001  1.00  0.00    -0.000 C 
BRANCH  14  15
ATOM     15  C   UNL     1     -37.262 -32.482  27.564  1.00  0.00    -0.000 C 
BRANCH  15  16
ATOM     16  C   UNL     1     -37.319 -32.299  26.041  1.00  0.00    -0.000 C 
BRANCH  16  17
ATOM     17  C   UNL     1     -38.118 -33.406  25.334  1.00  0.00    -0.000 C 
BRANCH  17  18
ATOM     18  C   UNL     1     -38.650 -32.994  23.945  1.00  0.00    -0.003 C 
ATOM     19  C   UNL     1     -37.525 -32.649  22.969  1.00  0.00     0.004 C 
ENDBRANCH  17  18
ENDBRANCH  16  17
ENDBRANCH  15  16
ENDBRANCH  14  15
ENDBRANCH  13  14
ENDBRANCH  12  13
ENDBRANCH   1  12
TORSDOF 14
ENDMDL
MODEL 5
REMARK VINA RESULT:    -3.269      3.580      7.326
REMARK INTER + INTRA:          -7.589
REMARK INTER:                  -6.054
REMARK INTRA:                  -1.535
REMARK UNBOUND:                -1.645
REMARK SMILES CCCCCCCCCCCCCC[C@@H](C)C(=O)[O-]
REMARK SMILES IDX 9 1 10 2 11 3 12 4 13 5 14 6 15 7 16 8 17 9 18 10 19 11 8 12
REMARK SMILES IDX 7 13 6 14 5 15 4 16 3 17 2 18 1 19
REMARK H PARENT
REMARK Flexibility Score: inf
ROOT
ATOM      1  C   UNL     1     -44.766 -36.640  19.146  1.00  0.00     0.000 C 
ENDROOT
BRANCH   1   2
ATOM      2  C   UNL     1     -45.946 -35.773  18.681  1.00  0.00     0.000 C 
BRANCH   2   3
ATOM      3  C   UNL     1     -45.452 -34.435  18.109  1.00  0.00     0.000 C 
BRANCH   3   4
ATOM      4  C   UNL     1     -44.852 -34.581  16.701  1.00  0.00     0.000 C 
BRANCH   4   5
ATOM      5  C   UNL     1     -45.926 -34.787  15.620  1.00  0.00     0.001 C 
BRANCH   5   6
ATOM      6  C   UNL     1     -45.649 -36.004  14.718  1.00  0.00     0.009 C 
BRANCH   6   7
ATOM      7  C   UNL     1     -44.992 -37.197  15.465  1.00  0.00     0.032 C 
ATOM      8  C   UNL     1     -46.039 -38.189  15.991  1.00  0.00     0.014 C 
BRANCH   7   9
ATOM      9  C   UNL     1     -44.025 -37.921  14.566  1.00  0.00     0.044 C 
ATOM     10  O   UNL     1     -43.067 -38.577  15.054  1.00  0.00    -0.550 OA
ATOM     11  O   UNL     1     -44.188 -37.871  13.188  1.00  0.00    -0.550 OA
ENDBRANCH   7   9
ENDBRANCH   6   7
ENDBRANCH   5   6
ENDBRANCH   4   5
ENDBRANCH   3   4
ENDBRANCH   2   3
ENDBRANCH   1   2
BRANCH   1  12
ATOM     12  C   UNL     1     -44.575 -36.621  20.673  1.00  0.00     0.000 C 
BRANCH  12  13
ATOM     13  C   UNL     1     -45.859 -36.372  21.491  1.00  0.00    -0.000 C 
BRANCH  13  14
ATOM     14  C   UNL     1     -45.809 -35.155  22.432  1.00  0.00    -0.000 C 
BRANCH  14  15
ATOM     15  C   UNL     1     -45.231 -33.903  21.755  1.00  0.00    -0.000 C 
BRANCH  15  16
ATOM     16  C   UNL     1     -45.100 -32.747  22.756  1.00  0.00    -0.000 C 
BRANCH  16  17
ATOM     17  C   UNL     1     -45.014 -33.225  24.215  1.00  0.00    -0.000 C 
BRANCH  17  18
ATOM     18  C   UNL     1     -43.757 -32.723  24.957  1.00  0.00    -0.003 C 
ATOM     19  C   UNL     1     -42.583 -32.474  24.011  1.00  0.00     0.004 C 
ENDBRANCH  17  18
ENDBRANCH  16  17
ENDBRANCH  15  16
ENDBRANCH  14  15
ENDBRANCH  13  14
ENDBRANCH  12  13
ENDBRANCH   1  12
TORSDOF 14
ENDMDL
MODEL 6
REMARK VINA RESULT:    -3.251      4.204      8.058
REMARK INTER + INTRA:          -7.558
REMARK INTER:                  -6.564
REMARK INTRA:                  -0.994
REMARK UNBOUND:                -1.645
REMARK SMILES CCCCCCCCCCCCCC[C@@H](C)C(=O)[O-]
REMARK SMILES IDX 9 1 10 2 11 3 12 4 13 5 14 6 15 7 16 8 17 9 18 10 19 11 8 12
REMARK SMILES IDX 7 13 6 14 5 15 4 16 3 17 2 18 1 19
REMARK H PARENT
REMARK Flexibility Score: inf
ROOT
ATOM      1  C   UNL     1     -43.968 -36.000  20.816  1.00  0.00     0.000 C 
ENDROOT
BRANCH   1   2
ATOM      2  C   UNL     1     -43.741 -36.799  19.524  1.00  0.00     0.000 C 
BRANCH   2   3
ATOM      3  C   UNL     1     -44.854 -36.519  18.503  1.00  0.00     0.000 C 
BRANCH   3   4
ATOM      4  C   UNL     1     -45.493 -37.807  17.959  1.00  0.00     0.000 C 
BRANCH   4   5
ATOM      5  C   UNL     1     -44.903 -38.234  16.605  1.00  0.00     0.001 C 
BRANCH   5   6
ATOM      6  C   UNL     1     -44.459 -37.042  15.737  1.00  0.00     0.009 C 
BRANCH   6   7
ATOM      7  C   UNL     1     -45.398 -36.764  14.531  1.00  0.00     0.032 C 
ATOM      8  C   UNL     1     -45.891 -35.310  14.514  1.00  0.00     0.014 C 
BRANCH   7   9
ATOM      9  C   UNL     1     -44.703 -37.071  13.231  1.00  0.00     0.044 C 
ATOM     10  O   UNL     1     -44.268 -38.230  12.998  1.00  0.00    -0.550 OA
ATOM     11  O   UNL     1     -44.541 -36.073  12.279  1.00  0.00    -0.550 OA
ENDBRANCH   7   9
ENDBRANCH   6   7
ENDBRANCH   5   6
ENDBRANCH   4   5
ENDBRANCH   3   4
ENDBRANCH   2   3
ENDBRANCH   1   2
BRANCH   1  12
ATOM     12  C   UNL     1     -45.381 -36.185  21.394  1.00  0.00     0.000 C 
BRANCH  12  13
ATOM     13  C   UNL     1     -46.125 -34.878  21.737  1.00  0.00    -0.000 C 
BRANCH  13  14
ATOM     14  C   UNL     1     -45.715 -34.223  23.069  1.00  0.00    -0.000 C 
BRANCH  14  15
ATOM     15  C   UNL     1     -44.747 -33.046  22.880  1.00  0.00    -0.000 C 
BRANCH  15  16
ATOM     16  C   UNL     1     -43.371 -33.362  23.482  1.00  0.00    -0.000 C 
BRANCH  16  17
ATOM     17  C   UNL     1     -42.991 -32.420  24.636  1.00  0.00    -0.000 C 
BRANCH  17  18
ATOM     18  C   UNL     1     -43.643 -32.798  25.983  1.00  0.00    -0.003 C 
ATOM     19  C   UNL     1     -42.633 -33.364  26.981  1.00  0.00     0.004 C 
ENDBRANCH  17  18
ENDBRANCH  16  17
ENDBRANCH  15  16
ENDBRANCH  14  15
ENDBRANCH  13  14
ENDBRANCH  12  13
ENDBRANCH   1  12
TORSDOF 14
ENDMDL
MODEL 7
REMARK VINA RESULT:    -3.203      4.738      9.790
REMARK INTER + INTRA:          -7.469
REMARK INTER:                  -6.255
REMARK INTRA:                  -1.214
REMARK UNBOUND:                -1.645
REMARK SMILES CCCCCCCCCCCCCC[C@@H](C)C(=O)[O-]
REMARK SMILES IDX 9 1 10 2 11 3 12 4 13 5 14 6 15 7 16 8 17 9 18 10 19 11 8 12
REMARK SMILES IDX 7 13 6 14 5 15 4 16 3 17 2 18 1 19
REMARK H PARENT
REMARK Flexibility Score: inf
ROOT
ATOM      1  C   UNL     1     -41.472 -32.172  24.888  1.00  0.00     0.000 C 
ENDROOT
BRANCH   1   2
ATOM      2  C   UNL     1     -42.639 -32.270  23.893  1.00  0.00     0.000 C 
BRANCH   2   3
ATOM      3  C   UNL     1     -43.833 -33.006  24.519  1.00  0.00     0.000 C 
BRANCH   3   4
ATOM      4  C   UNL     1     -45.154 -32.715  23.788  1.00  0.00     0.000 C 
BRANCH   4   5
ATOM      5  C   UNL     1     -45.133 -33.178  22.322  1.00  0.00     0.001 C 
BRANCH   5   6
ATOM      6  C   UNL     1     -44.892 -34.691  22.171  1.00  0.00     0.009 C 
BRANCH   6   7
ATOM      7  C   UNL     1     -45.577 -35.310  20.921  1.00  0.00     0.032 C 
ATOM      8  C   UNL     1     -45.921 -34.244  19.871  1.00  0.00     0.014 C 
BRANCH   7   9
ATOM      9  C   UNL     1     -44.698 -36.361  20.297  1.00  0.00     0.044 C 
ATOM     10  O   UNL     1     -45.189 -37.449  19.895  1.00  0.00    -0.550 OA
ATOM     11  O   UNL     1     -43.335 -36.133  20.159  1.00  0.00    -0.550 OA
ENDBRANCH   7   9
ENDBRANCH   6   7
ENDBRANCH   5   6
ENDBRANCH   4   5
ENDBRANCH   3   4
ENDBRANCH   2   3
ENDBRANCH   1   2
BRANCH   1  12
ATOM     12  C   UNL     1     -41.940 -31.983  26.341  1.00  0.00     0.000 C 
BRANCH  12  13
ATOM     13  C   UNL     1     -41.426 -33.043  27.338  1.00  0.00    -0.000 C 
BRANCH  13  14
ATOM     14  C   UNL     1     -40.752 -32.479  28.602  1.00  0.00    -0.000 C 
BRANCH  14  15
ATOM     15  C   UNL     1     -39.396 -33.139  28.898  1.00  0.00    -0.000 C 
BRANCH  15  16
ATOM     16  C   UNL     1     -38.270 -32.462  28.106  1.00  0.00    -0.000 C 
BRANCH  16  17
ATOM     17  C   UNL     1     -37.449 -33.455  27.265  1.00  0.00    -0.000 C 
BRANCH  17  18
ATOM     18  C   UNL     1     -38.199 -33.983  26.025  1.00  0.00    -0.003 C 
ATOM     19  C   UNL     1     -37.861 -33.194  24.760  1.00  0.00     0.004 C 
ENDBRANCH  17  18
ENDBRANCH  16  17
ENDBRANCH  15  16
ENDBRANCH  14  15
ENDBRANCH  13  14
ENDBRANCH  12  13
ENDBRANCH   1  12
TORSDOF 14
ENDMDL
MODEL 8
REMARK VINA RESULT:    -3.202      1.884      2.939
REMARK INTER + INTRA:          -7.467
REMARK INTER:                  -6.489
REMARK INTRA:                  -0.978
REMARK UNBOUND:                -1.645
REMARK SMILES CCCCCCCCCCCCCC[C@@H](C)C(=O)[O-]
REMARK SMILES IDX 9 1 10 2 11 3 12 4 13 5 14 6 15 7 16 8 17 9 18 10 19 11 8 12
REMARK SMILES IDX 7 13 6 14 5 15 4 16 3 17 2 18 1 19
REMARK H PARENT
REMARK Flexibility Score: inf
ROOT
ATOM      1  C   UNL     1     -44.256 -36.857  18.671  1.00  0.00     0.000 C 
ENDROOT
BRANCH   1   2
ATOM      2  C   UNL     1     -44.283 -36.950  20.204  1.00  0.00     0.000 C 
BRANCH   2   3
ATOM      3  C   UNL     1     -45.723 -36.873  20.733  1.00  0.00     0.000 C 
BRANCH   3   4
ATOM      4  C   UNL     1     -45.828 -36.081  22.045  1.00  0.00     0.000 C 
BRANCH   4   5
ATOM      5  C   UNL     1     -45.552 -34.580  21.854  1.00  0.00     0.001 C 
BRANCH   5   6
ATOM      6  C   UNL     1     -44.205 -34.133  22.451  1.00  0.00     0.009 C 
BRANCH   6   7
ATOM      7  C   UNL     1     -44.276 -32.775  23.203  1.00  0.00     0.032 C 
ATOM      8  C   UNL     1     -45.628 -32.580  23.905  1.00  0.00     0.014 C 
BRANCH   7   9
ATOM      9  C   UNL     1     -43.167 -32.667  24.216  1.00  0.00     0.044 C 
ATOM     10  O   UNL     1     -43.296 -33.175  25.361  1.00  0.00    -0.550 OA
ATOM     11  O   UNL     1     -41.991 -32.006  23.888  1.00  0.00    -0.550 OA
ENDBRANCH   7   9
ENDBRANCH   6   7
ENDBRANCH   5   6
ENDBRANCH   4   5
ENDBRANCH   3   4
ENDBRANCH   2   3
ENDBRANCH   1   2
BRANCH   1  12
ATOM     12  C   UNL     1     -45.629 -37.126  18.031  1.00  0.00     0.000 C 
BRANCH  12  13
ATOM     13  C   UNL     1     -45.730 -36.785  16.530  1.00  0.00    -0.000 C 
BRANCH  13  14
ATOM     14  C   UNL     1     -45.543 -37.978  15.574  1.00  0.00    -0.000 C 
BRANCH  14  15
ATOM     15  C   UNL     1     -44.172 -37.976  14.881  1.00  0.00    -0.000 C 
BRANCH  15  16
ATOM     16  C   UNL     1     -44.319 -37.743  13.372  1.00  0.00    -0.000 C 
BRANCH  16  17
ATOM     17  C   UNL     1     -45.693 -37.168  12.985  1.00  0.00    -0.000 C 
BRANCH  17  18
ATOM     18  C   UNL     1     -45.613 -35.797  12.281  1.00  0.00    -0.003 C 
ATOM     19  C   UNL     1     -45.718 -34.630  13.264  1.00  0.00     0.004 C 
ENDBRANCH  17  18
ENDBRANCH  16  17
ENDBRANCH  15  16
ENDBRANCH  14  15
ENDBRANCH  13  14
ENDBRANCH  12  13
ENDBRANCH   1  12
TORSDOF 14
ENDMDL
MODEL 9
REMARK VINA RESULT:    -3.183      2.266      4.080
REMARK INTER + INTRA:          -7.434
REMARK INTER:                  -6.590
REMARK INTRA:                  -0.844
REMARK UNBOUND:                -1.645
REMARK SMILES CCCCCCCCCCCCCC[C@@H](C)C(=O)[O-]
REMARK SMILES IDX 9 1 10 2 11 3 12 4 13 5 14 6 15 7 16 8 17 9 18 10 19 11 8 12
REMARK SMILES IDX 7 13 6 14 5 15 4 16 3 17 2 18 1 19
REMARK H PARENT
REMARK Flexibility Score: inf
ROOT
ATOM      1  C   UNL     1     -43.998 -36.073  20.673  1.00  0.00     0.000 C 
ENDROOT
BRANCH   1   2
ATOM      2  C   UNL     1     -45.365 -36.124  21.371  1.00  0.00     0.000 C 
BRANCH   2   3
ATOM      3  C   UNL     1     -45.541 -34.931  22.323  1.00  0.00     0.000 C 
BRANCH   3   4
ATOM      4  C   UNL     1     -44.267 -34.079  22.443  1.00  0.00     0.000 C 
BRANCH   4   5
ATOM      5  C   UNL     1     -44.413 -32.937  23.463  1.00  0.00     0.001 C 
BRANCH   5   6
ATOM      6  C   UNL     1     -43.261 -32.888  24.483  1.00  0.00     0.009 C 
BRANCH   6   7
ATOM      7  C   UNL     1     -43.736 -32.717  25.953  1.00  0.00     0.032 C 
ATOM      8  C   UNL     1     -45.144 -33.290  26.169  1.00  0.00     0.014 C 
BRANCH   7   9
ATOM      9  C   UNL     1     -42.775 -33.380  26.904  1.00  0.00     0.044 C 
ATOM     10  O   UNL     1     -41.553 -33.078  26.893  1.00  0.00    -0.550 OA
ATOM     11  O   UNL     1     -43.237 -34.332  27.805  1.00  0.00    -0.550 OA
ENDBRANCH   7   9
ENDBRANCH   6   7
ENDBRANCH   5   6
ENDBRANCH   4   5
ENDBRANCH   3   4
ENDBRANCH   2   3
ENDBRANCH   1   2
BRANCH   1  12
ATOM     12  C   UNL     1     -43.926 -36.977  19.430  1.00  0.00     0.000 C 
BRANCH  12  13
ATOM     13  C   UNL     1     -45.212 -37.024  18.580  1.00  0.00    -0.000 C 
BRANCH  13  14
ATOM     14  C   UNL     1     -45.002 -36.846  17.066  1.00  0.00    -0.000 C 
BRANCH  14  15
ATOM     15  C   UNL     1     -44.802 -38.181  16.332  1.00  0.00    -0.000 C 
BRANCH  15  16
ATOM     16  C   UNL     1     -43.837 -38.020  15.150  1.00  0.00    -0.000 C 
BRANCH  16  17
ATOM     17  C   UNL     1     -44.522 -38.209  13.786  1.00  0.00    -0.000 C 
BRANCH  17  18
ATOM     18  C   UNL     1     -44.579 -36.921  12.939  1.00  0.00    -0.003 C 
ATOM     19  C   UNL     1     -45.608 -35.921  13.467  1.00  0.00     0.004 C 
ENDBRANCH  17  18
ENDBRANCH  16  17
ENDBRANCH  15  16
ENDBRANCH  14  15
ENDBRANCH  13  14
ENDBRANCH  12  13
ENDBRANCH   1  12
TORSDOF 14
ENDMDL
