MODEL 1
REMARK VINA RESULT:    -3.421      0.000      0.000
REMARK INTER + INTRA:          -5.556
REMARK INTER:                  -5.221
REMARK INTRA:                  -0.335
REMARK UNBOUND:                -0.335
REMARK SMILES CC1=CCC[C@H](C)C(=O)C[C@H](C(C)C)C(=O)C1
REMARK SMILES IDX 8 1 9 2 6 3 7 4 5 5 4 6 3 7 2 8 1 9 10 11 11 12 15 13 16 14
REMARK SMILES IDX 17 15 12 17 13 18 14 19
REMARK H PARENT
REMARK Flexibility Score: 70.00
ROOT
ATOM      1  C   UNL     1      80.972  -5.585  27.313  1.00  0.00     0.136 C 
ATOM      2  O   UNL     1      80.307  -5.146  26.384  1.00  0.00    -0.299 OA
ENDROOT
BRANCH   1   3
ATOM      3  C   UNL     1      80.830  -4.946  28.697  1.00  0.00     0.053 C 
ATOM      4  C   UNL     1      81.301  -3.482  28.708  1.00  0.00     0.016 C 
BRANCH   3   5
ATOM      5  C   UNL     1      79.375  -5.032  29.243  1.00  0.00     0.015 C 
BRANCH   5   6
ATOM      6  C   UNL     1      78.805  -6.454  29.436  1.00  0.00     0.028 C 
BRANCH   6   7
ATOM      7  C   UNL     1      77.804  -6.974  28.423  1.00  0.00    -0.028 C 
ATOM      8  C   UNL     1      77.962  -8.008  27.558  1.00  0.00    -0.070 CG0
ATOM      9  C   UNL     1      76.885  -8.219  26.523  1.00  0.00     0.039 C 
ATOM     10  G   UNL     1      79.088  -9.028  27.629  1.00  0.00     0.000 G0
ENDBRANCH   6   7
ENDBRANCH   5   6
ENDBRANCH   3   5
ENDBRANCH   1   3
BRANCH   1  11
ATOM     11  C   UNL     1      81.980  -6.687  26.999  1.00  0.00     0.087 C 
BRANCH  11  12
ATOM     12  C   UNL     1      81.580  -8.098  27.503  1.00  0.00     0.066 C 
BRANCH  12  13
ATOM     13  C   UNL     1      80.309  -8.609  26.842  1.00  0.00     0.140 C 
ATOM     14  O   UNL     1      80.248  -8.583  25.620  1.00  0.00    -0.299 OA
BRANCH  13  15
ATOM     15  C   UNL     1      79.090  -9.045  27.638  1.00  0.00     0.106 CG0
ATOM     16  G   UNL     1      77.983  -8.005  27.567  1.00  0.00     0.000 G0
ENDBRANCH  13  15
ENDBRANCH  12  13
BRANCH  12  17
ATOM     17  C   UNL     1      82.733  -9.140  27.339  1.00  0.00    -0.006 C 
ATOM     18  C   UNL     1      83.071  -9.818  28.681  1.00  0.00     0.008 C 
ATOM     19  C   UNL     1      84.017  -8.512  26.766  1.00  0.00     0.008 C 
ENDBRANCH  12  17
ENDBRANCH  11  12
ENDBRANCH   1  11
TORSDOF 1
ENDMDL
MODEL 2
REMARK VINA RESULT:    -3.369     10.850     12.996
REMARK INTER + INTRA:          -5.477
REMARK INTER:                  -5.540
REMARK INTRA:                   0.063
REMARK UNBOUND:                -0.335
REMARK SMILES CC1=CCC[C@H](C)C(=O)C[C@H](C(C)C)C(=O)C1
REMARK SMILES IDX 8 1 9 2 6 3 7 4 5 5 4 6 3 7 2 8 1 9 10 11 11 12 15 13 16 14
REMARK SMILES IDX 17 15 12 17 13 18 14 19
REMARK H PARENT
REMARK Flexibility Score: 70.00
ROOT
ATOM      1  C   UNL     1      82.450   5.216  30.107  1.00  0.00     0.136 C 
ATOM      2  O   UNL     1      82.804   6.316  30.510  1.00  0.00    -0.299 OA
ENDROOT
BRANCH   1   3
ATOM      3  C   UNL     1      82.522   4.017  31.056  1.00  0.00     0.053 C 
ATOM      4  C   UNL     1      81.777   4.280  32.376  1.00  0.00     0.016 C 
BRANCH   3   5
ATOM      5  C   UNL     1      81.984   2.711  30.403  1.00  0.00     0.015 C 
BRANCH   5   6
ATOM      6  C   UNL     1      82.990   1.917  29.543  1.00  0.00     0.028 C 
BRANCH   6   7
ATOM      7  C   UNL     1      84.390   2.472  29.370  1.00  0.00    -0.028 C 
ATOM      8  C   UNL     1      84.905   3.096  28.280  1.00  0.00    -0.070 CG0
ATOM      9  C   UNL     1      86.383   3.399  28.287  1.00  0.00     0.039 C 
ATOM     10  G   UNL     1      84.082   3.607  27.109  1.00  0.00     0.000 G0
ENDBRANCH   6   7
ENDBRANCH   5   6
ENDBRANCH   3   5
ENDBRANCH   1   3
BRANCH   1  11
ATOM     11  C   UNL     1      82.051   5.099  28.639  1.00  0.00     0.087 C 
BRANCH  11  12
ATOM     12  C   UNL     1      82.919   5.930  27.659  1.00  0.00     0.066 C 
BRANCH  12  13
ATOM     13  C   UNL     1      84.033   5.106  27.032  1.00  0.00     0.140 C 
ATOM     14  O   UNL     1      84.881   5.694  26.375  1.00  0.00    -0.299 OA
BRANCH  13  15
ATOM     15  C   UNL     1      84.068   3.588  27.102  1.00  0.00     0.106 CG0
ATOM     16  G   UNL     1      84.901   3.109  28.280  1.00  0.00     0.000 G0
ENDBRANCH  13  15
ENDBRANCH  12  13
BRANCH  12  17
ATOM     17  C   UNL     1      82.067   6.624  26.548  1.00  0.00    -0.006 C 
ATOM     18  C   UNL     1      81.006   7.561  27.158  1.00  0.00     0.008 C 
ATOM     19  C   UNL     1      81.361   5.611  25.628  1.00  0.00     0.008 C 
ENDBRANCH  12  17
ENDBRANCH  11  12
ENDBRANCH   1  11
TORSDOF 1
ENDMDL
MODEL 3
REMARK VINA RESULT:    -3.319      1.578      1.790
REMARK INTER + INTRA:          -5.400
REMARK INTER:                  -5.135
REMARK INTRA:                  -0.265
REMARK UNBOUND:                -0.335
REMARK SMILES CC1=CCC[C@H](C)C(=O)C[C@H](C(C)C)C(=O)C1
REMARK SMILES IDX 8 1 9 2 6 3 7 4 5 5 4 6 3 7 2 8 1 9 10 11 11 12 15 13 16 14
REMARK SMILES IDX 17 15 12 17 13 18 14 19
REMARK H PARENT
REMARK Flexibility Score: 70.00
ROOT
ATOM      1  C   UNL     1      81.197  -5.834  27.377  1.00  0.00     0.136 C 
ATOM      2  O   UNL     1      81.725  -4.943  26.726  1.00  0.00    -0.299 OA
ENDROOT
BRANCH   1   3
ATOM      3  C   UNL     1      80.211  -5.461  28.487  1.00  0.00     0.053 C 
ATOM      4  C   UNL     1      80.529  -4.088  29.104  1.00  0.00     0.016 C 
BRANCH   3   5
ATOM      5  C   UNL     1      78.733  -5.486  28.000  1.00  0.00     0.015 C 
BRANCH   5   6
ATOM      6  C   UNL     1      78.522  -5.603  26.475  1.00  0.00     0.028 C 
BRANCH   6   7
ATOM      7  C   UNL     1      77.653  -6.728  25.950  1.00  0.00    -0.028 C 
ATOM      8  C   UNL     1      78.059  -7.915  25.430  1.00  0.00    -0.070 CG0
ATOM      9  C   UNL     1      77.005  -8.798  24.809  1.00  0.00     0.039 C 
ATOM     10  G   UNL     1      79.475  -8.461  25.528  1.00  0.00     0.000 G0
ENDBRANCH   6   7
ENDBRANCH   5   6
ENDBRANCH   3   5
ENDBRANCH   1   3
BRANCH   1  11
ATOM     11  C   UNL     1      81.640  -7.267  27.099  1.00  0.00     0.087 C 
BRANCH  11  12
ATOM     12  C   UNL     1      80.819  -8.357  27.835  1.00  0.00     0.066 C 
BRANCH  12  13
ATOM     13  C   UNL     1      79.769  -8.995  26.938  1.00  0.00     0.140 C 
ATOM     14  O   UNL     1      79.214 -10.010  27.336  1.00  0.00    -0.299 OA
BRANCH  13  15
ATOM     15  C   UNL     1      79.468  -8.484  25.539  1.00  0.00     0.106 CG0
ATOM     16  G   UNL     1      78.058  -7.923  25.447  1.00  0.00     0.000 G0
ENDBRANCH  13  15
ENDBRANCH  12  13
BRANCH  12  17
ATOM     17  C   UNL     1      81.725  -9.458  28.475  1.00  0.00    -0.006 C 
ATOM     18  C   UNL     1      81.757  -9.335  30.011  1.00  0.00     0.008 C 
ATOM     19  C   UNL     1      83.170  -9.412  27.946  1.00  0.00     0.008 C 
ENDBRANCH  12  17
ENDBRANCH  11  12
ENDBRANCH   1  11
TORSDOF 1
ENDMDL
MODEL 4
REMARK VINA RESULT:    -3.071     10.425     12.442
REMARK INTER + INTRA:          -5.022
REMARK INTER:                  -5.554
REMARK INTRA:                   0.532
REMARK UNBOUND:                -0.335
REMARK SMILES CC1=CCC[C@H](C)C(=O)C[C@H](C(C)C)C(=O)C1
REMARK SMILES IDX 8 1 9 2 6 3 7 4 5 5 4 6 3 7 2 8 1 9 10 11 11 12 15 13 16 14
REMARK SMILES IDX 17 15 12 17 13 18 14 19
REMARK H PARENT
REMARK Flexibility Score: 70.00
ROOT
ATOM      1  C   UNL     1      82.457   5.964  28.929  1.00  0.00     0.136 C 
ATOM      2  O   UNL     1      82.106   6.944  29.572  1.00  0.00    -0.299 OA
ENDROOT
BRANCH   1   3
ATOM      3  C   UNL     1      82.094   5.881  27.443  1.00  0.00     0.053 C 
ATOM      4  C   UNL     1      80.980   6.872  27.065  1.00  0.00     0.016 C 
BRANCH   3   5
ATOM      5  C   UNL     1      83.326   6.099  26.518  1.00  0.00     0.015 C 
BRANCH   5   6
ATOM      6  C   UNL     1      83.992   4.823  25.960  1.00  0.00     0.028 C 
BRANCH   6   7
ATOM      7  C   UNL     1      84.969   4.072  26.843  1.00  0.00    -0.028 C 
ATOM      8  C   UNL     1      84.690   3.100  27.747  1.00  0.00    -0.070 CG0
ATOM      9  C   UNL     1      85.818   2.630  28.633  1.00  0.00     0.039 C 
ATOM     10  G   UNL     1      83.356   2.377  27.854  1.00  0.00     0.000 G0
ENDBRANCH   6   7
ENDBRANCH   5   6
ENDBRANCH   3   5
ENDBRANCH   1   3
BRANCH   1  11
ATOM     11  C   UNL     1      83.154   4.838  29.684  1.00  0.00     0.087 C 
BRANCH  11  12
ATOM     12  C   UNL     1      82.272   3.590  29.952  1.00  0.00     0.066 C 
BRANCH  12  13
ATOM     13  C   UNL     1      82.805   2.346  29.257  1.00  0.00     0.140 C 
ATOM     14  O   UNL     1      82.869   1.310  29.904  1.00  0.00    -0.299 OA
BRANCH  13  15
ATOM     15  C   UNL     1      83.352   2.371  27.839  1.00  0.00     0.106 CG0
ATOM     16  G   UNL     1      84.684   3.102  27.773  1.00  0.00     0.000 G0
ENDBRANCH  13  15
ENDBRANCH  12  13
BRANCH  12  17
ATOM     17  C   UNL     1      82.074   3.314  31.477  1.00  0.00    -0.006 C 
ATOM     18  C   UNL     1      80.729   2.614  31.750  1.00  0.00     0.008 C 
ATOM     19  C   UNL     1      82.142   4.600  32.321  1.00  0.00     0.008 C 
ENDBRANCH  12  17
ENDBRANCH  11  12
ENDBRANCH   1  11
TORSDOF 1
ENDMDL
MODEL 5
REMARK VINA RESULT:    -2.899     10.677     12.973
REMARK INTER + INTRA:          -4.760
REMARK INTER:                  -4.622
REMARK INTRA:                  -0.138
REMARK UNBOUND:                -0.335
REMARK SMILES CC1=CCC[C@H](C)C(=O)C[C@H](C(C)C)C(=O)C1
REMARK SMILES IDX 8 1 9 2 6 3 7 4 5 5 4 6 3 7 2 8 1 9 10 11 11 12 15 13 16 14
REMARK SMILES IDX 17 15 12 17 13 18 14 19
REMARK H PARENT
REMARK Flexibility Score: 70.00
ROOT
ATOM      1  C   UNL     1      84.568   4.904  26.371  1.00  0.00     0.136 C 
ATOM      2  O   UNL     1      84.675   5.215  25.193  1.00  0.00    -0.299 OA
ENDROOT
BRANCH   1   3
ATOM      3  C   UNL     1      84.823   3.451  26.783  1.00  0.00     0.053 C 
ATOM      4  C   UNL     1      85.777   3.352  27.986  1.00  0.00     0.016 C 
BRANCH   3   5
ATOM      5  C   UNL     1      83.505   2.684  27.095  1.00  0.00     0.015 C 
BRANCH   5   6
ATOM      6  C   UNL     1      83.480   1.885  28.415  1.00  0.00     0.028 C 
BRANCH   6   7
ATOM      7  C   UNL     1      82.441   2.246  29.458  1.00  0.00    -0.028 C 
ATOM      8  C   UNL     1      82.473   3.279  30.337  1.00  0.00    -0.070 CG0
ATOM      9  C   UNL     1      81.402   3.323  31.399  1.00  0.00     0.039 C 
ATOM     10  G   UNL     1      83.442   4.449  30.259  1.00  0.00     0.000 G0
ENDBRANCH   6   7
ENDBRANCH   5   6
ENDBRANCH   3   5
ENDBRANCH   1   3
BRANCH   1  11
ATOM     11  C   UNL     1      84.089   5.977  27.343  1.00  0.00     0.087 C 
BRANCH  11  12
ATOM     12  C   UNL     1      82.713   5.693  28.001  1.00  0.00     0.066 C 
BRANCH  12  13
ATOM     13  C   UNL     1      82.800   5.630  29.518  1.00  0.00     0.140 C 
ATOM     14  O   UNL     1      82.429   6.606  30.155  1.00  0.00    -0.299 OA
BRANCH  13  15
ATOM     15  C   UNL     1      83.422   4.455  30.254  1.00  0.00     0.106 CG0
ATOM     16  G   UNL     1      82.465   3.276  30.322  1.00  0.00     0.000 G0
ENDBRANCH  13  15
ENDBRANCH  12  13
BRANCH  12  17
ATOM     17  C   UNL     1      81.619   6.719  27.563  1.00  0.00    -0.006 C 
ATOM     18  C   UNL     1      80.285   6.014  27.246  1.00  0.00     0.008 C 
ATOM     19  C   UNL     1      82.043   7.547  26.337  1.00  0.00     0.008 C 
ENDBRANCH  12  17
ENDBRANCH  11  12
ENDBRANCH   1  11
TORSDOF 1
ENDMDL
MODEL 6
REMARK VINA RESULT:    -2.756      2.074      2.517
REMARK INTER + INTRA:          -4.541
REMARK INTER:                  -4.685
REMARK INTRA:                   0.143
REMARK UNBOUND:                -0.335
REMARK SMILES CC1=CCC[C@H](C)C(=O)C[C@H](C(C)C)C(=O)C1
REMARK SMILES IDX 8 1 9 2 6 3 7 4 5 5 4 6 3 7 2 8 1 9 10 11 11 12 15 13 16 14
REMARK SMILES IDX 17 15 12 17 13 18 14 19
REMARK H PARENT
REMARK Flexibility Score: 70.00
ROOT
ATOM      1  C   UNL     1      81.232  -6.906  27.676  1.00  0.00     0.136 C 
ATOM      2  O   UNL     1      81.059  -7.497  28.734  1.00  0.00    -0.299 OA
ENDROOT
BRANCH   1   3
ATOM      3  C   UNL     1      80.440  -5.625  27.401  1.00  0.00     0.053 C 
ATOM      4  C   UNL     1      81.346  -4.382  27.375  1.00  0.00     0.016 C 
BRANCH   3   5
ATOM      5  C   UNL     1      79.623  -5.705  26.079  1.00  0.00     0.015 C 
BRANCH   5   6
ATOM      6  C   UNL     1      78.551  -6.814  26.009  1.00  0.00     0.028 C 
BRANCH   6   7
ATOM      7  C   UNL     1      78.517  -7.710  24.787  1.00  0.00    -0.028 C 
ATOM      8  C   UNL     1      79.133  -8.908  24.620  1.00  0.00    -0.070 CG0
ATOM      9  C   UNL     1      79.093  -9.525  23.244  1.00  0.00     0.039 C 
ATOM     10  G   UNL     1      79.764  -9.718  25.743  1.00  0.00     0.000 G0
ENDBRANCH   6   7
ENDBRANCH   5   6
ENDBRANCH   3   5
ENDBRANCH   1   3
BRANCH   1  11
ATOM     11  C   UNL     1      82.164  -7.550  26.654  1.00  0.00     0.087 C 
BRANCH  11  12
ATOM     12  C   UNL     1      82.182  -9.101  26.675  1.00  0.00     0.066 C 
BRANCH  12  13
ATOM     13  C   UNL     1      81.282  -9.705  25.608  1.00  0.00     0.140 C 
ATOM     14  O   UNL     1      81.806 -10.116  24.582  1.00  0.00    -0.299 OA
BRANCH  13  15
ATOM     15  C   UNL     1      79.767  -9.716  25.725  1.00  0.00     0.106 CG0
ATOM     16  G   UNL     1      79.121  -8.903  24.614  1.00  0.00     0.000 G0
ENDBRANCH  13  15
ENDBRANCH  12  13
BRANCH  12  17
ATOM     17  C   UNL     1      83.628  -9.682  26.557  1.00  0.00    -0.006 C 
ATOM     18  C   UNL     1      84.197 -10.055  27.940  1.00  0.00     0.008 C 
ATOM     19  C   UNL     1      84.601  -8.707  25.870  1.00  0.00     0.008 C 
ENDBRANCH  12  17
ENDBRANCH  11  12
ENDBRANCH   1  11
TORSDOF 1
ENDMDL
MODEL 7
REMARK VINA RESULT:    -2.723      1.865      3.895
REMARK INTER + INTRA:          -4.491
REMARK INTER:                  -4.188
REMARK INTRA:                  -0.303
REMARK UNBOUND:                -0.335
REMARK SMILES CC1=CCC[C@H](C)C(=O)C[C@H](C(C)C)C(=O)C1
REMARK SMILES IDX 8 1 9 2 6 3 7 4 5 5 4 6 3 7 2 8 1 9 10 11 11 12 15 13 16 14
REMARK SMILES IDX 17 15 12 17 13 18 14 19
REMARK H PARENT
REMARK Flexibility Score: 70.00
ROOT
ATOM      1  C   UNL     1      78.211  -6.672  26.212  1.00  0.00     0.136 C 
ATOM      2  O   UNL     1      77.625  -5.597  26.216  1.00  0.00    -0.299 OA
ENDROOT
BRANCH   1   3
ATOM      3  C   UNL     1      77.402  -7.961  26.385  1.00  0.00     0.053 C 
ATOM      4  C   UNL     1      78.057  -9.153  25.667  1.00  0.00     0.016 C 
BRANCH   3   5
ATOM      5  C   UNL     1      77.164  -8.316  27.881  1.00  0.00     0.015 C 
BRANCH   5   6
ATOM      6  C   UNL     1      77.887  -9.576  28.404  1.00  0.00     0.028 C 
BRANCH   6   7
ATOM      7  C   UNL     1      78.983  -9.404  29.437  1.00  0.00    -0.028 C 
ATOM      8  C   UNL     1      80.324  -9.443  29.237  1.00  0.00    -0.070 CG0
ATOM      9  C   UNL     1      81.210  -9.424  30.458  1.00  0.00     0.039 C 
ATOM     10  G   UNL     1      80.995  -9.395  27.873  1.00  0.00     0.000 G0
ENDBRANCH   6   7
ENDBRANCH   5   6
ENDBRANCH   3   5
ENDBRANCH   1   3
BRANCH   1  11
ATOM     11  C   UNL     1      79.733  -6.644  26.132  1.00  0.00     0.087 C 
BRANCH  11  12
ATOM     12  C   UNL     1      80.460  -6.792  27.494  1.00  0.00     0.066 C 
BRANCH  12  13
ATOM     13  C   UNL     1      81.435  -7.959  27.505  1.00  0.00     0.140 C 
ATOM     14  O   UNL     1      82.579  -7.755  27.122  1.00  0.00    -0.299 OA
BRANCH  13  15
ATOM     15  C   UNL     1      81.015  -9.374  27.869  1.00  0.00     0.106 CG0
ATOM     16  G   UNL     1      80.330  -9.416  29.226  1.00  0.00     0.000 G0
ENDBRANCH  13  15
ENDBRANCH  12  13
BRANCH  12  17
ATOM     17  C   UNL     1      81.184  -5.478  27.931  1.00  0.00    -0.006 C 
ATOM     18  C   UNL     1      80.325  -4.667  28.920  1.00  0.00     0.008 C 
ATOM     19  C   UNL     1      81.542  -4.577  26.734  1.00  0.00     0.008 C 
ENDBRANCH  12  17
ENDBRANCH  11  12
ENDBRANCH   1  11
TORSDOF 1
ENDMDL
MODEL 8
REMARK VINA RESULT:    -2.672      2.055      4.869
REMARK INTER + INTRA:          -4.413
REMARK INTER:                  -4.325
REMARK INTRA:                  -0.088
REMARK UNBOUND:                -0.335
REMARK SMILES CC1=CCC[C@H](C)C(=O)C[C@H](C(C)C)C(=O)C1
REMARK SMILES IDX 8 1 9 2 6 3 7 4 5 5 4 6 3 7 2 8 1 9 10 11 11 12 15 13 16 14
REMARK SMILES IDX 17 15 12 17 13 18 14 19
REMARK H PARENT
REMARK Flexibility Score: 70.00
ROOT
ATOM      1  C   UNL     1      78.068  -6.824  25.789  1.00  0.00     0.136 C 
ATOM      2  O   UNL     1      77.066  -6.128  25.695  1.00  0.00    -0.299 OA
ENDROOT
BRANCH   1   3
ATOM      3  C   UNL     1      77.980  -8.310  25.431  1.00  0.00     0.053 C 
ATOM      4  C   UNL     1      76.773  -8.614  24.527  1.00  0.00     0.016 C 
BRANCH   3   5
ATOM      5  C   UNL     1      79.281  -8.838  24.762  1.00  0.00     0.015 C 
BRANCH   5   6
ATOM      6  C   UNL     1      80.152  -9.782  25.619  1.00  0.00     0.028 C 
BRANCH   6   7
ATOM      7  C   UNL     1      81.659  -9.698  25.482  1.00  0.00    -0.028 C 
ATOM      8  C   UNL     1      82.524  -9.001  26.261  1.00  0.00    -0.070 CG0
ATOM      9  C   UNL     1      83.964  -8.933  25.813  1.00  0.00     0.039 C 
ATOM     10  G   UNL     1      82.170  -8.379  27.603  1.00  0.00     0.000 G0
ENDBRANCH   6   7
ENDBRANCH   5   6
ENDBRANCH   3   5
ENDBRANCH   1   3
BRANCH   1  11
ATOM     11  C   UNL     1      79.326  -6.174  26.356  1.00  0.00     0.087 C 
BRANCH  11  12
ATOM     12  C   UNL     1      79.947  -6.908  27.572  1.00  0.00     0.066 C 
BRANCH  12  13
ATOM     13  C   UNL     1      81.456  -7.057  27.450  1.00  0.00     0.140 C 
ATOM     14  O   UNL     1      82.105  -6.073  27.121  1.00  0.00    -0.299 OA
BRANCH  13  15
ATOM     15  C   UNL     1      82.164  -8.392  27.613  1.00  0.00     0.106 CG0
ATOM     16  G   UNL     1      82.544  -8.985  26.266  1.00  0.00     0.000 G0
ENDBRANCH  13  15
ENDBRANCH  12  13
BRANCH  12  17
ATOM     17  C   UNL     1      79.579  -6.230  28.931  1.00  0.00    -0.006 C 
ATOM     18  C   UNL     1      78.417  -6.965  29.627  1.00  0.00     0.008 C 
ATOM     19  C   UNL     1      79.198  -4.748  28.766  1.00  0.00     0.008 C 
ENDBRANCH  12  17
ENDBRANCH  11  12
ENDBRANCH   1  11
TORSDOF 1
ENDMDL
MODEL 9
REMARK VINA RESULT:    -2.513      1.607      3.950
REMARK INTER + INTRA:          -4.171
REMARK INTER:                  -4.362
REMARK INTRA:                   0.191
REMARK UNBOUND:                -0.335
REMARK SMILES CC1=CCC[C@H](C)C(=O)C[C@H](C(C)C)C(=O)C1
REMARK SMILES IDX 8 1 9 2 6 3 7 4 5 5 4 6 3 7 2 8 1 9 10 11 11 12 15 13 16 14
REMARK SMILES IDX 17 15 12 17 13 18 14 19
REMARK H PARENT
REMARK Flexibility Score: 70.00
ROOT
ATOM      1  C   UNL     1      78.545  -5.975  27.507  1.00  0.00     0.136 C 
ATOM      2  O   UNL     1      78.053  -5.777  26.404  1.00  0.00    -0.299 OA
ENDROOT
BRANCH   1   3
ATOM      3  C   UNL     1      79.730  -5.116  27.958  1.00  0.00     0.053 C 
ATOM      4  C   UNL     1      80.046  -5.308  29.452  1.00  0.00     0.016 C 
BRANCH   3   5
ATOM      5  C   UNL     1      81.010  -5.381  27.114  1.00  0.00     0.015 C 
BRANCH   5   6
ATOM      6  C   UNL     1      81.836  -6.626  27.503  1.00  0.00     0.028 C 
BRANCH   6   7
ATOM      7  C   UNL     1      82.005  -7.731  26.479  1.00  0.00    -0.028 C 
ATOM      8  C   UNL     1      81.390  -8.940  26.456  1.00  0.00    -0.070 CG0
ATOM      9  C   UNL     1      81.861  -9.940  25.428  1.00  0.00     0.039 C 
ATOM     10  G   UNL     1      80.193  -9.317  27.315  1.00  0.00     0.000 G0
ENDBRANCH   6   7
ENDBRANCH   5   6
ENDBRANCH   3   5
ENDBRANCH   1   3
BRANCH   1  11
ATOM     11  C   UNL     1      77.999  -7.142  28.323  1.00  0.00     0.087 C 
BRANCH  11  12
ATOM     12  C   UNL     1      77.689  -8.421  27.504  1.00  0.00     0.066 C 
BRANCH  12  13
ATOM     13  C   UNL     1      78.881  -8.884  26.680  1.00  0.00     0.140 C 
ATOM     14  O   UNL     1      78.741  -8.975  25.468  1.00  0.00    -0.299 OA
BRANCH  13  15
ATOM     15  C   UNL     1      80.188  -9.333  27.312  1.00  0.00     0.106 CG0
ATOM     16  G   UNL     1      81.381  -8.938  26.456  1.00  0.00     0.000 G0
ENDBRANCH  13  15
ENDBRANCH  12  13
BRANCH  12  17
ATOM     17  C   UNL     1      77.162  -9.590  28.397  1.00  0.00    -0.006 C 
ATOM     18  C   UNL     1      75.622  -9.620  28.429  1.00  0.00     0.008 C 
ATOM     19  C   UNL     1      77.684  -9.507  29.843  1.00  0.00     0.008 C 
ENDBRANCH  12  17
ENDBRANCH  11  12
ENDBRANCH   1  11
TORSDOF 1
ENDMDL
