MODEL 1
REMARK VINA RESULT:    -7.314      0.000      0.000
REMARK INTER + INTRA:          -7.956
REMARK INTER:                  -7.956
REMARK INTRA:                   0.000
REMARK UNBOUND:                 0.000
REMARK SMILES Cc1cc(O)c2c(c1)C(=O)c1cc(O)cc(O)c1C2=O
REMARK SMILES IDX 1 1 2 2 8 3 7 4 6 5 4 6 3 7 19 8 20 9 18 10 11 11 9 12 10 13
REMARK SMILES IDX 12 14 13 15 15 16 16 17 5 18 17 20 14 22
REMARK H PARENT 5 19 17 21 14 23
REMARK Flexibility Score: inf
ROOT
ATOM      1  C   UNL     1      19.894 -13.875 -13.876  1.00  0.00     0.044 C 
ATOM      2  C   UNL     1      20.728 -14.764 -12.999  1.00  0.00    -0.047 A 
ATOM      3  C   UNL     1      20.463 -16.136 -12.935  1.00  0.00     0.016 A 
ATOM      4  C   UNL     1      21.257 -16.980 -12.138  1.00  0.00     0.038 A 
ATOM      5  C   UNL     1      22.330 -16.443 -11.395  1.00  0.00     0.076 A 
ATOM      6  C   UNL     1      22.645 -15.066 -11.532  1.00  0.00     0.127 A 
ATOM      7  C   UNL     1      21.830 -14.242 -12.314  1.00  0.00     0.050 A 
ATOM      8  C   UNL     1      23.051 -17.338 -10.453  1.00  0.00     0.201 C 
ATOM      9  O   UNL     1      23.573 -16.860  -9.410  1.00  0.00    -0.288 OA
ATOM     10  C   UNL     1      22.993 -18.810 -10.644  1.00  0.00     0.076 A 
ATOM     11  C   UNL     1      21.918 -19.344 -11.390  1.00  0.00     0.041 A 
ATOM     12  C   UNL     1      20.974 -18.435 -12.081  1.00  0.00     0.194 C 
ATOM     13  O   UNL     1      19.944 -18.901 -12.641  1.00  0.00    -0.289 OA
ATOM     14  C   UNL     1      21.751 -20.738 -11.476  1.00  0.00     0.059 A 
ATOM     15  C   UNL     1      22.650 -21.599 -10.843  1.00  0.00     0.120 A 
ATOM     16  C   UNL     1      23.735 -21.076 -10.139  1.00  0.00     0.093 A 
ATOM     17  C   UNL     1      23.934 -19.694 -10.055  1.00  0.00     0.131 A 
ENDROOT
BRANCH   6  18
ATOM     18  O   UNL     1      23.771 -14.487 -10.942  1.00  0.00    -0.507 OA
ATOM     19  H   UNL     1      23.777 -14.107 -10.006  1.00  0.00     0.293 HD
ENDBRANCH   6  18
BRANCH  17  20
ATOM     20  O   UNL     1      25.091 -19.248  -9.412  1.00  0.00    -0.507 OA
ATOM     21  H   UNL     1      25.220 -19.276  -8.411  1.00  0.00     0.293 HD
ENDBRANCH  17  20
BRANCH  15  22
ATOM     22  O   UNL     1      22.482 -22.980 -10.916  1.00  0.00    -0.508 OA
ATOM     23  H   UNL     1      22.283 -23.535 -10.091  1.00  0.00     0.293 HD
ENDBRANCH  15  22
TORSDOF 3
ENDMDL
MODEL 2
REMARK VINA RESULT:    -7.118      1.791      5.291
REMARK INTER + INTRA:          -7.743
REMARK INTER:                  -7.743
REMARK INTRA:                   0.000
REMARK UNBOUND:                 0.000
REMARK SMILES Cc1cc(O)c2c(c1)C(=O)c1cc(O)cc(O)c1C2=O
REMARK SMILES IDX 1 1 2 2 8 3 7 4 6 5 4 6 3 7 19 8 20 9 18 10 11 11 9 12 10 13
REMARK SMILES IDX 12 14 13 15 15 16 16 17 5 18 17 20 14 22
REMARK H PARENT 5 19 17 21 14 23
REMARK Flexibility Score: inf
ROOT
ATOM      1  C   UNL     1      19.827 -22.605 -14.634  1.00  0.00     0.044 C 
ATOM      2  C   UNL     1      20.573 -21.886 -13.547  1.00  0.00    -0.047 A 
ATOM      3  C   UNL     1      20.590 -20.487 -13.514  1.00  0.00     0.016 A 
ATOM      4  C   UNL     1      21.262 -19.806 -12.484  1.00  0.00     0.038 A 
ATOM      5  C   UNL     1      21.926 -20.535 -11.473  1.00  0.00     0.076 A 
ATOM      6  C   UNL     1      21.832 -21.950 -11.467  1.00  0.00     0.127 A 
ATOM      7  C   UNL     1      21.176 -22.607 -12.512  1.00  0.00     0.050 A 
ATOM      8  C   UNL     1      22.747 -19.783 -10.489  1.00  0.00     0.201 C 
ATOM      9  O   UNL     1      23.759 -20.328  -9.971  1.00  0.00    -0.288 OA
ATOM     10  C   UNL     1      22.486 -18.339 -10.260  1.00  0.00     0.076 A 
ATOM     11  C   UNL     1      21.818 -17.613 -11.272  1.00  0.00     0.041 A 
ATOM     12  C   UNL     1      21.269 -18.323 -12.451  1.00  0.00     0.194 C 
ATOM     13  O   UNL     1      20.786 -17.668 -13.415  1.00  0.00    -0.289 OA
ATOM     14  C   UNL     1      21.675 -16.219 -11.154  1.00  0.00     0.059 A 
ATOM     15  C   UNL     1      22.174 -15.548 -10.035  1.00  0.00     0.120 A 
ATOM     16  C   UNL     1      22.797 -16.266  -9.015  1.00  0.00     0.093 A 
ATOM     17  C   UNL     1      22.935 -17.656  -9.099  1.00  0.00     0.131 A 
ENDROOT
BRANCH   6  18
ATOM     18  O   UNL     1      22.342 -22.736 -10.430  1.00  0.00    -0.507 OA
ATOM     19  H   UNL     1      21.827 -23.486  -9.993  1.00  0.00     0.293 HD
ENDBRANCH   6  18
BRANCH  17  20
ATOM     20  O   UNL     1      23.487 -18.316  -7.999  1.00  0.00    -0.507 OA
ATOM     21  H   UNL     1      22.935 -18.792  -7.299  1.00  0.00     0.293 HD
ENDBRANCH  17  20
BRANCH  15  22
ATOM     22  O   UNL     1      22.045 -14.165  -9.920  1.00  0.00    -0.508 OA
ATOM     23  H   UNL     1      22.817 -13.584  -9.615  1.00  0.00     0.293 HD
ENDBRANCH  15  22
TORSDOF 3
ENDMDL
MODEL 3
REMARK VINA RESULT:    -6.751      2.110      3.349
REMARK INTER + INTRA:          -7.343
REMARK INTER:                  -7.343
REMARK INTRA:                   0.000
REMARK UNBOUND:                 0.000
REMARK SMILES Cc1cc(O)c2c(c1)C(=O)c1cc(O)cc(O)c1C2=O
REMARK SMILES IDX 1 1 2 2 8 3 7 4 6 5 4 6 3 7 19 8 20 9 18 10 11 11 9 12 10 13
REMARK SMILES IDX 12 14 13 15 15 16 16 17 5 18 17 20 14 22
REMARK H PARENT 5 19 17 21 14 23
REMARK Flexibility Score: inf
ROOT
ATOM      1  C   UNL     1      22.099 -14.709  -9.785  1.00  0.00     0.044 C 
ATOM      2  C   UNL     1      22.420 -16.153 -10.044  1.00  0.00    -0.047 A 
ATOM      3  C   UNL     1      21.588 -16.921 -10.865  1.00  0.00     0.016 A 
ATOM      4  C   UNL     1      21.896 -18.266 -11.136  1.00  0.00     0.038 A 
ATOM      5  C   UNL     1      23.053 -18.850 -10.576  1.00  0.00     0.076 A 
ATOM      6  C   UNL     1      23.936 -18.042  -9.814  1.00  0.00     0.127 A 
ATOM      7  C   UNL     1      23.599 -16.712  -9.541  1.00  0.00     0.050 A 
ATOM      8  C   UNL     1      23.265 -20.309 -10.762  1.00  0.00     0.201 C 
ATOM      9  O   UNL     1      23.883 -20.970  -9.885  1.00  0.00    -0.288 OA
ATOM     10  C   UNL     1      22.591 -21.015 -11.882  1.00  0.00     0.076 A 
ATOM     11  C   UNL     1      21.434 -20.426 -12.442  1.00  0.00     0.041 A 
ATOM     12  C   UNL     1      21.013 -19.072 -12.013  1.00  0.00     0.194 C 
ATOM     13  O   UNL     1      19.916 -18.595 -12.414  1.00  0.00    -0.289 OA
ATOM     14  C   UNL     1      20.691 -21.128 -13.407  1.00  0.00     0.059 A 
ATOM     15  C   UNL     1      21.095 -22.397 -13.829  1.00  0.00     0.120 A 
ATOM     16  C   UNL     1      22.258 -22.964 -13.309  1.00  0.00     0.093 A 
ATOM     17  C   UNL     1      23.027 -22.278 -12.362  1.00  0.00     0.131 A 
ENDROOT
BRANCH   6  18
ATOM     18  O   UNL     1      25.166 -18.505  -9.343  1.00  0.00    -0.507 OA
ATOM     19  H   UNL     1      25.718 -18.019  -8.650  1.00  0.00     0.293 HD
ENDBRANCH   6  18
BRANCH  17  20
ATOM     20  O   UNL     1      24.225 -22.868 -11.955  1.00  0.00    -0.507 OA
ATOM     21  H   UNL     1      24.398 -23.863 -11.991  1.00  0.00     0.293 HD
ENDBRANCH  17  20
BRANCH  15  22
ATOM     22  O   UNL     1      20.354 -23.100 -14.776  1.00  0.00    -0.508 OA
ATOM     23  H   UNL     1      20.237 -22.755 -15.722  1.00  0.00     0.293 HD
ENDBRANCH  15  22
TORSDOF 3
ENDMDL
MODEL 4
REMARK VINA RESULT:    -6.680      2.027      5.908
REMARK INTER + INTRA:          -7.266
REMARK INTER:                  -7.266
REMARK INTRA:                   0.000
REMARK UNBOUND:                 0.000
REMARK SMILES Cc1cc(O)c2c(c1)C(=O)c1cc(O)cc(O)c1C2=O
REMARK SMILES IDX 1 1 2 2 8 3 7 4 6 5 4 6 3 7 19 8 20 9 18 10 11 11 9 12 10 13
REMARK SMILES IDX 12 14 13 15 15 16 16 17 5 18 17 20 14 22
REMARK H PARENT 5 19 17 21 14 23
REMARK Flexibility Score: inf
ROOT
ATOM      1  C   UNL     1      24.389 -23.519 -13.082  1.00  0.00     0.044 C 
ATOM      2  C   UNL     1      23.710 -22.201 -12.841  1.00  0.00    -0.047 A 
ATOM      3  C   UNL     1      24.124 -21.379 -11.788  1.00  0.00     0.016 A 
ATOM      4  C   UNL     1      23.514 -20.131 -11.572  1.00  0.00     0.038 A 
ATOM      5  C   UNL     1      22.473 -19.700 -12.424  1.00  0.00     0.076 A 
ATOM      6  C   UNL     1      22.117 -20.500 -13.539  1.00  0.00     0.127 A 
ATOM      7  C   UNL     1      22.724 -21.747 -13.722  1.00  0.00     0.050 A 
ATOM      8  C   UNL     1      21.754 -18.447 -12.076  1.00  0.00     0.201 C 
ATOM      9  O   UNL     1      20.543 -18.310 -12.396  1.00  0.00    -0.288 OA
ATOM     10  C   UNL     1      22.404 -17.444 -11.194  1.00  0.00     0.076 A 
ATOM     11  C   UNL     1      23.448 -17.878 -10.345  1.00  0.00     0.041 A 
ATOM     12  C   UNL     1      23.964 -19.263 -10.458  1.00  0.00     0.194 C 
ATOM     13  O   UNL     1      24.805 -19.693  -9.621  1.00  0.00    -0.289 OA
ATOM     14  C   UNL     1      23.994 -16.993  -9.399  1.00  0.00     0.059 A 
ATOM     15  C   UNL     1      23.523 -15.681  -9.303  1.00  0.00     0.120 A 
ATOM     16  C   UNL     1      22.522 -15.236 -10.166  1.00  0.00     0.093 A 
ATOM     17  C   UNL     1      21.976 -16.092 -11.129  1.00  0.00     0.131 A 
ENDROOT
BRANCH   6  18
ATOM     18  O   UNL     1      21.197 -20.083 -14.504  1.00  0.00    -0.507 OA
ATOM     19  H   UNL     1      20.991 -19.113 -14.697  1.00  0.00     0.293 HD
ENDBRANCH   6  18
BRANCH  17  20
ATOM     20  O   UNL     1      21.044 -15.551 -12.017  1.00  0.00    -0.507 OA
ATOM     21  H   UNL     1      20.073 -15.398 -11.784  1.00  0.00     0.293 HD
ENDBRANCH  17  20
BRANCH  15  22
ATOM     22  O   UNL     1      24.053 -14.804  -8.358  1.00  0.00    -0.508 OA
ATOM     23  H   UNL     1      25.043 -14.589  -8.330  1.00  0.00     0.293 HD
ENDBRANCH  15  22
TORSDOF 3
ENDMDL
MODEL 5
REMARK VINA RESULT:    -6.487      2.102      5.522
REMARK INTER + INTRA:          -7.056
REMARK INTER:                  -7.056
REMARK INTRA:                   0.000
REMARK UNBOUND:                 0.000
REMARK SMILES Cc1cc(O)c2c(c1)C(=O)c1cc(O)cc(O)c1C2=O
REMARK SMILES IDX 1 1 2 2 8 3 7 4 6 5 4 6 3 7 19 8 20 9 18 10 11 11 9 12 10 13
REMARK SMILES IDX 12 14 13 15 15 16 16 17 5 18 17 20 14 22
REMARK H PARENT 5 19 17 21 14 23
REMARK Flexibility Score: inf
ROOT
ATOM      1  C   UNL     1      21.131 -24.182 -14.297  1.00  0.00     0.044 C 
ATOM      2  C   UNL     1      21.093 -22.768 -13.792  1.00  0.00    -0.047 A 
ATOM      3  C   UNL     1      21.706 -22.438 -12.579  1.00  0.00     0.016 A 
ATOM      4  C   UNL     1      21.701 -21.112 -12.113  1.00  0.00     0.038 A 
ATOM      5  C   UNL     1      21.071 -20.101 -12.872  1.00  0.00     0.076 A 
ATOM      6  C   UNL     1      20.526 -20.428 -14.140  1.00  0.00     0.127 A 
ATOM      7  C   UNL     1      20.525 -21.757 -14.574  1.00  0.00     0.050 A 
ATOM      8  C   UNL     1      20.955 -18.744 -12.277  1.00  0.00     0.201 C 
ATOM      9  O   UNL     1      19.981 -18.006 -12.584  1.00  0.00    -0.288 OA
ATOM     10  C   UNL     1      21.880 -18.335 -11.188  1.00  0.00     0.076 A 
ATOM     11  C   UNL     1      22.510 -19.350 -10.432  1.00  0.00     0.041 A 
ATOM     12  C   UNL     1      22.359 -20.770 -10.829  1.00  0.00     0.194 C 
ATOM     13  O   UNL     1      22.813 -21.684 -10.088  1.00  0.00    -0.289 OA
ATOM     14  C   UNL     1      23.281 -19.006  -9.307  1.00  0.00     0.059 A 
ATOM     15  C   UNL     1      23.442 -17.668  -8.941  1.00  0.00     0.120 A 
ATOM     16  C   UNL     1      22.855 -16.662  -9.708  1.00  0.00     0.093 A 
ATOM     17  C   UNL     1      22.099 -16.976 -10.843  1.00  0.00     0.131 A 
ENDROOT
BRANCH   6  18
ATOM     18  O   UNL     1      20.010 -19.464 -15.010  1.00  0.00    -0.507 OA
ATOM     19  H   UNL     1      19.045 -19.166 -15.005  1.00  0.00     0.293 HD
ENDBRANCH   6  18
BRANCH  17  20
ATOM     20  O   UNL     1      21.620 -15.914 -11.612  1.00  0.00    -0.507 OA
ATOM     21  H   UNL     1      21.536 -14.968 -11.267  1.00  0.00     0.293 HD
ENDBRANCH  17  20
BRANCH  15  22
ATOM     22  O   UNL     1      24.195 -17.324  -7.820  1.00  0.00    -0.508 OA
ATOM     23  H   UNL     1      24.574 -16.392  -7.700  1.00  0.00     0.293 HD
ENDBRANCH  15  22
TORSDOF 3
ENDMDL
MODEL 6
REMARK VINA RESULT:    -6.455      2.695      4.991
REMARK INTER + INTRA:          -7.021
REMARK INTER:                  -7.021
REMARK INTRA:                   0.000
REMARK UNBOUND:                 0.000
REMARK SMILES Cc1cc(O)c2c(c1)C(=O)c1cc(O)cc(O)c1C2=O
REMARK SMILES IDX 1 1 2 2 8 3 7 4 6 5 4 6 3 7 19 8 20 9 18 10 11 11 9 12 10 13
REMARK SMILES IDX 12 14 13 15 15 16 16 17 5 18 17 20 14 22
REMARK H PARENT 5 19 17 21 14 23
REMARK Flexibility Score: inf
ROOT
ATOM      1  C   UNL     1      22.125 -16.898  -9.361  1.00  0.00     0.044 C 
ATOM      2  C   UNL     1      21.721 -17.782 -10.505  1.00  0.00    -0.047 A 
ATOM      3  C   UNL     1      21.945 -19.161 -10.442  1.00  0.00     0.016 A 
ATOM      4  C   UNL     1      21.545 -20.000 -11.496  1.00  0.00     0.038 A 
ATOM      5  C   UNL     1      20.911 -19.450 -12.632  1.00  0.00     0.076 A 
ATOM      6  C   UNL     1      20.611 -18.064 -12.652  1.00  0.00     0.127 A 
ATOM      7  C   UNL     1      21.036 -17.245 -11.601  1.00  0.00     0.050 A 
ATOM      8  C   UNL     1      20.637 -20.344 -13.787  1.00  0.00     0.201 C 
ATOM      9  O   UNL     1      20.628 -19.873 -14.955  1.00  0.00    -0.288 OA
ATOM     10  C   UNL     1      20.562 -21.813 -13.580  1.00  0.00     0.076 A 
ATOM     11  C   UNL     1      21.196 -22.360 -12.441  1.00  0.00     0.041 A 
ATOM     12  C   UNL     1      21.780 -21.462 -11.417  1.00  0.00     0.194 C 
ATOM     13  O   UNL     1      22.455 -21.943 -10.466  1.00  0.00    -0.289 OA
ATOM     14  C   UNL     1      21.266 -23.756 -12.283  1.00  0.00     0.059 A 
ATOM     15  C   UNL     1      20.700 -24.606 -13.236  1.00  0.00     0.120 A 
ATOM     16  C   UNL     1      20.039 -24.070 -14.341  1.00  0.00     0.093 A 
ATOM     17  C   UNL     1      19.938 -22.685 -14.511  1.00  0.00     0.131 A 
ENDROOT
BRANCH   6  18
ATOM     18  O   UNL     1      19.865 -17.467 -13.672  1.00  0.00    -0.507 OA
ATOM     19  H   UNL     1      19.050 -16.895 -13.507  1.00  0.00     0.293 HD
ENDBRANCH   6  18
BRANCH  17  20
ATOM     20  O   UNL     1      19.183 -22.222 -15.591  1.00  0.00    -0.507 OA
ATOM     21  H   UNL     1      18.182 -22.334 -15.661  1.00  0.00     0.293 HD
ENDBRANCH  17  20
BRANCH  15  22
ATOM     22  O   UNL     1      20.779 -25.989 -13.089  1.00  0.00    -0.508 OA
ATOM     23  H   UNL     1      20.041 -26.601 -13.420  1.00  0.00     0.293 HD
ENDBRANCH  15  22
TORSDOF 3
ENDMDL
MODEL 7
REMARK VINA RESULT:    -6.394      2.501      6.172
REMARK INTER + INTRA:          -6.955
REMARK INTER:                  -6.955
REMARK INTRA:                   0.000
REMARK UNBOUND:                 0.000
REMARK SMILES Cc1cc(O)c2c(c1)C(=O)c1cc(O)cc(O)c1C2=O
REMARK SMILES IDX 1 1 2 2 8 3 7 4 6 5 4 6 3 7 19 8 20 9 18 10 11 11 9 12 10 13
REMARK SMILES IDX 12 14 13 15 15 16 16 17 5 18 17 20 14 22
REMARK H PARENT 5 19 17 21 14 23
REMARK Flexibility Score: inf
ROOT
ATOM      1  C   UNL     1      20.123 -25.163 -14.428  1.00  0.00     0.044 C 
ATOM      2  C   UNL     1      20.593 -23.999 -13.604  1.00  0.00    -0.047 A 
ATOM      3  C   UNL     1      20.455 -22.694 -14.088  1.00  0.00     0.016 A 
ATOM      4  C   UNL     1      20.865 -21.596 -13.312  1.00  0.00     0.038 A 
ATOM      5  C   UNL     1      21.423 -21.808 -12.032  1.00  0.00     0.076 A 
ATOM      6  C   UNL     1      21.481 -23.127 -11.514  1.00  0.00     0.127 A 
ATOM      7  C   UNL     1      21.086 -24.205 -12.312  1.00  0.00     0.050 A 
ATOM      8  C   UNL     1      21.981 -20.638 -11.305  1.00  0.00     0.201 C 
ATOM      9  O   UNL     1      22.943 -20.796 -10.507  1.00  0.00    -0.288 OA
ATOM     10  C   UNL     1      21.531 -19.267 -11.660  1.00  0.00     0.076 A 
ATOM     11  C   UNL     1      20.971 -19.059 -12.941  1.00  0.00     0.041 A 
ATOM     12  C   UNL     1      20.709 -20.215 -13.830  1.00  0.00     0.194 C 
ATOM     13  O   UNL     1      20.329 -20.025 -15.017  1.00  0.00    -0.289 OA
ATOM     14  C   UNL     1      20.662 -17.754 -13.365  1.00  0.00     0.059 A 
ATOM     15  C   UNL     1      20.890 -16.663 -12.522  1.00  0.00     0.120 A 
ATOM     16  C   UNL     1      21.405 -16.868 -11.243  1.00  0.00     0.093 A 
ATOM     17  C   UNL     1      21.702 -18.158 -10.790  1.00  0.00     0.131 A 
ENDROOT
BRANCH   6  18
ATOM     18  O   UNL     1      21.890 -23.407 -10.207  1.00  0.00    -0.507 OA
ATOM     19  H   UNL     1      21.641 -22.839  -9.410  1.00  0.00     0.293 HD
ENDBRANCH   6  18
BRANCH  17  20
ATOM     20  O   UNL     1      22.127 -18.294  -9.466  1.00  0.00    -0.507 OA
ATOM     21  H   UNL     1      22.090 -17.547  -8.788  1.00  0.00     0.293 HD
ENDBRANCH  17  20
BRANCH  15  22
ATOM     22  O   UNL     1      20.597 -15.368 -12.944  1.00  0.00    -0.508 OA
ATOM     23  H   UNL     1      20.034 -15.192 -13.768  1.00  0.00     0.293 HD
ENDBRANCH  15  22
TORSDOF 3
ENDMDL
MODEL 8
REMARK VINA RESULT:    -6.372      1.651      3.449
REMARK INTER + INTRA:          -6.931
REMARK INTER:                  -6.931
REMARK INTRA:                   0.000
REMARK UNBOUND:                 0.000
REMARK SMILES Cc1cc(O)c2c(c1)C(=O)c1cc(O)cc(O)c1C2=O
REMARK SMILES IDX 1 1 2 2 8 3 7 4 6 5 4 6 3 7 19 8 20 9 18 10 11 11 9 12 10 13
REMARK SMILES IDX 12 14 13 15 15 16 16 17 5 18 17 20 14 22
REMARK H PARENT 5 19 17 21 14 23
REMARK Flexibility Score: inf
ROOT
ATOM      1  C   UNL     1      22.724 -13.908  -9.062  1.00  0.00     0.044 C 
ATOM      2  C   UNL     1      22.395 -15.019 -10.017  1.00  0.00    -0.047 A 
ATOM      3  C   UNL     1      22.698 -16.343  -9.686  1.00  0.00     0.016 A 
ATOM      4  C   UNL     1      22.368 -17.393 -10.562  1.00  0.00     0.038 A 
ATOM      5  C   UNL     1      21.726 -17.111 -11.788  1.00  0.00     0.076 A 
ATOM      6  C   UNL     1      21.346 -15.776 -12.078  1.00  0.00     0.127 A 
ATOM      7  C   UNL     1      21.702 -14.746 -11.202  1.00  0.00     0.050 A 
ATOM      8  C   UNL     1      21.529 -18.226 -12.750  1.00  0.00     0.201 C 
ATOM      9  O   UNL     1      21.516 -17.991 -13.988  1.00  0.00    -0.288 OA
ATOM     10  C   UNL     1      21.535 -19.630 -12.263  1.00  0.00     0.076 A 
ATOM     11  C   UNL     1      22.176 -19.908 -11.035  1.00  0.00     0.041 A 
ATOM     12  C   UNL     1      22.686 -18.795 -10.199  1.00  0.00     0.194 C 
ATOM     13  O   UNL     1      23.369 -19.042  -9.167  1.00  0.00    -0.289 OA
ATOM     14  C   UNL     1      22.324 -21.240 -10.609  1.00  0.00     0.059 A 
ATOM     15  C   UNL     1      21.828 -22.291 -11.384  1.00  0.00     0.120 A 
ATOM     16  C   UNL     1      21.159 -22.018 -12.577  1.00  0.00     0.093 A 
ATOM     17  C   UNL     1      20.981 -20.701 -13.013  1.00  0.00     0.131 A 
ENDROOT
BRANCH   6  18
ATOM     18  O   UNL     1      20.588 -15.434 -13.201  1.00  0.00    -0.507 OA
ATOM     19  H   UNL     1      20.707 -15.865 -14.107  1.00  0.00     0.293 HD
ENDBRANCH   6  18
BRANCH  17  20
ATOM     20  O   UNL     1      20.222 -20.501 -14.169  1.00  0.00    -0.507 OA
ATOM     21  H   UNL     1      19.430 -19.877 -14.216  1.00  0.00     0.293 HD
ENDBRANCH  17  20
BRANCH  15  22
ATOM     22  O   UNL     1      21.984 -23.612 -10.972  1.00  0.00    -0.508 OA
ATOM     23  H   UNL     1      22.008 -23.862  -9.990  1.00  0.00     0.293 HD
ENDBRANCH  15  22
TORSDOF 3
ENDMDL
MODEL 9
REMARK VINA RESULT:    -6.189      1.995      3.635
REMARK INTER + INTRA:          -6.732
REMARK INTER:                  -6.732
REMARK INTRA:                   0.000
REMARK UNBOUND:                 0.000
REMARK SMILES Cc1cc(O)c2c(c1)C(=O)c1cc(O)cc(O)c1C2=O
REMARK SMILES IDX 1 1 2 2 8 3 7 4 6 5 4 6 3 7 19 8 20 9 18 10 11 11 9 12 10 13
REMARK SMILES IDX 12 14 13 15 15 16 16 17 5 18 17 20 14 22
REMARK H PARENT 5 19 17 21 14 23
REMARK Flexibility Score: inf
ROOT
ATOM      1  C   UNL     1      22.839 -14.150  -8.988  1.00  0.00     0.044 C 
ATOM      2  C   UNL     1      22.694 -15.185 -10.066  1.00  0.00    -0.047 A 
ATOM      3  C   UNL     1      23.381 -16.400  -9.971  1.00  0.00     0.016 A 
ATOM      4  C   UNL     1      23.230 -17.387 -10.960  1.00  0.00     0.038 A 
ATOM      5  C   UNL     1      22.379 -17.153 -12.063  1.00  0.00     0.076 A 
ATOM      6  C   UNL     1      21.621 -15.956 -12.109  1.00  0.00     0.127 A 
ATOM      7  C   UNL     1      21.803 -14.980 -11.124  1.00  0.00     0.050 A 
ATOM      8  C   UNL     1      22.360 -18.155 -13.160  1.00  0.00     0.201 C 
ATOM      9  O   UNL     1      22.119 -17.786 -14.341  1.00  0.00    -0.288 OA
ATOM     10  C   UNL     1      22.806 -19.547 -12.896  1.00  0.00     0.076 A 
ATOM     11  C   UNL     1      23.656 -19.777 -11.790  1.00  0.00     0.041 A 
ATOM     12  C   UNL     1      23.957 -18.674 -10.847  1.00  0.00     0.194 C 
ATOM     13  O   UNL     1      24.812 -18.840  -9.935  1.00  0.00    -0.289 OA
ATOM     14  C   UNL     1      24.210 -21.054 -11.589  1.00  0.00     0.059 A 
ATOM     15  C   UNL     1      23.914 -22.101 -12.464  1.00  0.00     0.120 A 
ATOM     16  C   UNL     1      23.043 -21.888 -13.533  1.00  0.00     0.093 A 
ATOM     17  C   UNL     1      22.463 -20.633 -13.744  1.00  0.00     0.131 A 
ENDROOT
BRANCH   6  18
ATOM     18  O   UNL     1      20.656 -15.710 -13.089  1.00  0.00    -0.507 OA
ATOM     19  H   UNL     1      19.698 -16.021 -13.020  1.00  0.00     0.293 HD
ENDBRANCH   6  18
BRANCH  17  20
ATOM     20  O   UNL     1      21.532 -20.519 -14.778  1.00  0.00    -0.507 OA
ATOM     21  H   UNL     1      21.524 -21.119 -15.591  1.00  0.00     0.293 HD
ENDBRANCH  17  20
BRANCH  15  22
ATOM     22  O   UNL     1      24.471 -23.364 -12.274  1.00  0.00    -0.508 OA
ATOM     23  H   UNL     1      25.405 -23.586 -12.599  1.00  0.00     0.293 HD
ENDBRANCH  15  22
TORSDOF 3
ENDMDL
