MODEL 1
REMARK VINA RESULT:    -6.337      0.000      0.000
REMARK INTER + INTRA:          -9.125
REMARK INTER:                  -8.559
REMARK INTRA:                  -0.566
REMARK UNBOUND:                -0.566
REMARK SMILES COc1ccc(-c2cc(=O)c3c(OC)c(OC)c(OC)c(OC)c3o2)cc1
REMARK SMILES IDX 7 1 8 2 9 3 10 4 11 5 24 6 25 7 21 8 18 9 15 10 12 11 6 12
REMARK SMILES IDX 3 13 4 14 27 15 5 16 26 17 2 18 1 19 22 20 23 21 13 22 14 23
REMARK SMILES IDX 19 24 20 25 16 26 17 27
REMARK H PARENT
REMARK Flexibility Score: inf
ROOT
ATOM      1  C   UNL     1       6.485   8.484 -18.749  1.00  0.00     0.138 A 
ATOM      2  C   UNL     1       5.804   7.947 -19.852  1.00  0.00     0.100 A 
ATOM      3  C   UNL     1       6.134   8.378 -21.136  1.00  0.00     0.197 A 
ATOM      4  O   UNL     1       5.517   7.885 -22.118  1.00  0.00    -0.289 OA
ATOM      5  C   UNL     1       7.150   9.343 -21.311  1.00  0.00     0.115 A 
ATOM      6  C   UNL     1       7.795   9.831 -20.156  1.00  0.00     0.188 A 
ATOM      7  O   UNL     1       7.442   9.387 -18.952  1.00  0.00    -0.452 OA
ATOM      8  C   UNL     1       8.807  10.795 -20.246  1.00  0.00     0.209 A 
ATOM      9  C   UNL     1       9.215  11.273 -21.517  1.00  0.00     0.211 A 
ATOM     10  C   UNL     1       8.601  10.747 -22.684  1.00  0.00     0.208 A 
ATOM     11  C   UNL     1       7.529   9.837 -22.576  1.00  0.00     0.179 A 
ENDROOT
BRANCH   1  12
ATOM     12  C   UNL     1       6.183   8.065 -17.358  1.00  0.00     0.018 A 
ATOM     13  C   UNL     1       5.626   7.213 -14.722  1.00  0.00     0.118 A 
ATOM     14  C   UNL     1       5.942   8.550 -14.983  1.00  0.00     0.047 A 
ATOM     15  C   UNL     1       5.598   6.296 -15.789  1.00  0.00     0.047 A 
ATOM     16  C   UNL     1       6.222   8.975 -16.284  1.00  0.00     0.016 A 
ATOM     17  C   UNL     1       5.879   6.719 -17.091  1.00  0.00     0.016 A 
BRANCH  13  18
ATOM     18  O   UNL     1       5.353   6.837 -13.399  1.00  0.00    -0.497 OA
ATOM     19  C   UNL     1       5.979   7.407 -12.255  1.00  0.00     0.278 C 
ENDBRANCH  13  18
ENDBRANCH   1  12
BRANCH   8  20
ATOM     20  O   UNL     1       9.364  11.231 -19.026  1.00  0.00    -0.490 OA
ATOM     21  C   UNL     1       9.033  12.413 -18.306  1.00  0.00     0.278 C 
ENDBRANCH   8  20
BRANCH  11  22
ATOM     22  O   UNL     1       6.832   9.425 -23.719  1.00  0.00    -0.492 OA
ATOM     23  C   UNL     1       5.775  10.190 -24.285  1.00  0.00     0.278 C 
ENDBRANCH  11  22
BRANCH   9  24
ATOM     24  O   UNL     1      10.231  12.247 -21.572  1.00  0.00    -0.490 OA
ATOM     25  C   UNL     1      10.072  13.660 -21.540  1.00  0.00     0.279 C 
ENDBRANCH   9  24
BRANCH  10  26
ATOM     26  O   UNL     1       9.070  11.117 -23.948  1.00  0.00    -0.490 OA
ATOM     27  C   UNL     1       8.672  12.326 -24.587  1.00  0.00     0.278 C 
ENDBRANCH  10  26
TORSDOF 6
ENDMDL
MODEL 2
REMARK VINA RESULT:    -6.242      2.105      8.399
REMARK INTER + INTRA:          -8.997
REMARK INTER:                  -8.283
REMARK INTRA:                  -0.715
REMARK UNBOUND:                -0.566
REMARK SMILES COc1ccc(-c2cc(=O)c3c(OC)c(OC)c(OC)c(OC)c3o2)cc1
REMARK SMILES IDX 7 1 8 2 9 3 10 4 11 5 24 6 25 7 21 8 18 9 15 10 12 11 6 12
REMARK SMILES IDX 3 13 4 14 27 15 5 16 26 17 2 18 1 19 22 20 23 21 13 22 14 23
REMARK SMILES IDX 19 24 20 25 16 26 17 27
REMARK H PARENT
REMARK Flexibility Score: inf
ROOT
ATOM      1  C   UNL     1       8.388  11.502 -21.793  1.00  0.00     0.138 A 
ATOM      2  C   UNL     1       8.908  12.026 -20.600  1.00  0.00     0.100 A 
ATOM      3  C   UNL     1       8.646  11.373 -19.396  1.00  0.00     0.197 A 
ATOM      4  O   UNL     1       9.122  11.852 -18.331  1.00  0.00    -0.289 OA
ATOM      5  C   UNL     1       7.869  10.194 -19.393  1.00  0.00     0.115 A 
ATOM      6  C   UNL     1       7.388   9.725 -20.632  1.00  0.00     0.188 A 
ATOM      7  O   UNL     1       7.665  10.386 -21.754  1.00  0.00    -0.452 OA
ATOM      8  C   UNL     1       6.603   8.568 -20.711  1.00  0.00     0.209 A 
ATOM      9  C   UNL     1       6.307   7.834 -19.534  1.00  0.00     0.211 A 
ATOM     10  C   UNL     1       6.831   8.277 -18.292  1.00  0.00     0.208 A 
ATOM     11  C   UNL     1       7.552   9.488 -18.215  1.00  0.00     0.179 A 
ENDROOT
BRANCH   1  12
ATOM     12  C   UNL     1       8.632  12.148 -23.107  1.00  0.00     0.018 A 
ATOM     13  C   UNL     1       9.069  13.331 -25.635  1.00  0.00     0.118 A 
ATOM     14  C   UNL     1       8.967  14.126 -24.489  1.00  0.00     0.047 A 
ATOM     15  C   UNL     1       8.942  11.935 -25.514  1.00  0.00     0.047 A 
ATOM     16  C   UNL     1       8.747  13.545 -23.237  1.00  0.00     0.016 A 
ATOM     17  C   UNL     1       8.721  11.353 -24.263  1.00  0.00     0.016 A 
BRANCH  13  18
ATOM     18  O   UNL     1       9.291  13.963 -26.868  1.00  0.00    -0.497 OA
ATOM     19  C   UNL     1      10.022  13.388 -27.945  1.00  0.00     0.278 C 
ENDBRANCH  13  18
ENDBRANCH   1  12
BRANCH   8  20
ATOM     20  O   UNL     1       6.154   8.205 -21.998  1.00  0.00    -0.490 OA
ATOM     21  C   UNL     1       4.876   8.470 -22.566  1.00  0.00     0.278 C 
ENDBRANCH   8  20
BRANCH  11  22
ATOM     22  O   UNL     1       7.949   9.997 -16.972  1.00  0.00    -0.492 OA
ATOM     23  C   UNL     1       7.036  10.616 -16.073  1.00  0.00     0.278 C 
ENDBRANCH  11  22
BRANCH   9  24
ATOM     24  O   UNL     1       5.510   6.678 -19.648  1.00  0.00    -0.490 OA
ATOM     25  C   UNL     1       5.955   5.341 -19.848  1.00  0.00     0.279 C 
ENDBRANCH   9  24
BRANCH  10  26
ATOM     26  O   UNL     1       6.649   7.506 -17.140  1.00  0.00    -0.490 OA
ATOM     27  C   UNL     1       7.599   6.534 -16.714  1.00  0.00     0.278 C 
ENDBRANCH  10  26
TORSDOF 6
ENDMDL
MODEL 3
REMARK VINA RESULT:    -6.165      2.203      2.749
REMARK INTER + INTRA:          -8.894
REMARK INTER:                  -8.242
REMARK INTRA:                  -0.652
REMARK UNBOUND:                -0.566
REMARK SMILES COc1ccc(-c2cc(=O)c3c(OC)c(OC)c(OC)c(OC)c3o2)cc1
REMARK SMILES IDX 7 1 8 2 9 3 10 4 11 5 24 6 25 7 21 8 18 9 15 10 12 11 6 12
REMARK SMILES IDX 3 13 4 14 27 15 5 16 26 17 2 18 1 19 22 20 23 21 13 22 14 23
REMARK SMILES IDX 19 24 20 25 16 26 17 27
REMARK H PARENT
REMARK Flexibility Score: inf
ROOT
ATOM      1  C   UNL     1       7.011   9.001 -18.344  1.00  0.00     0.138 A 
ATOM      2  C   UNL     1       8.135   8.527 -19.037  1.00  0.00     0.100 A 
ATOM      3  C   UNL     1       8.570   9.202 -20.176  1.00  0.00     0.197 A 
ATOM      4  O   UNL     1       9.583   8.768 -20.788  1.00  0.00    -0.289 OA
ATOM      5  C   UNL     1       7.880  10.354 -20.614  1.00  0.00     0.115 A 
ATOM      6  C   UNL     1       6.764  10.774 -19.861  1.00  0.00     0.188 A 
ATOM      7  O   UNL     1       6.389  10.093 -18.781  1.00  0.00    -0.452 OA
ATOM      8  C   UNL     1       6.023  11.902 -20.236  1.00  0.00     0.209 A 
ATOM      9  C   UNL     1       6.411  12.656 -21.373  1.00  0.00     0.211 A 
ATOM     10  C   UNL     1       7.563  12.263 -22.103  1.00  0.00     0.208 A 
ATOM     11  C   UNL     1       8.252  11.080 -21.764  1.00  0.00     0.179 A 
ENDROOT
BRANCH   1  12
ATOM     12  C   UNL     1       6.499   8.329 -17.123  1.00  0.00     0.018 A 
ATOM     13  C   UNL     1       5.495   7.101 -14.785  1.00  0.00     0.118 A 
ATOM     14  C   UNL     1       5.832   6.330 -15.902  1.00  0.00     0.047 A 
ATOM     15  C   UNL     1       5.654   8.497 -14.845  1.00  0.00     0.047 A 
ATOM     16  C   UNL     1       6.326   6.934 -17.062  1.00  0.00     0.016 A 
ATOM     17  C   UNL     1       6.146   9.103 -16.004  1.00  0.00     0.016 A 
BRANCH  13  18
ATOM     18  O   UNL     1       5.005   6.447 -13.646  1.00  0.00    -0.497 OA
ATOM     19  C   UNL     1       5.012   7.001 -12.335  1.00  0.00     0.278 C 
ENDBRANCH  13  18
ENDBRANCH   1  12
BRANCH   8  20
ATOM     20  O   UNL     1       4.912  12.215 -19.426  1.00  0.00    -0.490 OA
ATOM     21  C   UNL     1       4.875  13.127 -18.334  1.00  0.00     0.278 C 
ENDBRANCH   8  20
BRANCH  11  22
ATOM     22  O   UNL     1       9.303  10.618 -22.567  1.00  0.00    -0.492 OA
ATOM     23  C   UNL     1       9.081   9.875 -23.760  1.00  0.00     0.278 C 
ENDBRANCH  11  22
BRANCH   9  24
ATOM     24  O   UNL     1       5.640  13.781 -21.725  1.00  0.00    -0.490 OA
ATOM     25  C   UNL     1       5.769  15.105 -21.220  1.00  0.00     0.279 C 
ENDBRANCH   9  24
BRANCH  10  26
ATOM     26  O   UNL     1       8.029  13.059 -23.154  1.00  0.00    -0.490 OA
ATOM     27  C   UNL     1       8.992  14.091 -22.963  1.00  0.00     0.278 C 
ENDBRANCH  10  26
TORSDOF 6
ENDMDL
MODEL 4
REMARK VINA RESULT:    -6.029      2.401      4.380
REMARK INTER + INTRA:          -8.709
REMARK INTER:                  -8.169
REMARK INTRA:                  -0.541
REMARK UNBOUND:                -0.566
REMARK SMILES COc1ccc(-c2cc(=O)c3c(OC)c(OC)c(OC)c(OC)c3o2)cc1
REMARK SMILES IDX 7 1 8 2 9 3 10 4 11 5 24 6 25 7 21 8 18 9 15 10 12 11 6 12
REMARK SMILES IDX 3 13 4 14 27 15 5 16 26 17 2 18 1 19 22 20 23 21 13 22 14 23
REMARK SMILES IDX 19 24 20 25 16 26 17 27
REMARK H PARENT
REMARK Flexibility Score: inf
ROOT
ATOM      1  C   UNL     1       7.208   8.042 -18.790  1.00  0.00     0.138 A 
ATOM      2  C   UNL     1       7.582   8.884 -17.732  1.00  0.00     0.100 A 
ATOM      3  C   UNL     1       7.958  10.198 -18.003  1.00  0.00     0.197 A 
ATOM      4  O   UNL     1       8.288  10.945 -17.042  1.00  0.00    -0.289 OA
ATOM      5  C   UNL     1       7.951  10.668 -19.335  1.00  0.00     0.115 A 
ATOM      6  C   UNL     1       7.556   9.766 -20.345  1.00  0.00     0.188 A 
ATOM      7  O   UNL     1       7.207   8.520 -20.032  1.00  0.00    -0.452 OA
ATOM      8  C   UNL     1       7.531  10.153 -21.690  1.00  0.00     0.209 A 
ATOM      9  C   UNL     1       7.880  11.480 -22.049  1.00  0.00     0.211 A 
ATOM     10  C   UNL     1       8.231  12.403 -21.030  1.00  0.00     0.208 A 
ATOM     11  C   UNL     1       8.330  11.979 -19.688  1.00  0.00     0.179 A 
ENDROOT
BRANCH   1  12
ATOM     12  C   UNL     1       6.797   6.634 -18.567  1.00  0.00     0.018 A 
ATOM     13  C   UNL     1       5.986   3.953 -18.197  1.00  0.00     0.118 A 
ATOM     14  C   UNL     1       7.131   4.441 -17.561  1.00  0.00     0.047 A 
ATOM     15  C   UNL     1       5.248   4.812 -19.032  1.00  0.00     0.047 A 
ATOM     16  C   UNL     1       7.538   5.766 -17.744  1.00  0.00     0.016 A 
ATOM     17  C   UNL     1       5.654   6.136 -19.217  1.00  0.00     0.016 A 
BRANCH  13  18
ATOM     18  O   UNL     1       5.620   2.616 -17.980  1.00  0.00    -0.497 OA
ATOM     19  C   UNL     1       6.363   1.494 -18.443  1.00  0.00     0.278 C 
ENDBRANCH  13  18
ENDBRANCH   1  12
BRANCH   8  20
ATOM     20  O   UNL     1       7.146   9.163 -22.617  1.00  0.00    -0.490 OA
ATOM     21  C   UNL     1       5.870   9.011 -23.229  1.00  0.00     0.278 C 
ENDBRANCH   8  20
BRANCH  11  22
ATOM     22  O   UNL     1       8.810  12.851 -18.703  1.00  0.00    -0.492 OA
ATOM     23  C   UNL     1      10.195  12.974 -18.401  1.00  0.00     0.278 C 
ENDBRANCH  11  22
BRANCH   9  24
ATOM     24  O   UNL     1       7.851  11.835 -23.412  1.00  0.00    -0.490 OA
ATOM     25  C   UNL     1       8.883  11.647 -24.373  1.00  0.00     0.279 C 
ENDBRANCH   9  24
BRANCH  10  26
ATOM     26  O   UNL     1       8.464  13.744 -21.350  1.00  0.00    -0.490 OA
ATOM     27  C   UNL     1       9.732  14.214 -21.799  1.00  0.00     0.278 C 
ENDBRANCH  10  26
TORSDOF 6
ENDMDL
MODEL 5
REMARK VINA RESULT:    -6.022      2.683      7.473
REMARK INTER + INTRA:          -8.700
REMARK INTER:                  -8.024
REMARK INTRA:                  -0.676
REMARK UNBOUND:                -0.566
REMARK SMILES COc1ccc(-c2cc(=O)c3c(OC)c(OC)c(OC)c(OC)c3o2)cc1
REMARK SMILES IDX 7 1 8 2 9 3 10 4 11 5 24 6 25 7 21 8 18 9 15 10 12 11 6 12
REMARK SMILES IDX 3 13 4 14 27 15 5 16 26 17 2 18 1 19 22 20 23 21 13 22 14 23
REMARK SMILES IDX 19 24 20 25 16 26 17 27
REMARK H PARENT
REMARK Flexibility Score: inf
ROOT
ATOM      1  C   UNL     1       8.477  12.088 -21.031  1.00  0.00     0.138 A 
ATOM      2  C   UNL     1       9.000  11.158 -21.942  1.00  0.00     0.100 A 
ATOM      3  C   UNL     1       9.052   9.811 -21.589  1.00  0.00     0.197 A 
ATOM      4  O   UNL     1       9.522   8.985 -22.418  1.00  0.00    -0.289 OA
ATOM      5  C   UNL     1       8.574   9.398 -20.326  1.00  0.00     0.115 A 
ATOM      6  C   UNL     1       8.055  10.390 -19.467  1.00  0.00     0.188 A 
ATOM      7  O   UNL     1       8.029  11.664 -19.852  1.00  0.00    -0.452 OA
ATOM      8  C   UNL     1       7.570  10.062 -18.196  1.00  0.00     0.209 A 
ATOM      9  C   UNL     1       7.569   8.710 -17.766  1.00  0.00     0.211 A 
ATOM     10  C   UNL     1       8.046   7.704 -18.648  1.00  0.00     0.208 A 
ATOM     11  C   UNL     1       8.606   8.057 -19.894  1.00  0.00     0.179 A 
ENDROOT
BRANCH   1  12
ATOM     12  C   UNL     1       8.392  13.535 -21.347  1.00  0.00     0.018 A 
ATOM     13  C   UNL     1       8.182  16.296 -21.911  1.00  0.00     0.118 A 
ATOM     14  C   UNL     1       9.415  15.643 -22.014  1.00  0.00     0.047 A 
ATOM     15  C   UNL     1       7.050  15.562 -21.514  1.00  0.00     0.047 A 
ATOM     16  C   UNL     1       9.524  14.278 -21.732  1.00  0.00     0.016 A 
ATOM     17  C   UNL     1       7.157  14.198 -21.231  1.00  0.00     0.016 A 
BRANCH  13  18
ATOM     18  O   UNL     1       8.126  17.666 -22.206  1.00  0.00    -0.497 OA
ATOM     19  C   UNL     1       9.046  18.633 -21.711  1.00  0.00     0.278 C 
ENDBRANCH  13  18
ENDBRANCH   1  12
BRANCH   8  20
ATOM     20  O   UNL     1       7.100  11.135 -17.411  1.00  0.00    -0.490 OA
ATOM     21  C   UNL     1       5.752  11.572 -17.275  1.00  0.00     0.278 C 
ENDBRANCH   8  20
BRANCH  11  22
ATOM     22  O   UNL     1       9.202   7.081 -20.703  1.00  0.00    -0.492 OA
ATOM     23  C   UNL     1      10.523   6.603 -20.475  1.00  0.00     0.278 C 
ENDBRANCH  11  22
BRANCH   9  24
ATOM     24  O   UNL     1       7.080   8.416 -16.479  1.00  0.00    -0.490 OA
ATOM     25  C   UNL     1       5.738   8.107 -16.118  1.00  0.00     0.279 C 
ENDBRANCH   9  24
BRANCH  10  26
ATOM     26  O   UNL     1       7.945   6.356 -18.291  1.00  0.00    -0.490 OA
ATOM     27  C   UNL     1       6.809   5.562 -18.616  1.00  0.00     0.278 C 
ENDBRANCH  10  26
TORSDOF 6
ENDMDL
MODEL 6
REMARK VINA RESULT:    -5.824      2.669      4.075
REMARK INTER + INTRA:          -8.432
REMARK INTER:                  -7.913
REMARK INTRA:                  -0.519
REMARK UNBOUND:                -0.566
REMARK SMILES COc1ccc(-c2cc(=O)c3c(OC)c(OC)c(OC)c(OC)c3o2)cc1
REMARK SMILES IDX 7 1 8 2 9 3 10 4 11 5 24 6 25 7 21 8 18 9 15 10 12 11 6 12
REMARK SMILES IDX 3 13 4 14 27 15 5 16 26 17 2 18 1 19 22 20 23 21 13 22 14 23
REMARK SMILES IDX 19 24 20 25 16 26 17 27
REMARK H PARENT
REMARK Flexibility Score: inf
ROOT
ATOM      1  C   UNL     1       7.126   9.661 -19.236  1.00  0.00     0.138 A 
ATOM      2  C   UNL     1       6.355  10.624 -18.569  1.00  0.00     0.100 A 
ATOM      3  C   UNL     1       6.356  11.939 -19.030  1.00  0.00     0.197 A 
ATOM      4  O   UNL     1       5.657  12.795 -18.424  1.00  0.00    -0.289 OA
ATOM      5  C   UNL     1       7.126  12.284 -20.164  1.00  0.00     0.115 A 
ATOM      6  C   UNL     1       7.869  11.259 -20.786  1.00  0.00     0.188 A 
ATOM      7  O   UNL     1       7.834  10.018 -20.304  1.00  0.00    -0.452 OA
ATOM      8  C   UNL     1       8.663  11.523 -21.908  1.00  0.00     0.209 A 
ATOM      9  C   UNL     1       8.705  12.832 -22.452  1.00  0.00     0.211 A 
ATOM     10  C   UNL     1       7.919  13.853 -21.857  1.00  0.00     0.208 A 
ATOM     11  C   UNL     1       7.187  13.594 -20.679  1.00  0.00     0.179 A 
ENDROOT
BRANCH   1  12
ATOM     12  C   UNL     1       7.166   8.243 -18.797  1.00  0.00     0.018 A 
ATOM     13  C   UNL     1       7.247   5.564 -17.903  1.00  0.00     0.118 A 
ATOM     14  C   UNL     1       6.589   5.895 -19.092  1.00  0.00     0.047 A 
ATOM     15  C   UNL     1       7.860   6.584 -17.153  1.00  0.00     0.047 A 
ATOM     16  C   UNL     1       6.543   7.220 -19.536  1.00  0.00     0.016 A 
ATOM     17  C   UNL     1       7.815   7.910 -17.595  1.00  0.00     0.016 A 
BRANCH  13  18
ATOM     18  O   UNL     1       7.265   4.220 -17.501  1.00  0.00    -0.497 OA
ATOM     19  C   UNL     1       6.305   3.249 -17.902  1.00  0.00     0.278 C 
ENDBRANCH  13  18
ENDBRANCH   1  12
BRANCH   8  20
ATOM     20  O   UNL     1       9.384  10.430 -22.432  1.00  0.00    -0.490 OA
ATOM     21  C   UNL     1       9.040   9.640 -23.566  1.00  0.00     0.278 C 
ENDBRANCH   8  20
BRANCH  11  22
ATOM     22  O   UNL     1       6.525  14.634 -20.014  1.00  0.00    -0.492 OA
ATOM     23  C   UNL     1       5.356  15.253 -20.539  1.00  0.00     0.278 C 
ENDBRANCH  11  22
BRANCH   9  24
ATOM     24  O   UNL     1       9.518  13.063 -23.578  1.00  0.00    -0.490 OA
ATOM     25  C   UNL     1       9.109  13.119 -24.940  1.00  0.00     0.279 C 
ENDBRANCH   9  24
BRANCH  10  26
ATOM     26  O   UNL     1       7.855  15.119 -22.447  1.00  0.00    -0.490 OA
ATOM     27  C   UNL     1       8.825  16.131 -22.195  1.00  0.00     0.278 C 
ENDBRANCH  10  26
TORSDOF 6
ENDMDL
MODEL 7
REMARK VINA RESULT:    -5.774      2.696      3.686
REMARK INTER + INTRA:          -8.366
REMARK INTER:                  -7.793
REMARK INTRA:                  -0.572
REMARK UNBOUND:                -0.566
REMARK SMILES COc1ccc(-c2cc(=O)c3c(OC)c(OC)c(OC)c(OC)c3o2)cc1
REMARK SMILES IDX 7 1 8 2 9 3 10 4 11 5 24 6 25 7 21 8 18 9 15 10 12 11 6 12
REMARK SMILES IDX 3 13 4 14 27 15 5 16 26 17 2 18 1 19 22 20 23 21 13 22 14 23
REMARK SMILES IDX 19 24 20 25 16 26 17 27
REMARK H PARENT
REMARK Flexibility Score: inf
ROOT
ATOM      1  C   UNL     1       7.849   8.336 -20.115  1.00  0.00     0.138 A 
ATOM      2  C   UNL     1       8.491   8.326 -21.363  1.00  0.00     0.100 A 
ATOM      3  C   UNL     1       8.822   9.537 -21.970  1.00  0.00     0.197 A 
ATOM      4  O   UNL     1       9.402   9.514 -23.089  1.00  0.00    -0.289 OA
ATOM      5  C   UNL     1       8.515  10.753 -21.321  1.00  0.00     0.115 A 
ATOM      6  C   UNL     1       7.877  10.682 -20.066  1.00  0.00     0.188 A 
ATOM      7  O   UNL     1       7.581   9.500 -19.530  1.00  0.00    -0.452 OA
ATOM      8  C   UNL     1       7.532  11.843 -19.364  1.00  0.00     0.209 A 
ATOM      9  C   UNL     1       7.851  13.115 -19.904  1.00  0.00     0.211 A 
ATOM     10  C   UNL     1       8.537  13.188 -21.144  1.00  0.00     0.208 A 
ATOM     11  C   UNL     1       8.807  12.014 -21.879  1.00  0.00     0.179 A 
ENDROOT
BRANCH   1  12
ATOM     12  C   UNL     1       7.472   7.082 -19.416  1.00  0.00     0.018 A 
ATOM     13  C   UNL     1       6.771   4.720 -18.032  1.00  0.00     0.118 A 
ATOM     14  C   UNL     1       6.130   5.058 -19.228  1.00  0.00     0.047 A 
ATOM     15  C   UNL     1       7.764   5.577 -17.522  1.00  0.00     0.047 A 
ATOM     16  C   UNL     1       6.471   6.227 -19.914  1.00  0.00     0.016 A 
ATOM     17  C   UNL     1       8.105   6.747 -18.206  1.00  0.00     0.016 A 
BRANCH  13  18
ATOM     18  O   UNL     1       6.393   3.536 -17.383  1.00  0.00    -0.497 OA
ATOM     19  C   UNL     1       6.047   2.328 -18.051  1.00  0.00     0.278 C 
ENDBRANCH  13  18
ENDBRANCH   1  12
BRANCH   8  20
ATOM     20  O   UNL     1       6.873  11.655 -18.132  1.00  0.00    -0.490 OA
ATOM     21  C   UNL     1       5.468  11.616 -17.907  1.00  0.00     0.278 C 
ENDBRANCH   8  20
BRANCH  11  22
ATOM     22  O   UNL     1       9.358  12.095 -23.164  1.00  0.00    -0.492 OA
ATOM     23  C   UNL     1       8.566  12.347 -24.320  1.00  0.00     0.278 C 
ENDBRANCH  11  22
BRANCH   9  24
ATOM     24  O   UNL     1       7.484  14.263 -19.175  1.00  0.00    -0.490 OA
ATOM     25  C   UNL     1       6.261  14.985 -19.263  1.00  0.00     0.279 C 
ENDBRANCH   9  24
BRANCH  10  26
ATOM     26  O   UNL     1       8.965  14.425 -21.636  1.00  0.00    -0.490 OA
ATOM     27  C   UNL     1       8.111  15.288 -22.381  1.00  0.00     0.278 C 
ENDBRANCH  10  26
TORSDOF 6
ENDMDL
MODEL 8
REMARK VINA RESULT:    -5.758      3.455      4.774
REMARK INTER + INTRA:          -8.344
REMARK INTER:                  -7.724
REMARK INTRA:                  -0.621
REMARK UNBOUND:                -0.566
REMARK SMILES COc1ccc(-c2cc(=O)c3c(OC)c(OC)c(OC)c(OC)c3o2)cc1
REMARK SMILES IDX 7 1 8 2 9 3 10 4 11 5 24 6 25 7 21 8 18 9 15 10 12 11 6 12
REMARK SMILES IDX 3 13 4 14 27 15 5 16 26 17 2 18 1 19 22 20 23 21 13 22 14 23
REMARK SMILES IDX 19 24 20 25 16 26 17 27
REMARK H PARENT
REMARK Flexibility Score: inf
ROOT
ATOM      1  C   UNL     1       7.298  11.875 -19.023  1.00  0.00     0.138 A 
ATOM      2  C   UNL     1       8.368  11.627 -19.895  1.00  0.00     0.100 A 
ATOM      3  C   UNL     1       8.739  12.603 -20.818  1.00  0.00     0.197 A 
ATOM      4  O   UNL     1       9.705  12.368 -21.593  1.00  0.00    -0.289 OA
ATOM      5  C   UNL     1       8.040  13.829 -20.860  1.00  0.00     0.115 A 
ATOM      6  C   UNL     1       6.980  14.009 -19.947  1.00  0.00     0.188 A 
ATOM      7  O   UNL     1       6.665  13.044 -19.086  1.00  0.00    -0.452 OA
ATOM      8  C   UNL     1       6.233  15.193 -19.932  1.00  0.00     0.209 A 
ATOM      9  C   UNL     1       6.559  16.245 -20.826  1.00  0.00     0.211 A 
ATOM     10  C   UNL     1       7.656  16.085 -21.712  1.00  0.00     0.208 A 
ATOM     11  C   UNL     1       8.349  14.857 -21.773  1.00  0.00     0.179 A 
ENDROOT
BRANCH   1  12
ATOM     12  C   UNL     1       6.855  10.878 -18.017  1.00  0.00     0.018 A 
ATOM     13  C   UNL     1       5.996   8.943 -16.146  1.00  0.00     0.118 A 
ATOM     14  C   UNL     1       6.995   9.861 -15.808  1.00  0.00     0.047 A 
ATOM     15  C   UNL     1       5.432   8.989 -17.433  1.00  0.00     0.047 A 
ATOM     16  C   UNL     1       7.426  10.818 -16.731  1.00  0.00     0.016 A 
ATOM     17  C   UNL     1       5.861   9.944 -18.359  1.00  0.00     0.016 A 
BRANCH  13  18
ATOM     18  O   UNL     1       5.600   8.003 -15.183  1.00  0.00    -0.497 OA
ATOM     19  C   UNL     1       5.628   6.593 -15.375  1.00  0.00     0.278 C 
ENDBRANCH  13  18
ENDBRANCH   1  12
BRANCH   8  20
ATOM     20  O   UNL     1       5.180  15.255 -18.996  1.00  0.00    -0.490 OA
ATOM     21  C   UNL     1       5.185  15.928 -17.742  1.00  0.00     0.278 C 
ENDBRANCH   8  20
BRANCH  11  22
ATOM     22  O   UNL     1       9.339  14.651 -22.742  1.00  0.00    -0.492 OA
ATOM     23  C   UNL     1       9.032  14.272 -24.079  1.00  0.00     0.278 C 
ENDBRANCH  11  22
BRANCH   9  24
ATOM     24  O   UNL     1       5.783  17.420 -20.789  1.00  0.00    -0.490 OA
ATOM     25  C   UNL     1       6.041  18.598 -20.034  1.00  0.00     0.279 C 
ENDBRANCH   9  24
BRANCH  10  26
ATOM     26  O   UNL     1       8.066  17.151 -22.518  1.00  0.00    -0.490 OA
ATOM     27  C   UNL     1       9.050  18.092 -22.099  1.00  0.00     0.278 C 
ENDBRANCH  10  26
TORSDOF 6
ENDMDL
MODEL 9
REMARK VINA RESULT:    -5.695      2.349      7.693
REMARK INTER + INTRA:          -8.258
REMARK INTER:                  -7.692
REMARK INTRA:                  -0.566
REMARK UNBOUND:                -0.566
REMARK SMILES COc1ccc(-c2cc(=O)c3c(OC)c(OC)c(OC)c(OC)c3o2)cc1
REMARK SMILES IDX 7 1 8 2 9 3 10 4 11 5 24 6 25 7 21 8 18 9 15 10 12 11 6 12
REMARK SMILES IDX 3 13 4 14 27 15 5 16 26 17 2 18 1 19 22 20 23 21 13 22 14 23
REMARK SMILES IDX 19 24 20 25 16 26 17 27
REMARK H PARENT
REMARK Flexibility Score: inf
ROOT
ATOM      1  C   UNL     1       8.074  11.818 -19.724  1.00  0.00     0.138 A 
ATOM      2  C   UNL     1       8.071  11.741 -18.324  1.00  0.00     0.100 A 
ATOM      3  C   UNL     1       7.821  10.516 -17.708  1.00  0.00     0.197 A 
ATOM      4  O   UNL     1       7.824  10.459 -16.448  1.00  0.00    -0.289 OA
ATOM      5  C   UNL     1       7.580   9.370 -18.498  1.00  0.00     0.115 A 
ATOM      6  C   UNL     1       7.607   9.525 -19.899  1.00  0.00     0.188 A 
ATOM      7  O   UNL     1       7.850  10.718 -20.438  1.00  0.00    -0.452 OA
ATOM      8  C   UNL     1       7.370   8.439 -20.750  1.00  0.00     0.209 A 
ATOM      9  C   UNL     1       7.126   7.153 -20.204  1.00  0.00     0.211 A 
ATOM     10  C   UNL     1       7.147   6.986 -18.794  1.00  0.00     0.208 A 
ATOM     11  C   UNL     1       7.307   8.102 -17.947  1.00  0.00     0.179 A 
ENDROOT
BRANCH   1  12
ATOM     12  C   UNL     1       8.335  13.092 -20.441  1.00  0.00     0.018 A 
ATOM     13  C   UNL     1       8.794  15.543 -21.769  1.00  0.00     0.118 A 
ATOM     14  C   UNL     1       9.789  14.561 -21.729  1.00  0.00     0.047 A 
ATOM     15  C   UNL     1       7.565  15.298 -21.130  1.00  0.00     0.047 A 
ATOM     16  C   UNL     1       9.568  13.349 -21.070  1.00  0.00     0.016 A 
ATOM     17  C   UNL     1       7.342  14.086 -20.470  1.00  0.00     0.016 A 
BRANCH  13  18
ATOM     18  O   UNL     1       9.066  16.742 -22.443  1.00  0.00    -0.497 OA
ATOM     19  C   UNL     1       8.928  18.037 -21.869  1.00  0.00     0.278 C 
ENDBRANCH  13  18
ENDBRANCH   1  12
BRANCH   8  20
ATOM     20  O   UNL     1       7.395   8.713 -22.133  1.00  0.00    -0.490 OA
ATOM     21  C   UNL     1       6.291   9.075 -22.956  1.00  0.00     0.278 C 
ENDBRANCH   8  20
BRANCH  11  22
ATOM     22  O   UNL     1       7.189   7.959 -16.558  1.00  0.00    -0.492 OA
ATOM     23  C   UNL     1       5.928   7.901 -15.901  1.00  0.00     0.278 C 
ENDBRANCH  11  22
BRANCH   9  24
ATOM     24  O   UNL     1       6.885   6.084 -21.088  1.00  0.00    -0.490 OA
ATOM     25  C   UNL     1       5.635   5.690 -21.643  1.00  0.00     0.279 C 
ENDBRANCH   9  24
BRANCH  10  26
ATOM     26  O   UNL     1       7.026   5.708 -18.240  1.00  0.00    -0.490 OA
ATOM     27  C   UNL     1       5.765   5.073 -18.048  1.00  0.00     0.278 C 
ENDBRANCH  10  26
TORSDOF 6
ENDMDL
