MODEL 1
REMARK VINA RESULT:    -2.782      0.000      0.000
REMARK INTER + INTRA:          -4.660
REMARK INTER:                  -3.758
REMARK INTRA:                  -0.902
REMARK UNBOUND:                -0.902
REMARK SMILES O=C[C@H](O)[C@@H](O)[C@@H](O)CO
REMARK SMILES IDX 7 1 9 2 10 3 5 5 3 6 2 7 1 8 4 9 6 11 8 13
REMARK H PARENT 10 4 4 10 6 12 8 14
REMARK Flexibility Score: inf
ROOT
ATOM      1  C   UNL     1     124.030  58.177  51.559  1.00  0.00     0.171 C 
ENDROOT
BRANCH   1   2
ATOM      2  C   UNL     1     125.352  58.689  52.159  1.00  0.00     0.190 C 
BRANCH   2   3
ATOM      3  O   UNL     1     126.315  57.671  52.181  1.00  0.00    -0.394 OA
ATOM      4  H   UNL     1     127.065  57.988  51.613  1.00  0.00     0.210 HD
ENDBRANCH   2   3
ENDBRANCH   1   2
BRANCH   1   5
ATOM      5  C   UNL     1     123.597  56.781  52.101  1.00  0.00     0.181 C 
BRANCH   5   6
ATOM      6  C   UNL     1     123.946  55.544  51.222  1.00  0.00     0.209 C 
BRANCH   6   7
ATOM      7  C   UNL     1     124.717  54.483  51.959  1.00  0.00     0.258 C 
ATOM      8  O   UNL     1     125.910  54.621  52.180  1.00  0.00    -0.300 OA
ENDBRANCH   6   7
BRANCH   6   9
ATOM      9  O   UNL     1     124.675  55.934  50.087  1.00  0.00    -0.383 OA
ATOM     10  H   UNL     1     124.248  56.759  49.736  1.00  0.00     0.211 HD
ENDBRANCH   6   9
ENDBRANCH   5   6
BRANCH   5  11
ATOM     11  O   UNL     1     124.068  56.597  53.415  1.00  0.00    -0.387 OA
ATOM     12  H   UNL     1     124.785  55.912  53.391  1.00  0.00     0.211 HD
ENDBRANCH   5  11
ENDBRANCH   1   5
BRANCH   1  13
ATOM     13  O   UNL     1     123.008  59.124  51.736  1.00  0.00    -0.388 OA
ATOM     14  H   UNL     1     123.439  59.957  52.060  1.00  0.00     0.211 HD
ENDBRANCH   1  13
TORSDOF 8
ENDMDL
MODEL 2
REMARK VINA RESULT:    -2.550     12.144     13.172
REMARK INTER + INTRA:          -4.346
REMARK INTER:                  -3.458
REMARK INTRA:                  -0.888
REMARK UNBOUND:                -0.902
REMARK SMILES O=C[C@H](O)[C@@H](O)[C@@H](O)CO
REMARK SMILES IDX 7 1 9 2 10 3 5 5 3 6 2 7 1 8 4 9 6 11 8 13
REMARK H PARENT 10 4 4 10 6 12 8 14
REMARK Flexibility Score: inf
ROOT
ATOM      1  C   UNL     1     111.144  56.767  47.035  1.00  0.00     0.171 C 
ENDROOT
BRANCH   1   2
ATOM      2  C   UNL     1     111.131  58.286  47.291  1.00  0.00     0.190 C 
BRANCH   2   3
ATOM      3  O   UNL     1     112.414  58.744  47.619  1.00  0.00    -0.394 OA
ATOM      4  H   UNL     1     112.438  58.810  48.609  1.00  0.00     0.210 HD
ENDBRANCH   2   3
ENDBRANCH   1   2
BRANCH   1   5
ATOM      5  C   UNL     1     111.392  55.919  48.318  1.00  0.00     0.181 C 
BRANCH   5   6
ATOM      6  C   UNL     1     112.717  55.102  48.379  1.00  0.00     0.209 C 
BRANCH   6   7
ATOM      7  C   UNL     1     113.760  55.718  49.270  1.00  0.00     0.258 C 
ATOM      8  O   UNL     1     114.212  56.827  49.026  1.00  0.00    -0.300 OA
ENDBRANCH   6   7
BRANCH   6   9
ATOM      9  O   UNL     1     113.254  54.936  47.092  1.00  0.00    -0.383 OA
ATOM     10  H   UNL     1     112.914  55.684  46.536  1.00  0.00     0.211 HD
ENDBRANCH   6   9
ENDBRANCH   5   6
BRANCH   5  11
ATOM     11  O   UNL     1     111.256  56.719  49.469  1.00  0.00    -0.387 OA
ATOM     12  H   UNL     1     110.291  56.900  49.604  1.00  0.00     0.211 HD
ENDBRANCH   5  11
ENDBRANCH   1   5
BRANCH   1  13
ATOM     13  O   UNL     1     109.965  56.366  46.386  1.00  0.00    -0.388 OA
ATOM     14  H   UNL     1     109.210  56.787  46.873  1.00  0.00     0.211 HD
ENDBRANCH   1  13
TORSDOF 8
ENDMDL
MODEL 3
REMARK VINA RESULT:    -2.541      9.873     11.011
REMARK INTER + INTRA:          -4.335
REMARK INTER:                  -3.562
REMARK INTRA:                  -0.772
REMARK UNBOUND:                -0.902
REMARK SMILES O=C[C@H](O)[C@@H](O)[C@@H](O)CO
REMARK SMILES IDX 7 1 9 2 10 3 5 5 3 6 2 7 1 8 4 9 6 11 8 13
REMARK H PARENT 10 4 4 10 6 12 8 14
REMARK Flexibility Score: inf
ROOT
ATOM      1  C   UNL     1     115.640  50.586  51.780  1.00  0.00     0.171 C 
ENDROOT
BRANCH   1   2
ATOM      2  C   UNL     1     115.076  49.311  51.127  1.00  0.00     0.190 C 
BRANCH   2   3
ATOM      3  O   UNL     1     113.712  49.462  50.841  1.00  0.00    -0.394 OA
ATOM      4  H   UNL     1     113.481  48.733  50.208  1.00  0.00     0.210 HD
ENDBRANCH   2   3
ENDBRANCH   1   2
BRANCH   1   5
ATOM      5  C   UNL     1     116.574  51.408  50.842  1.00  0.00     0.181 C 
BRANCH   5   6
ATOM      6  C   UNL     1     115.891  52.432  49.887  1.00  0.00     0.209 C 
BRANCH   6   7
ATOM      7  C   UNL     1     115.898  53.840  50.416  1.00  0.00     0.258 C 
ATOM      8  O   UNL     1     115.430  54.094  51.515  1.00  0.00    -0.300 OA
ENDBRANCH   6   7
BRANCH   6   9
ATOM      9  O   UNL     1     114.568  52.049  49.618  1.00  0.00    -0.383 OA
ATOM     10  H   UNL     1     114.595  51.434  48.840  1.00  0.00     0.211 HD
ENDBRANCH   6   9
ENDBRANCH   5   6
BRANCH   5  11
ATOM     11  O   UNL     1     117.590  52.035  51.587  1.00  0.00    -0.387 OA
ATOM     12  H   UNL     1     118.464  51.759  51.208  1.00  0.00     0.211 HD
ENDBRANCH   5  11
ENDBRANCH   1   5
BRANCH   1  13
ATOM     13  O   UNL     1     114.600  51.387  52.282  1.00  0.00    -0.388 OA
ATOM     14  H   UNL     1     114.193  51.851  51.505  1.00  0.00     0.211 HD
ENDBRANCH   1  13
TORSDOF 8
ENDMDL
MODEL 4
REMARK VINA RESULT:    -2.503      8.383     10.262
REMARK INTER + INTRA:          -4.283
REMARK INTER:                  -3.642
REMARK INTRA:                  -0.641
REMARK UNBOUND:                -0.902
REMARK SMILES O=C[C@H](O)[C@@H](O)[C@@H](O)CO
REMARK SMILES IDX 7 1 9 2 10 3 5 5 3 6 2 7 1 8 4 9 6 11 8 13
REMARK H PARENT 10 4 4 10 6 12 8 14
REMARK Flexibility Score: inf
ROOT
ATOM      1  C   UNL     1     124.121  51.446  42.316  1.00  0.00     0.171 C 
ENDROOT
BRANCH   1   2
ATOM      2  C   UNL     1     122.732  50.938  42.746  1.00  0.00     0.190 C 
BRANCH   2   3
ATOM      3  O   UNL     1     122.790  49.588  43.116  1.00  0.00    -0.394 OA
ATOM      4  H   UNL     1     122.063  49.134  42.616  1.00  0.00     0.210 HD
ENDBRANCH   2   3
ENDBRANCH   1   2
BRANCH   1   5
ATOM      5  C   UNL     1     124.832  52.314  43.398  1.00  0.00     0.181 C 
BRANCH   5   6
ATOM      6  C   UNL     1     124.915  51.720  44.835  1.00  0.00     0.209 C 
BRANCH   6   7
ATOM      7  C   UNL     1     125.833  52.486  45.748  1.00  0.00     0.258 C 
ATOM      8  O   UNL     1     126.047  53.674  45.561  1.00  0.00    -0.300 OA
ENDBRANCH   6   7
BRANCH   6   9
ATOM      9  O   UNL     1     125.327  50.378  44.792  1.00  0.00    -0.383 OA
ATOM     10  H   UNL     1     124.743  49.915  44.137  1.00  0.00     0.211 HD
ENDBRANCH   6   9
ENDBRANCH   5   6
BRANCH   5  11
ATOM     11  O   UNL     1     126.109  52.703  42.954  1.00  0.00    -0.387 OA
ATOM     12  H   UNL     1     126.071  53.664  42.711  1.00  0.00     0.211 HD
ENDBRANCH   5  11
ENDBRANCH   1   5
BRANCH   1  13
ATOM     13  O   UNL     1     124.936  50.376  41.914  1.00  0.00    -0.388 OA
ATOM     14  H   UNL     1     125.738  50.770  41.482  1.00  0.00     0.211 HD
ENDBRANCH   1  13
TORSDOF 8
ENDMDL
MODEL 5
REMARK VINA RESULT:    -2.490      1.803      2.776
REMARK INTER + INTRA:          -4.265
REMARK INTER:                  -3.611
REMARK INTRA:                  -0.654
REMARK UNBOUND:                -0.902
REMARK SMILES O=C[C@H](O)[C@@H](O)[C@@H](O)CO
REMARK SMILES IDX 7 1 9 2 10 3 5 5 3 6 2 7 1 8 4 9 6 11 8 13
REMARK H PARENT 10 4 4 10 6 12 8 14
REMARK Flexibility Score: inf
ROOT
ATOM      1  C   UNL     1     122.585  58.143  51.174  1.00  0.00     0.171 C 
ENDROOT
BRANCH   1   2
ATOM      2  C   UNL     1     121.905  58.679  49.901  1.00  0.00     0.190 C 
BRANCH   2   3
ATOM      3  O   UNL     1     121.816  57.677  48.926  1.00  0.00    -0.394 OA
ATOM      4  H   UNL     1     122.689  57.671  48.455  1.00  0.00     0.210 HD
ENDBRANCH   2   3
ENDBRANCH   1   2
BRANCH   1   5
ATOM      5  C   UNL     1     123.367  56.813  50.953  1.00  0.00     0.181 C 
BRANCH   5   6
ATOM      6  C   UNL     1     124.546  56.518  51.926  1.00  0.00     0.209 C 
BRANCH   6   7
ATOM      7  C   UNL     1     124.914  55.061  51.997  1.00  0.00     0.258 C 
ATOM      8  O   UNL     1     124.461  54.347  52.878  1.00  0.00    -0.300 OA
ENDBRANCH   6   7
BRANCH   6   9
ATOM      9  O   UNL     1     124.247  56.978  53.218  1.00  0.00    -0.383 OA
ATOM     10  H   UNL     1     123.634  56.315  53.629  1.00  0.00     0.211 HD
ENDBRANCH   6   9
ENDBRANCH   5   6
BRANCH   5  11
ATOM     11  O   UNL     1     122.478  55.722  50.913  1.00  0.00    -0.387 OA
ATOM     12  H   UNL     1     121.622  56.008  51.324  1.00  0.00     0.211 HD
ENDBRANCH   5  11
ENDBRANCH   1   5
BRANCH   1  13
ATOM     13  O   UNL     1     123.413  59.125  51.744  1.00  0.00    -0.388 OA
ATOM     14  H   UNL     1     123.711  58.776  52.624  1.00  0.00     0.211 HD
ENDBRANCH   1  13
TORSDOF 8
ENDMDL
MODEL 6
REMARK VINA RESULT:    -2.480      9.685     10.850
REMARK INTER + INTRA:          -4.252
REMARK INTER:                  -3.575
REMARK INTRA:                  -0.678
REMARK UNBOUND:                -0.902
REMARK SMILES O=C[C@H](O)[C@@H](O)[C@@H](O)CO
REMARK SMILES IDX 7 1 9 2 10 3 5 5 3 6 2 7 1 8 4 9 6 11 8 13
REMARK H PARENT 10 4 4 10 6 12 8 14
REMARK Flexibility Score: inf
ROOT
ATOM      1  C   UNL     1     115.735  50.535  50.827  1.00  0.00     0.171 C 
ENDROOT
BRANCH   1   2
ATOM      2  C   UNL     1     114.915  49.235  50.738  1.00  0.00     0.190 C 
BRANCH   2   3
ATOM      3  O   UNL     1     113.549  49.496  50.910  1.00  0.00    -0.394 OA
ATOM      4  H   UNL     1     113.258  49.983  50.096  1.00  0.00     0.210 HD
ENDBRANCH   2   3
ENDBRANCH   1   2
BRANCH   1   5
ATOM      5  C   UNL     1     115.826  51.119  52.268  1.00  0.00     0.181 C 
BRANCH   5   6
ATOM      6  C   UNL     1     117.104  51.939  52.618  1.00  0.00     0.209 C 
BRANCH   6   7
ATOM      7  C   UNL     1     117.064  52.555  53.990  1.00  0.00     0.258 C 
ATOM      8  O   UNL     1     116.337  52.096  54.857  1.00  0.00    -0.300 OA
ENDBRANCH   6   7
BRANCH   6   9
ATOM      9  O   UNL     1     117.317  52.950  51.667  1.00  0.00    -0.383 OA
ATOM     10  H   UNL     1     117.768  52.529  50.890  1.00  0.00     0.211 HD
ENDBRANCH   6   9
ENDBRANCH   5   6
BRANCH   5  11
ATOM     11  O   UNL     1     114.669  51.862  52.572  1.00  0.00    -0.387 OA
ATOM     12  H   UNL     1     113.881  51.286  52.399  1.00  0.00     0.211 HD
ENDBRANCH   5  11
ENDBRANCH   1   5
BRANCH   1  13
ATOM     13  O   UNL     1     117.014  50.352  50.276  1.00  0.00    -0.388 OA
ATOM     14  H   UNL     1     117.266  51.207  49.840  1.00  0.00     0.211 HD
ENDBRANCH   1  13
TORSDOF 8
ENDMDL
MODEL 7
REMARK VINA RESULT:    -2.473     13.195     14.482
REMARK INTER + INTRA:          -4.242
REMARK INTER:                  -3.328
REMARK INTRA:                  -0.914
REMARK UNBOUND:                -0.902
REMARK SMILES O=C[C@H](O)[C@@H](O)[C@@H](O)CO
REMARK SMILES IDX 7 1 9 2 10 3 5 5 3 6 2 7 1 8 4 9 6 11 8 13
REMARK H PARENT 10 4 4 10 6 12 8 14
REMARK Flexibility Score: inf
ROOT
ATOM      1  C   UNL     1     112.125  56.396  48.261  1.00  0.00     0.171 C 
ENDROOT
BRANCH   1   2
ATOM      2  C   UNL     1     110.795  55.787  48.740  1.00  0.00     0.190 C 
BRANCH   2   3
ATOM      3  O   UNL     1     110.037  55.331  47.654  1.00  0.00    -0.394 OA
ATOM      4  H   UNL     1     109.315  55.999  47.522  1.00  0.00     0.210 HD
ENDBRANCH   2   3
ENDBRANCH   1   2
BRANCH   1   5
ATOM      5  C   UNL     1     111.954  57.727  47.469  1.00  0.00     0.181 C 
BRANCH   5   6
ATOM      6  C   UNL     1     111.800  57.613  45.923  1.00  0.00     0.209 C 
BRANCH   6   7
ATOM      7  C   UNL     1     110.468  58.095  45.416  1.00  0.00     0.258 C 
ATOM      8  O   UNL     1     109.444  57.485  45.682  1.00  0.00    -0.300 OA
ENDBRANCH   6   7
BRANCH   6   9
ATOM      9  O   UNL     1     111.998  56.288  45.503  1.00  0.00    -0.383 OA
ATOM     10  H   UNL     1     112.951  56.206  45.236  1.00  0.00     0.211 HD
ENDBRANCH   6   9
ENDBRANCH   5   6
BRANCH   5  11
ATOM     11  O   UNL     1     110.902  58.489  48.011  1.00  0.00    -0.387 OA
ATOM     12  H   UNL     1     111.153  58.744  48.936  1.00  0.00     0.211 HD
ENDBRANCH   5  11
ENDBRANCH   1   5
BRANCH   1  13
ATOM     13  O   UNL     1     113.010  56.562  49.339  1.00  0.00    -0.388 OA
ATOM     14  H   UNL     1     112.539  56.241  50.151  1.00  0.00     0.211 HD
ENDBRANCH   1  13
TORSDOF 8
ENDMDL
MODEL 8
REMARK VINA RESULT:    -2.418      8.105     10.015
REMARK INTER + INTRA:          -4.168
REMARK INTER:                  -3.527
REMARK INTRA:                  -0.641
REMARK UNBOUND:                -0.902
REMARK SMILES O=C[C@H](O)[C@@H](O)[C@@H](O)CO
REMARK SMILES IDX 7 1 9 2 10 3 5 5 3 6 2 7 1 8 4 9 6 11 8 13
REMARK H PARENT 10 4 4 10 6 12 8 14
REMARK Flexibility Score: inf
ROOT
ATOM      1  C   UNL     1     124.191  51.571  43.688  1.00  0.00     0.171 C 
ENDROOT
BRANCH   1   2
ATOM      2  C   UNL     1     123.840  50.587  42.557  1.00  0.00     0.190 C 
BRANCH   2   3
ATOM      3  O   UNL     1     124.989  50.221  41.843  1.00  0.00    -0.394 OA
ATOM      4  H   UNL     1     125.697  50.863  42.112  1.00  0.00     0.210 HD
ENDBRANCH   2   3
ENDBRANCH   1   2
BRANCH   1   5
ATOM      5  C   UNL     1     124.817  52.906  43.183  1.00  0.00     0.181 C 
BRANCH   5   6
ATOM      6  C   UNL     1     124.507  54.188  44.011  1.00  0.00     0.209 C 
BRANCH   6   7
ATOM      7  C   UNL     1     124.980  55.455  43.353  1.00  0.00     0.258 C 
ATOM      8  O   UNL     1     126.090  55.517  42.846  1.00  0.00    -0.300 OA
ENDBRANCH   6   7
BRANCH   6   9
ATOM      9  O   UNL     1     125.075  54.098  45.292  1.00  0.00    -0.383 OA
ATOM     10  H   UNL     1     125.980  54.502  45.238  1.00  0.00     0.211 HD
ENDBRANCH   6   9
ENDBRANCH   5   6
BRANCH   5  11
ATOM     11  O   UNL     1     126.206  52.760  43.006  1.00  0.00    -0.387 OA
ATOM     12  H   UNL     1     126.663  53.296  43.704  1.00  0.00     0.211 HD
ENDBRANCH   5  11
ENDBRANCH   1   5
BRANCH   1  13
ATOM     13  O   UNL     1     123.068  51.816  44.495  1.00  0.00    -0.388 OA
ATOM     14  H   UNL     1     122.410  51.099  44.301  1.00  0.00     0.211 HD
ENDBRANCH   1  13
TORSDOF 8
ENDMDL
MODEL 9
REMARK VINA RESULT:    -2.402      7.261      9.007
REMARK INTER + INTRA:          -4.146
REMARK INTER:                  -3.355
REMARK INTRA:                  -0.791
REMARK UNBOUND:                -0.902
REMARK SMILES O=C[C@H](O)[C@@H](O)[C@@H](O)CO
REMARK SMILES IDX 7 1 9 2 10 3 5 5 3 6 2 7 1 8 4 9 6 11 8 13
REMARK H PARENT 10 4 4 10 6 12 8 14
REMARK Flexibility Score: inf
ROOT
ATOM      1  C   UNL     1     124.645  52.418  45.297  1.00  0.00     0.171 C 
ENDROOT
BRANCH   1   2
ATOM      2  C   UNL     1     125.093  50.948  45.388  1.00  0.00     0.190 C 
BRANCH   2   3
ATOM      3  O   UNL     1     124.981  50.316  44.142  1.00  0.00    -0.394 OA
ATOM      4  H   UNL     1     125.650  50.751  43.552  1.00  0.00     0.210 HD
ENDBRANCH   2   3
ENDBRANCH   1   2
BRANCH   1   5
ATOM      5  C   UNL     1     125.828  53.430  45.237  1.00  0.00     0.181 C 
BRANCH   5   6
ATOM      6  C   UNL     1     126.410  53.753  43.829  1.00  0.00     0.209 C 
BRANCH   6   7
ATOM      7  C   UNL     1     125.889  55.039  43.247  1.00  0.00     0.258 C 
ATOM      8  O   UNL     1     124.692  55.283  43.250  1.00  0.00    -0.300 OA
ENDBRANCH   6   7
BRANCH   6   9
ATOM      9  O   UNL     1     126.146  52.705  42.933  1.00  0.00    -0.383 OA
ATOM     10  H   UNL     1     126.491  52.986  42.046  1.00  0.00     0.211 HD
ENDBRANCH   6   9
ENDBRANCH   5   6
BRANCH   5  11
ATOM     11  O   UNL     1     125.494  54.617  45.915  1.00  0.00    -0.387 OA
ATOM     12  H   UNL     1     124.872  55.134  45.340  1.00  0.00     0.211 HD
ENDBRANCH   5  11
ENDBRANCH   1   5
BRANCH   1  13
ATOM     13  O   UNL     1     123.771  52.602  44.213  1.00  0.00    -0.388 OA
ATOM     14  H   UNL     1     123.654  53.581  44.099  1.00  0.00     0.211 HD
ENDBRANCH   1  13
TORSDOF 8
ENDMDL
