MODEL 1
REMARK VINA RESULT:    -2.875      0.000      0.000
REMARK INTER + INTRA:          -3.655
REMARK INTER:                  -3.547
REMARK INTRA:                  -0.108
REMARK UNBOUND:                -0.108
REMARK SMILES CCCCCC(=O)[O-]
REMARK SMILES IDX 4 1 5 2 6 3 7 4 8 5 3 6 2 7 1 8
REMARK H PARENT
REMARK Flexibility Score: inf
ROOT
ATOM      1  C   UNL     1      10.045  -1.250   7.783  1.00  0.00     0.006 C 
ENDROOT
BRANCH   1   2
ATOM      2  C   UNL     1      10.511  -2.187   8.911  1.00  0.00     0.053 C 
BRANCH   2   3
ATOM      3  C   UNL     1       9.604  -3.366   9.090  1.00  0.00     0.041 C 
ATOM      4  O   UNL     1       9.297  -4.085   8.103  1.00  0.00    -0.550 OA
ATOM      5  O   UNL     1       9.126  -3.695  10.352  1.00  0.00    -0.550 OA
ENDBRANCH   2   3
ENDBRANCH   1   2
BRANCH   1   6
ATOM      6  C   UNL     1       9.238  -0.035   8.275  1.00  0.00     0.000 C 
BRANCH   6   7
ATOM      7  C   UNL     1      10.092   0.982   9.046  1.00  0.00    -0.003 C 
ATOM      8  C   UNL     1       9.710   1.015  10.523  1.00  0.00     0.004 C 
ENDBRANCH   6   7
ENDBRANCH   1   6
TORSDOF 4
ENDMDL
MODEL 2
REMARK VINA RESULT:    -2.802     11.499     12.123
REMARK INTER + INTRA:          -3.566
REMARK INTER:                  -3.449
REMARK INTRA:                  -0.116
REMARK UNBOUND:                -0.108
REMARK SMILES CCCCCC(=O)[O-]
REMARK SMILES IDX 4 1 5 2 6 3 7 4 8 5 3 6 2 7 1 8
REMARK H PARENT
REMARK Flexibility Score: inf
ROOT
ATOM      1  C   UNL     1      -2.027  -3.109   7.237  1.00  0.00     0.006 C 
ENDROOT
BRANCH   1   2
ATOM      2  C   UNL     1      -3.100  -2.405   8.086  1.00  0.00     0.053 C 
BRANCH   2   3
ATOM      3  C   UNL     1      -2.515  -1.410   9.041  1.00  0.00     0.041 C 
ATOM      4  O   UNL     1      -2.060  -0.315   8.616  1.00  0.00    -0.550 OA
ATOM      5  O   UNL     1      -2.504  -1.673  10.405  1.00  0.00    -0.550 OA
ENDBRANCH   2   3
ENDBRANCH   1   2
BRANCH   1   6
ATOM      6  C   UNL     1      -1.802  -2.466   5.857  1.00  0.00     0.000 C 
BRANCH   6   7
ATOM      7  C   UNL     1      -0.361  -1.980   5.647  1.00  0.00    -0.003 C 
ATOM      8  C   UNL     1      -0.094  -1.667   4.178  1.00  0.00     0.004 C 
ENDBRANCH   6   7
ENDBRANCH   1   6
TORSDOF 4
ENDMDL
MODEL 3
REMARK VINA RESULT:    -2.794     12.735     13.305
REMARK INTER + INTRA:          -3.556
REMARK INTER:                  -3.465
REMARK INTRA:                  -0.091
REMARK UNBOUND:                -0.108
REMARK SMILES CCCCCC(=O)[O-]
REMARK SMILES IDX 4 1 5 2 6 3 7 4 8 5 3 6 2 7 1 8
REMARK H PARENT
REMARK Flexibility Score: inf
ROOT
ATOM      1  C   UNL     1      -3.260  -3.989   7.007  1.00  0.00     0.006 C 
ENDROOT
BRANCH   1   2
ATOM      2  C   UNL     1      -3.476  -4.963   5.836  1.00  0.00     0.053 C 
BRANCH   2   3
ATOM      3  C   UNL     1      -3.854  -6.338   6.294  1.00  0.00     0.041 C 
ATOM      4  O   UNL     1      -4.553  -6.492   7.331  1.00  0.00    -0.550 OA
ATOM      5  O   UNL     1      -3.464  -7.452   5.560  1.00  0.00    -0.550 OA
ENDBRANCH   2   3
ENDBRANCH   1   2
BRANCH   1   6
ATOM      6  C   UNL     1      -1.833  -3.417   7.087  1.00  0.00     0.000 C 
BRANCH   6   7
ATOM      7  C   UNL     1      -1.692  -2.053   6.396  1.00  0.00    -0.003 C 
ATOM      8  C   UNL     1      -0.417  -1.989   5.560  1.00  0.00     0.004 C 
ENDBRANCH   6   7
ENDBRANCH   1   6
TORSDOF 4
ENDMDL
MODEL 4
REMARK VINA RESULT:    -2.790     12.234     13.135
REMARK INTER + INTRA:          -3.551
REMARK INTER:                  -3.468
REMARK INTRA:                  -0.083
REMARK UNBOUND:                -0.108
REMARK SMILES CCCCCC(=O)[O-]
REMARK SMILES IDX 4 1 5 2 6 3 7 4 8 5 3 6 2 7 1 8
REMARK H PARENT
REMARK Flexibility Score: inf
ROOT
ATOM      1  C   UNL     1      -2.082  -3.558   7.112  1.00  0.00     0.006 C 
ENDROOT
BRANCH   1   2
ATOM      2  C   UNL     1      -2.047  -2.031   6.928  1.00  0.00     0.053 C 
BRANCH   2   3
ATOM      3  C   UNL     1      -1.247  -1.614   5.731  1.00  0.00     0.041 C 
ATOM      4  O   UNL     1      -0.080  -2.059   5.563  1.00  0.00    -0.550 OA
ATOM      5  O   UNL     1      -1.799  -0.763   4.782  1.00  0.00    -0.550 OA
ENDBRANCH   2   3
ENDBRANCH   1   2
BRANCH   1   6
ATOM      6  C   UNL     1      -3.138  -4.266   6.244  1.00  0.00     0.000 C 
BRANCH   6   7
ATOM      7  C   UNL     1      -3.873  -5.390   6.989  1.00  0.00    -0.003 C 
ATOM      8  C   UNL     1      -3.820  -6.697   6.205  1.00  0.00     0.004 C 
ENDBRANCH   6   7
ENDBRANCH   1   6
TORSDOF 4
ENDMDL
MODEL 5
REMARK VINA RESULT:    -2.756     12.457     13.356
REMARK INTER + INTRA:          -3.509
REMARK INTER:                  -3.422
REMARK INTRA:                  -0.086
REMARK UNBOUND:                -0.108
REMARK SMILES CCCCCC(=O)[O-]
REMARK SMILES IDX 4 1 5 2 6 3 7 4 8 5 3 6 2 7 1 8
REMARK H PARENT
REMARK Flexibility Score: inf
ROOT
ATOM      1  C   UNL     1      -3.083  -3.582   7.083  1.00  0.00     0.006 C 
ENDROOT
BRANCH   1   2
ATOM      2  C   UNL     1      -1.599  -3.179   7.046  1.00  0.00     0.053 C 
BRANCH   2   3
ATOM      3  C   UNL     1      -1.332  -2.056   6.090  1.00  0.00     0.041 C 
ATOM      4  O   UNL     1      -2.187  -1.145   5.928  1.00  0.00    -0.550 OA
ATOM      5  O   UNL     1      -0.126  -1.994   5.403  1.00  0.00    -0.550 OA
ENDBRANCH   2   3
ENDBRANCH   1   2
BRANCH   1   6
ATOM      6  C   UNL     1      -3.459  -4.672   6.064  1.00  0.00     0.000 C 
BRANCH   6   7
ATOM      7  C   UNL     1      -3.915  -5.981   6.725  1.00  0.00    -0.003 C 
ATOM      8  C   UNL     1      -3.778  -7.159   5.765  1.00  0.00     0.004 C 
ENDBRANCH   6   7
ENDBRANCH   1   6
TORSDOF 4
ENDMDL
MODEL 6
REMARK VINA RESULT:    -2.745     11.895     12.457
REMARK INTER + INTRA:          -3.495
REMARK INTER:                  -3.297
REMARK INTRA:                  -0.198
REMARK UNBOUND:                -0.108
REMARK SMILES CCCCCC(=O)[O-]
REMARK SMILES IDX 4 1 5 2 6 3 7 4 8 5 3 6 2 7 1 8
REMARK H PARENT
REMARK Flexibility Score: inf
ROOT
ATOM      1  C   UNL     1      -2.349  -2.131   7.256  1.00  0.00     0.006 C 
ENDROOT
BRANCH   1   2
ATOM      2  C   UNL     1      -2.039  -3.632   7.125  1.00  0.00     0.053 C 
BRANCH   2   3
ATOM      3  C   UNL     1      -3.129  -4.385   6.426  1.00  0.00     0.041 C 
ATOM      4  O   UNL     1      -3.468  -4.068   5.256  1.00  0.00    -0.550 OA
ATOM      5  O   UNL     1      -3.748  -5.461   7.052  1.00  0.00    -0.550 OA
ENDBRANCH   2   3
ENDBRANCH   1   2
BRANCH   1   6
ATOM      6  C   UNL     1      -1.553  -1.242   6.283  1.00  0.00     0.000 C 
BRANCH   6   7
ATOM      7  C   UNL     1      -0.402  -1.988   5.592  1.00  0.00    -0.003 C 
ATOM      8  C   UNL     1      -0.368  -1.682   4.097  1.00  0.00     0.004 C 
ENDBRANCH   6   7
ENDBRANCH   1   6
TORSDOF 4
ENDMDL
MODEL 7
REMARK VINA RESULT:    -2.709     11.851     12.660
REMARK INTER + INTRA:          -3.450
REMARK INTER:                  -3.318
REMARK INTRA:                  -0.133
REMARK UNBOUND:                -0.108
REMARK SMILES CCCCCC(=O)[O-]
REMARK SMILES IDX 4 1 5 2 6 3 7 4 8 5 3 6 2 7 1 8
REMARK H PARENT
REMARK Flexibility Score: inf
ROOT
ATOM      1  C   UNL     1      -1.693  -2.030   6.591  1.00  0.00     0.006 C 
ENDROOT
BRANCH   1   2
ATOM      2  C   UNL     1      -0.472  -1.977   5.656  1.00  0.00     0.053 C 
BRANCH   2   3
ATOM      3  C   UNL     1      -0.850  -1.705   4.232  1.00  0.00     0.041 C 
ATOM      4  O   UNL     1       0.014  -1.793   3.320  1.00  0.00    -0.550 OA
ATOM      5  O   UNL     1      -2.163  -1.389   3.906  1.00  0.00    -0.550 OA
ENDBRANCH   2   3
ENDBRANCH   1   2
BRANCH   1   6
ATOM      6  C   UNL     1      -2.071  -3.452   7.043  1.00  0.00     0.000 C 
BRANCH   6   7
ATOM      7  C   UNL     1      -3.351  -3.975   6.377  1.00  0.00    -0.003 C 
ATOM      8  C   UNL     1      -3.635  -5.418   6.785  1.00  0.00     0.004 C 
ENDBRANCH   6   7
ENDBRANCH   1   6
TORSDOF 4
ENDMDL
MODEL 8
REMARK VINA RESULT:    -2.692     13.595     14.125
REMARK INTER + INTRA:          -3.430
REMARK INTER:                  -3.166
REMARK INTRA:                  -0.264
REMARK UNBOUND:                -0.108
REMARK SMILES CCCCCC(=O)[O-]
REMARK SMILES IDX 4 1 5 2 6 3 7 4 8 5 3 6 2 7 1 8
REMARK H PARENT
REMARK Flexibility Score: inf
ROOT
ATOM      1  C   UNL     1      -3.640  -1.312  11.386  1.00  0.00     0.006 C 
ENDROOT
BRANCH   1   2
ATOM      2  C   UNL     1      -2.508  -1.408  10.348  1.00  0.00     0.053 C 
BRANCH   2   3
ATOM      3  C   UNL     1      -3.018  -1.672   8.964  1.00  0.00     0.041 C 
ATOM      4  O   UNL     1      -2.381  -2.433   8.189  1.00  0.00    -0.550 OA
ATOM      5  O   UNL     1      -4.215  -1.108   8.541  1.00  0.00    -0.550 OA
ENDBRANCH   2   3
ENDBRANCH   1   2
BRANCH   1   6
ATOM      6  C   UNL     1      -4.229  -2.674  11.795  1.00  0.00     0.000 C 
BRANCH   6   7
ATOM      7  C   UNL     1      -5.686  -2.859  11.349  1.00  0.00    -0.003 C 
ATOM      8  C   UNL     1      -5.797  -3.915  10.254  1.00  0.00     0.004 C 
ENDBRANCH   6   7
ENDBRANCH   1   6
TORSDOF 4
ENDMDL
MODEL 9
REMARK VINA RESULT:    -2.657     13.174     13.658
REMARK INTER + INTRA:          -3.387
REMARK INTER:                  -3.237
REMARK INTRA:                  -0.149
REMARK UNBOUND:                -0.108
REMARK SMILES CCCCCC(=O)[O-]
REMARK SMILES IDX 4 1 5 2 6 3 7 4 8 5 3 6 2 7 1 8
REMARK H PARENT
REMARK Flexibility Score: inf
ROOT
ATOM      1  C   UNL     1      -3.060  -4.237   6.304  1.00  0.00     0.006 C 
ENDROOT
BRANCH   1   2
ATOM      2  C   UNL     1      -4.187  -4.799   7.188  1.00  0.00     0.053 C 
BRANCH   2   3
ATOM      3  C   UNL     1      -5.036  -3.721   7.790  1.00  0.00     0.041 C 
ATOM      4  O   UNL     1      -5.472  -2.783   7.072  1.00  0.00    -0.550 OA
ATOM      5  O   UNL     1      -5.377  -3.770   9.136  1.00  0.00    -0.550 OA
ENDBRANCH   2   3
ENDBRANCH   1   2
BRANCH   1   6
ATOM      6  C   UNL     1      -2.009  -3.420   7.076  1.00  0.00     0.000 C 
BRANCH   6   7
ATOM      7  C   UNL     1      -1.802  -2.011   6.503  1.00  0.00    -0.003 C 
ATOM      8  C   UNL     1      -0.565  -1.954   5.612  1.00  0.00     0.004 C 
ENDBRANCH   6   7
ENDBRANCH   1   6
TORSDOF 4
ENDMDL
