MODEL 1
REMARK VINA RESULT:    -3.676      0.000      0.000
REMARK INTER + INTRA:          -9.139
REMARK INTER:                  -7.974
REMARK INTRA:                  -1.166
REMARK UNBOUND:                -1.166
REMARK SMILES CCCCCCCCCCCCCCCCCCCCCC(=O)[O-]
REMARK SMILES IDX 12 1 11 2 10 3 9 4 8 5 7 6 6 7 5 8 4 9 3 10 2 11 1 12 13 13
REMARK SMILES IDX 14 14 15 15 16 16 17 17 18 18 19 19 20 20 21 21 22 22 23 23
REMARK SMILES IDX 24 24
REMARK H PARENT
REMARK Flexibility Score: inf
ROOT
ATOM      1  C   UNL     1     110.306 104.010 111.020  1.00  0.00     0.000 C 
ENDROOT
BRANCH   1   2
ATOM      2  C   UNL     1     108.939 104.721 110.914  1.00  0.00     0.000 C 
BRANCH   2   3
ATOM      3  C   UNL     1     109.019 106.157 110.363  1.00  0.00     0.000 C 
BRANCH   3   4
ATOM      4  C   UNL     1     108.247 107.214 111.173  1.00  0.00    -0.000 C 
BRANCH   4   5
ATOM      5  C   UNL     1     108.128 106.852 112.663  1.00  0.00    -0.000 C 
BRANCH   5   6
ATOM      6  C   UNL     1     106.827 106.097 112.998  1.00  0.00    -0.000 C 
BRANCH   6   7
ATOM      7  C   UNL     1     105.762 106.923 113.746  1.00  0.00    -0.000 C 
BRANCH   7   8
ATOM      8  C   UNL     1     104.396 106.218 113.828  1.00  0.00    -0.000 C 
BRANCH   8   9
ATOM      9  C   UNL     1     103.555 106.711 115.027  1.00  0.00    -0.000 C 
BRANCH   9  10
ATOM     10  C   UNL     1     104.303 106.649 116.370  1.00  0.00    -0.000 C 
BRANCH  10  11
ATOM     11  C   UNL     1     104.371 107.985 117.125  1.00  0.00    -0.003 C 
ATOM     12  C   UNL     1     105.586 108.826 116.728  1.00  0.00     0.004 C 
ENDBRANCH  10  11
ENDBRANCH   9  10
ENDBRANCH   8   9
ENDBRANCH   7   8
ENDBRANCH   6   7
ENDBRANCH   5   6
ENDBRANCH   4   5
ENDBRANCH   3   4
ENDBRANCH   2   3
ENDBRANCH   1   2
BRANCH   1  13
ATOM     13  C   UNL     1     110.229 102.510 110.680  1.00  0.00     0.000 C 
BRANCH  13  14
ATOM     14  C   UNL     1     111.466 101.718 111.140  1.00  0.00     0.000 C 
BRANCH  14  15
ATOM     15  C   UNL     1     112.145 102.267 112.413  1.00  0.00     0.000 C 
BRANCH  15  16
ATOM     16  C   UNL     1     113.687 102.295 112.390  1.00  0.00     0.000 C 
BRANCH  16  17
ATOM     17  C   UNL     1     114.267 103.149 111.245  1.00  0.00     0.000 C 
BRANCH  17  18
ATOM     18  C   UNL     1     114.550 104.601 111.673  1.00  0.00     0.000 C 
BRANCH  18  19
ATOM     19  C   UNL     1     114.699 104.817 113.194  1.00  0.00     0.000 C 
BRANCH  19  20
ATOM     20  C   UNL     1     116.117 105.194 113.673  1.00  0.00     0.006 C 
BRANCH  20  21
ATOM     21  C   UNL     1     117.255 104.586 112.836  1.00  0.00     0.053 C 
BRANCH  21  22
ATOM     22  C   UNL     1     118.573 105.238 113.120  1.00  0.00     0.041 C 
ATOM     23  O   UNL     1     119.254 104.885 114.119  1.00  0.00    -0.550 OA
ATOM     24  O   UNL     1     119.066 106.210 112.258  1.00  0.00    -0.550 OA
ENDBRANCH  21  22
ENDBRANCH  20  21
ENDBRANCH  19  20
ENDBRANCH  18  19
ENDBRANCH  17  18
ENDBRANCH  16  17
ENDBRANCH  15  16
ENDBRANCH  14  15
ENDBRANCH  13  14
ENDBRANCH   1  13
TORSDOF 20
ENDMDL
MODEL 2
REMARK VINA RESULT:    -3.443      1.892      2.884
REMARK INTER + INTRA:          -8.634
REMARK INTER:                  -7.465
REMARK INTRA:                  -1.170
REMARK UNBOUND:                -1.166
REMARK SMILES CCCCCCCCCCCCCCCCCCCCCC(=O)[O-]
REMARK SMILES IDX 12 1 11 2 10 3 9 4 8 5 7 6 6 7 5 8 4 9 3 10 2 11 1 12 13 13
REMARK SMILES IDX 14 14 15 15 16 16 17 17 18 18 19 19 20 20 21 21 22 22 23 23
REMARK SMILES IDX 24 24
REMARK H PARENT
REMARK Flexibility Score: inf
ROOT
ATOM      1  C   UNL     1     109.996 104.297 111.442  1.00  0.00     0.000 C 
ENDROOT
BRANCH   1   2
ATOM      2  C   UNL     1     108.686 105.041 111.102  1.00  0.00     0.000 C 
BRANCH   2   3
ATOM      3  C   UNL     1     108.814 106.576 111.114  1.00  0.00     0.000 C 
BRANCH   3   4
ATOM      4  C   UNL     1     107.767 107.315 111.965  1.00  0.00    -0.000 C 
BRANCH   4   5
ATOM      5  C   UNL     1     107.075 106.396 112.988  1.00  0.00    -0.000 C 
BRANCH   5   6
ATOM      6  C   UNL     1     105.637 106.839 113.319  1.00  0.00    -0.000 C 
BRANCH   6   7
ATOM      7  C   UNL     1     104.668 105.699 113.693  1.00  0.00    -0.000 C 
BRANCH   7   8
ATOM      8  C   UNL     1     103.198 106.151 113.757  1.00  0.00    -0.000 C 
BRANCH   8   9
ATOM      9  C   UNL     1     102.676 106.636 112.386  1.00  0.00    -0.000 C 
BRANCH   9  10
ATOM     10  C   UNL     1     101.153 106.489 112.220  1.00  0.00    -0.000 C 
BRANCH  10  11
ATOM     11  C   UNL     1     100.619 106.891 110.837  1.00  0.00    -0.003 C 
ATOM     12  C   UNL     1      99.910 105.740 110.122  1.00  0.00     0.004 C 
ENDBRANCH  10  11
ENDBRANCH   9  10
ENDBRANCH   8   9
ENDBRANCH   7   8
ENDBRANCH   6   7
ENDBRANCH   5   6
ENDBRANCH   4   5
ENDBRANCH   3   4
ENDBRANCH   2   3
ENDBRANCH   1   2
BRANCH   1  13
ATOM     13  C   UNL     1     110.280 103.120 110.491  1.00  0.00     0.000 C 
BRANCH  13  14
ATOM     14  C   UNL     1     111.123 102.006 111.136  1.00  0.00     0.000 C 
BRANCH  14  15
ATOM     15  C   UNL     1     112.019 102.472 112.305  1.00  0.00     0.000 C 
BRANCH  15  16
ATOM     16  C   UNL     1     113.491 102.013 112.244  1.00  0.00     0.000 C 
BRANCH  16  17
ATOM     17  C   UNL     1     114.404 102.984 111.470  1.00  0.00     0.000 C 
BRANCH  17  18
ATOM     18  C   UNL     1     114.129 104.459 111.817  1.00  0.00     0.000 C 
BRANCH  18  19
ATOM     19  C   UNL     1     115.045 105.058 112.905  1.00  0.00     0.000 C 
BRANCH  19  20
ATOM     20  C   UNL     1     116.303 104.229 113.241  1.00  0.00     0.006 C 
BRANCH  20  21
ATOM     21  C   UNL     1     117.576 104.678 112.505  1.00  0.00     0.053 C 
BRANCH  21  22
ATOM     22  C   UNL     1     118.727 104.880 113.443  1.00  0.00     0.041 C 
ATOM     23  O   UNL     1     119.477 105.884 113.321  1.00  0.00    -0.550 OA
ATOM     24  O   UNL     1     118.947 103.976 114.476  1.00  0.00    -0.550 OA
ENDBRANCH  21  22
ENDBRANCH  20  21
ENDBRANCH  19  20
ENDBRANCH  18  19
ENDBRANCH  17  18
ENDBRANCH  16  17
ENDBRANCH  15  16
ENDBRANCH  14  15
ENDBRANCH  13  14
ENDBRANCH   1  13
TORSDOF 20
ENDMDL
MODEL 3
REMARK VINA RESULT:    -3.171      1.725      2.736
REMARK INTER + INTRA:          -8.044
REMARK INTER:                  -7.181
REMARK INTRA:                  -0.863
REMARK UNBOUND:                -1.166
REMARK SMILES CCCCCCCCCCCCCCCCCCCCCC(=O)[O-]
REMARK SMILES IDX 12 1 11 2 10 3 9 4 8 5 7 6 6 7 5 8 4 9 3 10 2 11 1 12 13 13
REMARK SMILES IDX 14 14 15 15 16 16 17 17 18 18 19 19 20 20 21 21 22 22 23 23
REMARK SMILES IDX 24 24
REMARK H PARENT
REMARK Flexibility Score: inf
ROOT
ATOM      1  C   UNL     1     110.297 103.451 110.441  1.00  0.00     0.000 C 
ENDROOT
BRANCH   1   2
ATOM      2  C   UNL     1     109.123 104.301 110.975  1.00  0.00     0.000 C 
BRANCH   2   3
ATOM      3  C   UNL     1     109.430 105.808 111.066  1.00  0.00     0.000 C 
BRANCH   3   4
ATOM      4  C   UNL     1     108.207 106.713 111.294  1.00  0.00    -0.000 C 
BRANCH   4   5
ATOM      5  C   UNL     1     107.498 106.431 112.631  1.00  0.00    -0.000 C 
BRANCH   5   6
ATOM      6  C   UNL     1     106.189 107.225 112.798  1.00  0.00    -0.000 C 
BRANCH   6   7
ATOM      7  C   UNL     1     105.254 106.723 113.917  1.00  0.00    -0.000 C 
BRANCH   7   8
ATOM      8  C   UNL     1     104.237 105.675 113.432  1.00  0.00    -0.000 C 
BRANCH   8   9
ATOM      9  C   UNL     1     102.781 106.183 113.532  1.00  0.00    -0.000 C 
BRANCH   9  10
ATOM     10  C   UNL     1     102.214 106.695 112.197  1.00  0.00    -0.000 C 
BRANCH  10  11
ATOM     11  C   UNL     1     100.681 106.664 112.099  1.00  0.00    -0.003 C 
ATOM     12  C   UNL     1     100.187 106.181 110.735  1.00  0.00     0.004 C 
ENDBRANCH  10  11
ENDBRANCH   9  10
ENDBRANCH   8   9
ENDBRANCH   7   8
ENDBRANCH   6   7
ENDBRANCH   5   6
ENDBRANCH   4   5
ENDBRANCH   3   4
ENDBRANCH   2   3
ENDBRANCH   1   2
BRANCH   1  13
ATOM     13  C   UNL     1     110.689 102.305 111.392  1.00  0.00     0.000 C 
BRANCH  13  14
ATOM     14  C   UNL     1     111.720 102.723 112.455  1.00  0.00     0.000 C 
BRANCH  14  15
ATOM     15  C   UNL     1     113.141 102.164 112.229  1.00  0.00     0.000 C 
BRANCH  15  16
ATOM     16  C   UNL     1     113.995 102.910 111.183  1.00  0.00     0.000 C 
BRANCH  16  17
ATOM     17  C   UNL     1     115.247 103.583 111.781  1.00  0.00     0.000 C 
BRANCH  17  18
ATOM     18  C   UNL     1     114.910 104.533 112.945  1.00  0.00     0.000 C 
BRANCH  18  19
ATOM     19  C   UNL     1     116.129 105.182 113.633  1.00  0.00     0.000 C 
BRANCH  19  20
ATOM     20  C   UNL     1     117.392 105.314 112.756  1.00  0.00     0.006 C 
BRANCH  20  21
ATOM     21  C   UNL     1     118.403 104.167 112.919  1.00  0.00     0.053 C 
BRANCH  21  22
ATOM     22  C   UNL     1     119.077 104.195 114.257  1.00  0.00     0.041 C 
ATOM     23  O   UNL     1     119.614 105.255 114.674  1.00  0.00    -0.550 OA
ATOM     24  O   UNL     1     119.078 103.059 115.057  1.00  0.00    -0.550 OA
ENDBRANCH  21  22
ENDBRANCH  20  21
ENDBRANCH  19  20
ENDBRANCH  18  19
ENDBRANCH  17  18
ENDBRANCH  16  17
ENDBRANCH  15  16
ENDBRANCH  14  15
ENDBRANCH  13  14
ENDBRANCH   1  13
TORSDOF 20
ENDMDL
MODEL 4
REMARK VINA RESULT:    -2.887      5.721     11.588
REMARK INTER + INTRA:          -7.429
REMARK INTER:                  -6.542
REMARK INTRA:                  -0.888
REMARK UNBOUND:                -1.166
REMARK SMILES CCCCCCCCCCCCCCCCCCCCCC(=O)[O-]
REMARK SMILES IDX 12 1 11 2 10 3 9 4 8 5 7 6 6 7 5 8 4 9 3 10 2 11 1 12 13 13
REMARK SMILES IDX 14 14 15 15 16 16 17 17 18 18 19 19 20 20 21 21 22 22 23 23
REMARK SMILES IDX 24 24
REMARK H PARENT
REMARK Flexibility Score: inf
ROOT
ATOM      1  C   UNL     1     108.732 104.688 110.771  1.00  0.00     0.000 C 
ENDROOT
BRANCH   1   2
ATOM      2  C   UNL     1     109.844 103.721 110.309  1.00  0.00     0.000 C 
BRANCH   2   3
ATOM      3  C   UNL     1     110.722 103.181 111.453  1.00  0.00     0.000 C 
BRANCH   3   4
ATOM      4  C   UNL     1     111.410 101.833 111.171  1.00  0.00    -0.000 C 
BRANCH   4   5
ATOM      5  C   UNL     1     112.776 101.705 111.868  1.00  0.00    -0.000 C 
BRANCH   5   6
ATOM      6  C   UNL     1     113.478 103.061 112.072  1.00  0.00    -0.000 C 
BRANCH   6   7
ATOM      7  C   UNL     1     114.543 103.416 111.015  1.00  0.00    -0.000 C 
BRANCH   7   8
ATOM      8  C   UNL     1     115.845 103.962 111.628  1.00  0.00    -0.000 C 
BRANCH   8   9
ATOM      9  C   UNL     1     115.704 104.251 113.139  1.00  0.00    -0.000 C 
BRANCH   9  10
ATOM     10  C   UNL     1     116.611 105.391 113.635  1.00  0.00    -0.000 C 
BRANCH  10  11
ATOM     11  C   UNL     1     118.077 105.281 113.191  1.00  0.00    -0.003 C 
ATOM     12  C   UNL     1     118.896 104.350 114.085  1.00  0.00     0.004 C 
ENDBRANCH  10  11
ENDBRANCH   9  10
ENDBRANCH   8   9
ENDBRANCH   7   8
ENDBRANCH   6   7
ENDBRANCH   5   6
ENDBRANCH   4   5
ENDBRANCH   3   4
ENDBRANCH   2   3
ENDBRANCH   1   2
BRANCH   1  13
ATOM     13  C   UNL     1     109.197 106.155 110.820  1.00  0.00     0.000 C 
BRANCH  13  14
ATOM     14  C   UNL     1     108.243 107.070 111.609  1.00  0.00     0.000 C 
BRANCH  14  15
ATOM     15  C   UNL     1     107.813 106.517 112.985  1.00  0.00     0.000 C 
BRANCH  15  16
ATOM     16  C   UNL     1     106.420 105.855 113.035  1.00  0.00     0.000 C 
BRANCH  16  17
ATOM     17  C   UNL     1     105.353 106.725 113.727  1.00  0.00     0.000 C 
BRANCH  17  18
ATOM     18  C   UNL     1     103.955 106.079 113.701  1.00  0.00     0.000 C 
BRANCH  18  19
ATOM     19  C   UNL     1     102.885 106.865 112.914  1.00  0.00     0.000 C 
BRANCH  19  20
ATOM     20  C   UNL     1     101.663 106.041 112.456  1.00  0.00     0.006 C 
BRANCH  20  21
ATOM     21  C   UNL     1     100.553 106.868 111.785  1.00  0.00     0.053 C 
BRANCH  21  22
ATOM     22  C   UNL     1     100.441 106.576 110.320  1.00  0.00     0.041 C 
ATOM     23  O   UNL     1     100.889 107.395 109.474  1.00  0.00    -0.550 OA
ATOM     24  O   UNL     1      99.875 105.382 109.891  1.00  0.00    -0.550 OA
ENDBRANCH  21  22
ENDBRANCH  20  21
ENDBRANCH  19  20
ENDBRANCH  18  19
ENDBRANCH  17  18
ENDBRANCH  16  17
ENDBRANCH  15  16
ENDBRANCH  14  15
ENDBRANCH  13  14
ENDBRANCH   1  13
TORSDOF 20
ENDMDL
MODEL 5
REMARK VINA RESULT:    -2.779      5.644     11.582
REMARK INTER + INTRA:          -7.193
REMARK INTER:                  -6.123
REMARK INTRA:                  -1.071
REMARK UNBOUND:                -1.166
REMARK SMILES CCCCCCCCCCCCCCCCCCCCCC(=O)[O-]
REMARK SMILES IDX 12 1 11 2 10 3 9 4 8 5 7 6 6 7 5 8 4 9 3 10 2 11 1 12 13 13
REMARK SMILES IDX 14 14 15 15 16 16 17 17 18 18 19 19 20 20 21 21 22 22 23 23
REMARK SMILES IDX 24 24
REMARK H PARENT
REMARK Flexibility Score: inf
ROOT
ATOM      1  C   UNL     1     109.275 104.676 110.419  1.00  0.00     0.000 C 
ENDROOT
BRANCH   1   2
ATOM      2  C   UNL     1     109.730 103.289 110.924  1.00  0.00     0.000 C 
BRANCH   2   3
ATOM      3  C   UNL     1     111.075 103.304 111.674  1.00  0.00     0.000 C 
BRANCH   3   4
ATOM      4  C   UNL     1     111.704 101.921 111.920  1.00  0.00    -0.000 C 
BRANCH   4   5
ATOM      5  C   UNL     1     113.233 101.983 112.083  1.00  0.00    -0.000 C 
BRANCH   5   6
ATOM      6  C   UNL     1     113.921 102.826 110.993  1.00  0.00    -0.000 C 
BRANCH   6   7
ATOM      7  C   UNL     1     114.940 103.862 111.509  1.00  0.00    -0.000 C 
BRANCH   7   8
ATOM      8  C   UNL     1     114.725 104.239 112.986  1.00  0.00    -0.000 C 
BRANCH   8   9
ATOM      9  C   UNL     1     116.010 104.799 113.639  1.00  0.00    -0.000 C 
BRANCH   9  10
ATOM     10  C   UNL     1     117.244 104.736 112.722  1.00  0.00    -0.000 C 
BRANCH  10  11
ATOM     11  C   UNL     1     118.555 105.190 113.382  1.00  0.00    -0.003 C 
ATOM     12  C   UNL     1     119.324 106.201 112.531  1.00  0.00     0.004 C 
ENDBRANCH  10  11
ENDBRANCH   9  10
ENDBRANCH   8   9
ENDBRANCH   7   8
ENDBRANCH   6   7
ENDBRANCH   5   6
ENDBRANCH   4   5
ENDBRANCH   3   4
ENDBRANCH   2   3
ENDBRANCH   1   2
BRANCH   1  13
ATOM     13  C   UNL     1     108.604 105.523 111.515  1.00  0.00     0.000 C 
BRANCH  13  14
ATOM     14  C   UNL     1     108.373 106.986 111.098  1.00  0.00     0.000 C 
BRANCH  14  15
ATOM     15  C   UNL     1     107.090 107.625 111.675  1.00  0.00     0.000 C 
BRANCH  15  16
ATOM     16  C   UNL     1     106.557 106.995 112.978  1.00  0.00     0.000 C 
BRANCH  16  17
ATOM     17  C   UNL     1     105.063 107.279 113.230  1.00  0.00     0.000 C 
BRANCH  17  18
ATOM     18  C   UNL     1     104.344 106.102 113.916  1.00  0.00     0.000 C 
BRANCH  18  19
ATOM     19  C   UNL     1     102.955 105.757 113.339  1.00  0.00     0.000 C 
BRANCH  19  20
ATOM     20  C   UNL     1     102.356 106.810 112.383  1.00  0.00     0.006 C 
BRANCH  20  21
ATOM     21  C   UNL     1     100.869 106.598 112.054  1.00  0.00     0.053 C 
BRANCH  21  22
ATOM     22  C   UNL     1     100.609 106.628 110.579  1.00  0.00     0.041 C 
ATOM     23  O   UNL     1      99.876 105.753 110.046  1.00  0.00    -0.550 OA
ATOM     24  O   UNL     1     101.147 107.645 109.800  1.00  0.00    -0.550 OA
ENDBRANCH  21  22
ENDBRANCH  20  21
ENDBRANCH  19  20
ENDBRANCH  18  19
ENDBRANCH  17  18
ENDBRANCH  16  17
ENDBRANCH  15  16
ENDBRANCH  14  15
ENDBRANCH  13  14
ENDBRANCH   1  13
TORSDOF 20
ENDMDL
MODEL 6
REMARK VINA RESULT:    -2.134      1.182      2.722
REMARK INTER + INTRA:          -5.794
REMARK INTER:                  -5.371
REMARK INTRA:                  -0.424
REMARK UNBOUND:                -1.166
REMARK SMILES CCCCCCCCCCCCCCCCCCCCCC(=O)[O-]
REMARK SMILES IDX 12 1 11 2 10 3 9 4 8 5 7 6 6 7 5 8 4 9 3 10 2 11 1 12 13 13
REMARK SMILES IDX 14 14 15 15 16 16 17 17 18 18 19 19 20 20 21 21 22 22 23 23
REMARK SMILES IDX 24 24
REMARK H PARENT
REMARK Flexibility Score: inf
ROOT
ATOM      1  C   UNL     1     111.953 102.047 112.609  1.00  0.00     0.000 C 
ENDROOT
BRANCH   1   2
ATOM      2  C   UNL     1     110.992 103.221 112.326  1.00  0.00     0.000 C 
BRANCH   2   3
ATOM      3  C   UNL     1     110.041 102.982 111.138  1.00  0.00     0.000 C 
BRANCH   3   4
ATOM      4  C   UNL     1     109.626 104.246 110.365  1.00  0.00    -0.000 C 
BRANCH   4   5
ATOM      5  C   UNL     1     108.535 105.055 111.088  1.00  0.00    -0.000 C 
BRANCH   5   6
ATOM      6  C   UNL     1     108.776 106.576 111.031  1.00  0.00    -0.000 C 
BRANCH   6   7
ATOM      7  C   UNL     1     107.938 107.411 112.020  1.00  0.00    -0.000 C 
BRANCH   7   8
ATOM      8  C   UNL     1     107.102 106.550 112.984  1.00  0.00    -0.000 C 
BRANCH   8   9
ATOM      9  C   UNL     1     105.711 107.164 113.260  1.00  0.00    -0.000 C 
BRANCH   9  10
ATOM     10  C   UNL     1     105.078 106.687 114.578  1.00  0.00    -0.000 C 
BRANCH  10  11
ATOM     11  C   UNL     1     105.194 107.684 115.741  1.00  0.00    -0.003 C 
ATOM     12  C   UNL     1     104.288 107.325 116.919  1.00  0.00     0.004 C 
ENDBRANCH  10  11
ENDBRANCH   9  10
ENDBRANCH   8   9
ENDBRANCH   7   8
ENDBRANCH   6   7
ENDBRANCH   5   6
ENDBRANCH   4   5
ENDBRANCH   3   4
ENDBRANCH   2   3
ENDBRANCH   1   2
BRANCH   1  13
ATOM     13  C   UNL     1     112.999 101.847 111.497  1.00  0.00     0.000 C 
BRANCH  13  14
ATOM     14  C   UNL     1     113.609 103.166 110.990  1.00  0.00     0.000 C 
BRANCH  14  15
ATOM     15  C   UNL     1     115.024 103.469 111.528  1.00  0.00     0.000 C 
BRANCH  15  16
ATOM     16  C   UNL     1     115.115 103.773 113.038  1.00  0.00     0.000 C 
BRANCH  16  17
ATOM     17  C   UNL     1     115.192 105.279 113.356  1.00  0.00     0.000 C 
BRANCH  17  18
ATOM     18  C   UNL     1     116.609 105.728 113.760  1.00  0.00     0.000 C 
BRANCH  18  19
ATOM     19  C   UNL     1     117.530 104.602 114.276  1.00  0.00     0.000 C 
BRANCH  19  20
ATOM     20  C   UNL     1     119.037 104.810 114.018  1.00  0.00     0.006 C 
BRANCH  20  21
ATOM     21  C   UNL     1     119.374 106.051 113.175  1.00  0.00     0.053 C 
BRANCH  21  22
ATOM     22  C   UNL     1     119.034 105.858 111.729  1.00  0.00     0.041 C 
ATOM     23  O   UNL     1     118.284 104.911 111.373  1.00  0.00    -0.550 OA
ATOM     24  O   UNL     1     119.518 106.748 110.778  1.00  0.00    -0.550 OA
ENDBRANCH  21  22
ENDBRANCH  20  21
ENDBRANCH  19  20
ENDBRANCH  18  19
ENDBRANCH  17  18
ENDBRANCH  16  17
ENDBRANCH  15  16
ENDBRANCH  14  15
ENDBRANCH  13  14
ENDBRANCH   1  13
TORSDOF 20
ENDMDL
MODEL 7
REMARK VINA RESULT:    -1.720      4.279      8.833
REMARK INTER + INTRA:          -4.896
REMARK INTER:                  -3.531
REMARK INTRA:                  -1.365
REMARK UNBOUND:                -1.166
REMARK SMILES CCCCCCCCCCCCCCCCCCCCCC(=O)[O-]
REMARK SMILES IDX 12 1 11 2 10 3 9 4 8 5 7 6 6 7 5 8 4 9 3 10 2 11 1 12 13 13
REMARK SMILES IDX 14 14 15 15 16 16 17 17 18 18 19 19 20 20 21 21 22 22 23 23
REMARK SMILES IDX 24 24
REMARK H PARENT
REMARK Flexibility Score: inf
ROOT
ATOM      1  C   UNL     1     109.117 104.818 110.441  1.00  0.00     0.000 C 
ENDROOT
BRANCH   1   2
ATOM      2  C   UNL     1     109.587 103.469 111.027  1.00  0.00     0.000 C 
BRANCH   2   3
ATOM      3  C   UNL     1     111.118 103.321 111.115  1.00  0.00     0.000 C 
BRANCH   3   4
ATOM      4  C   UNL     1     111.629 101.878 111.272  1.00  0.00    -0.000 C 
BRANCH   4   5
ATOM      5  C   UNL     1     113.103 101.813 111.709  1.00  0.00    -0.000 C 
BRANCH   5   6
ATOM      6  C   UNL     1     113.846 103.150 111.524  1.00  0.00    -0.000 C 
BRANCH   6   7
ATOM      7  C   UNL     1     114.744 103.572 112.704  1.00  0.00    -0.000 C 
BRANCH   7   8
ATOM      8  C   UNL     1     114.694 105.083 112.992  1.00  0.00    -0.000 C 
BRANCH   8   9
ATOM      9  C   UNL     1     116.003 105.600 113.632  1.00  0.00    -0.000 C 
BRANCH   9  10
ATOM     10  C   UNL     1     117.207 104.669 113.406  1.00  0.00    -0.000 C 
BRANCH  10  11
ATOM     11  C   UNL     1     118.138 105.094 112.260  1.00  0.00    -0.003 C 
ATOM     12  C   UNL     1     119.174 106.131 112.695  1.00  0.00     0.004 C 
ENDBRANCH  10  11
ENDBRANCH   9  10
ENDBRANCH   8   9
ENDBRANCH   7   8
ENDBRANCH   6   7
ENDBRANCH   5   6
ENDBRANCH   4   5
ENDBRANCH   3   4
ENDBRANCH   2   3
ENDBRANCH   1   2
BRANCH   1  13
ATOM     13  C   UNL     1     108.474 105.738 111.495  1.00  0.00     0.000 C 
BRANCH  13  14
ATOM     14  C   UNL     1     108.381 107.207 111.046  1.00  0.00     0.000 C 
BRANCH  14  15
ATOM     15  C   UNL     1     109.711 107.989 111.125  1.00  0.00     0.000 C 
BRANCH  15  16
ATOM     16  C   UNL     1     110.560 107.997 109.837  1.00  0.00     0.000 C 
BRANCH  16  17
ATOM     17  C   UNL     1     111.947 107.348 110.013  1.00  0.00     0.000 C 
BRANCH  17  18
ATOM     18  C   UNL     1     113.011 107.967 109.087  1.00  0.00     0.000 C 
BRANCH  18  19
ATOM     19  C   UNL     1     112.515 108.334 107.673  1.00  0.00     0.000 C 
BRANCH  19  20
ATOM     20  C   UNL     1     113.415 107.862 106.512  1.00  0.00     0.006 C 
BRANCH  20  21
ATOM     21  C   UNL     1     112.653 107.267 105.317  1.00  0.00     0.053 C 
BRANCH  21  22
ATOM     22  C   UNL     1     113.568 106.914 104.185  1.00  0.00     0.041 C 
ATOM     23  O   UNL     1     113.149 106.215 103.224  1.00  0.00    -0.550 OA
ATOM     24  O   UNL     1     114.874 107.388 104.174  1.00  0.00    -0.550 OA
ENDBRANCH  21  22
ENDBRANCH  20  21
ENDBRANCH  19  20
ENDBRANCH  18  19
ENDBRANCH  17  18
ENDBRANCH  16  17
ENDBRANCH  15  16
ENDBRANCH  14  15
ENDBRANCH  13  14
ENDBRANCH   1  13
TORSDOF 20
ENDMDL
MODEL 8
REMARK VINA RESULT:    -1.653      1.966      4.340
REMARK INTER + INTRA:          -4.751
REMARK INTER:                  -3.191
REMARK INTRA:                  -1.560
REMARK UNBOUND:                -1.166
REMARK SMILES CCCCCCCCCCCCCCCCCCCCCC(=O)[O-]
REMARK SMILES IDX 12 1 11 2 10 3 9 4 8 5 7 6 6 7 5 8 4 9 3 10 2 11 1 12 13 13
REMARK SMILES IDX 14 14 15 15 16 16 17 17 18 18 19 19 20 20 21 21 22 22 23 23
REMARK SMILES IDX 24 24
REMARK H PARENT
REMARK Flexibility Score: inf
ROOT
ATOM      1  C   UNL     1     114.206 101.988 111.577  1.00  0.00     0.000 C 
ENDROOT
BRANCH   1   2
ATOM      2  C   UNL     1     112.755 102.175 112.070  1.00  0.00     0.000 C 
BRANCH   2   3
ATOM      3  C   UNL     1     111.716 101.340 111.297  1.00  0.00     0.000 C 
BRANCH   3   4
ATOM      4  C   UNL     1     110.274 101.875 111.350  1.00  0.00    -0.000 C 
BRANCH   4   5
ATOM      5  C   UNL     1     110.084 103.156 110.520  1.00  0.00    -0.000 C 
BRANCH   5   6
ATOM      6  C   UNL     1     109.674 104.371 111.373  1.00  0.00    -0.000 C 
BRANCH   6   7
ATOM      7  C   UNL     1     108.893 105.469 110.623  1.00  0.00    -0.000 C 
BRANCH   7   8
ATOM      8  C   UNL     1     109.393 106.891 110.937  1.00  0.00    -0.000 C 
BRANCH   8   9
ATOM      9  C   UNL     1     108.240 107.842 111.328  1.00  0.00    -0.000 C 
BRANCH   9  10
ATOM     10  C   UNL     1     106.939 107.111 111.704  1.00  0.00    -0.000 C 
BRANCH  10  11
ATOM     11  C   UNL     1     106.674 107.013 113.214  1.00  0.00    -0.003 C 
ATOM     12  C   UNL     1     105.492 106.103 113.547  1.00  0.00     0.004 C 
ENDBRANCH  10  11
ENDBRANCH   9  10
ENDBRANCH   8   9
ENDBRANCH   7   8
ENDBRANCH   6   7
ENDBRANCH   5   6
ENDBRANCH   4   5
ENDBRANCH   3   4
ENDBRANCH   2   3
ENDBRANCH   1   2
BRANCH   1  13
ATOM     13  C   UNL     1     114.743 103.212 110.814  1.00  0.00     0.000 C 
BRANCH  13  14
ATOM     14  C   UNL     1     113.890 104.477 111.016  1.00  0.00     0.000 C 
BRANCH  14  15
ATOM     15  C   UNL     1     114.347 105.382 112.181  1.00  0.00     0.000 C 
BRANCH  15  16
ATOM     16  C   UNL     1     114.887 104.648 113.426  1.00  0.00     0.000 C 
BRANCH  16  17
ATOM     17  C   UNL     1     116.070 105.372 114.099  1.00  0.00     0.000 C 
BRANCH  17  18
ATOM     18  C   UNL     1     116.985 106.083 113.084  1.00  0.00     0.000 C 
BRANCH  18  19
ATOM     19  C   UNL     1     117.987 105.166 112.352  1.00  0.00     0.000 C 
BRANCH  19  20
ATOM     20  C   UNL     1     118.836 104.254 113.263  1.00  0.00     0.006 C 
BRANCH  20  21
ATOM     21  C   UNL     1     119.593 104.994 114.378  1.00  0.00     0.053 C 
BRANCH  21  22
ATOM     22  C   UNL     1     119.495 104.284 115.693  1.00  0.00     0.041 C 
ATOM     23  O   UNL     1     119.696 104.908 116.769  1.00  0.00    -0.550 OA
ATOM     24  O   UNL     1     119.146 102.939 115.731  1.00  0.00    -0.550 OA
ENDBRANCH  21  22
ENDBRANCH  20  21
ENDBRANCH  19  20
ENDBRANCH  18  19
ENDBRANCH  17  18
ENDBRANCH  16  17
ENDBRANCH  15  16
ENDBRANCH  14  15
ENDBRANCH  13  14
ENDBRANCH   1  13
TORSDOF 20
ENDMDL
MODEL 9
REMARK VINA RESULT:    -1.161      4.277     10.329
REMARK INTER + INTRA:          -3.683
REMARK INTER:                  -2.490
REMARK INTRA:                  -1.193
REMARK UNBOUND:                -1.166
REMARK SMILES CCCCCCCCCCCCCCCCCCCCCC(=O)[O-]
REMARK SMILES IDX 12 1 11 2 10 3 9 4 8 5 7 6 6 7 5 8 4 9 3 10 2 11 1 12 13 13
REMARK SMILES IDX 14 14 15 15 16 16 17 17 18 18 19 19 20 20 21 21 22 22 23 23
REMARK SMILES IDX 24 24
REMARK H PARENT
REMARK Flexibility Score: inf
ROOT
ATOM      1  C   UNL     1     110.342 102.830 110.384  1.00  0.00     0.000 C 
ENDROOT
BRANCH   1   2
ATOM      2  C   UNL     1     111.029 101.737 111.230  1.00  0.00     0.000 C 
BRANCH   2   3
ATOM      3  C   UNL     1     111.816 102.279 112.439  1.00  0.00     0.000 C 
BRANCH   3   4
ATOM      4  C   UNL     1     113.343 102.107 112.358  1.00  0.00    -0.000 C 
BRANCH   4   5
ATOM      5  C   UNL     1     113.973 102.916 111.211  1.00  0.00    -0.000 C 
BRANCH   5   6
ATOM      6  C   UNL     1     114.655 104.211 111.691  1.00  0.00    -0.000 C 
BRANCH   6   7
ATOM      7  C   UNL     1     114.737 104.382 113.222  1.00  0.00    -0.000 C 
BRANCH   7   8
ATOM      8  C   UNL     1     116.049 105.039 113.688  1.00  0.00    -0.000 C 
BRANCH   8   9
ATOM      9  C   UNL     1     117.273 104.528 112.893  1.00  0.00    -0.000 C 
BRANCH   9  10
ATOM     10  C   UNL     1     118.580 104.535 113.705  1.00  0.00    -0.000 C 
BRANCH  10  11
ATOM     11  C   UNL     1     119.515 105.716 113.400  1.00  0.00    -0.003 C 
ATOM     12  C   UNL     1     119.206 106.382 112.059  1.00  0.00     0.004 C 
ENDBRANCH  10  11
ENDBRANCH   9  10
ENDBRANCH   8   9
ENDBRANCH   7   8
ENDBRANCH   6   7
ENDBRANCH   5   6
ENDBRANCH   4   5
ENDBRANCH   3   4
ENDBRANCH   2   3
ENDBRANCH   1   2
BRANCH   1  13
ATOM     13  C   UNL     1     110.150 104.150 111.153  1.00  0.00     0.000 C 
BRANCH  13  14
ATOM     14  C   UNL     1     108.844 104.881 110.792  1.00  0.00     0.000 C 
BRANCH  14  15
ATOM     15  C   UNL     1     108.985 106.410 110.630  1.00  0.00     0.000 C 
BRANCH  15  16
ATOM     16  C   UNL     1     108.258 107.265 111.689  1.00  0.00     0.000 C 
BRANCH  16  17
ATOM     17  C   UNL     1     107.891 106.480 112.964  1.00  0.00     0.000 C 
BRANCH  17  18
ATOM     18  C   UNL     1     106.476 105.875 112.900  1.00  0.00     0.000 C 
BRANCH  18  19
ATOM     19  C   UNL     1     105.443 106.525 113.845  1.00  0.00     0.000 C 
BRANCH  19  20
ATOM     20  C   UNL     1     105.531 108.061 113.966  1.00  0.00     0.006 C 
BRANCH  20  21
ATOM     21  C   UNL     1     104.687 108.660 115.103  1.00  0.00     0.053 C 
BRANCH  21  22
ATOM     22  C   UNL     1     105.181 108.239 116.453  1.00  0.00     0.041 C 
ATOM     23  O   UNL     1     106.139 108.849 116.997  1.00  0.00    -0.550 OA
ATOM     24  O   UNL     1     104.559 107.194 117.125  1.00  0.00    -0.550 OA
ENDBRANCH  21  22
ENDBRANCH  20  21
ENDBRANCH  19  20
ENDBRANCH  18  19
ENDBRANCH  17  18
ENDBRANCH  16  17
ENDBRANCH  15  16
ENDBRANCH  14  15
ENDBRANCH  13  14
ENDBRANCH   1  13
TORSDOF 20
ENDMDL
