MODEL 1
REMARK VINA RESULT:    -3.481      0.000      0.000
REMARK INTER + INTRA:          -3.549
REMARK INTER:                  -4.295
REMARK INTRA:                   0.746
REMARK UNBOUND:                 0.746
REMARK SMILES CC1=CC=CC(C)(C)CC1=O
REMARK SMILES IDX 1 1 2 2 3 3 10 4 11 5 9 6 4 8 5 9 6 10 7 11 8 12
REMARK H PARENT
REMARK Flexibility Score: 80.00
ROOT
ATOM      1  C   UNL     1     -25.181   0.675   0.356  1.00  0.00     0.048 C 
ATOM      2  C   UNL     1     -25.504   0.503  -1.109  1.00  0.00    -0.008 C 
ATOM      3  C   UNL     1     -24.560   0.861  -2.006  1.00  0.00     0.007 C 
ENDROOT
BRANCH   2   4
ATOM      4  C   UNL     1     -26.810  -0.119  -1.444  1.00  0.00     0.159 C 
ATOM      5  O   UNL     1     -27.485  -0.650  -0.520  1.00  0.00    -0.295 OA
BRANCH   4   6
ATOM      6  C   UNL     1     -27.385  -0.140  -2.827  1.00  0.00     0.091 CG0
ATOM      7  G   UNL     1     -26.475  -0.851  -3.854  1.00  0.00     0.000 G0
ENDBRANCH   4   6
ENDBRANCH   2   4
BRANCH   3   8
ATOM      8  C   UNL     1     -24.575   0.785  -3.486  1.00  0.00    -0.003 C 
ATOM      9  C   UNL     1     -25.369   0.062  -4.285  1.00  0.00    -0.020 C 
BRANCH   9  10
ATOM     10  C   UNL     1     -26.489  -0.853  -3.850  1.00  0.00    -0.010 CG0
ATOM     11  C   UNL     1     -27.363  -1.172  -5.084  1.00  0.00     0.016 C 
ATOM     12  C   UNL     1     -25.907  -2.184  -3.322  1.00  0.00     0.016 C 
ATOM     13  G   UNL     1     -27.373  -0.133  -2.807  1.00  0.00     0.000 G0
ENDBRANCH   9  10
ENDBRANCH   3   8
TORSDOF 0
ENDMDL
MODEL 2
REMARK VINA RESULT:    -3.464      2.032      3.004
REMARK INTER + INTRA:          -3.528
REMARK INTER:                  -4.289
REMARK INTRA:                   0.760
REMARK UNBOUND:                 0.746
REMARK SMILES CC1=CC=CC(C)(C)CC1=O
REMARK SMILES IDX 1 1 2 2 3 3 10 4 11 5 9 6 4 8 5 9 6 10 7 11 8 12
REMARK H PARENT
REMARK Flexibility Score: 80.00
ROOT
ATOM      1  C   UNL     1     -24.835   0.554   0.725  1.00  0.00     0.048 C 
ATOM      2  C   UNL     1     -25.066   0.387  -0.758  1.00  0.00    -0.008 C 
ATOM      3  C   UNL     1     -26.303   0.025  -1.162  1.00  0.00     0.007 C 
ENDROOT
BRANCH   2   4
ATOM      4  C   UNL     1     -23.931   0.709  -1.660  1.00  0.00     0.159 C 
ATOM      5  O   UNL     1     -22.918   1.286  -1.179  1.00  0.00    -0.295 OA
BRANCH   4   6
ATOM      6  C   UNL     1     -23.914   0.370  -3.118  1.00  0.00     0.091 CG0
ATOM      7  G   UNL     1     -25.063   1.031  -3.911  1.00  0.00     0.000 G0
ENDBRANCH   4   6
ENDBRANCH   2   4
BRANCH   3   8
ATOM      8  C   UNL     1     -26.834  -0.187  -2.529  1.00  0.00    -0.003 C 
ATOM      9  C   UNL     1     -26.340   0.235  -3.700  1.00  0.00    -0.020 C 
BRANCH   9  10
ATOM     10  C   UNL     1     -25.072   1.028  -3.907  1.00  0.00    -0.010 CG0
ATOM     11  C   UNL     1     -24.709   0.980  -5.410  1.00  0.00     0.016 C 
ATOM     12  C   UNL     1     -25.305   2.506  -3.521  1.00  0.00     0.016 C 
ATOM     13  G   UNL     1     -23.917   0.379  -3.113  1.00  0.00     0.000 G0
ENDBRANCH   9  10
ENDBRANCH   3   8
TORSDOF 0
ENDMDL
MODEL 3
REMARK VINA RESULT:    -3.413      2.157      3.996
REMARK INTER + INTRA:          -3.466
REMARK INTER:                  -4.224
REMARK INTRA:                   0.759
REMARK UNBOUND:                 0.746
REMARK SMILES CC1=CC=CC(C)(C)CC1=O
REMARK SMILES IDX 1 1 2 2 3 3 10 4 11 5 9 6 4 8 5 9 6 10 7 11 8 12
REMARK H PARENT
REMARK Flexibility Score: 80.00
ROOT
ATOM      1  C   UNL     1     -27.319  -0.959  -5.005  1.00  0.00     0.048 C 
ATOM      2  C   UNL     1     -26.608  -0.245  -3.880  1.00  0.00    -0.008 C 
ATOM      3  C   UNL     1     -26.994  -0.525  -2.617  1.00  0.00     0.007 C 
ENDROOT
BRANCH   2   4
ATOM      4  C   UNL     1     -25.487   0.654  -4.253  1.00  0.00     0.159 C 
ATOM      5  O   UNL     1     -25.060   0.634  -5.440  1.00  0.00    -0.295 OA
BRANCH   4   6
ATOM      6  C   UNL     1     -24.837   1.604  -3.295  1.00  0.00     0.091 CG0
ATOM      7  G   UNL     1     -24.216   0.902  -2.067  1.00  0.00     0.000 G0
ENDBRANCH   4   6
ENDBRANCH   2   4
BRANCH   3   8
ATOM      8  C   UNL     1     -26.475  -0.013  -1.327  1.00  0.00    -0.003 C 
ATOM      9  C   UNL     1     -25.305   0.583  -1.066  1.00  0.00    -0.020 C 
BRANCH   9  10
ATOM     10  C   UNL     1     -24.219   0.906  -2.064  1.00  0.00    -0.010 CG0
ATOM     11  C   UNL     1     -23.230   1.894  -1.403  1.00  0.00     0.016 C 
ATOM     12  C   UNL     1     -23.438  -0.377  -2.428  1.00  0.00     0.016 C 
ATOM     13  G   UNL     1     -24.837   1.599  -3.299  1.00  0.00     0.000 G0
ENDBRANCH   9  10
ENDBRANCH   3   8
TORSDOF 0
ENDMDL
MODEL 4
REMARK VINA RESULT:    -3.408      2.143      3.869
REMARK INTER + INTRA:          -3.460
REMARK INTER:                  -4.214
REMARK INTRA:                   0.754
REMARK UNBOUND:                 0.746
REMARK SMILES CC1=CC=CC(C)(C)CC1=O
REMARK SMILES IDX 1 1 2 2 3 3 10 4 11 5 9 6 4 8 5 9 6 10 7 11 8 12
REMARK H PARENT
REMARK Flexibility Score: 80.00
ROOT
ATOM      1  C   UNL     1     -25.642  -3.087  -3.455  1.00  0.00     0.048 C 
ATOM      2  C   UNL     1     -25.472  -1.599  -3.256  1.00  0.00    -0.008 C 
ATOM      3  C   UNL     1     -26.573  -0.824  -3.355  1.00  0.00     0.007 C 
ENDROOT
BRANCH   2   4
ATOM      4  C   UNL     1     -24.116  -1.116  -2.893  1.00  0.00     0.159 C 
ATOM      5  O   UNL     1     -23.237  -1.961  -2.568  1.00  0.00    -0.295 OA
BRANCH   4   6
ATOM      6  C   UNL     1     -23.723   0.328  -2.906  1.00  0.00     0.091 CG0
ATOM      7  G   UNL     1     -24.583   1.202  -1.966  1.00  0.00     0.000 G0
ENDBRANCH   4   6
ENDBRANCH   2   4
BRANCH   3   8
ATOM      8  C   UNL     1     -26.725   0.640  -3.187  1.00  0.00    -0.003 C 
ATOM      9  C   UNL     1     -25.901   1.510  -2.590  1.00  0.00    -0.020 C 
BRANCH   9  10
ATOM     10  C   UNL     1     -24.569   1.194  -1.953  1.00  0.00    -0.010 CG0
ATOM     11  C   UNL     1     -23.813   2.523  -1.723  1.00  0.00     0.016 C 
ATOM     12  C   UNL     1     -24.788   0.527  -0.576  1.00  0.00     0.016 C 
ATOM     13  G   UNL     1     -23.728   0.321  -2.911  1.00  0.00     0.000 G0
ENDBRANCH   9  10
ENDBRANCH   3   8
TORSDOF 0
ENDMDL
MODEL 5
REMARK VINA RESULT:    -3.377      3.729      4.897
REMARK INTER + INTRA:          -3.421
REMARK INTER:                  -4.167
REMARK INTRA:                   0.746
REMARK UNBOUND:                 0.746
REMARK SMILES CC1=CC=CC(C)(C)CC1=O
REMARK SMILES IDX 1 1 2 2 3 3 10 4 11 5 9 6 4 8 5 9 6 10 7 11 8 12
REMARK H PARENT
REMARK Flexibility Score: 80.00
ROOT
ATOM      1  C   UNL     1     -24.877   4.505  -0.803  1.00  0.00     0.048 C 
ATOM      2  C   UNL     1     -24.548   3.043  -0.622  1.00  0.00    -0.008 C 
ATOM      3  C   UNL     1     -24.380   2.295  -1.734  1.00  0.00     0.007 C 
ENDROOT
BRANCH   2   4
ATOM      4  C   UNL     1     -24.362   2.559   0.770  1.00  0.00     0.159 C 
ATOM      5  O   UNL     1     -24.276   3.406   1.701  1.00  0.00    -0.295 OA
BRANCH   4   6
ATOM      6  C   UNL     1     -24.285   1.110   1.137  1.00  0.00     0.091 CG0
ATOM      7  G   UNL     1     -23.121   0.367   0.443  1.00  0.00     0.000 G0
ENDBRANCH   4   6
ENDBRANCH   2   4
BRANCH   3   8
ATOM      8  C   UNL     1     -24.031   0.862  -1.874  1.00  0.00    -0.003 C 
ATOM      9  C   UNL     1     -23.485   0.035  -0.974  1.00  0.00    -0.020 C 
BRANCH   9  10
ATOM     10  C   UNL     1     -23.111   0.376   0.448  1.00  0.00    -0.010 CG0
ATOM     11  C   UNL     1     -22.871  -0.943   1.217  1.00  0.00     0.016 C 
ATOM     12  C   UNL     1     -21.794   1.185   0.468  1.00  0.00     0.016 C 
ATOM     13  G   UNL     1     -24.280   1.124   1.128  1.00  0.00     0.000 G0
ENDBRANCH   9  10
ENDBRANCH   3   8
TORSDOF 0
ENDMDL
MODEL 6
REMARK VINA RESULT:    -3.372      1.941      2.505
REMARK INTER + INTRA:          -3.415
REMARK INTER:                  -4.160
REMARK INTRA:                   0.745
REMARK UNBOUND:                 0.746
REMARK SMILES CC1=CC=CC(C)(C)CC1=O
REMARK SMILES IDX 1 1 2 2 3 3 10 4 11 5 9 6 4 8 5 9 6 10 7 11 8 12
REMARK H PARENT
REMARK Flexibility Score: 80.00
ROOT
ATOM      1  C   UNL     1     -24.056   3.080   1.060  1.00  0.00     0.048 C 
ATOM      2  C   UNL     1     -24.712   2.362  -0.095  1.00  0.00    -0.008 C 
ATOM      3  C   UNL     1     -24.861   3.043  -1.252  1.00  0.00     0.007 C 
ENDROOT
BRANCH   2   4
ATOM      4  C   UNL     1     -25.074   0.937   0.112  1.00  0.00     0.159 C 
ATOM      5  O   UNL     1     -24.655   0.348   1.146  1.00  0.00    -0.295 OA
BRANCH   4   6
ATOM      6  C   UNL     1     -25.928   0.156  -0.838  1.00  0.00     0.091 CG0
ATOM      7  G   UNL     1     -25.342   0.085  -2.266  1.00  0.00     0.000 G0
ENDBRANCH   4   6
ENDBRANCH   2   4
BRANCH   3   8
ATOM      8  C   UNL     1     -25.433   2.605  -2.547  1.00  0.00    -0.003 C 
ATOM      9  C   UNL     1     -25.642   1.363  -3.000  1.00  0.00    -0.020 C 
BRANCH   9  10
ATOM     10  C   UNL     1     -25.357   0.077  -2.261  1.00  0.00    -0.010 CG0
ATOM     11  C   UNL     1     -26.087  -1.074  -2.990  1.00  0.00     0.016 C 
ATOM     12  C   UNL     1     -23.842  -0.225  -2.291  1.00  0.00     0.016 C 
ATOM     13  G   UNL     1     -25.918   0.169  -0.824  1.00  0.00     0.000 G0
ENDBRANCH   9  10
ENDBRANCH   3   8
TORSDOF 0
ENDMDL
MODEL 7
REMARK VINA RESULT:    -3.355      2.729      4.716
REMARK INTER + INTRA:          -3.394
REMARK INTER:                  -4.144
REMARK INTRA:                   0.751
REMARK UNBOUND:                 0.746
REMARK SMILES CC1=CC=CC(C)(C)CC1=O
REMARK SMILES IDX 1 1 2 2 3 3 10 4 11 5 9 6 4 8 5 9 6 10 7 11 8 12
REMARK H PARENT
REMARK Flexibility Score: 80.00
ROOT
ATOM      1  C   UNL     1     -26.612  -0.438  -2.772  1.00  0.00     0.048 C 
ATOM      2  C   UNL     1     -25.755   0.190  -1.699  1.00  0.00    -0.008 C 
ATOM      3  C   UNL     1     -26.229   0.182  -0.434  1.00  0.00     0.007 C 
ENDROOT
BRANCH   2   4
ATOM      4  C   UNL     1     -24.423   0.702  -2.110  1.00  0.00     0.159 C 
ATOM      5  O   UNL     1     -23.993   0.418  -3.261  1.00  0.00    -0.295 OA
BRANCH   4   6
ATOM      6  C   UNL     1     -23.560   1.555  -1.234  1.00  0.00     0.091 CG0
ATOM      7  G   UNL     1     -23.190   0.876   0.104  1.00  0.00     0.000 G0
ENDBRANCH   4   6
ENDBRANCH   2   4
BRANCH   3   8
ATOM      8  C   UNL     1     -25.616   0.690   0.816  1.00  0.00    -0.003 C 
ATOM      9  C   UNL     1     -24.334   0.979   1.069  1.00  0.00    -0.020 C 
BRANCH   9  10
ATOM     10  C   UNL     1     -23.181   0.877   0.099  1.00  0.00    -0.010 CG0
ATOM     11  C   UNL     1     -21.978   1.646   0.691  1.00  0.00     0.016 C 
ATOM     12  C   UNL     1     -22.764  -0.601  -0.071  1.00  0.00     0.016 C 
ATOM     13  G   UNL     1     -23.568   1.545  -1.240  1.00  0.00     0.000 G0
ENDBRANCH   9  10
ENDBRANCH   3   8
TORSDOF 0
ENDMDL
MODEL 8
REMARK VINA RESULT:    -3.297      1.784      3.772
REMARK INTER + INTRA:          -3.322
REMARK INTER:                  -4.073
REMARK INTRA:                   0.751
REMARK UNBOUND:                 0.746
REMARK SMILES CC1=CC=CC(C)(C)CC1=O
REMARK SMILES IDX 1 1 2 2 3 3 10 4 11 5 9 6 4 8 5 9 6 10 7 11 8 12
REMARK H PARENT
REMARK Flexibility Score: 80.00
ROOT
ATOM      1  C   UNL     1     -27.561  -3.090  -5.482  1.00  0.00     0.048 C 
ATOM      2  C   UNL     1     -26.641  -2.097  -4.813  1.00  0.00    -0.008 C 
ATOM      3  C   UNL     1     -26.624  -0.835  -5.295  1.00  0.00     0.007 C 
ENDROOT
BRANCH   2   4
ATOM      4  C   UNL     1     -25.881  -2.570  -3.628  1.00  0.00     0.159 C 
ATOM      5  O   UNL     1     -26.190  -3.679  -3.112  1.00  0.00    -0.295 OA
BRANCH   4   6
ATOM      6  C   UNL     1     -24.750  -1.806  -3.013  1.00  0.00     0.091 CG0
ATOM      7  G   UNL     1     -25.163  -0.404  -2.512  1.00  0.00     0.000 G0
ENDBRANCH   4   6
ENDBRANCH   2   4
BRANCH   3   8
ATOM      8  C   UNL     1     -25.858   0.348  -4.839  1.00  0.00    -0.003 C 
ATOM      9  C   UNL     1     -25.245   0.556  -3.667  1.00  0.00    -0.020 C 
BRANCH   9  10
ATOM     10  C   UNL     1     -25.168  -0.412  -2.510  1.00  0.00    -0.010 CG0
ATOM     11  C   UNL     1     -24.070   0.079  -1.539  1.00  0.00     0.016 C 
ATOM     12  C   UNL     1     -26.510  -0.428  -1.744  1.00  0.00     0.016 C 
ATOM     13  G   UNL     1     -24.761  -1.810  -3.028  1.00  0.00     0.000 G0
ENDBRANCH   9  10
ENDBRANCH   3   8
TORSDOF 0
ENDMDL
MODEL 9
REMARK VINA RESULT:    -3.263      3.549      5.216
REMARK INTER + INTRA:          -3.280
REMARK INTER:                  -4.037
REMARK INTRA:                   0.757
REMARK UNBOUND:                 0.746
REMARK SMILES CC1=CC=CC(C)(C)CC1=O
REMARK SMILES IDX 1 1 2 2 3 3 10 4 11 5 9 6 4 8 5 9 6 10 7 11 8 12
REMARK H PARENT
REMARK Flexibility Score: 80.00
ROOT
ATOM      1  C   UNL     1     -23.622  -0.706  -2.773  1.00  0.00     0.048 C 
ATOM      2  C   UNL     1     -23.671   0.507  -1.876  1.00  0.00    -0.008 C 
ATOM      3  C   UNL     1     -24.418   1.557  -2.283  1.00  0.00     0.007 C 
ENDROOT
BRANCH   2   4
ATOM      4  C   UNL     1     -22.953   0.419  -0.580  1.00  0.00     0.159 C 
ATOM      5  O   UNL     1     -22.521  -0.703  -0.199  1.00  0.00    -0.295 OA
BRANCH   4   6
ATOM      6  C   UNL     1     -22.696   1.600   0.304  1.00  0.00     0.091 CG0
ATOM      7  G   UNL     1     -23.989   2.303   0.773  1.00  0.00     0.000 G0
ENDBRANCH   4   6
ENDBRANCH   2   4
BRANCH   3   8
ATOM      8  C   UNL     1     -24.678   2.854  -1.617  1.00  0.00    -0.003 C 
ATOM      9  C   UNL     1     -24.519   3.189  -0.330  1.00  0.00    -0.020 C 
BRANCH   9  10
ATOM     10  C   UNL     1     -23.995   2.299   0.772  1.00  0.00    -0.010 CG0
ATOM     11  C   UNL     1     -23.648   3.186   1.989  1.00  0.00     0.016 C 
ATOM     12  C   UNL     1     -25.090   1.299   1.208  1.00  0.00     0.016 C 
ATOM     13  G   UNL     1     -22.701   1.597   0.302  1.00  0.00     0.000 G0
ENDBRANCH   9  10
ENDBRANCH   3   8
TORSDOF 0
ENDMDL
