MODEL 1
REMARK VINA RESULT:    -2.802      0.000      0.000
REMARK INTER + INTRA:          -3.713
REMARK INTER:                  -3.458
REMARK INTRA:                  -0.256
REMARK UNBOUND:                -0.256
REMARK SMILES CCCCC(=O)CC
REMARK SMILES IDX 4 1 3 2 2 3 1 4 5 5 6 6 7 7 8 8
REMARK H PARENT
REMARK Flexibility Score: inf
ROOT
ATOM      1  C   UNL     1       7.054   4.415   5.019  1.00  0.00     0.075 C 
ENDROOT
BRANCH   1   2
ATOM      2  C   UNL     1       7.924   3.332   5.680  1.00  0.00     0.008 C 
BRANCH   2   3
ATOM      3  C   UNL     1       7.355   1.906   5.568  1.00  0.00    -0.003 C 
ATOM      4  C   UNL     1       6.960   1.313   6.920  1.00  0.00     0.004 C 
ENDBRANCH   2   3
ENDBRANCH   1   2
BRANCH   1   5
ATOM      5  C   UNL     1       5.764   4.658   5.762  1.00  0.00     0.132 C 
ATOM      6  O   UNL     1       4.703   4.595   5.158  1.00  0.00    -0.300 OA
BRANCH   5   7
ATOM      7  C   UNL     1       5.755   4.924   7.246  1.00  0.00     0.072 C 
ATOM      8  C   UNL     1       5.247   6.328   7.555  1.00  0.00     0.012 C 
ENDBRANCH   5   7
ENDBRANCH   1   5
TORSDOF 4
ENDMDL
MODEL 2
REMARK VINA RESULT:    -2.789      1.420      2.228
REMARK INTER + INTRA:          -3.697
REMARK INTER:                  -3.316
REMARK INTRA:                  -0.381
REMARK UNBOUND:                -0.256
REMARK SMILES CCCCC(=O)CC
REMARK SMILES IDX 4 1 3 2 2 3 1 4 5 5 6 6 7 7 8 8
REMARK H PARENT
REMARK Flexibility Score: inf
ROOT
ATOM      1  C   UNL     1       6.135   3.347   6.916  1.00  0.00     0.075 C 
ENDROOT
BRANCH   1   2
ATOM      2  C   UNL     1       6.218   1.852   6.564  1.00  0.00     0.008 C 
BRANCH   2   3
ATOM      3  C   UNL     1       7.652   1.303   6.465  1.00  0.00    -0.003 C 
ATOM      4  C   UNL     1       8.165   1.231   5.027  1.00  0.00     0.004 C 
ENDBRANCH   2   3
ENDBRANCH   1   2
BRANCH   1   5
ATOM      5  C   UNL     1       5.940   4.221   5.702  1.00  0.00     0.132 C 
ATOM      6  O   UNL     1       4.807   4.506   5.344  1.00  0.00    -0.300 OA
BRANCH   5   7
ATOM      7  C   UNL     1       7.118   4.792   4.954  1.00  0.00     0.072 C 
ATOM      8  C   UNL     1       8.346   4.900   5.852  1.00  0.00     0.012 C 
ENDBRANCH   5   7
ENDBRANCH   1   5
TORSDOF 4
ENDMDL
MODEL 3
REMARK VINA RESULT:    -2.752     14.507     15.253
REMARK INTER + INTRA:          -3.652
REMARK INTER:                  -3.583
REMARK INTRA:                  -0.069
REMARK UNBOUND:                -0.256
REMARK SMILES CCCCC(=O)CC
REMARK SMILES IDX 4 1 3 2 2 3 1 4 5 5 6 6 7 7 8 8
REMARK H PARENT
REMARK Flexibility Score: inf
ROOT
ATOM      1  C   UNL     1      -7.954  -0.069   2.977  1.00  0.00     0.075 C 
ENDROOT
BRANCH   1   2
ATOM      2  C   UNL     1      -7.934   0.107   1.449  1.00  0.00     0.008 C 
BRANCH   2   3
ATOM      3  C   UNL     1      -7.875   1.572   0.980  1.00  0.00    -0.003 C 
ATOM      4  C   UNL     1      -6.830   1.806  -0.110  1.00  0.00     0.004 C 
ENDBRANCH   2   3
ENDBRANCH   1   2
BRANCH   1   5
ATOM      5  C   UNL     1      -7.548  -1.456   3.409  1.00  0.00     0.132 C 
ATOM      6  O   UNL     1      -7.244  -2.282   2.561  1.00  0.00    -0.300 OA
BRANCH   5   7
ATOM      7  C   UNL     1      -7.458  -1.826   4.867  1.00  0.00     0.072 C 
ATOM      8  C   UNL     1      -6.674  -0.784   5.657  1.00  0.00     0.012 C 
ENDBRANCH   5   7
ENDBRANCH   1   5
TORSDOF 4
ENDMDL
MODEL 4
REMARK VINA RESULT:    -2.728     14.754     15.442
REMARK INTER + INTRA:          -3.622
REMARK INTER:                  -3.504
REMARK INTRA:                  -0.118
REMARK UNBOUND:                -0.256
REMARK SMILES CCCCC(=O)CC
REMARK SMILES IDX 4 1 3 2 2 3 1 4 5 5 6 6 7 7 8 8
REMARK H PARENT
REMARK Flexibility Score: inf
ROOT
ATOM      1  C   UNL     1       3.552  -4.142  -7.411  1.00  0.00     0.075 C 
ENDROOT
BRANCH   1   2
ATOM      2  C   UNL     1       3.013  -5.529  -7.022  1.00  0.00     0.008 C 
BRANCH   2   3
ATOM      3  C   UNL     1       3.965  -6.355  -6.139  1.00  0.00    -0.003 C 
ATOM      4  C   UNL     1       5.025  -5.501  -5.445  1.00  0.00     0.004 C 
ENDBRANCH   2   3
ENDBRANCH   1   2
BRANCH   1   5
ATOM      5  C   UNL     1       2.562  -3.037  -7.142  1.00  0.00     0.132 C 
ATOM      6  O   UNL     1       1.370  -3.302  -7.075  1.00  0.00    -0.300 OA
BRANCH   5   7
ATOM      7  C   UNL     1       3.018  -1.620  -6.902  1.00  0.00     0.072 C 
ATOM      8  C   UNL     1       1.874  -0.629  -7.089  1.00  0.00     0.012 C 
ENDBRANCH   5   7
ENDBRANCH   1   5
TORSDOF 4
ENDMDL
MODEL 5
REMARK VINA RESULT:    -2.713      1.747      3.709
REMARK INTER + INTRA:          -3.603
REMARK INTER:                  -3.281
REMARK INTRA:                  -0.323
REMARK UNBOUND:                -0.256
REMARK SMILES CCCCC(=O)CC
REMARK SMILES IDX 4 1 3 2 2 3 1 4 5 5 6 6 7 7 8 8
REMARK H PARENT
REMARK Flexibility Score: inf
ROOT
ATOM      1  C   UNL     1       8.088   3.420   5.666  1.00  0.00     0.075 C 
ENDROOT
BRANCH   1   2
ATOM      2  C   UNL     1       7.106   4.336   4.917  1.00  0.00     0.008 C 
BRANCH   2   3
ATOM      3  C   UNL     1       5.729   4.476   5.592  1.00  0.00    -0.003 C 
ATOM      4  C   UNL     1       5.811   5.087   6.991  1.00  0.00     0.004 C 
ENDBRANCH   2   3
ENDBRANCH   1   2
BRANCH   1   5
ATOM      5  C   UNL     1       7.937   1.969   5.282  1.00  0.00     0.132 C 
ATOM      6  O   UNL     1       8.092   1.638   4.116  1.00  0.00    -0.300 OA
BRANCH   5   7
ATOM      7  C   UNL     1       7.652   0.912   6.319  1.00  0.00     0.072 C 
ATOM      8  C   UNL     1       6.556   1.360   7.280  1.00  0.00     0.012 C 
ENDBRANCH   5   7
ENDBRANCH   1   5
TORSDOF 4
ENDMDL
MODEL 6
REMARK VINA RESULT:    -2.702      9.014     10.110
REMARK INTER + INTRA:          -3.590
REMARK INTER:                  -3.455
REMARK INTRA:                  -0.135
REMARK UNBOUND:                -0.256
REMARK SMILES CCCCC(=O)CC
REMARK SMILES IDX 4 1 3 2 2 3 1 4 5 5 6 6 7 7 8 8
REMARK H PARENT
REMARK Flexibility Score: inf
ROOT
ATOM      1  C   UNL     1      -0.092   8.360  -1.440  1.00  0.00     0.075 C 
ENDROOT
BRANCH   1   2
ATOM      2  C   UNL     1       1.014   9.108  -0.675  1.00  0.00     0.008 C 
BRANCH   2   3
ATOM      3  C   UNL     1       2.417   8.969  -1.292  1.00  0.00    -0.003 C 
ATOM      4  C   UNL     1       3.531   8.977  -0.245  1.00  0.00     0.004 C 
ENDBRANCH   2   3
ENDBRANCH   1   2
BRANCH   1   5
ATOM      5  C   UNL     1      -0.976   7.543  -0.532  1.00  0.00     0.132 C 
ATOM      6  O   UNL     1      -1.246   6.390  -0.836  1.00  0.00    -0.300 OA
BRANCH   5   7
ATOM      7  C   UNL     1      -1.490   8.103   0.770  1.00  0.00     0.072 C 
ATOM      8  C   UNL     1      -1.081   7.230   1.951  1.00  0.00     0.012 C 
ENDBRANCH   5   7
ENDBRANCH   1   5
TORSDOF 4
ENDMDL
MODEL 7
REMARK VINA RESULT:    -2.611      9.823     11.011
REMARK INTER + INTRA:          -3.477
REMARK INTER:                  -3.177
REMARK INTRA:                  -0.300
REMARK UNBOUND:                -0.256
REMARK SMILES CCCCC(=O)CC
REMARK SMILES IDX 4 1 3 2 2 3 1 4 5 5 6 6 7 7 8 8
REMARK H PARENT
REMARK Flexibility Score: inf
ROOT
ATOM      1  C   UNL     1      -2.762   7.490   0.711  1.00  0.00     0.075 C 
ENDROOT
BRANCH   1   2
ATOM      2  C   UNL     1      -1.405   7.895   1.312  1.00  0.00     0.008 C 
BRANCH   2   3
ATOM      3  C   UNL     1      -1.158   7.364   2.735  1.00  0.00    -0.003 C 
ATOM      4  C   UNL     1      -2.383   7.491   3.640  1.00  0.00     0.004 C 
ENDBRANCH   2   3
ENDBRANCH   1   2
BRANCH   1   5
ATOM      5  C   UNL     1      -2.731   6.125   0.070  1.00  0.00     0.132 C 
ATOM      6  O   UNL     1      -1.679   5.701  -0.386  1.00  0.00    -0.300 OA
BRANCH   5   7
ATOM      7  C   UNL     1      -3.959   5.252   0.029  1.00  0.00     0.072 C 
ATOM      8  C   UNL     1      -4.959   5.650   1.110  1.00  0.00     0.012 C 
ENDBRANCH   5   7
ENDBRANCH   1   5
TORSDOF 4
ENDMDL
MODEL 8
REMARK VINA RESULT:    -2.582     10.441     11.536
REMARK INTER + INTRA:          -3.441
REMARK INTER:                  -3.146
REMARK INTRA:                  -0.296
REMARK UNBOUND:                -0.256
REMARK SMILES CCCCC(=O)CC
REMARK SMILES IDX 4 1 3 2 2 3 1 4 5 5 6 6 7 7 8 8
REMARK H PARENT
REMARK Flexibility Score: inf
ROOT
ATOM      1  C   UNL     1      -3.642   6.317  -0.448  1.00  0.00     0.075 C 
ENDROOT
BRANCH   1   2
ATOM      2  C   UNL     1      -4.337   5.096   0.179  1.00  0.00     0.008 C 
BRANCH   2   3
ATOM      3  C   UNL     1      -5.548   5.441   1.065  1.00  0.00    -0.003 C 
ATOM      4  C   UNL     1      -5.154   6.126   2.373  1.00  0.00     0.004 C 
ENDBRANCH   2   3
ENDBRANCH   1   2
BRANCH   1   5
ATOM      5  C   UNL     1      -2.248   6.531   0.087  1.00  0.00     0.132 C 
ATOM      6  O   UNL     1      -1.341   5.809  -0.299  1.00  0.00    -0.300 OA
BRANCH   5   7
ATOM      7  C   UNL     1      -1.944   7.652   1.048  1.00  0.00     0.072 C 
ATOM      8  C   UNL     1      -1.243   7.135   2.300  1.00  0.00     0.012 C 
ENDBRANCH   5   7
ENDBRANCH   1   5
TORSDOF 4
ENDMDL
MODEL 9
REMARK VINA RESULT:    -2.546     15.744     16.679
REMARK INTER + INTRA:          -3.397
REMARK INTER:                  -3.021
REMARK INTRA:                  -0.376
REMARK UNBOUND:                -0.256
REMARK SMILES CCCCC(=O)CC
REMARK SMILES IDX 4 1 3 2 2 3 1 4 5 5 6 6 7 7 8 8
REMARK H PARENT
REMARK Flexibility Score: inf
ROOT
ATOM      1  C   UNL     1       1.554  -0.044  -8.813  1.00  0.00     0.075 C 
ENDROOT
BRANCH   1   2
ATOM      2  C   UNL     1       0.514  -0.543  -9.831  1.00  0.00     0.008 C 
BRANCH   2   3
ATOM      3  C   UNL     1      -0.874  -0.829  -9.231  1.00  0.00    -0.003 C 
ATOM      4  C   UNL     1      -1.252  -2.309  -9.283  1.00  0.00     0.004 C 
ENDBRANCH   2   3
ENDBRANCH   1   2
BRANCH   1   5
ATOM      5  C   UNL     1       1.815  -1.042  -7.712  1.00  0.00     0.132 C 
ATOM      6  O   UNL     1       1.368  -0.832  -6.594  1.00  0.00    -0.300 OA
BRANCH   5   7
ATOM      7  C   UNL     1       2.570  -2.319  -7.978  1.00  0.00     0.072 C 
ATOM      8  C   UNL     1       1.821  -3.531  -7.435  1.00  0.00     0.012 C 
ENDBRANCH   5   7
ENDBRANCH   1   5
TORSDOF 4
ENDMDL
