MODEL 1
REMARK VINA RESULT:    -6.176      0.000      0.000
REMARK INTER + INTRA:          -6.604
REMARK INTER:                  -6.537
REMARK INTRA:                  -0.067
REMARK UNBOUND:                -0.067
REMARK SMILES CC(=O)c1cccc(C)c1
REMARK SMILES IDX 9 1 8 2 10 3 4 4 5 5 6 6 7 7 2 8 3 9 1 10
REMARK H PARENT
REMARK Flexibility Score: inf
ROOT
ATOM      1  C   UNL     1     131.115 127.072 127.060  1.00  0.00     0.044 C 
ATOM      2  C   UNL     1     130.347 125.788 127.169  1.00  0.00    -0.050 A 
ATOM      3  C   UNL     1     129.545 125.538 128.293  1.00  0.00     0.015 A 
ATOM      4  C   UNL     1     128.847 124.321 128.426  1.00  0.00     0.017 A 
ATOM      5  C   UNL     1     128.981 123.352 127.413  1.00  0.00     0.012 A 
ATOM      6  C   UNL     1     129.794 123.592 126.302  1.00  0.00     0.001 A 
ATOM      7  C   UNL     1     130.480 124.801 126.182  1.00  0.00     0.003 A 
ENDROOT
BRANCH   4   8
ATOM      8  C   UNL     1     127.993 124.079 129.621  1.00  0.00     0.159 C 
ATOM      9  O   UNL     1     126.737 124.135 129.515  1.00  0.00    -0.295 OA
ATOM     10  C   UNL     1     128.580 123.767 130.964  1.00  0.00     0.093 C 
ENDBRANCH   4   8
TORSDOF 1
ENDMDL
MODEL 2
REMARK VINA RESULT:    -6.088      2.000      4.009
REMARK INTER + INTRA:          -6.511
REMARK INTER:                  -6.435
REMARK INTRA:                  -0.077
REMARK UNBOUND:                -0.067
REMARK SMILES CC(=O)c1cccc(C)c1
REMARK SMILES IDX 9 1 8 2 10 3 4 4 5 5 6 6 7 7 2 8 3 9 1 10
REMARK H PARENT
REMARK Flexibility Score: inf
ROOT
ATOM      1  C   UNL     1     128.353 124.100 130.137  1.00  0.00     0.044 C 
ATOM      2  C   UNL     1     128.997 124.302 128.796  1.00  0.00    -0.050 A 
ATOM      3  C   UNL     1     129.655 125.506 128.503  1.00  0.00     0.015 A 
ATOM      4  C   UNL     1     130.232 125.724 127.236  1.00  0.00     0.017 A 
ATOM      5  C   UNL     1     130.122 124.713 126.262  1.00  0.00     0.012 A 
ATOM      6  C   UNL     1     129.451 123.521 126.546  1.00  0.00     0.001 A 
ATOM      7  C   UNL     1     128.884 123.318 127.805  1.00  0.00     0.003 A 
ENDROOT
BRANCH   4   8
ATOM      8  C   UNL     1     130.936 127.004 126.948  1.00  0.00     0.159 C 
ATOM      9  O   UNL     1     131.285 127.754 127.899  1.00  0.00    -0.295 OA
ATOM     10  C   UNL     1     131.248 127.438 125.547  1.00  0.00     0.093 C 
ENDBRANCH   4   8
TORSDOF 1
ENDMDL
MODEL 3
REMARK VINA RESULT:    -5.956      1.940      3.999
REMARK INTER + INTRA:          -6.372
REMARK INTER:                  -6.298
REMARK INTRA:                  -0.074
REMARK UNBOUND:                -0.067
REMARK SMILES CC(=O)c1cccc(C)c1
REMARK SMILES IDX 9 1 8 2 10 3 4 4 5 5 6 6 7 7 2 8 3 9 1 10
REMARK H PARENT
REMARK Flexibility Score: inf
ROOT
ATOM      1  C   UNL     1     128.610 123.857 132.209  1.00  0.00     0.044 C 
ATOM      2  C   UNL     1     128.654 123.679 130.720  1.00  0.00    -0.050 A 
ATOM      3  C   UNL     1     129.030 124.748 129.891  1.00  0.00     0.015 A 
ATOM      4  C   UNL     1     129.040 124.606 128.489  1.00  0.00     0.017 A 
ATOM      5  C   UNL     1     128.652 123.372 127.933  1.00  0.00     0.012 A 
ATOM      6  C   UNL     1     128.261 122.313 128.755  1.00  0.00     0.001 A 
ATOM      7  C   UNL     1     128.255 122.466 130.143  1.00  0.00     0.003 A 
ENDROOT
BRANCH   4   8
ATOM      8  C   UNL     1     129.452 125.749 127.628  1.00  0.00     0.159 C 
ATOM      9  O   UNL     1     130.352 126.538 128.023  1.00  0.00    -0.295 OA
ATOM     10  C   UNL     1     128.824 125.997 126.289  1.00  0.00     0.093 C 
ENDBRANCH   4   8
TORSDOF 1
ENDMDL
MODEL 4
REMARK VINA RESULT:    -5.780      2.208      3.045
REMARK INTER + INTRA:          -6.185
REMARK INTER:                  -6.117
REMARK INTRA:                  -0.068
REMARK UNBOUND:                -0.067
REMARK SMILES CC(=O)c1cccc(C)c1
REMARK SMILES IDX 9 1 8 2 10 3 4 4 5 5 6 6 7 7 2 8 3 9 1 10
REMARK H PARENT
REMARK Flexibility Score: inf
ROOT
ATOM      1  C   UNL     1     128.571 127.200 123.622  1.00  0.00     0.044 C 
ATOM      2  C   UNL     1     129.523 126.626 124.628  1.00  0.00    -0.050 A 
ATOM      3  C   UNL     1     129.035 125.982 125.775  1.00  0.00     0.015 A 
ATOM      4  C   UNL     1     129.918 125.470 126.747  1.00  0.00     0.017 A 
ATOM      5  C   UNL     1     131.303 125.631 126.553  1.00  0.00     0.012 A 
ATOM      6  C   UNL     1     131.790 126.289 125.420  1.00  0.00     0.001 A 
ATOM      7  C   UNL     1     130.906 126.791 124.465  1.00  0.00     0.003 A 
ENDROOT
BRANCH   4   8
ATOM      8  C   UNL     1     129.381 124.779 127.952  1.00  0.00     0.159 C 
ATOM      9  O   UNL     1     129.477 125.328 129.083  1.00  0.00    -0.295 OA
ATOM     10  C   UNL     1     128.722 123.436 127.866  1.00  0.00     0.093 C 
ENDBRANCH   4   8
TORSDOF 1
ENDMDL
MODEL 5
REMARK VINA RESULT:    -5.661      1.807      3.884
REMARK INTER + INTRA:          -6.059
REMARK INTER:                  -5.991
REMARK INTRA:                  -0.069
REMARK UNBOUND:                -0.067
REMARK SMILES CC(=O)c1cccc(C)c1
REMARK SMILES IDX 9 1 8 2 10 3 4 4 5 5 6 6 7 7 2 8 3 9 1 10
REMARK H PARENT
REMARK Flexibility Score: inf
ROOT
ATOM      1  C   UNL     1     128.627 123.984 131.580  1.00  0.00     0.044 C 
ATOM      2  C   UNL     1     128.654 123.955 130.080  1.00  0.00    -0.050 A 
ATOM      3  C   UNL     1     129.371 124.928 129.368  1.00  0.00     0.015 A 
ATOM      4  C   UNL     1     129.375 124.934 127.958  1.00  0.00     0.017 A 
ATOM      5  C   UNL     1     128.632 123.951 127.277  1.00  0.00     0.012 A 
ATOM      6  C   UNL     1     127.903 122.992 127.985  1.00  0.00     0.001 A 
ATOM      7  C   UNL     1     127.907 122.997 129.381  1.00  0.00     0.003 A 
ENDROOT
BRANCH   4   8
ATOM      8  C   UNL     1     130.150 125.968 127.220  1.00  0.00     0.159 C 
ATOM      9  O   UNL     1     129.872 127.189 127.374  1.00  0.00    -0.295 OA
ATOM     10  C   UNL     1     131.266 125.605 126.287  1.00  0.00     0.093 C 
ENDBRANCH   4   8
TORSDOF 1
ENDMDL
MODEL 6
REMARK VINA RESULT:    -5.660      1.560      2.788
REMARK INTER + INTRA:          -6.059
REMARK INTER:                  -5.982
REMARK INTRA:                  -0.077
REMARK UNBOUND:                -0.067
REMARK SMILES CC(=O)c1cccc(C)c1
REMARK SMILES IDX 9 1 8 2 10 3 4 4 5 5 6 6 7 7 2 8 3 9 1 10
REMARK H PARENT
REMARK Flexibility Score: inf
ROOT
ATOM      1  C   UNL     1     131.647 125.959 123.927  1.00  0.00     0.044 C 
ATOM      2  C   UNL     1     131.193 126.108 125.349  1.00  0.00    -0.050 A 
ATOM      3  C   UNL     1     130.377 125.129 125.936  1.00  0.00     0.015 A 
ATOM      4  C   UNL     1     129.913 125.275 127.259  1.00  0.00     0.017 A 
ATOM      5  C   UNL     1     130.273 126.431 127.978  1.00  0.00     0.012 A 
ATOM      6  C   UNL     1     131.071 127.414 127.388  1.00  0.00     0.001 A 
ATOM      7  C   UNL     1     131.524 127.259 126.077  1.00  0.00     0.003 A 
ENDROOT
BRANCH   4   8
ATOM      8  C   UNL     1     129.056 124.220 127.868  1.00  0.00     0.159 C 
ATOM      9  O   UNL     1     128.500 123.362 127.130  1.00  0.00    -0.295 OA
ATOM     10  C   UNL     1     128.829 124.141 129.347  1.00  0.00     0.093 C 
ENDBRANCH   4   8
TORSDOF 1
ENDMDL
MODEL 7
REMARK VINA RESULT:    -5.518      0.504      2.153
REMARK INTER + INTRA:          -5.908
REMARK INTER:                  -5.841
REMARK INTRA:                  -0.067
REMARK UNBOUND:                -0.067
REMARK SMILES CC(=O)c1cccc(C)c1
REMARK SMILES IDX 9 1 8 2 10 3 4 4 5 5 6 6 7 7 2 8 3 9 1 10
REMARK H PARENT
REMARK Flexibility Score: inf
ROOT
ATOM      1  C   UNL     1     130.138 122.747 125.410  1.00  0.00     0.044 C 
ATOM      2  C   UNL     1     129.941 123.750 126.508  1.00  0.00    -0.050 A 
ATOM      3  C   UNL     1     129.113 123.448 127.599  1.00  0.00     0.015 A 
ATOM      4  C   UNL     1     128.889 124.395 128.619  1.00  0.00     0.017 A 
ATOM      5  C   UNL     1     129.503 125.658 128.515  1.00  0.00     0.012 A 
ATOM      6  C   UNL     1     130.313 125.966 127.419  1.00  0.00     0.001 A 
ATOM      7  C   UNL     1     130.526 125.020 126.415  1.00  0.00     0.003 A 
ENDROOT
BRANCH   4   8
ATOM      8  C   UNL     1     128.016 124.052 129.776  1.00  0.00     0.159 C 
ATOM      9  O   UNL     1     126.766 123.988 129.619  1.00  0.00    -0.295 OA
ATOM     10  C   UNL     1     128.578 123.776 131.138  1.00  0.00     0.093 C 
ENDBRANCH   4   8
TORSDOF 1
ENDMDL
MODEL 8
REMARK VINA RESULT:    -5.358      3.352      4.880
REMARK INTER + INTRA:          -5.739
REMARK INTER:                  -5.665
REMARK INTRA:                  -0.074
REMARK UNBOUND:                -0.067
REMARK SMILES CC(=O)c1cccc(C)c1
REMARK SMILES IDX 9 1 8 2 10 3 4 4 5 5 6 6 7 7 2 8 3 9 1 10
REMARK H PARENT
REMARK Flexibility Score: inf
ROOT
ATOM      1  C   UNL     1     127.433 124.755 128.078  1.00  0.00     0.044 C 
ATOM      2  C   UNL     1     128.551 125.184 127.174  1.00  0.00    -0.050 A 
ATOM      3  C   UNL     1     128.286 125.991 126.057  1.00  0.00     0.015 A 
ATOM      4  C   UNL     1     129.321 126.370 125.179  1.00  0.00     0.017 A 
ATOM      5  C   UNL     1     130.627 125.911 125.436  1.00  0.00     0.012 A 
ATOM      6  C   UNL     1     130.889 125.093 126.537  1.00  0.00     0.001 A 
ATOM      7  C   UNL     1     129.856 124.723 127.400  1.00  0.00     0.003 A 
ENDROOT
BRANCH   4   8
ATOM      8  C   UNL     1     129.022 127.237 124.006  1.00  0.00     0.159 C 
ATOM      9  O   UNL     1     129.817 128.164 123.693  1.00  0.00    -0.295 OA
ATOM     10  C   UNL     1     127.791 127.043 123.172  1.00  0.00     0.093 C 
ENDBRANCH   4   8
TORSDOF 1
ENDMDL
MODEL 9
REMARK VINA RESULT:    -5.223      3.473      5.134
REMARK INTER + INTRA:          -5.596
REMARK INTER:                  -5.517
REMARK INTRA:                  -0.079
REMARK UNBOUND:                -0.067
REMARK SMILES CC(=O)c1cccc(C)c1
REMARK SMILES IDX 9 1 8 2 10 3 4 4 5 5 6 6 7 7 2 8 3 9 1 10
REMARK H PARENT
REMARK Flexibility Score: inf
ROOT
ATOM      1  C   UNL     1     129.366 123.620 126.965  1.00  0.00     0.044 C 
ATOM      2  C   UNL     1     129.929 124.828 126.276  1.00  0.00    -0.050 A 
ATOM      3  C   UNL     1     129.146 125.548 125.361  1.00  0.00     0.015 A 
ATOM      4  C   UNL     1     129.674 126.662 124.679  1.00  0.00     0.017 A 
ATOM      5  C   UNL     1     131.011 127.031 124.922  1.00  0.00     0.012 A 
ATOM      6  C   UNL     1     131.798 126.304 125.818  1.00  0.00     0.001 A 
ATOM      7  C   UNL     1     131.263 125.202 126.488  1.00  0.00     0.003 A 
ENDROOT
BRANCH   4   8
ATOM      8  C   UNL     1     128.824 127.421 123.720  1.00  0.00     0.159 C 
ATOM      9  O   UNL     1     129.249 128.500 123.225  1.00  0.00    -0.295 OA
ATOM     10  C   UNL     1     127.461 126.941 123.319  1.00  0.00     0.093 C 
ENDBRANCH   4   8
TORSDOF 1
ENDMDL
