MODEL 1
REMARK VINA RESULT:    -3.879      0.000      0.000
REMARK INTER + INTRA:          -5.871
REMARK INTER:                  -5.353
REMARK INTRA:                  -0.518
REMARK UNBOUND:                -0.518
REMARK SMILES OC[C@@H](O)[C@@H](O)[C@@H](O)CO
REMARK SMILES IDX 5 1 3 2 2 3 1 4 4 6 7 8 9 9 10 10 8 12 6 14
REMARK H PARENT 1 5 4 7 10 11 8 13 6 15
REMARK Flexibility Score: inf
ROOT
ATOM      1  C   UNL     1     170.665 170.863 164.210  1.00  0.00     0.176 C 
ENDROOT
BRANCH   1   2
ATOM      2  C   UNL     1     170.857 172.338 163.749  1.00  0.00     0.171 C 
BRANCH   2   3
ATOM      3  C   UNL     1     169.572 173.195 163.779  1.00  0.00     0.190 C 
BRANCH   3   4
ATOM      4  O   UNL     1     169.347 173.753 165.046  1.00  0.00    -0.394 OA
ATOM      5  H   UNL     1     170.135 174.320 165.256  1.00  0.00     0.210 HD
ENDBRANCH   3   4
ENDBRANCH   2   3
BRANCH   2   6
ATOM      6  O   UNL     1     171.886 172.958 164.481  1.00  0.00    -0.388 OA
ATOM      7  H   UNL     1     171.505 173.755 164.931  1.00  0.00     0.211 HD
ENDBRANCH   2   6
ENDBRANCH   1   2
BRANCH   1   8
ATOM      8  C   UNL     1     169.715 170.062 163.285  1.00  0.00     0.171 C 
BRANCH   8   9
ATOM      9  C   UNL     1     169.694 168.565 163.653  1.00  0.00     0.190 C 
BRANCH   9  10
ATOM     10  O   UNL     1     170.840 168.201 164.375  1.00  0.00    -0.394 OA
ATOM     11  H   UNL     1     171.007 167.242 164.176  1.00  0.00     0.210 HD
ENDBRANCH   9  10
ENDBRANCH   8   9
BRANCH   8  12
ATOM     12  O   UNL     1     170.139 170.193 161.951  1.00  0.00    -0.388 OA
ATOM     13  H   UNL     1     169.704 169.462 161.436  1.00  0.00     0.211 HD
ENDBRANCH   8  12
ENDBRANCH   1   8
BRANCH   1  14
ATOM     14  O   UNL     1     170.176 170.825 165.529  1.00  0.00    -0.388 OA
ATOM     15  H   UNL     1     170.489 171.650 165.983  1.00  0.00     0.211 HD
ENDBRANCH   1  14
TORSDOF 9
ENDMDL
MODEL 2
REMARK VINA RESULT:    -3.816      0.913      2.031
REMARK INTER + INTRA:          -5.783
REMARK INTER:                  -5.231
REMARK INTRA:                  -0.553
REMARK UNBOUND:                -0.518
REMARK SMILES OC[C@@H](O)[C@@H](O)[C@@H](O)CO
REMARK SMILES IDX 5 1 3 2 2 3 1 4 4 6 7 8 9 9 10 10 8 12 6 14
REMARK H PARENT 1 5 4 7 10 11 8 13 6 15
REMARK Flexibility Score: inf
ROOT
ATOM      1  C   UNL     1     171.177 171.790 163.809  1.00  0.00     0.176 C 
ENDROOT
BRANCH   1   2
ATOM      2  C   UNL     1     169.896 172.361 163.135  1.00  0.00     0.171 C 
BRANCH   2   3
ATOM      3  C   UNL     1     169.470 173.758 163.641  1.00  0.00     0.190 C 
BRANCH   3   4
ATOM      4  O   UNL     1     169.295 173.776 165.033  1.00  0.00    -0.394 OA
ATOM      5  H   UNL     1     169.990 174.379 165.404  1.00  0.00     0.210 HD
ENDBRANCH   3   4
ENDBRANCH   2   3
BRANCH   2   6
ATOM      6  O   UNL     1     170.026 172.356 161.734  1.00  0.00    -0.388 OA
ATOM      7  H   UNL     1     170.985 172.232 161.515  1.00  0.00     0.211 HD
ENDBRANCH   2   6
ENDBRANCH   1   2
BRANCH   1   8
ATOM      8  C   UNL     1     170.889 170.562 164.708  1.00  0.00     0.171 C 
BRANCH   8   9
ATOM      9  C   UNL     1     170.298 169.391 163.899  1.00  0.00     0.190 C 
BRANCH   9  10
ATOM     10  O   UNL     1     170.771 168.157 164.368  1.00  0.00    -0.394 OA
ATOM     11  H   UNL     1     170.279 167.967 165.210  1.00  0.00     0.210 HD
ENDBRANCH   9  10
ENDBRANCH   8   9
BRANCH   8  12
ATOM     12  O   UNL     1     169.975 170.921 165.714  1.00  0.00    -0.388 OA
ATOM     13  H   UNL     1     169.394 170.131 165.873  1.00  0.00     0.211 HD
ENDBRANCH   8  12
ENDBRANCH   1   8
BRANCH   1  14
ATOM     14  O   UNL     1     171.814 172.788 164.569  1.00  0.00    -0.388 OA
ATOM     15  H   UNL     1     172.778 172.555 164.614  1.00  0.00     0.211 HD
ENDBRANCH   1  14
TORSDOF 9
ENDMDL
MODEL 3
REMARK VINA RESULT:    -3.810      0.663      3.968
REMARK INTER + INTRA:          -5.775
REMARK INTER:                  -5.255
REMARK INTRA:                  -0.521
REMARK UNBOUND:                -0.518
REMARK SMILES OC[C@@H](O)[C@@H](O)[C@@H](O)CO
REMARK SMILES IDX 5 1 3 2 2 3 1 4 4 6 7 8 9 9 10 10 8 12 6 14
REMARK H PARENT 1 5 4 7 10 11 8 13 6 15
REMARK Flexibility Score: inf
ROOT
ATOM      1  C   UNL     1     169.429 171.112 164.396  1.00  0.00     0.176 C 
ENDROOT
BRANCH   1   2
ATOM      2  C   UNL     1     169.698 170.052 163.288  1.00  0.00     0.171 C 
BRANCH   2   3
ATOM      3  C   UNL     1     169.679 168.587 163.779  1.00  0.00     0.190 C 
BRANCH   3   4
ATOM      4  O   UNL     1     170.913 168.206 164.328  1.00  0.00    -0.394 OA
ATOM      5  H   UNL     1     171.615 168.481 163.681  1.00  0.00     0.210 HD
ENDBRANCH   3   4
ENDBRANCH   2   3
BRANCH   2   6
ATOM      6  O   UNL     1     168.816 170.227 162.207  1.00  0.00    -0.388 OA
ATOM      7  H   UNL     1     169.357 170.333 161.382  1.00  0.00     0.211 HD
ENDBRANCH   2   6
ENDBRANCH   1   2
BRANCH   1   8
ATOM      8  C   UNL     1     169.681 172.563 163.916  1.00  0.00     0.171 C 
BRANCH   8   9
ATOM      9  C   UNL     1     171.125 172.752 163.412  1.00  0.00     0.190 C 
BRANCH   9  10
ATOM     10  O   UNL     1     171.986 173.117 164.457  1.00  0.00    -0.394 OA
ATOM     11  H   UNL     1     171.657 173.988 164.804  1.00  0.00     0.210 HD
ENDBRANCH   9  10
ENDBRANCH   8   9
BRANCH   8  12
ATOM     12  O   UNL     1     169.453 173.454 164.979  1.00  0.00    -0.388 OA
ATOM     13  H   UNL     1     168.510 173.327 165.266  1.00  0.00     0.211 HD
ENDBRANCH   8  12
ENDBRANCH   1   8
BRANCH   1  14
ATOM     14  O   UNL     1     170.226 170.847 165.526  1.00  0.00    -0.388 OA
ATOM     15  H   UNL     1     170.410 171.717 165.967  1.00  0.00     0.211 HD
ENDBRANCH   1  14
TORSDOF 9
ENDMDL
MODEL 4
REMARK VINA RESULT:    -3.715      0.709      1.590
REMARK INTER + INTRA:          -5.644
REMARK INTER:                  -5.345
REMARK INTRA:                  -0.300
REMARK UNBOUND:                -0.518
REMARK SMILES OC[C@@H](O)[C@@H](O)[C@@H](O)CO
REMARK SMILES IDX 5 1 3 2 2 3 1 4 4 6 7 8 9 9 10 10 8 12 6 14
REMARK H PARENT 1 5 4 7 10 11 8 13 6 15
REMARK Flexibility Score: inf
ROOT
ATOM      1  C   UNL     1     170.808 170.802 164.692  1.00  0.00     0.176 C 
ENDROOT
BRANCH   1   2
ATOM      2  C   UNL     1     170.898 172.154 163.925  1.00  0.00     0.171 C 
BRANCH   2   3
ATOM      3  C   UNL     1     169.579 172.957 163.877  1.00  0.00     0.190 C 
BRANCH   3   4
ATOM      4  O   UNL     1     169.393 173.721 165.039  1.00  0.00    -0.394 OA
ATOM      5  H   UNL     1     169.033 173.110 165.733  1.00  0.00     0.210 HD
ENDBRANCH   3   4
ENDBRANCH   2   3
BRANCH   2   6
ATOM      6  O   UNL     1     171.946 172.945 164.431  1.00  0.00    -0.388 OA
ATOM      7  H   UNL     1     172.732 172.831 163.836  1.00  0.00     0.211 HD
ENDBRANCH   2   6
ENDBRANCH   1   2
BRANCH   1   8
ATOM      8  C   UNL     1     170.495 169.602 163.763  1.00  0.00     0.171 C 
BRANCH   8   9
ATOM      9  C   UNL     1     168.990 169.504 163.450  1.00  0.00     0.190 C 
BRANCH   9  10
ATOM     10  O   UNL     1     168.707 169.967 162.157  1.00  0.00    -0.394 OA
ATOM     11  H   UNL     1     169.137 170.859 162.075  1.00  0.00     0.210 HD
ENDBRANCH   9  10
ENDBRANCH   8   9
BRANCH   8  12
ATOM     12  O   UNL     1     170.906 168.410 164.384  1.00  0.00    -0.388 OA
ATOM     13  H   UNL     1     170.923 167.709 163.680  1.00  0.00     0.211 HD
ENDBRANCH   8  12
ENDBRANCH   1   8
BRANCH   1  14
ATOM     14  O   UNL     1     169.831 170.880 165.701  1.00  0.00    -0.388 OA
ATOM     15  H   UNL     1     169.079 171.421 165.344  1.00  0.00     0.211 HD
ENDBRANCH   1  14
TORSDOF 9
ENDMDL
MODEL 5
REMARK VINA RESULT:    -3.647      1.511      3.433
REMARK INTER + INTRA:          -5.551
REMARK INTER:                  -4.846
REMARK INTRA:                  -0.705
REMARK UNBOUND:                -0.518
REMARK SMILES OC[C@@H](O)[C@@H](O)[C@@H](O)CO
REMARK SMILES IDX 5 1 3 2 2 3 1 4 4 6 7 8 9 9 10 10 8 12 6 14
REMARK H PARENT 1 5 4 7 10 11 8 13 6 15
REMARK Flexibility Score: inf
ROOT
ATOM      1  C   UNL     1     169.356 170.690 164.364  1.00  0.00     0.176 C 
ENDROOT
BRANCH   1   2
ATOM      2  C   UNL     1     170.617 169.971 163.803  1.00  0.00     0.171 C 
BRANCH   2   3
ATOM      3  C   UNL     1     171.891 170.843 163.763  1.00  0.00     0.190 C 
BRANCH   3   4
ATOM      4  O   UNL     1     172.173 171.411 165.015  1.00  0.00    -0.394 OA
ATOM      5  H   UNL     1     171.940 172.374 164.955  1.00  0.00     0.210 HD
ENDBRANCH   3   4
ENDBRANCH   2   3
BRANCH   2   6
ATOM      6  O   UNL     1     170.855 168.771 164.497  1.00  0.00    -0.388 OA
ATOM      7  H   UNL     1     171.746 168.837 164.928  1.00  0.00     0.211 HD
ENDBRANCH   2   6
ENDBRANCH   1   2
BRANCH   1   8
ATOM      8  C   UNL     1     168.924 171.907 163.508  1.00  0.00     0.171 C 
BRANCH   8   9
ATOM      9  C   UNL     1     169.034 173.225 164.299  1.00  0.00     0.190 C 
BRANCH   9  10
ATOM     10  O   UNL     1     170.362 173.672 164.364  1.00  0.00    -0.394 OA
ATOM     11  H   UNL     1     170.936 172.868 164.254  1.00  0.00     0.210 HD
ENDBRANCH   9  10
ENDBRANCH   8   9
BRANCH   8  12
ATOM     12  O   UNL     1     167.592 171.739 163.092  1.00  0.00    -0.388 OA
ATOM     13  H   UNL     1     167.086 172.530 163.418  1.00  0.00     0.211 HD
ENDBRANCH   8  12
ENDBRANCH   1   8
BRANCH   1  14
ATOM     14  O   UNL     1     169.581 171.106 165.689  1.00  0.00    -0.388 OA
ATOM     15  H   UNL     1     168.916 171.814 165.893  1.00  0.00     0.211 HD
ENDBRANCH   1  14
TORSDOF 9
ENDMDL
MODEL 6
REMARK VINA RESULT:    -3.599      1.830      4.120
REMARK INTER + INTRA:          -5.484
REMARK INTER:                  -4.762
REMARK INTRA:                  -0.722
REMARK UNBOUND:                -0.518
REMARK SMILES OC[C@@H](O)[C@@H](O)[C@@H](O)CO
REMARK SMILES IDX 5 1 3 2 2 3 1 4 4 6 7 8 9 9 10 10 8 12 6 14
REMARK H PARENT 1 5 4 7 10 11 8 13 6 15
REMARK Flexibility Score: inf
ROOT
ATOM      1  C   UNL     1     168.995 171.658 163.698  1.00  0.00     0.176 C 
ENDROOT
BRANCH   1   2
ATOM      2  C   UNL     1     169.632 170.550 164.586  1.00  0.00     0.171 C 
BRANCH   2   3
ATOM      3  C   UNL     1     170.985 170.010 164.071  1.00  0.00     0.190 C 
BRANCH   3   4
ATOM      4  O   UNL     1     172.066 170.752 164.571  1.00  0.00    -0.394 OA
ATOM      5  H   UNL     1     172.871 170.175 164.499  1.00  0.00     0.210 HD
ENDBRANCH   3   4
ENDBRANCH   2   3
BRANCH   2   6
ATOM      6  O   UNL     1     169.744 170.983 165.920  1.00  0.00    -0.388 OA
ATOM      7  H   UNL     1     169.379 170.271 166.506  1.00  0.00     0.211 HD
ENDBRANCH   2   6
ENDBRANCH   1   2
BRANCH   1   8
ATOM      8  C   UNL     1     169.125 173.074 164.314  1.00  0.00     0.171 C 
BRANCH   8   9
ATOM      9  C   UNL     1     168.363 174.126 163.485  1.00  0.00     0.190 C 
BRANCH   9  10
ATOM     10  O   UNL     1     167.004 174.160 163.829  1.00  0.00    -0.394 OA
ATOM     11  H   UNL     1     166.965 174.209 164.821  1.00  0.00     0.210 HD
ENDBRANCH   9  10
ENDBRANCH   8   9
BRANCH   8  12
ATOM     12  O   UNL     1     170.481 173.438 164.370  1.00  0.00    -0.388 OA
ATOM     13  H   UNL     1     170.539 174.384 164.072  1.00  0.00     0.211 HD
ENDBRANCH   8  12
ENDBRANCH   1   8
BRANCH   1  14
ATOM     14  O   UNL     1     167.637 171.373 163.464  1.00  0.00    -0.388 OA
ATOM     15  H   UNL     1     167.502 170.407 163.651  1.00  0.00     0.211 HD
ENDBRANCH   1  14
TORSDOF 9
ENDMDL
MODEL 7
REMARK VINA RESULT:    -3.568      1.005      4.003
REMARK INTER + INTRA:          -5.442
REMARK INTER:                  -4.922
REMARK INTRA:                  -0.520
REMARK UNBOUND:                -0.518
REMARK SMILES OC[C@@H](O)[C@@H](O)[C@@H](O)CO
REMARK SMILES IDX 5 1 3 2 2 3 1 4 4 6 7 8 9 9 10 10 8 12 6 14
REMARK H PARENT 1 5 4 7 10 11 8 13 6 15
REMARK Flexibility Score: inf
ROOT
ATOM      1  C   UNL     1     170.112 171.186 162.981  1.00  0.00     0.176 C 
ENDROOT
BRANCH   1   2
ATOM      2  C   UNL     1     170.180 170.223 164.202  1.00  0.00     0.171 C 
BRANCH   2   3
ATOM      3  C   UNL     1     169.808 168.756 163.888  1.00  0.00     0.190 C 
BRANCH   3   4
ATOM      4  O   UNL     1     170.852 167.875 164.209  1.00  0.00    -0.394 OA
ATOM      5  H   UNL     1     171.161 167.470 163.357  1.00  0.00     0.210 HD
ENDBRANCH   3   4
ENDBRANCH   2   3
BRANCH   2   6
ATOM      6  O   UNL     1     171.439 170.296 164.824  1.00  0.00    -0.388 OA
ATOM      7  H   UNL     1     171.445 169.656 165.584  1.00  0.00     0.211 HD
ENDBRANCH   2   6
ENDBRANCH   1   2
BRANCH   1   8
ATOM      8  C   UNL     1     169.971 172.672 163.393  1.00  0.00     0.171 C 
BRANCH   8   9
ATOM      9  C   UNL     1     171.288 173.446 163.189  1.00  0.00     0.190 C 
BRANCH   9  10
ATOM     10  O   UNL     1     172.147 173.288 164.286  1.00  0.00    -0.394 OA
ATOM     11  H   UNL     1     171.708 173.735 165.057  1.00  0.00     0.210 HD
ENDBRANCH   9  10
ENDBRANCH   8   9
BRANCH   8  12
ATOM     12  O   UNL     1     169.606 172.751 164.748  1.00  0.00    -0.388 OA
ATOM     13  H   UNL     1     169.126 173.613 164.868  1.00  0.00     0.211 HD
ENDBRANCH   8  12
ENDBRANCH   1   8
BRANCH   1  14
ATOM     14  O   UNL     1     169.042 170.829 162.139  1.00  0.00    -0.388 OA
ATOM     15  H   UNL     1     168.284 171.432 162.355  1.00  0.00     0.211 HD
ENDBRANCH   1  14
TORSDOF 9
ENDMDL
MODEL 8
REMARK VINA RESULT:    -3.491     10.498     12.192
REMARK INTER + INTRA:          -5.336
REMARK INTER:                  -4.627
REMARK INTRA:                  -0.708
REMARK UNBOUND:                -0.518
REMARK SMILES OC[C@@H](O)[C@@H](O)[C@@H](O)CO
REMARK SMILES IDX 5 1 3 2 2 3 1 4 4 6 7 8 9 9 10 10 8 12 6 14
REMARK H PARENT 1 5 4 7 10 11 8 13 6 15
REMARK Flexibility Score: inf
ROOT
ATOM      1  C   UNL     1     160.480 177.485 167.523  1.00  0.00     0.176 C 
ENDROOT
BRANCH   1   2
ATOM      2  C   UNL     1     160.252 178.455 168.720  1.00  0.00     0.171 C 
BRANCH   2   3
ATOM      3  C   UNL     1     160.997 178.064 170.016  1.00  0.00     0.190 C 
BRANCH   3   4
ATOM      4  O   UNL     1     162.314 178.547 170.024  1.00  0.00    -0.394 OA
ATOM      5  H   UNL     1     162.707 178.333 169.138  1.00  0.00     0.210 HD
ENDBRANCH   3   4
ENDBRANCH   2   3
BRANCH   2   6
ATOM      6  O   UNL     1     160.551 179.779 168.352  1.00  0.00    -0.388 OA
ATOM      7  H   UNL     1     159.899 180.377 168.800  1.00  0.00     0.211 HD
ENDBRANCH   2   6
ENDBRANCH   1   2
BRANCH   1   8
ATOM      8  C   UNL     1     161.541 178.003 166.521  1.00  0.00     0.171 C 
BRANCH   8   9
ATOM      9  C   UNL     1     161.738 177.026 165.346  1.00  0.00     0.190 C 
BRANCH   9  10
ATOM     10  O   UNL     1     161.542 175.697 165.750  1.00  0.00    -0.394 OA
ATOM     11  H   UNL     1     160.565 175.527 165.701  1.00  0.00     0.210 HD
ENDBRANCH   9  10
ENDBRANCH   8   9
BRANCH   8  12
ATOM     12  O   UNL     1     162.770 178.167 167.183  1.00  0.00    -0.388 OA
ATOM     13  H   UNL     1     163.459 178.313 166.481  1.00  0.00     0.211 HD
ENDBRANCH   8  12
ENDBRANCH   1   8
BRANCH   1  14
ATOM     14  O   UNL     1     159.268 177.256 166.845  1.00  0.00    -0.388 OA
ATOM     15  H   UNL     1     159.078 178.063 166.300  1.00  0.00     0.211 HD
ENDBRANCH   1  14
TORSDOF 9
ENDMDL
MODEL 9
REMARK VINA RESULT:    -3.410      1.637      3.876
REMARK INTER + INTRA:          -5.224
REMARK INTER:                  -4.451
REMARK INTRA:                  -0.773
REMARK UNBOUND:                -0.518
REMARK SMILES OC[C@@H](O)[C@@H](O)[C@@H](O)CO
REMARK SMILES IDX 5 1 3 2 2 3 1 4 4 6 7 8 9 9 10 10 8 12 6 14
REMARK H PARENT 1 5 4 7 10 11 8 13 6 15
REMARK Flexibility Score: inf
ROOT
ATOM      1  C   UNL     1     169.327 173.066 163.664  1.00  0.00     0.176 C 
ENDROOT
BRANCH   1   2
ATOM      2  C   UNL     1     169.366 171.513 163.566  1.00  0.00     0.171 C 
BRANCH   2   3
ATOM      3  C   UNL     1     169.604 170.788 164.909  1.00  0.00     0.190 C 
BRANCH   3   4
ATOM      4  O   UNL     1     170.959 170.806 165.276  1.00  0.00    -0.394 OA
ATOM      5  H   UNL     1     171.276 171.740 165.168  1.00  0.00     0.210 HD
ENDBRANCH   3   4
ENDBRANCH   2   3
BRANCH   2   6
ATOM      6  O   UNL     1     168.208 171.025 162.934  1.00  0.00    -0.388 OA
ATOM      7  H   UNL     1     167.916 171.697 162.265  1.00  0.00     0.211 HD
ENDBRANCH   2   6
ENDBRANCH   1   2
BRANCH   1   8
ATOM      8  C   UNL     1     170.378 173.754 162.757  1.00  0.00     0.171 C 
BRANCH   8   9
ATOM      9  C   UNL     1     171.787 173.167 162.975  1.00  0.00     0.190 C 
BRANCH   9  10
ATOM     10  O   UNL     1     172.221 173.359 164.294  1.00  0.00    -0.394 OA
ATOM     11  H   UNL     1     171.444 173.718 164.799  1.00  0.00     0.210 HD
ENDBRANCH   9  10
ENDBRANCH   8   9
BRANCH   8  12
ATOM     12  O   UNL     1     170.414 175.130 163.041  1.00  0.00    -0.388 OA
ATOM     13  H   UNL     1     169.527 175.500 162.790  1.00  0.00     0.211 HD
ENDBRANCH   8  12
ENDBRANCH   1   8
BRANCH   1  14
ATOM     14  O   UNL     1     169.519 173.474 164.997  1.00  0.00    -0.388 OA
ATOM     15  H   UNL     1     168.938 172.905 165.566  1.00  0.00     0.211 HD
ENDBRANCH   1  14
TORSDOF 9
ENDMDL
