MODEL 1
REMARK VINA RESULT:    -3.042      0.000      0.000
REMARK INTER + INTRA:          -3.042
REMARK INTER:                  -3.042
REMARK INTRA:                   0.000
REMARK UNBOUND:                 0.000
REMARK SMILES CC(=O)[O-]
REMARK SMILES IDX 1 1 2 2 3 3 4 4
REMARK H PARENT
REMARK Flexibility Score: inf
ROOT
ATOM      1  C   UNL     1     -22.020  69.072  81.860  1.00  0.00     0.063 C 
ATOM      2  C   UNL     1     -22.714  70.189  81.158  1.00  0.00     0.038 C 
ATOM      3  O   UNL     1     -23.256  71.112  81.822  1.00  0.00    -0.550 OA
ATOM      4  O   UNL     1     -22.718  70.244  79.771  1.00  0.00    -0.550 OA
ENDROOT
TORSDOF 0
ENDMDL
MODEL 2
REMARK VINA RESULT:    -3.031      2.105      2.897
REMARK INTER + INTRA:          -3.031
REMARK INTER:                  -3.031
REMARK INTRA:                   0.000
REMARK UNBOUND:                 0.000
REMARK SMILES CC(=O)[O-]
REMARK SMILES IDX 1 1 2 2 3 3 4 4
REMARK H PARENT
REMARK Flexibility Score: inf
ROOT
ATOM      1  C   UNL     1     -24.110  69.752  79.432  1.00  0.00     0.063 C 
ATOM      2  C   UNL     1     -22.989  68.852  79.826  1.00  0.00     0.038 C 
ATOM      3  O   UNL     1     -23.053  67.618  79.580  1.00  0.00    -0.550 OA
ATOM      4  O   UNL     1     -21.848  69.379  80.416  1.00  0.00    -0.550 OA
ENDROOT
TORSDOF 0
ENDMDL
MODEL 3
REMARK VINA RESULT:    -2.977      1.484      1.800
REMARK INTER + INTRA:          -2.977
REMARK INTER:                  -2.977
REMARK INTRA:                   0.000
REMARK UNBOUND:                 0.000
REMARK SMILES CC(=O)[O-]
REMARK SMILES IDX 1 1 2 2 3 3 4 4
REMARK H PARENT
REMARK Flexibility Score: inf
ROOT
ATOM      1  C   UNL     1     -23.218  69.348  79.961  1.00  0.00     0.063 C 
ATOM      2  C   UNL     1     -22.764  69.815  81.302  1.00  0.00     0.038 C 
ATOM      3  O   UNL     1     -23.093  70.959  81.716  1.00  0.00    -0.550 OA
ATOM      4  O   UNL     1     -22.024  68.972  82.120  1.00  0.00    -0.550 OA
ENDROOT
TORSDOF 0
ENDMDL
MODEL 4
REMARK VINA RESULT:    -2.966      1.829      2.407
REMARK INTER + INTRA:          -2.966
REMARK INTER:                  -2.966
REMARK INTRA:                   0.000
REMARK UNBOUND:                 0.000
REMARK SMILES CC(=O)[O-]
REMARK SMILES IDX 1 1 2 2 3 3 4 4
REMARK H PARENT
REMARK Flexibility Score: inf
ROOT
ATOM      1  C   UNL     1     -22.607  69.499  81.189  1.00  0.00     0.063 C 
ATOM      2  C   UNL     1     -23.339  68.980  79.998  1.00  0.00     0.038 C 
ATOM      3  O   UNL     1     -23.075  67.836  79.544  1.00  0.00    -0.550 OA
ATOM      4  O   UNL     1     -24.351  69.736  79.420  1.00  0.00    -0.550 OA
ENDROOT
TORSDOF 0
ENDMDL
MODEL 5
REMARK VINA RESULT:    -2.801     16.776     16.810
REMARK INTER + INTRA:          -2.801
REMARK INTER:                  -2.801
REMARK INTRA:                   0.000
REMARK UNBOUND:                 0.000
REMARK SMILES CC(=O)[O-]
REMARK SMILES IDX 1 1 2 2 3 3 4 4
REMARK H PARENT
REMARK Flexibility Score: inf
ROOT
ATOM      1  C   UNL     1     -35.567  64.454  90.179  1.00  0.00     0.063 C 
ATOM      2  C   UNL     1     -36.059  63.752  88.958  1.00  0.00     0.038 C 
ATOM      3  O   UNL     1     -36.922  64.299  88.221  1.00  0.00    -0.550 OA
ATOM      4  O   UNL     1     -35.529  62.519  88.603  1.00  0.00    -0.550 OA
ENDROOT
TORSDOF 0
ENDMDL
MODEL 6
REMARK VINA RESULT:    -2.720     16.611     16.701
REMARK INTER + INTRA:          -2.720
REMARK INTER:                  -2.720
REMARK INTRA:                   0.000
REMARK UNBOUND:                 0.000
REMARK SMILES CC(=O)[O-]
REMARK SMILES IDX 1 1 2 2 3 3 4 4
REMARK H PARENT
REMARK Flexibility Score: inf
ROOT
ATOM      1  C   UNL     1     -35.067  62.560  88.926  1.00  0.00     0.063 C 
ATOM      2  C   UNL     1     -35.797  63.841  89.153  1.00  0.00     0.038 C 
ATOM      3  O   UNL     1     -36.632  64.251  88.305  1.00  0.00    -0.550 OA
ATOM      4  O   UNL     1     -35.598  64.557  90.327  1.00  0.00    -0.550 OA
ENDROOT
TORSDOF 0
ENDMDL
MODEL 7
REMARK VINA RESULT:    -2.273      6.686      7.165
REMARK INTER + INTRA:          -2.273
REMARK INTER:                  -2.273
REMARK INTRA:                   0.000
REMARK UNBOUND:                 0.000
REMARK SMILES CC(=O)[O-]
REMARK SMILES IDX 1 1 2 2 3 3 4 4
REMARK H PARENT
REMARK Flexibility Score: inf
ROOT
ATOM      1  C   UNL     1     -27.475  66.607  84.969  1.00  0.00     0.063 C 
ATOM      2  C   UNL     1     -27.531  67.940  85.634  1.00  0.00     0.038 C 
ATOM      3  O   UNL     1     -26.493  68.648  85.717  1.00  0.00    -0.550 OA
ATOM      4  O   UNL     1     -28.739  68.427  86.116  1.00  0.00    -0.550 OA
ENDROOT
TORSDOF 0
ENDMDL
MODEL 8
REMARK VINA RESULT:    -2.270      6.654      7.065
REMARK INTER + INTRA:          -2.270
REMARK INTER:                  -2.270
REMARK INTRA:                   0.000
REMARK UNBOUND:                 0.000
REMARK SMILES CC(=O)[O-]
REMARK SMILES IDX 1 1 2 2 3 3 4 4
REMARK H PARENT
REMARK Flexibility Score: inf
ROOT
ATOM      1  C   UNL     1     -27.414  66.551  85.018  1.00  0.00     0.063 C 
ATOM      2  C   UNL     1     -27.519  67.914  85.614  1.00  0.00     0.038 C 
ATOM      3  O   UNL     1     -28.636  68.351  85.998  1.00  0.00    -0.550 OA
ATOM      4  O   UNL     1     -26.377  68.683  85.796  1.00  0.00    -0.550 OA
ENDROOT
TORSDOF 0
ENDMDL
MODEL 9
REMARK VINA RESULT:    -2.259     10.109     10.440
REMARK INTER + INTRA:          -2.259
REMARK INTER:                  -2.259
REMARK INTRA:                   0.000
REMARK UNBOUND:                 0.000
REMARK SMILES CC(=O)[O-]
REMARK SMILES IDX 1 1 2 2 3 3 4 4
REMARK H PARENT
REMARK Flexibility Score: inf
ROOT
ATOM      1  C   UNL     1     -30.972  66.113  85.410  1.00  0.00     0.063 C 
ATOM      2  C   UNL     1     -31.197  67.277  86.315  1.00  0.00     0.038 C 
ATOM      3  O   UNL     1     -32.330  67.463  86.833  1.00  0.00    -0.550 OA
ATOM      4  O   UNL     1     -30.145  68.126  86.631  1.00  0.00    -0.550 OA
ENDROOT
TORSDOF 0
ENDMDL
