MODEL 1
REMARK VINA RESULT:    19.240      0.000      0.000
REMARK INTER + INTRA:          23.753
REMARK INTER:                  24.301
REMARK INTRA:                  -0.549
REMARK UNBOUND:                -0.549
REMARK SMILES Oc1ccc(CCc2cc(O)cc(O)c2)cc1
REMARK SMILES IDX 6 1 5 2 4 3 3 4 2 5 16 6 17 7 1 8 7 10 8 11 15 12 9 13 13 14
REMARK SMILES IDX 10 15 12 16 14 17 11 19
REMARK H PARENT 1 9 14 18 11 20
REMARK Flexibility Score: inf
ROOT
ATOM      1  C   UNL     1       6.969  45.957  23.759  1.00  0.00     0.040 C 
ENDROOT
BRANCH   1   2
ATOM      2  C   UNL     1       6.460  46.951  24.767  1.00  0.00    -0.047 A 
ATOM      3  C   UNL     1       5.839  48.137  24.341  1.00  0.00     0.007 A 
ATOM      4  C   UNL     1       5.396  49.076  25.277  1.00  0.00     0.046 A 
ATOM      5  C   UNL     1       5.578  48.845  26.648  1.00  0.00     0.115 A 
ATOM      6  C   UNL     1       6.651  46.730  26.140  1.00  0.00     0.007 A 
ATOM      7  C   UNL     1       6.207  47.670  27.075  1.00  0.00     0.046 A 
BRANCH   5   8
ATOM      8  O   UNL     1       5.141  49.772  27.590  1.00  0.00    -0.508 OA
ATOM      9  H   UNL     1       4.457  50.484  27.355  1.00  0.00     0.293 HD
ENDBRANCH   5   8
ENDBRANCH   1   2
BRANCH   1  10
ATOM     10  C   UNL     1       5.836  45.042  23.284  1.00  0.00     0.040 C 
BRANCH  10  11
ATOM     11  C   UNL     1       6.045  43.638  23.782  1.00  0.00    -0.040 A 
ATOM     12  C   UNL     1       7.330  43.069  23.774  1.00  0.00     0.050 A 
ATOM     13  C   UNL     1       4.970  42.906  24.312  1.00  0.00     0.050 A 
ATOM     14  C   UNL     1       7.533  41.775  24.267  1.00  0.00     0.119 A 
ATOM     15  C   UNL     1       5.172  41.611  24.806  1.00  0.00     0.119 A 
ATOM     16  C   UNL     1       6.451  41.046  24.780  1.00  0.00     0.092 A 
BRANCH  14  17
ATOM     17  O   UNL     1       8.813  41.225  24.245  1.00  0.00    -0.508 OA
ATOM     18  H   UNL     1       8.966  40.234  24.394  1.00  0.00     0.293 HD
ENDBRANCH  14  17
BRANCH  15  19
ATOM     19  O   UNL     1       4.108  40.875  25.326  1.00  0.00    -0.508 OA
ATOM     20  H   UNL     1       3.473  40.364  24.724  1.00  0.00     0.293 HD
ENDBRANCH  15  19
ENDBRANCH  10  11
ENDBRANCH   1  10
TORSDOF 6
ENDMDL
MODEL 2
REMARK VINA RESULT:    19.249      3.500      6.485
REMARK INTER + INTRA:          23.765
REMARK INTER:                  24.281
REMARK INTRA:                  -0.516
REMARK UNBOUND:                -0.549
REMARK SMILES Oc1ccc(CCc2cc(O)cc(O)c2)cc1
REMARK SMILES IDX 6 1 5 2 4 3 3 4 2 5 16 6 17 7 1 8 7 10 8 11 15 12 9 13 13 14
REMARK SMILES IDX 10 15 12 16 14 17 11 19
REMARK H PARENT 1 9 14 18 11 20
REMARK Flexibility Score: inf
ROOT
ATOM      1  C   UNL     1       8.890  40.875  23.180  1.00  0.00     0.040 C 
ENDROOT
BRANCH   1   2
ATOM      2  C   UNL     1      10.205  41.539  22.873  1.00  0.00    -0.047 A 
ATOM      3  C   UNL     1      11.413  40.879  23.147  1.00  0.00     0.007 A 
ATOM      4  C   UNL     1      12.635  41.509  22.892  1.00  0.00     0.046 A 
ATOM      5  C   UNL     1      12.661  42.810  22.371  1.00  0.00     0.115 A 
ATOM      6  C   UNL     1      10.236  42.847  22.362  1.00  0.00     0.007 A 
ATOM      7  C   UNL     1      11.459  43.475  22.108  1.00  0.00     0.046 A 
BRANCH   5   8
ATOM      8  O   UNL     1      13.872  43.448  22.113  1.00  0.00    -0.508 OA
ATOM      9  H   UNL     1      14.506  43.702  22.862  1.00  0.00     0.293 HD
ENDBRANCH   5   8
ENDBRANCH   1   2
BRANCH   1  10
ATOM     10  C   UNL     1       8.417  41.242  24.590  1.00  0.00     0.040 C 
BRANCH  10  11
ATOM     11  C   UNL     1       7.083  41.936  24.536  1.00  0.00    -0.040 A 
ATOM     12  C   UNL     1       6.970  43.206  23.946  1.00  0.00     0.050 A 
ATOM     13  C   UNL     1       5.932  41.297  25.023  1.00  0.00     0.050 A 
ATOM     14  C   UNL     1       5.725  43.840  23.867  1.00  0.00     0.119 A 
ATOM     15  C   UNL     1       4.684  41.930  24.944  1.00  0.00     0.119 A 
ATOM     16  C   UNL     1       4.583  43.201  24.368  1.00  0.00     0.092 A 
BRANCH  14  17
ATOM     17  O   UNL     1       5.634  45.102  23.284  1.00  0.00    -0.508 OA
ATOM     18  H   UNL     1       5.481  45.216  22.288  1.00  0.00     0.293 HD
ENDBRANCH  14  17
BRANCH  15  19
ATOM     19  O   UNL     1       3.538  41.304  25.432  1.00  0.00    -0.508 OA
ATOM     20  H   UNL     1       3.081  41.623  26.279  1.00  0.00     0.293 HD
ENDBRANCH  15  19
ENDBRANCH  10  11
ENDBRANCH   1  10
TORSDOF 6
ENDMDL
MODEL 3
REMARK VINA RESULT:    19.267      0.075      2.036
REMARK INTER + INTRA:          23.788
REMARK INTER:                  24.327
REMARK INTRA:                  -0.539
REMARK UNBOUND:                -0.549
REMARK SMILES Oc1ccc(CCc2cc(O)cc(O)c2)cc1
REMARK SMILES IDX 6 1 5 2 4 3 3 4 2 5 16 6 17 7 1 8 7 10 8 11 15 12 9 13 13 14
REMARK SMILES IDX 10 15 12 16 14 17 11 19
REMARK H PARENT 1 9 14 18 11 20
REMARK Flexibility Score: inf
ROOT
ATOM      1  C   UNL     1       6.993  46.002  23.817  1.00  0.00     0.040 C 
ENDROOT
BRANCH   1   2
ATOM      2  C   UNL     1       6.474  46.997  24.820  1.00  0.00    -0.047 A 
ATOM      3  C   UNL     1       5.861  48.184  24.388  1.00  0.00     0.007 A 
ATOM      4  C   UNL     1       5.409  49.124  25.319  1.00  0.00     0.046 A 
ATOM      5  C   UNL     1       5.575  48.892  26.691  1.00  0.00     0.115 A 
ATOM      6  C   UNL     1       6.651  46.775  26.195  1.00  0.00     0.007 A 
ATOM      7  C   UNL     1       6.198  47.716  27.125  1.00  0.00     0.046 A 
BRANCH   5   8
ATOM      8  O   UNL     1       5.130  49.820  27.629  1.00  0.00    -0.508 OA
ATOM      9  H   UNL     1       5.587  49.926  28.528  1.00  0.00     0.293 HD
ENDBRANCH   5   8
ENDBRANCH   1   2
BRANCH   1  10
ATOM     10  C   UNL     1       5.864  45.086  23.334  1.00  0.00     0.040 C 
BRANCH  10  11
ATOM     11  C   UNL     1       6.068  43.683  23.840  1.00  0.00    -0.040 A 
ATOM     12  C   UNL     1       4.971  42.925  24.284  1.00  0.00     0.050 A 
ATOM     13  C   UNL     1       7.345  43.102  23.819  1.00  0.00     0.050 A 
ATOM     14  C   UNL     1       5.154  41.610  24.725  1.00  0.00     0.119 A 
ATOM     15  C   UNL     1       7.530  41.784  24.260  1.00  0.00     0.119 A 
ATOM     16  C   UNL     1       6.435  41.042  24.714  1.00  0.00     0.092 A 
BRANCH  14  17
ATOM     17  O   UNL     1       4.056  40.876  25.167  1.00  0.00    -0.508 OA
ATOM     18  H   UNL     1       4.170  40.009  25.680  1.00  0.00     0.293 HD
ENDBRANCH  14  17
BRANCH  15  19
ATOM     19  O   UNL     1       8.797  41.202  24.249  1.00  0.00    -0.508 OA
ATOM     20  H   UNL     1       9.624  41.730  24.502  1.00  0.00     0.293 HD
ENDBRANCH  15  19
ENDBRANCH  10  11
ENDBRANCH   1  10
TORSDOF 6
ENDMDL
MODEL 4
REMARK VINA RESULT:    20.026      3.190      6.359
REMARK INTER + INTRA:          24.746
REMARK INTER:                  25.434
REMARK INTRA:                  -0.689
REMARK UNBOUND:                -0.549
REMARK SMILES Oc1ccc(CCc2cc(O)cc(O)c2)cc1
REMARK SMILES IDX 6 1 5 2 4 3 3 4 2 5 16 6 17 7 1 8 7 10 8 11 15 12 9 13 13 14
REMARK SMILES IDX 10 15 12 16 14 17 11 19
REMARK H PARENT 1 9 14 18 11 20
REMARK Flexibility Score: inf
ROOT
ATOM      1  C   UNL     1       6.923  40.875  25.259  1.00  0.00     0.040 C 
ENDROOT
BRANCH   1   2
ATOM      2  C   UNL     1       8.273  40.931  24.596  1.00  0.00    -0.047 A 
ATOM      3  C   UNL     1       8.374  40.958  23.196  1.00  0.00     0.007 A 
ATOM      4  C   UNL     1       9.629  40.977  22.579  1.00  0.00     0.046 A 
ATOM      5  C   UNL     1      10.796  40.958  23.357  1.00  0.00     0.115 A 
ATOM      6  C   UNL     1       9.444  40.899  25.370  1.00  0.00     0.007 A 
ATOM      7  C   UNL     1      10.698  40.919  24.752  1.00  0.00     0.046 A 
BRANCH   5   8
ATOM      8  O   UNL     1      12.051  40.977  22.755  1.00  0.00    -0.508 OA
ATOM      9  H   UNL     1      12.244  40.443  21.915  1.00  0.00     0.293 HD
ENDBRANCH   5   8
ENDBRANCH   1   2
BRANCH   1  10
ATOM     10  C   UNL     1       6.488  42.271  25.715  1.00  0.00     0.040 C 
BRANCH  10  11
ATOM     11  C   UNL     1       5.865  43.030  24.574  1.00  0.00    -0.040 A 
ATOM     12  C   UNL     1       6.386  44.276  24.186  1.00  0.00     0.050 A 
ATOM     13  C   UNL     1       4.798  42.473  23.851  1.00  0.00     0.050 A 
ATOM     14  C   UNL     1       5.829  44.968  23.105  1.00  0.00     0.119 A 
ATOM     15  C   UNL     1       4.240  43.164  22.768  1.00  0.00     0.119 A 
ATOM     16  C   UNL     1       4.754  44.411  22.398  1.00  0.00     0.092 A 
BRANCH  14  17
ATOM     17  O   UNL     1       6.354  46.206  22.739  1.00  0.00    -0.508 OA
ATOM     18  H   UNL     1       6.418  46.487  21.767  1.00  0.00     0.293 HD
ENDBRANCH  14  17
BRANCH  15  19
ATOM     19  O   UNL     1       3.175  42.621  22.051  1.00  0.00    -0.508 OA
ATOM     20  H   UNL     1       3.147  42.655  21.038  1.00  0.00     0.293 HD
ENDBRANCH  15  19
ENDBRANCH  10  11
ENDBRANCH   1  10
TORSDOF 6
ENDMDL
MODEL 5
REMARK VINA RESULT:    20.054      3.244      6.475
REMARK INTER + INTRA:          24.782
REMARK INTER:                  25.245
REMARK INTRA:                  -0.463
REMARK UNBOUND:                -0.549
REMARK SMILES Oc1ccc(CCc2cc(O)cc(O)c2)cc1
REMARK SMILES IDX 6 1 5 2 4 3 3 4 2 5 16 6 17 7 1 8 7 10 8 11 15 12 9 13 13 14
REMARK SMILES IDX 10 15 12 16 14 17 11 19
REMARK H PARENT 1 9 14 18 11 20
REMARK Flexibility Score: inf
ROOT
ATOM      1  C   UNL     1       7.086  40.907  25.729  1.00  0.00     0.040 C 
ENDROOT
BRANCH   1   2
ATOM      2  C   UNL     1       8.352  40.991  24.919  1.00  0.00    -0.047 A 
ATOM      3  C   UNL     1       8.292  41.127  23.522  1.00  0.00     0.007 A 
ATOM      4  C   UNL     1       9.468  41.172  22.767  1.00  0.00     0.046 A 
ATOM      5  C   UNL     1      10.715  41.069  23.399  1.00  0.00     0.115 A 
ATOM      6  C   UNL     1       9.603  40.876  25.545  1.00  0.00     0.007 A 
ATOM      7  C   UNL     1      10.778  40.921  24.789  1.00  0.00     0.046 A 
BRANCH   5   8
ATOM      8  O   UNL     1      11.893  41.112  22.658  1.00  0.00    -0.508 OA
ATOM      9  H   UNL     1      12.405  41.978  22.528  1.00  0.00     0.293 HD
ENDBRANCH   5   8
ENDBRANCH   1   2
BRANCH   1  10
ATOM     10  C   UNL     1       6.547  42.309  26.032  1.00  0.00     0.040 C 
BRANCH  10  11
ATOM     11  C   UNL     1       5.957  42.928  24.794  1.00  0.00    -0.040 A 
ATOM     12  C   UNL     1       4.841  42.342  24.174  1.00  0.00     0.050 A 
ATOM     13  C   UNL     1       6.480  44.126  24.283  1.00  0.00     0.050 A 
ATOM     14  C   UNL     1       4.270  42.934  23.042  1.00  0.00     0.119 A 
ATOM     15  C   UNL     1       5.910  44.720  23.150  1.00  0.00     0.119 A 
ATOM     16  C   UNL     1       4.808  44.122  22.529  1.00  0.00     0.092 A 
BRANCH  14  17
ATOM     17  O   UNL     1       3.168  42.335  22.436  1.00  0.00    -0.508 OA
ATOM     18  H   UNL     1       2.572  41.689  22.942  1.00  0.00     0.293 HD
ENDBRANCH  14  17
BRANCH  15  19
ATOM     19  O   UNL     1       6.429  45.907  22.632  1.00  0.00    -0.508 OA
ATOM     20  H   UNL     1       5.961  46.407  21.885  1.00  0.00     0.293 HD
ENDBRANCH  15  19
ENDBRANCH  10  11
ENDBRANCH   1  10
TORSDOF 6
ENDMDL
MODEL 6
REMARK VINA RESULT:    21.117     13.331     15.755
REMARK INTER + INTRA:          26.124
REMARK INTER:                  26.507
REMARK INTRA:                  -0.383
REMARK UNBOUND:                -0.549
REMARK SMILES Oc1ccc(CCc2cc(O)cc(O)c2)cc1
REMARK SMILES IDX 6 1 5 2 4 3 3 4 2 5 16 6 17 7 1 8 7 10 8 11 15 12 9 13 13 14
REMARK SMILES IDX 10 15 12 16 14 17 11 19
REMARK H PARENT 1 9 14 18 11 20
REMARK Flexibility Score: inf
ROOT
ATOM      1  C   UNL     1      14.895  46.719  13.877  1.00  0.00     0.040 C 
ENDROOT
BRANCH   1   2
ATOM      2  C   UNL     1      15.345  45.343  13.465  1.00  0.00    -0.047 A 
ATOM      3  C   UNL     1      14.635  44.209  13.892  1.00  0.00     0.007 A 
ATOM      4  C   UNL     1      15.072  42.929  13.536  1.00  0.00     0.046 A 
ATOM      5  C   UNL     1      16.228  42.770  12.760  1.00  0.00     0.115 A 
ATOM      6  C   UNL     1      16.510  45.178  12.699  1.00  0.00     0.007 A 
ATOM      7  C   UNL     1      16.945  43.897  12.344  1.00  0.00     0.046 A 
BRANCH   5   8
ATOM      8  O   UNL     1      16.674  41.500  12.400  1.00  0.00    -0.508 OA
ATOM      9  H   UNL     1      16.487  41.115  11.481  1.00  0.00     0.293 HD
ENDBRANCH   5   8
ENDBRANCH   1   2
BRANCH   1  10
ATOM     10  C   UNL     1      14.398  47.509  12.663  1.00  0.00     0.040 C 
BRANCH  10  11
ATOM     11  C   UNL     1      13.498  48.634  13.097  1.00  0.00    -0.040 A 
ATOM     12  C   UNL     1      13.697  49.932  12.598  1.00  0.00     0.050 A 
ATOM     13  C   UNL     1      12.417  48.384  13.958  1.00  0.00     0.050 A 
ATOM     14  C   UNL     1      12.841  50.973  12.975  1.00  0.00     0.119 A 
ATOM     15  C   UNL     1      11.559  49.425  14.336  1.00  0.00     0.119 A 
ATOM     16  C   UNL     1      11.773  50.718  13.847  1.00  0.00     0.092 A 
BRANCH  14  17
ATOM     17  O   UNL     1      13.058  52.255  12.475  1.00  0.00    -0.508 OA
ATOM     18  H   UNL     1      12.287  52.863  12.223  1.00  0.00     0.293 HD
ENDBRANCH  14  17
BRANCH  15  19
ATOM     19  O   UNL     1      10.488  49.186  15.196  1.00  0.00    -0.508 OA
ATOM     20  H   UNL     1      10.589  49.265  16.202  1.00  0.00     0.293 HD
ENDBRANCH  15  19
ENDBRANCH  10  11
ENDBRANCH   1  10
TORSDOF 6
ENDMDL
MODEL 7
REMARK VINA RESULT:    21.136     13.321     15.815
REMARK INTER + INTRA:          26.148
REMARK INTER:                  26.542
REMARK INTRA:                  -0.393
REMARK UNBOUND:                -0.549
REMARK SMILES Oc1ccc(CCc2cc(O)cc(O)c2)cc1
REMARK SMILES IDX 6 1 5 2 4 3 3 4 2 5 16 6 17 7 1 8 7 10 8 11 15 12 9 13 13 14
REMARK SMILES IDX 10 15 12 16 14 17 11 19
REMARK H PARENT 1 9 14 18 11 20
REMARK Flexibility Score: inf
ROOT
ATOM      1  C   UNL     1      14.875  46.735  13.877  1.00  0.00     0.040 C 
ENDROOT
BRANCH   1   2
ATOM      2  C   UNL     1      15.358  45.361  13.500  1.00  0.00    -0.047 A 
ATOM      3  C   UNL     1      16.493  45.207  12.687  1.00  0.00     0.007 A 
ATOM      4  C   UNL     1      16.923  43.931  12.310  1.00  0.00     0.046 A 
ATOM      5  C   UNL     1      16.216  42.797  12.732  1.00  0.00     0.115 A 
ATOM      6  C   UNL     1      14.646  44.222  13.910  1.00  0.00     0.007 A 
ATOM      7  C   UNL     1      15.077  42.947  13.532  1.00  0.00     0.046 A 
BRANCH   5   8
ATOM      8  O   UNL     1      16.633  41.520  12.363  1.00  0.00    -0.508 OA
ATOM      9  H   UNL     1      17.245  41.373  11.568  1.00  0.00     0.293 HD
ENDBRANCH   5   8
ENDBRANCH   1   2
BRANCH   1  10
ATOM     10  C   UNL     1      14.357  47.482  12.644  1.00  0.00     0.040 C 
BRANCH  10  11
ATOM     11  C   UNL     1      13.439  48.603  13.052  1.00  0.00    -0.040 A 
ATOM     12  C   UNL     1      12.395  48.367  13.962  1.00  0.00     0.050 A 
ATOM     13  C   UNL     1      13.654  49.904  12.571  1.00  0.00     0.050 A 
ATOM     14  C   UNL     1      11.561  49.414  14.367  1.00  0.00     0.119 A 
ATOM     15  C   UNL     1      12.820  50.954  12.976  1.00  0.00     0.119 A 
ATOM     16  C   UNL     1      11.774  50.708  13.871  1.00  0.00     0.092 A 
BRANCH  14  17
ATOM     17  O   UNL     1      10.527  49.160  15.266  1.00  0.00    -0.508 OA
ATOM     18  H   UNL     1       9.557  49.157  14.970  1.00  0.00     0.293 HD
ENDBRANCH  14  17
BRANCH  15  19
ATOM     19  O   UNL     1      13.023  52.248  12.497  1.00  0.00    -0.508 OA
ATOM     20  H   UNL     1      12.245  52.846  12.242  1.00  0.00     0.293 HD
ENDBRANCH  15  19
ENDBRANCH  10  11
ENDBRANCH   1  10
TORSDOF 6
ENDMDL
MODEL 8
REMARK VINA RESULT:    22.160      3.391      6.761
REMARK INTER + INTRA:          27.441
REMARK INTER:                  27.902
REMARK INTRA:                  -0.461
REMARK UNBOUND:                -0.549
REMARK SMILES Oc1ccc(CCc2cc(O)cc(O)c2)cc1
REMARK SMILES IDX 6 1 5 2 4 3 3 4 2 5 16 6 17 7 1 8 7 10 8 11 15 12 9 13 13 14
REMARK SMILES IDX 10 15 12 16 14 17 11 19
REMARK H PARENT 1 9 14 18 11 20
REMARK Flexibility Score: inf
ROOT
ATOM      1  C   UNL     1       9.370  41.078  24.246  1.00  0.00     0.040 C 
ENDROOT
BRANCH   1   2
ATOM      2  C   UNL     1      10.543  41.621  23.475  1.00  0.00    -0.047 A 
ATOM      3  C   UNL     1      11.727  40.875  23.367  1.00  0.00     0.007 A 
ATOM      4  C   UNL     1      12.828  41.394  22.679  1.00  0.00     0.046 A 
ATOM      5  C   UNL     1      12.759  42.670  22.101  1.00  0.00     0.115 A 
ATOM      6  C   UNL     1      10.484  42.904  22.906  1.00  0.00     0.007 A 
ATOM      7  C   UNL     1      11.585  43.422  22.218  1.00  0.00     0.046 A 
BRANCH   5   8
ATOM      8  O   UNL     1      13.849  43.199  21.414  1.00  0.00    -0.508 OA
ATOM      9  H   UNL     1      14.470  42.608  20.872  1.00  0.00     0.293 HD
ENDBRANCH   5   8
ENDBRANCH   1   2
BRANCH   1  10
ATOM     10  C   UNL     1       8.165  40.875  23.322  1.00  0.00     0.040 C 
BRANCH  10  11
ATOM     11  C   UNL     1       7.018  41.750  23.750  1.00  0.00    -0.040 A 
ATOM     12  C   UNL     1       5.947  41.206  24.479  1.00  0.00     0.050 A 
ATOM     13  C   UNL     1       7.036  43.126  23.475  1.00  0.00     0.050 A 
ATOM     14  C   UNL     1       4.895  42.023  24.905  1.00  0.00     0.119 A 
ATOM     15  C   UNL     1       5.984  43.947  23.902  1.00  0.00     0.119 A 
ATOM     16  C   UNL     1       4.914  43.394  24.614  1.00  0.00     0.092 A 
BRANCH  14  17
ATOM     17  O   UNL     1       3.839  41.465  25.621  1.00  0.00    -0.508 OA
ATOM     18  H   UNL     1       3.951  41.162  26.582  1.00  0.00     0.293 HD
ENDBRANCH  14  17
BRANCH  15  19
ATOM     19  O   UNL     1       5.991  45.314  23.626  1.00  0.00    -0.508 OA
ATOM     20  H   UNL     1       5.417  45.963  24.152  1.00  0.00     0.293 HD
ENDBRANCH  15  19
ENDBRANCH  10  11
ENDBRANCH   1  10
TORSDOF 6
ENDMDL
