MODEL 1
REMARK VINA RESULT:    -7.455      0.000      0.000
REMARK INTER + INTRA:         -13.655
REMARK INTER:                 -12.684
REMARK INTRA:                  -0.971
REMARK UNBOUND:                -0.971
REMARK SMILES CCCCCCCCCCCCCC(=O)[O-]
REMARK SMILES IDX 8 1 9 2 10 3 11 4 12 5 13 6 14 7 15 8 16 9 7 10 6 11 5 12
REMARK SMILES IDX 4 13 3 14 2 15 1 16
REMARK H PARENT
REMARK Flexibility Score: inf
ROOT
ATOM      1  C   UNL     1       6.877  -3.019  21.486  1.00  0.00     0.000 C 
ENDROOT
BRANCH   1   2
ATOM      2  C   UNL     1       6.955  -3.471  20.019  1.00  0.00     0.000 C 
BRANCH   2   3
ATOM      3  C   UNL     1       6.795  -4.991  19.860  1.00  0.00     0.000 C 
BRANCH   3   4
ATOM      4  C   UNL     1       6.582  -5.666  21.223  1.00  0.00     0.000 C 
BRANCH   4   5
ATOM      5  C   UNL     1       7.702  -6.658  21.575  1.00  0.00     0.006 C 
BRANCH   5   6
ATOM      6  C   UNL     1       7.341  -8.107  21.224  1.00  0.00     0.053 C 
BRANCH   6   7
ATOM      7  C   UNL     1       6.984  -8.868  22.461  1.00  0.00     0.041 C 
ATOM      8  O   UNL     1       7.307  -8.424  23.595  1.00  0.00    -0.550 OA
ATOM      9  O   UNL     1       6.251 -10.045  22.368  1.00  0.00    -0.550 OA
ENDBRANCH   6   7
ENDBRANCH   5   6
ENDBRANCH   4   5
ENDBRANCH   3   4
ENDBRANCH   2   3
ENDBRANCH   1   2
BRANCH   1  10
ATOM     10  C   UNL     1       5.841  -1.901  21.706  1.00  0.00     0.000 C 
BRANCH  10  11
ATOM     11  C   UNL     1       4.522  -2.425  22.298  1.00  0.00    -0.000 C 
BRANCH  11  12
ATOM     12  C   UNL     1       3.287  -1.893  21.550  1.00  0.00    -0.000 C 
BRANCH  12  13
ATOM     13  C   UNL     1       3.274  -2.299  20.068  1.00  0.00    -0.000 C 
BRANCH  13  14
ATOM     14  C   UNL     1       2.430  -1.350  19.200  1.00  0.00    -0.000 C 
BRANCH  14  15
ATOM     15  C   UNL     1       2.999   0.077  19.164  1.00  0.00    -0.003 C 
ATOM     16  C   UNL     1       1.985   1.103  18.661  1.00  0.00     0.004 C 
ENDBRANCH  14  15
ENDBRANCH  13  14
ENDBRANCH  12  13
ENDBRANCH  11  12
ENDBRANCH  10  11
ENDBRANCH   1  10
TORSDOF 12
ENDMDL
MODEL 2
REMARK VINA RESULT:    -7.371      3.931      7.739
REMARK INTER + INTRA:         -13.512
REMARK INTER:                 -12.826
REMARK INTRA:                  -0.686
REMARK UNBOUND:                -0.971
REMARK SMILES CCCCCCCCCCCCCC(=O)[O-]
REMARK SMILES IDX 8 1 9 2 10 3 11 4 12 5 13 6 14 7 15 8 16 9 7 10 6 11 5 12
REMARK SMILES IDX 4 13 3 14 2 15 1 16
REMARK H PARENT
REMARK Flexibility Score: inf
ROOT
ATOM      1  C   UNL     1       6.648  -2.267  20.748  1.00  0.00     0.000 C 
ENDROOT
BRANCH   1   2
ATOM      2  C   UNL     1       6.022  -2.296  22.151  1.00  0.00     0.000 C 
BRANCH   2   3
ATOM      3  C   UNL     1       4.613  -2.907  22.159  1.00  0.00     0.000 C 
BRANCH   3   4
ATOM      4  C   UNL     1       3.572  -1.892  21.663  1.00  0.00     0.000 C 
BRANCH   4   5
ATOM      5  C   UNL     1       3.225  -2.079  20.177  1.00  0.00     0.006 C 
BRANCH   5   6
ATOM      6  C   UNL     1       2.390  -0.921  19.615  1.00  0.00     0.053 C 
BRANCH   6   7
ATOM      7  C   UNL     1       3.251  -0.002  18.807  1.00  0.00     0.041 C 
ATOM      8  O   UNL     1       4.373   0.365  19.247  1.00  0.00    -0.550 OA
ATOM      9  O   UNL     1       2.838   0.411  17.547  1.00  0.00    -0.550 OA
ENDBRANCH   6   7
ENDBRANCH   5   6
ENDBRANCH   4   5
ENDBRANCH   3   4
ENDBRANCH   2   3
ENDBRANCH   1   2
BRANCH   1  10
ATOM     10  C   UNL     1       6.783  -3.672  20.132  1.00  0.00     0.000 C 
BRANCH  10  11
ATOM     11  C   UNL     1       7.537  -4.650  21.047  1.00  0.00    -0.000 C 
BRANCH  11  12
ATOM     12  C   UNL     1       6.879  -6.040  21.095  1.00  0.00    -0.000 C 
BRANCH  12  13
ATOM     13  C   UNL     1       7.853  -7.139  21.551  1.00  0.00    -0.000 C 
BRANCH  13  14
ATOM     14  C   UNL     1       7.268  -8.553  21.393  1.00  0.00    -0.000 C 
BRANCH  14  15
ATOM     15  C   UNL     1       6.466  -8.998  22.626  1.00  0.00    -0.003 C 
ATOM     16  C   UNL     1       7.175  -8.673  23.940  1.00  0.00     0.004 C 
ENDBRANCH  14  15
ENDBRANCH  13  14
ENDBRANCH  12  13
ENDBRANCH  11  12
ENDBRANCH  10  11
ENDBRANCH   1  10
TORSDOF 12
ENDMDL
MODEL 3
REMARK VINA RESULT:    -7.361      4.499      8.122
REMARK INTER + INTRA:         -13.496
REMARK INTER:                 -12.708
REMARK INTRA:                  -0.789
REMARK UNBOUND:                -0.971
REMARK SMILES CCCCCCCCCCCCCC(=O)[O-]
REMARK SMILES IDX 8 1 9 2 10 3 11 4 12 5 13 6 14 7 15 8 16 9 7 10 6 11 5 12
REMARK SMILES IDX 4 13 3 14 2 15 1 16
REMARK H PARENT
REMARK Flexibility Score: inf
ROOT
ATOM      1  C   UNL     1       6.104  -2.283  21.947  1.00  0.00     0.000 C 
ENDROOT
BRANCH   1   2
ATOM      2  C   UNL     1       4.719  -2.944  22.011  1.00  0.00     0.000 C 
BRANCH   2   3
ATOM      3  C   UNL     1       3.573  -1.934  21.843  1.00  0.00     0.000 C 
BRANCH   3   4
ATOM      4  C   UNL     1       2.828  -2.165  20.519  1.00  0.00     0.000 C 
BRANCH   4   5
ATOM      5  C   UNL     1       3.018  -1.009  19.524  1.00  0.00     0.006 C 
BRANCH   5   6
ATOM      6  C   UNL     1       1.686  -0.426  19.035  1.00  0.00     0.053 C 
BRANCH   6   7
ATOM      7  C   UNL     1       1.927   0.774  18.175  1.00  0.00     0.041 C 
ATOM      8  O   UNL     1       2.732   0.711  17.208  1.00  0.00    -0.550 OA
ATOM      9  O   UNL     1       1.227   1.951  18.410  1.00  0.00    -0.550 OA
ENDBRANCH   6   7
ENDBRANCH   5   6
ENDBRANCH   4   5
ENDBRANCH   3   4
ENDBRANCH   2   3
ENDBRANCH   1   2
BRANCH   1  10
ATOM     10  C   UNL     1       6.695  -2.282  20.525  1.00  0.00     0.000 C 
BRANCH  10  11
ATOM     11  C   UNL     1       6.717  -3.682  19.892  1.00  0.00    -0.000 C 
BRANCH  11  12
ATOM     12  C   UNL     1       7.620  -4.663  20.660  1.00  0.00    -0.000 C 
BRANCH  12  13
ATOM     13  C   UNL     1       6.874  -5.934  21.097  1.00  0.00    -0.000 C 
BRANCH  13  14
ATOM     14  C   UNL     1       7.811  -6.996  21.698  1.00  0.00    -0.000 C 
BRANCH  14  15
ATOM     15  C   UNL     1       7.373  -8.428  21.356  1.00  0.00    -0.003 C 
ATOM     16  C   UNL     1       6.662  -9.121  22.517  1.00  0.00     0.004 C 
ENDBRANCH  14  15
ENDBRANCH  13  14
ENDBRANCH  12  13
ENDBRANCH  11  12
ENDBRANCH  10  11
ENDBRANCH   1  10
TORSDOF 12
ENDMDL
MODEL 4
REMARK VINA RESULT:    -7.352      0.949      1.560
REMARK INTER + INTRA:         -13.480
REMARK INTER:                 -12.956
REMARK INTRA:                  -0.524
REMARK UNBOUND:                -0.971
REMARK SMILES CCCCCCCCCCCCCC(=O)[O-]
REMARK SMILES IDX 8 1 9 2 10 3 11 4 12 5 13 6 14 7 15 8 16 9 7 10 6 11 5 12
REMARK SMILES IDX 4 13 3 14 2 15 1 16
REMARK H PARENT
REMARK Flexibility Score: inf
ROOT
ATOM      1  C   UNL     1       6.467  -1.571  20.743  1.00  0.00     0.000 C 
ENDROOT
BRANCH   1   2
ATOM      2  C   UNL     1       6.370  -2.917  21.477  1.00  0.00     0.000 C 
BRANCH   2   3
ATOM      3  C   UNL     1       7.193  -4.022  20.798  1.00  0.00     0.000 C 
BRANCH   3   4
ATOM      4  C   UNL     1       6.576  -5.404  21.058  1.00  0.00     0.000 C 
BRANCH   4   5
ATOM      5  C   UNL     1       7.592  -6.411  21.620  1.00  0.00     0.006 C 
BRANCH   5   6
ATOM      6  C   UNL     1       7.276  -7.857  21.219  1.00  0.00     0.053 C 
BRANCH   6   7
ATOM      7  C   UNL     1       7.000  -8.686  22.434  1.00  0.00     0.041 C 
ATOM      8  O   UNL     1       7.392  -8.299  23.567  1.00  0.00    -0.550 OA
ATOM      9  O   UNL     1       6.267  -9.861  22.324  1.00  0.00    -0.550 OA
ENDBRANCH   6   7
ENDBRANCH   5   6
ENDBRANCH   4   5
ENDBRANCH   3   4
ENDBRANCH   2   3
ENDBRANCH   1   2
BRANCH   1  10
ATOM     10  C   UNL     1       5.127  -1.140  20.118  1.00  0.00     0.000 C 
BRANCH  10  11
ATOM     11  C   UNL     1       4.053  -2.236  20.206  1.00  0.00    -0.000 C 
BRANCH  11  12
ATOM     12  C   UNL     1       2.700  -1.784  19.630  1.00  0.00    -0.000 C 
BRANCH  12  13
ATOM     13  C   UNL     1       2.687  -0.294  19.252  1.00  0.00    -0.000 C 
BRANCH  13  14
ATOM     14  C   UNL     1       1.274   0.226  18.939  1.00  0.00    -0.000 C 
BRANCH  14  15
ATOM     15  C   UNL     1       1.201   0.952  17.586  1.00  0.00    -0.003 C 
ATOM     16  C   UNL     1       1.204   2.473  17.732  1.00  0.00     0.004 C 
ENDBRANCH  14  15
ENDBRANCH  13  14
ENDBRANCH  12  13
ENDBRANCH  11  12
ENDBRANCH  10  11
ENDBRANCH   1  10
TORSDOF 12
ENDMDL
MODEL 5
REMARK VINA RESULT:    -6.769      1.164      2.120
REMARK INTER + INTRA:         -12.489
REMARK INTER:                 -11.380
REMARK INTRA:                  -1.109
REMARK UNBOUND:                -0.971
REMARK SMILES CCCCCCCCCCCCCC(=O)[O-]
REMARK SMILES IDX 8 1 9 2 10 3 11 4 12 5 13 6 14 7 15 8 16 9 7 10 6 11 5 12
REMARK SMILES IDX 4 13 3 14 2 15 1 16
REMARK H PARENT
REMARK Flexibility Score: inf
ROOT
ATOM      1  C   UNL     1       5.327  -3.340  21.812  1.00  0.00     0.000 C 
ENDROOT
BRANCH   1   2
ATOM      2  C   UNL     1       5.855  -3.930  20.495  1.00  0.00     0.000 C 
BRANCH   2   3
ATOM      3  C   UNL     1       7.353  -4.266  20.556  1.00  0.00     0.000 C 
BRANCH   3   4
ATOM      4  C   UNL     1       7.612  -5.446  21.504  1.00  0.00     0.000 C 
BRANCH   4   5
ATOM      5  C   UNL     1       6.723  -6.661  21.194  1.00  0.00     0.006 C 
BRANCH   5   6
ATOM      6  C   UNL     1       7.492  -7.987  21.258  1.00  0.00     0.053 C 
BRANCH   6   7
ATOM      7  C   UNL     1       7.046  -8.792  22.438  1.00  0.00     0.041 C 
ATOM      8  O   UNL     1       6.364  -9.838  22.271  1.00  0.00    -0.550 OA
ATOM      9  O   UNL     1       7.424  -8.415  23.721  1.00  0.00    -0.550 OA
ENDBRANCH   6   7
ENDBRANCH   5   6
ENDBRANCH   4   5
ENDBRANCH   3   4
ENDBRANCH   2   3
ENDBRANCH   1   2
BRANCH   1  10
ATOM     10  C   UNL     1       4.019  -2.550  21.624  1.00  0.00     0.000 C 
BRANCH  10  11
ATOM     11  C   UNL     1       3.510  -2.582  20.174  1.00  0.00    -0.000 C 
BRANCH  11  12
ATOM     12  C   UNL     1       2.399  -1.550  19.915  1.00  0.00    -0.000 C 
BRANCH  12  13
ATOM     13  C   UNL     1       2.945  -0.219  19.374  1.00  0.00    -0.000 C 
BRANCH  13  14
ATOM     14  C   UNL     1       4.412  -0.319  18.922  1.00  0.00    -0.000 C 
BRANCH  14  15
ATOM     15  C   UNL     1       5.335   0.625  19.708  1.00  0.00    -0.003 C 
ATOM     16  C   UNL     1       6.436  -0.119  20.462  1.00  0.00     0.004 C 
ENDBRANCH  14  15
ENDBRANCH  13  14
ENDBRANCH  12  13
ENDBRANCH  11  12
ENDBRANCH  10  11
ENDBRANCH   1  10
TORSDOF 12
ENDMDL
MODEL 6
REMARK VINA RESULT:    -6.728      3.011      6.994
REMARK INTER + INTRA:         -12.419
REMARK INTER:                 -11.750
REMARK INTRA:                  -0.669
REMARK UNBOUND:                -0.971
REMARK SMILES CCCCCCCCCCCCCC(=O)[O-]
REMARK SMILES IDX 8 1 9 2 10 3 11 4 12 5 13 6 14 7 15 8 16 9 7 10 6 11 5 12
REMARK SMILES IDX 4 13 3 14 2 15 1 16
REMARK H PARENT
REMARK Flexibility Score: inf
ROOT
ATOM      1  C   UNL     1       6.398  -1.507  20.481  1.00  0.00     0.000 C 
ENDROOT
BRANCH   1   2
ATOM      2  C   UNL     1       6.420   0.020  20.654  1.00  0.00     0.000 C 
BRANCH   2   3
ATOM      3  C   UNL     1       5.517   0.744  19.644  1.00  0.00     0.000 C 
BRANCH   3   4
ATOM      4  C   UNL     1       4.568  -0.245  18.950  1.00  0.00     0.000 C 
BRANCH   4   5
ATOM      5  C   UNL     1       3.094   0.177  19.057  1.00  0.00     0.006 C 
BRANCH   5   6
ATOM      6  C   UNL     1       2.160  -1.005  19.346  1.00  0.00     0.053 C 
BRANCH   6   7
ATOM      7  C   UNL     1       2.849  -2.015  20.208  1.00  0.00     0.041 C 
ATOM      8  O   UNL     1       2.878  -1.866  21.459  1.00  0.00    -0.550 OA
ATOM      9  O   UNL     1       3.417  -3.146  19.637  1.00  0.00    -0.550 OA
ENDBRANCH   6   7
ENDBRANCH   5   6
ENDBRANCH   4   5
ENDBRANCH   3   4
ENDBRANCH   2   3
ENDBRANCH   1   2
BRANCH   1  10
ATOM     10  C   UNL     1       6.135  -2.249  21.804  1.00  0.00     0.000 C 
BRANCH  10  11
ATOM     11  C   UNL     1       6.894  -3.583  21.896  1.00  0.00    -0.000 C 
BRANCH  11  12
ATOM     12  C   UNL     1       6.875  -4.365  20.571  1.00  0.00    -0.000 C 
BRANCH  12  13
ATOM     13  C   UNL     1       6.499  -5.843  20.763  1.00  0.00    -0.000 C 
BRANCH  13  14
ATOM     14  C   UNL     1       7.577  -6.635  21.523  1.00  0.00    -0.000 C 
BRANCH  14  15
ATOM     15  C   UNL     1       7.436  -8.153  21.330  1.00  0.00    -0.003 C 
ATOM     16  C   UNL     1       6.718  -8.831  22.495  1.00  0.00     0.004 C 
ENDBRANCH  14  15
ENDBRANCH  13  14
ENDBRANCH  12  13
ENDBRANCH  11  12
ENDBRANCH  10  11
ENDBRANCH   1  10
TORSDOF 12
ENDMDL
MODEL 7
REMARK VINA RESULT:    -6.653      1.278      2.340
REMARK INTER + INTRA:         -12.291
REMARK INTER:                 -11.039
REMARK INTRA:                  -1.252
REMARK UNBOUND:                -0.971
REMARK SMILES CCCCCCCCCCCCCC(=O)[O-]
REMARK SMILES IDX 8 1 9 2 10 3 11 4 12 5 13 6 14 7 15 8 16 9 7 10 6 11 5 12
REMARK SMILES IDX 4 13 3 14 2 15 1 16
REMARK H PARENT
REMARK Flexibility Score: inf
ROOT
ATOM      1  C   UNL     1       6.101  -1.833  21.710  1.00  0.00     0.000 C 
ENDROOT
BRANCH   1   2
ATOM      2  C   UNL     1       6.616  -3.280  21.760  1.00  0.00     0.000 C 
BRANCH   2   3
ATOM      3  C   UNL     1       7.347  -3.692  20.473  1.00  0.00     0.000 C 
BRANCH   3   4
ATOM      4  C   UNL     1       6.982  -5.129  20.072  1.00  0.00     0.000 C 
BRANCH   4   5
ATOM      5  C   UNL     1       6.532  -5.982  21.269  1.00  0.00     0.006 C 
BRANCH   5   6
ATOM      6  C   UNL     1       7.641  -6.910  21.783  1.00  0.00     0.053 C 
BRANCH   6   7
ATOM      7  C   UNL     1       7.224  -8.341  21.656  1.00  0.00     0.041 C 
ATOM      8  O   UNL     1       7.542  -9.006  20.634  1.00  0.00    -0.550 OA
ATOM      9  O   UNL     1       6.526  -8.957  22.688  1.00  0.00    -0.550 OA
ENDBRANCH   6   7
ENDBRANCH   5   6
ENDBRANCH   4   5
ENDBRANCH   3   4
ENDBRANCH   2   3
ENDBRANCH   1   2
BRANCH   1  10
ATOM     10  C   UNL     1       6.326  -1.171  20.338  1.00  0.00     0.000 C 
BRANCH  10  11
ATOM     11  C   UNL     1       6.148   0.355  20.380  1.00  0.00    -0.000 C 
BRANCH  11  12
ATOM     12  C   UNL     1       4.992   0.840  19.488  1.00  0.00    -0.000 C 
BRANCH  12  13
ATOM     13  C   UNL     1       4.183  -0.322  18.889  1.00  0.00    -0.000 C 
BRANCH  13  14
ATOM     14  C   UNL     1       2.813  -0.502  19.567  1.00  0.00    -0.000 C 
BRANCH  14  15
ATOM     15  C   UNL     1       2.683  -1.859  20.277  1.00  0.00    -0.003 C 
ATOM     16  C   UNL     1       3.403  -2.984  19.536  1.00  0.00     0.004 C 
ENDBRANCH  14  15
ENDBRANCH  13  14
ENDBRANCH  12  13
ENDBRANCH  11  12
ENDBRANCH  10  11
ENDBRANCH   1  10
TORSDOF 12
ENDMDL
MODEL 8
REMARK VINA RESULT:    -6.143      2.677      4.789
REMARK INTER + INTRA:         -11.424
REMARK INTER:                 -11.072
REMARK INTRA:                  -0.352
REMARK UNBOUND:                -0.971
REMARK SMILES CCCCCCCCCCCCCC(=O)[O-]
REMARK SMILES IDX 8 1 9 2 10 3 11 4 12 5 13 6 14 7 15 8 16 9 7 10 6 11 5 12
REMARK SMILES IDX 4 13 3 14 2 15 1 16
REMARK H PARENT
REMARK Flexibility Score: inf
ROOT
ATOM      1  C   UNL     1       3.347  -0.456  19.415  1.00  0.00     0.000 C 
ENDROOT
BRANCH   1   2
ATOM      2  C   UNL     1       4.228  -1.513  20.100  1.00  0.00     0.000 C 
BRANCH   2   3
ATOM      3  C   UNL     1       5.658  -1.013  20.360  1.00  0.00     0.000 C 
BRANCH   3   4
ATOM      4  C   UNL     1       6.503  -2.100  21.041  1.00  0.00     0.000 C 
BRANCH   4   5
ATOM      5  C   UNL     1       5.647  -3.125  21.803  1.00  0.00     0.006 C 
BRANCH   5   6
ATOM      6  C   UNL     1       5.508  -4.454  21.050  1.00  0.00     0.053 C 
BRANCH   6   7
ATOM      7  C   UNL     1       6.843  -4.918  20.559  1.00  0.00     0.041 C 
ATOM      8  O   UNL     1       7.686  -5.393  21.366  1.00  0.00    -0.550 OA
ATOM      9  O   UNL     1       7.140  -4.872  19.203  1.00  0.00    -0.550 OA
ENDBRANCH   6   7
ENDBRANCH   5   6
ENDBRANCH   4   5
ENDBRANCH   3   4
ENDBRANCH   2   3
ENDBRANCH   1   2
BRANCH   1  10
ATOM     10  C   UNL     1       1.881  -0.905  19.280  1.00  0.00     0.000 C 
BRANCH  10  11
ATOM     11  C   UNL     1       0.976   0.193  18.699  1.00  0.00    -0.000 C 
BRANCH  11  12
ATOM     12  C   UNL     1       1.722   1.523  18.490  1.00  0.00    -0.000 C 
BRANCH  12  13
ATOM     13  C   UNL     1       1.105   2.375  17.368  1.00  0.00    -0.000 C 
BRANCH  13  14
ATOM     14  C   UNL     1       0.875   3.836  17.792  1.00  0.00    -0.000 C 
BRANCH  14  15
ATOM     15  C   UNL     1       1.779   4.818  17.030  1.00  0.00    -0.003 C 
ATOM     16  C   UNL     1       2.071   6.089  17.827  1.00  0.00     0.004 C 
ENDBRANCH  14  15
ENDBRANCH  13  14
ENDBRANCH  12  13
ENDBRANCH  11  12
ENDBRANCH  10  11
ENDBRANCH   1  10
TORSDOF 12
ENDMDL
MODEL 9
REMARK VINA RESULT:    -6.004      3.406      6.148
REMARK INTER + INTRA:         -11.187
REMARK INTER:                 -10.611
REMARK INTRA:                  -0.576
REMARK UNBOUND:                -0.971
REMARK SMILES CCCCCCCCCCCCCC(=O)[O-]
REMARK SMILES IDX 8 1 9 2 10 3 11 4 12 5 13 6 14 7 15 8 16 9 7 10 6 11 5 12
REMARK SMILES IDX 4 13 3 14 2 15 1 16
REMARK H PARENT
REMARK Flexibility Score: inf
ROOT
ATOM      1  C   UNL     1       1.654  -0.230  19.240  1.00  0.00     0.000 C 
ENDROOT
BRANCH   1   2
ATOM      2  C   UNL     1       2.748  -0.965  20.030  1.00  0.00     0.000 C 
BRANCH   2   3
ATOM      3  C   UNL     1       4.057  -1.105  19.238  1.00  0.00     0.000 C 
BRANCH   3   4
ATOM      4  C   UNL     1       5.175  -0.263  19.871  1.00  0.00     0.000 C 
BRANCH   4   5
ATOM      5  C   UNL     1       6.123  -1.100  20.745  1.00  0.00     0.006 C 
BRANCH   5   6
ATOM      6  C   UNL     1       6.114  -2.587  20.371  1.00  0.00     0.053 C 
BRANCH   6   7
ATOM      7  C   UNL     1       5.507  -3.398  21.471  1.00  0.00     0.041 C 
ATOM      8  O   UNL     1       5.492  -4.656  21.397  1.00  0.00    -0.550 OA
ATOM      9  O   UNL     1       5.001  -2.770  22.602  1.00  0.00    -0.550 OA
ENDBRANCH   6   7
ENDBRANCH   5   6
ENDBRANCH   4   5
ENDBRANCH   3   4
ENDBRANCH   2   3
ENDBRANCH   1   2
BRANCH   1  10
ATOM     10  C   UNL     1       2.152   0.284  17.877  1.00  0.00     0.000 C 
BRANCH  10  11
ATOM     11  C   UNL     1       1.252   1.386  17.294  1.00  0.00    -0.000 C 
BRANCH  11  12
ATOM     12  C   UNL     1       1.360   2.708  18.073  1.00  0.00    -0.000 C 
BRANCH  12  13
ATOM     13  C   UNL     1       0.913   3.921  17.240  1.00  0.00    -0.000 C 
BRANCH  13  14
ATOM     14  C   UNL     1       1.688   5.202  17.595  1.00  0.00    -0.000 C 
BRANCH  14  15
ATOM     15  C   UNL     1       1.303   6.389  16.699  1.00  0.00    -0.003 C 
ATOM     16  C   UNL     1       2.360   6.695  15.639  1.00  0.00     0.004 C 
ENDBRANCH  14  15
ENDBRANCH  13  14
ENDBRANCH  12  13
ENDBRANCH  11  12
ENDBRANCH  10  11
ENDBRANCH   1  10
TORSDOF 12
ENDMDL
