MODEL 1
REMARK VINA RESULT:    -4.457      0.000      0.000
REMARK INTER + INTRA:          -5.222
REMARK INTER:                  -5.109
REMARK INTRA:                  -0.114
REMARK UNBOUND:                -0.114
REMARK SMILES COc1cc(C(C)=O)ccc1O
REMARK SMILES IDX 5 1 4 2 3 3 11 4 10 5 9 6 6 7 7 8 8 9 2 10 1 11 12 12
REMARK H PARENT 12 13
REMARK Flexibility Score: inf
ROOT
ATOM      1  C   UNL     1      86.171  32.261  65.839  1.00  0.00     0.021 A 
ATOM      2  C   UNL     1      85.110  31.860  65.004  1.00  0.00     0.062 A 
ATOM      3  C   UNL     1      83.846  31.540  65.540  1.00  0.00     0.161 A 
ATOM      4  C   UNL     1      83.648  31.623  66.929  1.00  0.00     0.157 A 
ATOM      5  C   UNL     1      84.698  32.019  67.761  1.00  0.00     0.051 A 
ATOM      6  C   UNL     1      85.947  32.336  67.227  1.00  0.00     0.016 A 
ENDROOT
BRANCH   1   7
ATOM      7  C   UNL     1      87.498  32.595  65.252  1.00  0.00     0.159 C 
ATOM      8  C   UNL     1      88.125  33.946  65.428  1.00  0.00     0.093 C 
ATOM      9  O   UNL     1      88.124  31.727  64.586  1.00  0.00    -0.295 OA
ENDBRANCH   1   7
BRANCH   3  10
ATOM     10  O   UNL     1      82.774  31.138  64.727  1.00  0.00    -0.493 OA
ATOM     11  C   UNL     1      82.498  29.792  64.357  1.00  0.00     0.278 C 
ENDBRANCH   3  10
BRANCH   4  12
ATOM     12  O   UNL     1      82.414  31.315  67.502  1.00  0.00    -0.504 OA
ATOM     13  H   UNL     1      82.211  31.498  68.477  1.00  0.00     0.293 HD
ENDBRANCH   4  12
TORSDOF 3
ENDMDL
MODEL 2
REMARK VINA RESULT:    -3.832     16.077     17.019
REMARK INTER + INTRA:          -4.505
REMARK INTER:                  -4.403
REMARK INTRA:                  -0.102
REMARK UNBOUND:                -0.114
REMARK SMILES COc1cc(C(C)=O)ccc1O
REMARK SMILES IDX 5 1 4 2 3 3 11 4 10 5 9 6 6 7 7 8 8 9 2 10 1 11 12 12
REMARK H PARENT 12 13
REMARK Flexibility Score: inf
ROOT
ATOM      1  C   UNL     1      72.852  34.248  55.148  1.00  0.00     0.021 A 
ATOM      2  C   UNL     1      73.462  33.372  54.229  1.00  0.00     0.062 A 
ATOM      3  C   UNL     1      74.265  33.865  53.180  1.00  0.00     0.161 A 
ATOM      4  C   UNL     1      74.455  35.252  53.055  1.00  0.00     0.157 A 
ATOM      5  C   UNL     1      73.852  36.125  53.963  1.00  0.00     0.051 A 
ATOM      6  C   UNL     1      73.058  35.632  55.000  1.00  0.00     0.016 A 
ENDROOT
BRANCH   1   7
ATOM      7  C   UNL     1      72.008  33.706  56.249  1.00  0.00     0.159 C 
ATOM      8  C   UNL     1      70.639  34.246  56.538  1.00  0.00     0.093 C 
ATOM      9  O   UNL     1      72.445  32.767  56.967  1.00  0.00    -0.295 OA
ENDBRANCH   1   7
BRANCH   3  10
ATOM     10  O   UNL     1      74.883  33.011  52.253  1.00  0.00    -0.493 OA
ATOM     11  C   UNL     1      76.206  32.502  52.377  1.00  0.00     0.278 C 
ENDBRANCH   3  10
BRANCH   4  12
ATOM     12  O   UNL     1      75.241  35.783  52.032  1.00  0.00    -0.504 OA
ATOM     13  H   UNL     1      76.249  35.849  52.104  1.00  0.00     0.293 HD
ENDBRANCH   4  12
TORSDOF 3
ENDMDL
MODEL 3
REMARK VINA RESULT:    -3.819      1.890      2.307
REMARK INTER + INTRA:          -4.491
REMARK INTER:                  -4.377
REMARK INTRA:                  -0.115
REMARK UNBOUND:                -0.114
REMARK SMILES COc1cc(C(C)=O)ccc1O
REMARK SMILES IDX 5 1 4 2 3 3 11 4 10 5 9 6 6 7 7 8 8 9 2 10 1 11 12 12
REMARK H PARENT 12 13
REMARK Flexibility Score: inf
ROOT
ATOM      1  C   UNL     1      86.049  31.245  65.599  1.00  0.00     0.021 A 
ATOM      2  C   UNL     1      85.470  30.014  65.234  1.00  0.00     0.062 A 
ATOM      3  C   UNL     1      84.163  29.953  64.711  1.00  0.00     0.161 A 
ATOM      4  C   UNL     1      83.431  31.143  64.554  1.00  0.00     0.157 A 
ATOM      5  C   UNL     1      84.000  32.366  64.915  1.00  0.00     0.051 A 
ATOM      6  C   UNL     1      85.294  32.421  65.433  1.00  0.00     0.016 A 
ENDROOT
BRANCH   1   7
ATOM      7  C   UNL     1      87.432  31.286  66.150  1.00  0.00     0.159 C 
ATOM      8  C   UNL     1      88.125  32.581  66.456  1.00  0.00     0.093 C 
ATOM      9  O   UNL     1      88.050  30.210  66.370  1.00  0.00    -0.295 OA
ENDBRANCH   1   7
BRANCH   3  10
ATOM     10  O   UNL     1      83.566  28.738  64.340  1.00  0.00    -0.493 OA
ATOM     11  C   UNL     1      84.055  27.451  64.703  1.00  0.00     0.278 C 
ENDBRANCH   3  10
BRANCH   4  12
ATOM     12  O   UNL     1      82.134  31.129  64.040  1.00  0.00    -0.504 OA
ATOM     13  H   UNL     1      81.946  31.044  63.048  1.00  0.00     0.293 HD
ENDBRANCH   4  12
TORSDOF 3
ENDMDL
MODEL 4
REMARK VINA RESULT:    -3.607      1.865      4.469
REMARK INTER + INTRA:          -4.248
REMARK INTER:                  -4.158
REMARK INTRA:                  -0.090
REMARK UNBOUND:                -0.114
REMARK SMILES COc1cc(C(C)=O)ccc1O
REMARK SMILES IDX 5 1 4 2 3 3 11 4 10 5 9 6 6 7 7 8 8 9 2 10 1 11 12 12
REMARK H PARENT 12 13
REMARK Flexibility Score: inf
ROOT
ATOM      1  C   UNL     1      84.497  30.896  65.311  1.00  0.00     0.021 A 
ATOM      2  C   UNL     1      85.661  30.143  65.063  1.00  0.00     0.062 A 
ATOM      3  C   UNL     1      86.883  30.469  65.686  1.00  0.00     0.161 A 
ATOM      4  C   UNL     1      86.934  31.563  66.567  1.00  0.00     0.157 A 
ATOM      5  C   UNL     1      85.782  32.313  66.816  1.00  0.00     0.051 A 
ATOM      6  C   UNL     1      84.575  31.987  66.197  1.00  0.00     0.016 A 
ENDROOT
BRANCH   1   7
ATOM      7  C   UNL     1      83.217  30.535  64.642  1.00  0.00     0.159 C 
ATOM      8  C   UNL     1      82.899  29.123  64.249  1.00  0.00     0.093 C 
ATOM      9  O   UNL     1      82.366  31.431  64.393  1.00  0.00    -0.295 OA
ENDBRANCH   1   7
BRANCH   3  10
ATOM     10  O   UNL     1      88.056  29.733  65.454  1.00  0.00    -0.493 OA
ATOM     11  C   UNL     1      88.125  28.545  64.671  1.00  0.00     0.278 C 
ENDBRANCH   3  10
BRANCH   4  12
ATOM     12  O   UNL     1      88.122  31.920  67.205  1.00  0.00    -0.504 OA
ATOM     13  H   UNL     1      88.875  32.392  66.719  1.00  0.00     0.293 HD
ENDBRANCH   4  12
TORSDOF 3
ENDMDL
MODEL 5
REMARK VINA RESULT:    -3.482      1.761      2.518
REMARK INTER + INTRA:          -4.105
REMARK INTER:                  -4.001
REMARK INTRA:                  -0.104
REMARK UNBOUND:                -0.114
REMARK SMILES COc1cc(C(C)=O)ccc1O
REMARK SMILES IDX 5 1 4 2 3 3 11 4 10 5 9 6 6 7 7 8 8 9 2 10 1 11 12 12
REMARK H PARENT 12 13
REMARK Flexibility Score: inf
ROOT
ATOM      1  C   UNL     1      86.935  32.338  65.818  1.00  0.00     0.021 A 
ATOM      2  C   UNL     1      85.528  32.390  65.839  1.00  0.00     0.062 A 
ATOM      3  C   UNL     1      84.754  31.263  65.494  1.00  0.00     0.161 A 
ATOM      4  C   UNL     1      85.403  30.073  65.124  1.00  0.00     0.157 A 
ATOM      5  C   UNL     1      86.799  30.016  65.100  1.00  0.00     0.051 A 
ATOM      6  C   UNL     1      87.560  31.134  65.443  1.00  0.00     0.016 A 
ENDROOT
BRANCH   1   7
ATOM      7  C   UNL     1      87.733  33.539  66.187  1.00  0.00     0.159 C 
ATOM      8  C   UNL     1      88.125  34.573  65.173  1.00  0.00     0.093 C 
ATOM      9  O   UNL     1      88.097  33.706  67.382  1.00  0.00    -0.295 OA
ENDBRANCH   1   7
BRANCH   3  10
ATOM     10  O   UNL     1      83.351  31.292  65.507  1.00  0.00    -0.493 OA
ATOM     11  C   UNL     1      82.560  31.680  66.626  1.00  0.00     0.278 C 
ENDBRANCH   3  10
BRANCH   4  12
ATOM     12  O   UNL     1      84.677  28.934  64.774  1.00  0.00    -0.504 OA
ATOM     13  H   UNL     1      84.051  28.917  63.978  1.00  0.00     0.293 HD
ENDBRANCH   4  12
TORSDOF 3
ENDMDL
