MODEL 1
REMARK VINA RESULT:    -5.125      0.000      0.000
REMARK INTER + INTRA:         -11.861
REMARK INTER:                  -9.918
REMARK INTRA:                  -1.943
REMARK UNBOUND:                -1.943
REMARK SMILES CCCCCCCCCCCCCCCCCC(=O)[O-]
REMARK SMILES IDX 10 1 11 2 12 3 13 4 14 5 15 6 16 7 17 8 18 9 19 10 20 11
REMARK SMILES IDX 9 12 8 13 7 14 6 15 5 16 4 17 3 18 2 19 1 20
REMARK H PARENT
REMARK Flexibility Score: inf
ROOT
ATOM      1  C   UNL     1      34.072  57.368  31.410  1.00  0.00     0.000 C 
ENDROOT
BRANCH   1   2
ATOM      2  C   UNL     1      34.742  57.342  32.793  1.00  0.00     0.000 C 
BRANCH   2   3
ATOM      3  C   UNL     1      33.754  57.006  33.922  1.00  0.00     0.000 C 
BRANCH   3   4
ATOM      4  C   UNL     1      32.452  56.370  33.405  1.00  0.00     0.000 C 
BRANCH   4   5
ATOM      5  C   UNL     1      32.155  54.984  34.016  1.00  0.00     0.000 C 
BRANCH   5   6
ATOM      6  C   UNL     1      32.016  53.894  32.941  1.00  0.00     0.000 C 
BRANCH   6   7
ATOM      7  C   UNL     1      33.264  53.760  32.051  1.00  0.00     0.006 C 
BRANCH   7   8
ATOM      8  C   UNL     1      34.525  53.309  32.809  1.00  0.00     0.053 C 
BRANCH   8   9
ATOM      9  C   UNL     1      34.951  51.918  32.450  1.00  0.00     0.041 C 
ATOM     10  O   UNL     1      34.147  51.134  31.881  1.00  0.00    -0.550 OA
ATOM     11  O   UNL     1      36.250  51.499  32.710  1.00  0.00    -0.550 OA
ENDBRANCH   8   9
ENDBRANCH   7   8
ENDBRANCH   6   7
ENDBRANCH   5   6
ENDBRANCH   4   5
ENDBRANCH   3   4
ENDBRANCH   2   3
ENDBRANCH   1   2
BRANCH   1  12
ATOM     12  C   UNL     1      35.037  56.994  30.274  1.00  0.00     0.000 C 
BRANCH  12  13
ATOM     13  C   UNL     1      35.921  58.186  29.888  1.00  0.00    -0.000 C 
BRANCH  13  14
ATOM     14  C   UNL     1      36.396  58.069  28.432  1.00  0.00    -0.000 C 
BRANCH  14  15
ATOM     15  C   UNL     1      35.788  56.859  27.705  1.00  0.00    -0.000 C 
BRANCH  15  16
ATOM     16  C   UNL     1      34.904  57.263  26.515  1.00  0.00    -0.000 C 
BRANCH  16  17
ATOM     17  C   UNL     1      33.560  56.521  26.556  1.00  0.00    -0.000 C 
BRANCH  17  18
ATOM     18  C   UNL     1      33.574  55.318  27.512  1.00  0.00    -0.000 C 
BRANCH  18  19
ATOM     19  C   UNL     1      32.179  54.711  27.722  1.00  0.00    -0.003 C 
ATOM     20  C   UNL     1      31.086  55.685  27.294  1.00  0.00     0.004 C 
ENDBRANCH  18  19
ENDBRANCH  17  18
ENDBRANCH  16  17
ENDBRANCH  15  16
ENDBRANCH  14  15
ENDBRANCH  13  14
ENDBRANCH  12  13
ENDBRANCH   1  12
TORSDOF 16
ENDMDL
MODEL 2
REMARK VINA RESULT:    -5.027      1.255      4.416
REMARK INTER + INTRA:         -11.671
REMARK INTER:                  -9.805
REMARK INTRA:                  -1.866
REMARK UNBOUND:                -1.943
REMARK SMILES CCCCCCCCCCCCCCCCCC(=O)[O-]
REMARK SMILES IDX 10 1 11 2 12 3 13 4 14 5 15 6 16 7 17 8 18 9 19 10 20 11
REMARK SMILES IDX 9 12 8 13 7 14 6 15 5 16 4 17 3 18 2 19 1 20
REMARK H PARENT
REMARK Flexibility Score: inf
ROOT
ATOM      1  C   UNL     1      34.126  56.878  26.534  1.00  0.00     0.000 C 
ENDROOT
BRANCH   1   2
ATOM      2  C   UNL     1      32.808  56.133  26.263  1.00  0.00     0.000 C 
BRANCH   2   3
ATOM      3  C   UNL     1      32.350  55.288  27.462  1.00  0.00     0.000 C 
BRANCH   3   4
ATOM      4  C   UNL     1      32.348  53.779  27.162  1.00  0.00     0.000 C 
BRANCH   4   5
ATOM      5  C   UNL     1      32.819  52.911  28.348  1.00  0.00     0.000 C 
BRANCH   5   6
ATOM      6  C   UNL     1      33.023  53.739  29.627  1.00  0.00     0.000 C 
BRANCH   6   7
ATOM      7  C   UNL     1      32.620  52.985  30.907  1.00  0.00     0.006 C 
BRANCH   7   8
ATOM      8  C   UNL     1      33.522  51.781  31.231  1.00  0.00     0.053 C 
BRANCH   8   9
ATOM      9  C   UNL     1      34.647  52.134  32.155  1.00  0.00     0.041 C 
ATOM     10  O   UNL     1      34.619  53.207  32.813  1.00  0.00    -0.550 OA
ATOM     11  O   UNL     1      35.714  51.258  32.318  1.00  0.00    -0.550 OA
ENDBRANCH   8   9
ENDBRANCH   7   8
ENDBRANCH   6   7
ENDBRANCH   5   6
ENDBRANCH   4   5
ENDBRANCH   3   4
ENDBRANCH   2   3
ENDBRANCH   1   2
BRANCH   1  12
ATOM     12  C   UNL     1      35.001  56.174  27.582  1.00  0.00     0.000 C 
BRANCH  12  13
ATOM     13  C   UNL     1      36.375  56.847  27.695  1.00  0.00    -0.000 C 
BRANCH  13  14
ATOM     14  C   UNL     1      36.386  57.885  28.828  1.00  0.00    -0.000 C 
BRANCH  14  15
ATOM     15  C   UNL     1      35.223  57.698  29.815  1.00  0.00    -0.000 C 
BRANCH  15  16
ATOM     16  C   UNL     1      35.542  58.236  31.218  1.00  0.00    -0.000 C 
BRANCH  16  17
ATOM     17  C   UNL     1      34.646  57.572  32.274  1.00  0.00    -0.000 C 
BRANCH  17  18
ATOM     18  C   UNL     1      33.702  56.519  31.674  1.00  0.00    -0.000 C 
BRANCH  18  19
ATOM     19  C   UNL     1      32.290  56.577  32.277  1.00  0.00    -0.003 C 
ATOM     20  C   UNL     1      32.215  55.784  33.578  1.00  0.00     0.004 C 
ENDBRANCH  18  19
ENDBRANCH  17  18
ENDBRANCH  16  17
ENDBRANCH  15  16
ENDBRANCH  14  15
ENDBRANCH  13  14
ENDBRANCH  12  13
ENDBRANCH   1  12
TORSDOF 16
ENDMDL
MODEL 3
REMARK VINA RESULT:    -5.010      2.735      6.609
REMARK INTER + INTRA:         -11.640
REMARK INTER:                  -9.736
REMARK INTRA:                  -1.904
REMARK UNBOUND:                -1.943
REMARK SMILES CCCCCCCCCCCCCCCCCC(=O)[O-]
REMARK SMILES IDX 10 1 11 2 12 3 13 4 14 5 15 6 16 7 17 8 18 9 19 10 20 11
REMARK SMILES IDX 9 12 8 13 7 14 6 15 5 16 4 17 3 18 2 19 1 20
REMARK H PARENT
REMARK Flexibility Score: inf
ROOT
ATOM      1  C   UNL     1      31.869  55.143  27.770  1.00  0.00     0.000 C 
ENDROOT
BRANCH   1   2
ATOM      2  C   UNL     1      32.167  56.228  26.723  1.00  0.00     0.000 C 
BRANCH   2   3
ATOM      3  C   UNL     1      33.501  55.996  25.995  1.00  0.00     0.000 C 
BRANCH   3   4
ATOM      4  C   UNL     1      34.618  56.934  26.486  1.00  0.00     0.000 C 
BRANCH   4   5
ATOM      5  C   UNL     1      35.543  56.296  27.544  1.00  0.00     0.000 C 
BRANCH   5   6
ATOM      6  C   UNL     1      36.696  57.231  27.945  1.00  0.00     0.000 C 
BRANCH   6   7
ATOM      7  C   UNL     1      36.301  58.247  29.030  1.00  0.00     0.006 C 
BRANCH   7   8
ATOM      8  C   UNL     1      35.419  57.658  30.145  1.00  0.00     0.053 C 
BRANCH   8   9
ATOM      9  C   UNL     1      35.650  58.313  31.473  1.00  0.00     0.041 C 
ATOM     10  O   UNL     1      36.549  59.185  31.604  1.00  0.00    -0.550 OA
ATOM     11  O   UNL     1      34.848  57.986  32.559  1.00  0.00    -0.550 OA
ENDBRANCH   8   9
ENDBRANCH   7   8
ENDBRANCH   6   7
ENDBRANCH   5   6
ENDBRANCH   4   5
ENDBRANCH   3   4
ENDBRANCH   2   3
ENDBRANCH   1   2
BRANCH   1  12
ATOM     12  C   UNL     1      32.559  53.807  27.455  1.00  0.00     0.000 C 
BRANCH  12  13
ATOM     13  C   UNL     1      33.255  53.239  28.698  1.00  0.00    -0.000 C 
BRANCH  13  14
ATOM     14  C   UNL     1      32.498  52.017  29.241  1.00  0.00    -0.000 C 
BRANCH  14  15
ATOM     15  C   UNL     1      32.859  51.697  30.700  1.00  0.00    -0.000 C 
BRANCH  15  16
ATOM     16  C   UNL     1      31.621  51.542  31.597  1.00  0.00    -0.000 C 
BRANCH  16  17
ATOM     17  C   UNL     1      31.542  52.685  32.620  1.00  0.00    -0.000 C 
BRANCH  17  18
ATOM     18  C   UNL     1      32.824  53.530  32.668  1.00  0.00    -0.000 C 
BRANCH  18  19
ATOM     19  C   UNL     1      32.538  55.035  32.767  1.00  0.00    -0.003 C 
ATOM     20  C   UNL     1      32.512  55.682  31.386  1.00  0.00     0.004 C 
ENDBRANCH  18  19
ENDBRANCH  17  18
ENDBRANCH  16  17
ENDBRANCH  15  16
ENDBRANCH  14  15
ENDBRANCH  13  14
ENDBRANCH  12  13
ENDBRANCH   1  12
TORSDOF 16
ENDMDL
MODEL 4
REMARK VINA RESULT:    -4.952      2.085      4.660
REMARK INTER + INTRA:         -11.527
REMARK INTER:                  -9.590
REMARK INTRA:                  -1.937
REMARK UNBOUND:                -1.943
REMARK SMILES CCCCCCCCCCCCCCCCCC(=O)[O-]
REMARK SMILES IDX 10 1 11 2 12 3 13 4 14 5 15 6 16 7 17 8 18 9 19 10 20 11
REMARK SMILES IDX 9 12 8 13 7 14 6 15 5 16 4 17 3 18 2 19 1 20
REMARK H PARENT
REMARK Flexibility Score: inf
ROOT
ATOM      1  C   UNL     1      32.255  56.257  26.627  1.00  0.00     0.000 C 
ENDROOT
BRANCH   1   2
ATOM      2  C   UNL     1      31.953  55.257  27.755  1.00  0.00     0.000 C 
BRANCH   2   3
ATOM      3  C   UNL     1      32.153  53.797  27.319  1.00  0.00     0.000 C 
BRANCH   3   4
ATOM      4  C   UNL     1      32.710  52.909  28.446  1.00  0.00     0.000 C 
BRANCH   4   5
ATOM      5  C   UNL     1      33.146  53.698  29.698  1.00  0.00     0.000 C 
BRANCH   5   6
ATOM      6  C   UNL     1      33.349  52.783  30.918  1.00  0.00     0.000 C 
BRANCH   6   7
ATOM      7  C   UNL     1      32.309  53.016  32.028  1.00  0.00     0.006 C 
BRANCH   7   8
ATOM      8  C   UNL     1      31.718  51.720  32.611  1.00  0.00     0.053 C 
BRANCH   8   9
ATOM      9  C   UNL     1      30.347  51.421  32.086  1.00  0.00     0.041 C 
ATOM     10  O   UNL     1      30.201  50.734  31.041  1.00  0.00    -0.550 OA
ATOM     11  O   UNL     1      29.226  51.873  32.771  1.00  0.00    -0.550 OA
ENDBRANCH   8   9
ENDBRANCH   7   8
ENDBRANCH   6   7
ENDBRANCH   5   6
ENDBRANCH   4   5
ENDBRANCH   3   4
ENDBRANCH   2   3
ENDBRANCH   1   2
BRANCH   1  12
ATOM     12  C   UNL     1      33.679  56.113  26.071  1.00  0.00     0.000 C 
BRANCH  12  13
ATOM     13  C   UNL     1      34.597  57.216  26.614  1.00  0.00    -0.000 C 
BRANCH  13  14
ATOM     14  C   UNL     1      35.509  56.674  27.725  1.00  0.00    -0.000 C 
BRANCH  14  15
ATOM     15  C   UNL     1      36.183  57.791  28.537  1.00  0.00    -0.000 C 
BRANCH  15  16
ATOM     16  C   UNL     1      35.597  57.936  29.949  1.00  0.00    -0.000 C 
BRANCH  16  17
ATOM     17  C   UNL     1      34.687  56.745  30.288  1.00  0.00    -0.000 C 
BRANCH  17  18
ATOM     18  C   UNL     1      34.744  56.358  31.774  1.00  0.00    -0.000 C 
BRANCH  18  19
ATOM     19  C   UNL     1      33.762  57.167  32.634  1.00  0.00    -0.003 C 
ATOM     20  C   UNL     1      32.323  56.724  32.390  1.00  0.00     0.004 C 
ENDBRANCH  18  19
ENDBRANCH  17  18
ENDBRANCH  16  17
ENDBRANCH  15  16
ENDBRANCH  14  15
ENDBRANCH  13  14
ENDBRANCH  12  13
ENDBRANCH   1  12
TORSDOF 16
ENDMDL
MODEL 5
REMARK VINA RESULT:    -4.952      2.487      5.655
REMARK INTER + INTRA:         -11.526
REMARK INTER:                  -9.528
REMARK INTRA:                  -1.998
REMARK UNBOUND:                -1.943
REMARK SMILES CCCCCCCCCCCCCCCCCC(=O)[O-]
REMARK SMILES IDX 10 1 11 2 12 3 13 4 14 5 15 6 16 7 17 8 18 9 19 10 20 11
REMARK SMILES IDX 9 12 8 13 7 14 6 15 5 16 4 17 3 18 2 19 1 20
REMARK H PARENT
REMARK Flexibility Score: inf
ROOT
ATOM      1  C   UNL     1      33.463  56.070  25.918  1.00  0.00     0.000 C 
ENDROOT
BRANCH   1   2
ATOM      2  C   UNL     1      34.642  57.014  26.210  1.00  0.00     0.000 C 
BRANCH   2   3
ATOM      3  C   UNL     1      35.477  56.558  27.417  1.00  0.00     0.000 C 
BRANCH   3   4
ATOM      4  C   UNL     1      35.497  57.595  28.554  1.00  0.00     0.000 C 
BRANCH   4   5
ATOM      5  C   UNL     1      35.236  56.990  29.949  1.00  0.00     0.000 C 
BRANCH   5   6
ATOM      6  C   UNL     1      34.871  58.065  30.988  1.00  0.00     0.000 C 
BRANCH   6   7
ATOM      7  C   UNL     1      35.262  57.676  32.424  1.00  0.00     0.006 C 
BRANCH   7   8
ATOM      8  C   UNL     1      34.091  57.137  33.265  1.00  0.00     0.053 C 
BRANCH   8   9
ATOM      9  C   UNL     1      34.215  57.483  34.718  1.00  0.00     0.041 C 
ATOM     10  O   UNL     1      34.494  58.659  35.071  1.00  0.00    -0.550 OA
ATOM     11  O   UNL     1      33.988  56.513  35.686  1.00  0.00    -0.550 OA
ENDBRANCH   8   9
ENDBRANCH   7   8
ENDBRANCH   6   7
ENDBRANCH   5   6
ENDBRANCH   4   5
ENDBRANCH   3   4
ENDBRANCH   2   3
ENDBRANCH   1   2
BRANCH   1  12
ATOM     12  C   UNL     1      32.297  56.254  26.901  1.00  0.00     0.000 C 
BRANCH  12  13
ATOM     13  C   UNL     1      31.493  54.957  27.050  1.00  0.00    -0.000 C 
BRANCH  13  14
ATOM     14  C   UNL     1      32.402  53.727  26.909  1.00  0.00    -0.000 C 
BRANCH  14  15
ATOM     15  C   UNL     1      32.564  52.955  28.229  1.00  0.00    -0.000 C 
BRANCH  15  16
ATOM     16  C   UNL     1      33.613  53.582  29.159  1.00  0.00    -0.000 C 
BRANCH  16  17
ATOM     17  C   UNL     1      32.943  54.226  30.382  1.00  0.00    -0.000 C 
BRANCH  17  18
ATOM     18  C   UNL     1      33.680  53.919  31.695  1.00  0.00    -0.000 C 
BRANCH  18  19
ATOM     19  C   UNL     1      32.723  53.706  32.876  1.00  0.00    -0.003 C 
ATOM     20  C   UNL     1      31.674  52.647  32.550  1.00  0.00     0.004 C 
ENDBRANCH  18  19
ENDBRANCH  17  18
ENDBRANCH  16  17
ENDBRANCH  15  16
ENDBRANCH  14  15
ENDBRANCH  13  14
ENDBRANCH  12  13
ENDBRANCH   1  12
TORSDOF 16
ENDMDL
MODEL 6
REMARK VINA RESULT:    -4.921      2.327      6.283
REMARK INTER + INTRA:         -11.468
REMARK INTER:                  -9.089
REMARK INTRA:                  -2.379
REMARK UNBOUND:                -1.943
REMARK SMILES CCCCCCCCCCCCCCCCCC(=O)[O-]
REMARK SMILES IDX 10 1 11 2 12 3 13 4 14 5 15 6 16 7 17 8 18 9 19 10 20 11
REMARK SMILES IDX 9 12 8 13 7 14 6 15 5 16 4 17 3 18 2 19 1 20
REMARK H PARENT
REMARK Flexibility Score: inf
ROOT
ATOM      1  C   UNL     1      33.994  55.698  30.646  1.00  0.00     0.000 C 
ENDROOT
BRANCH   1   2
ATOM      2  C   UNL     1      34.420  57.175  30.598  1.00  0.00     0.000 C 
BRANCH   2   3
ATOM      3  C   UNL     1      35.792  57.372  29.935  1.00  0.00     0.000 C 
BRANCH   3   4
ATOM      4  C   UNL     1      35.686  57.845  28.474  1.00  0.00     0.000 C 
BRANCH   4   5
ATOM      5  C   UNL     1      35.501  56.695  27.462  1.00  0.00     0.000 C 
BRANCH   5   6
ATOM      6  C   UNL     1      34.632  57.112  26.264  1.00  0.00     0.000 C 
BRANCH   6   7
ATOM      7  C   UNL     1      33.306  56.336  26.179  1.00  0.00     0.006 C 
BRANCH   7   8
ATOM      8  C   UNL     1      33.210  55.157  27.164  1.00  0.00     0.053 C 
BRANCH   8   9
ATOM      9  C   UNL     1      31.819  54.611  27.278  1.00  0.00     0.041 C 
ATOM     10  O   UNL     1      31.624  53.367  27.302  1.00  0.00    -0.550 OA
ATOM     11  O   UNL     1      30.739  55.477  27.394  1.00  0.00    -0.550 OA
ENDBRANCH   8   9
ENDBRANCH   7   8
ENDBRANCH   6   7
ENDBRANCH   5   6
ENDBRANCH   4   5
ENDBRANCH   3   4
ENDBRANCH   2   3
ENDBRANCH   1   2
BRANCH   1  12
ATOM     12  C   UNL     1      32.627  55.495  31.318  1.00  0.00     0.000 C 
BRANCH  12  13
ATOM     13  C   UNL     1      32.341  56.612  32.330  1.00  0.00    -0.000 C 
BRANCH  13  14
ATOM     14  C   UNL     1      32.615  56.136  33.765  1.00  0.00    -0.000 C 
BRANCH  14  15
ATOM     15  C   UNL     1      33.834  56.828  34.396  1.00  0.00    -0.000 C 
BRANCH  15  16
ATOM     16  C   UNL     1      35.147  56.077  34.130  1.00  0.00    -0.000 C 
BRANCH  16  17
ATOM     17  C   UNL     1      35.037  54.611  34.575  1.00  0.00    -0.000 C 
BRANCH  17  18
ATOM     18  C   UNL     1      35.277  53.621  33.424  1.00  0.00    -0.000 C 
BRANCH  18  19
ATOM     19  C   UNL     1      34.100  52.655  33.219  1.00  0.00    -0.003 C 
ATOM     20  C   UNL     1      34.109  52.071  31.810  1.00  0.00     0.004 C 
ENDBRANCH  18  19
ENDBRANCH  17  18
ENDBRANCH  16  17
ENDBRANCH  15  16
ENDBRANCH  14  15
ENDBRANCH  13  14
ENDBRANCH  12  13
ENDBRANCH   1  12
TORSDOF 16
ENDMDL
MODEL 7
REMARK VINA RESULT:    -4.919      2.783      6.061
REMARK INTER + INTRA:         -11.464
REMARK INTER:                  -9.089
REMARK INTRA:                  -2.375
REMARK UNBOUND:                -1.943
REMARK SMILES CCCCCCCCCCCCCCCCCC(=O)[O-]
REMARK SMILES IDX 10 1 11 2 12 3 13 4 14 5 15 6 16 7 17 8 18 9 19 10 20 11
REMARK SMILES IDX 9 12 8 13 7 14 6 15 5 16 4 17 3 18 2 19 1 20
REMARK H PARENT
REMARK Flexibility Score: inf
ROOT
ATOM      1  C   UNL     1      34.922  56.494  32.094  1.00  0.00     0.000 C 
ENDROOT
BRANCH   1   2
ATOM      2  C   UNL     1      35.479  57.903  31.830  1.00  0.00     0.000 C 
BRANCH   2   3
ATOM      3  C   UNL     1      35.240  58.371  30.386  1.00  0.00     0.000 C 
BRANCH   3   4
ATOM      4  C   UNL     1      36.059  57.573  29.357  1.00  0.00     0.000 C 
BRANCH   4   5
ATOM      5  C   UNL     1      35.535  57.704  27.911  1.00  0.00     0.000 C 
BRANCH   5   6
ATOM      6  C   UNL     1      34.990  56.372  27.369  1.00  0.00     0.000 C 
BRANCH   6   7
ATOM      7  C   UNL     1      33.528  56.464  26.900  1.00  0.00     0.006 C 
BRANCH   7   8
ATOM      8  C   UNL     1      32.932  55.118  26.451  1.00  0.00     0.053 C 
BRANCH   8   9
ATOM      9  C   UNL     1      31.475  54.992  26.778  1.00  0.00     0.041 C 
ATOM     10  O   UNL     1      30.892  55.890  27.441  1.00  0.00    -0.550 OA
ATOM     11  O   UNL     1      30.750  53.899  26.318  1.00  0.00    -0.550 OA
ENDBRANCH   8   9
ENDBRANCH   7   8
ENDBRANCH   6   7
ENDBRANCH   5   6
ENDBRANCH   4   5
ENDBRANCH   3   4
ENDBRANCH   2   3
ENDBRANCH   1   2
BRANCH   1  12
ATOM     12  C   UNL     1      33.498  56.516  32.670  1.00  0.00     0.000 C 
BRANCH  12  13
ATOM     13  C   UNL     1      32.503  55.862  31.703  1.00  0.00    -0.000 C 
BRANCH  13  14
ATOM     14  C   UNL     1      33.217  55.351  30.442  1.00  0.00    -0.000 C 
BRANCH  14  15
ATOM     15  C   UNL     1      32.908  53.876  30.142  1.00  0.00    -0.000 C 
BRANCH  15  16
ATOM     16  C   UNL     1      32.910  53.001  31.405  1.00  0.00    -0.000 C 
BRANCH  16  17
ATOM     17  C   UNL     1      34.033  51.955  31.343  1.00  0.00    -0.000 C 
BRANCH  17  18
ATOM     18  C   UNL     1      34.717  51.737  32.701  1.00  0.00    -0.000 C 
BRANCH  18  19
ATOM     19  C   UNL     1      35.310  53.031  33.280  1.00  0.00    -0.003 C 
ATOM     20  C   UNL     1      34.576  53.452  34.549  1.00  0.00     0.004 C 
ENDBRANCH  18  19
ENDBRANCH  17  18
ENDBRANCH  16  17
ENDBRANCH  15  16
ENDBRANCH  14  15
ENDBRANCH  13  14
ENDBRANCH  12  13
ENDBRANCH   1  12
TORSDOF 16
ENDMDL
MODEL 8
REMARK VINA RESULT:    -4.913      2.323      4.603
REMARK INTER + INTRA:         -11.451
REMARK INTER:                  -9.510
REMARK INTRA:                  -1.940
REMARK UNBOUND:                -1.943
REMARK SMILES CCCCCCCCCCCCCCCCCC(=O)[O-]
REMARK SMILES IDX 10 1 11 2 12 3 13 4 14 5 15 6 16 7 17 8 18 9 19 10 20 11
REMARK SMILES IDX 9 12 8 13 7 14 6 15 5 16 4 17 3 18 2 19 1 20
REMARK H PARENT
REMARK Flexibility Score: inf
ROOT
ATOM      1  C   UNL     1      32.965  53.628  28.984  1.00  0.00     0.000 C 
ENDROOT
BRANCH   1   2
ATOM      2  C   UNL     1      32.806  52.134  29.310  1.00  0.00     0.000 C 
BRANCH   2   3
ATOM      3  C   UNL     1      31.931  51.890  30.550  1.00  0.00     0.000 C 
BRANCH   3   4
ATOM      4  C   UNL     1      32.301  52.805  31.730  1.00  0.00     0.000 C 
BRANCH   4   5
ATOM      5  C   UNL     1      33.602  52.392  32.450  1.00  0.00     0.000 C 
BRANCH   5   6
ATOM      6  C   UNL     1      34.326  53.597  33.074  1.00  0.00     0.000 C 
BRANCH   6   7
ATOM      7  C   UNL     1      34.168  54.889  32.253  1.00  0.00     0.006 C 
BRANCH   7   8
ATOM      8  C   UNL     1      33.812  56.125  33.098  1.00  0.00     0.053 C 
BRANCH   8   9
ATOM      9  C   UNL     1      32.333  56.316  33.248  1.00  0.00     0.041 C 
ATOM     10  O   UNL     1      31.717  57.124  32.505  1.00  0.00    -0.550 OA
ATOM     11  O   UNL     1      31.628  55.573  34.187  1.00  0.00    -0.550 OA
ENDBRANCH   8   9
ENDBRANCH   7   8
ENDBRANCH   6   7
ENDBRANCH   5   6
ENDBRANCH   4   5
ENDBRANCH   3   4
ENDBRANCH   2   3
ENDBRANCH   1   2
BRANCH   1  12
ATOM     12  C   UNL     1      32.498  53.979  27.564  1.00  0.00     0.000 C 
BRANCH  12  13
ATOM     13  C   UNL     1      31.626  55.241  27.567  1.00  0.00    -0.000 C 
BRANCH  13  14
ATOM     14  C   UNL     1      32.110  56.246  26.510  1.00  0.00    -0.000 C 
BRANCH  14  15
ATOM     15  C   UNL     1      33.529  55.941  26.007  1.00  0.00    -0.000 C 
BRANCH  15  16
ATOM     16  C   UNL     1      34.522  57.075  26.304  1.00  0.00    -0.000 C 
BRANCH  16  17
ATOM     17  C   UNL     1      35.544  56.644  27.366  1.00  0.00    -0.000 C 
BRANCH  17  18
ATOM     18  C   UNL     1      35.809  57.736  28.413  1.00  0.00    -0.000 C 
BRANCH  18  19
ATOM     19  C   UNL     1      35.220  57.393  29.789  1.00  0.00    -0.003 C 
ATOM     20  C   UNL     1      35.533  58.484  30.808  1.00  0.00     0.004 C 
ENDBRANCH  18  19
ENDBRANCH  17  18
ENDBRANCH  16  17
ENDBRANCH  15  16
ENDBRANCH  14  15
ENDBRANCH  13  14
ENDBRANCH  12  13
ENDBRANCH   1  12
TORSDOF 16
ENDMDL
MODEL 9
REMARK VINA RESULT:    -4.836      2.151      4.604
REMARK INTER + INTRA:         -11.302
REMARK INTER:                  -9.103
REMARK INTRA:                  -2.199
REMARK UNBOUND:                -1.943
REMARK SMILES CCCCCCCCCCCCCCCCCC(=O)[O-]
REMARK SMILES IDX 10 1 11 2 12 3 13 4 14 5 15 6 16 7 17 8 18 9 19 10 20 11
REMARK SMILES IDX 9 12 8 13 7 14 6 15 5 16 4 17 3 18 2 19 1 20
REMARK H PARENT
REMARK Flexibility Score: inf
ROOT
ATOM      1  C   UNL     1      31.756  55.242  27.734  1.00  0.00     0.000 C 
ENDROOT
BRANCH   1   2
ATOM      2  C   UNL     1      32.612  53.968  27.644  1.00  0.00     0.000 C 
BRANCH   2   3
ATOM      3  C   UNL     1      33.458  53.734  28.906  1.00  0.00     0.000 C 
BRANCH   3   4
ATOM      4  C   UNL     1      33.108  54.705  30.047  1.00  0.00     0.000 C 
BRANCH   4   5
ATOM      5  C   UNL     1      33.531  54.200  31.442  1.00  0.00     0.000 C 
BRANCH   5   6
ATOM      6  C   UNL     1      32.338  53.662  32.249  1.00  0.00     0.000 C 
BRANCH   6   7
ATOM      7  C   UNL     1      32.328  52.127  32.364  1.00  0.00     0.006 C 
BRANCH   7   8
ATOM      8  C   UNL     1      31.705  51.416  31.150  1.00  0.00     0.053 C 
BRANCH   8   9
ATOM      9  C   UNL     1      30.274  51.031  31.377  1.00  0.00     0.041 C 
ATOM     10  O   UNL     1      29.735  51.216  32.500  1.00  0.00    -0.550 OA
ATOM     11  O   UNL     1      29.523  50.500  30.335  1.00  0.00    -0.550 OA
ENDBRANCH   8   9
ENDBRANCH   7   8
ENDBRANCH   6   7
ENDBRANCH   5   6
ENDBRANCH   4   5
ENDBRANCH   3   4
ENDBRANCH   2   3
ENDBRANCH   1   2
BRANCH   1  12
ATOM     12  C   UNL     1      32.088  56.259  26.632  1.00  0.00     0.000 C 
BRANCH  12  13
ATOM     13  C   UNL     1      33.438  55.941  25.977  1.00  0.00    -0.000 C 
BRANCH  13  14
ATOM     14  C   UNL     1      34.470  57.036  26.286  1.00  0.00    -0.000 C 
BRANCH  14  15
ATOM     15  C   UNL     1      35.419  56.650  27.432  1.00  0.00    -0.000 C 
BRANCH  15  16
ATOM     16  C   UNL     1      35.598  57.776  28.461  1.00  0.00    -0.000 C 
BRANCH  16  17
ATOM     17  C   UNL     1      35.765  57.201  29.876  1.00  0.00    -0.000 C 
BRANCH  17  18
ATOM     18  C   UNL     1      34.839  57.871  30.903  1.00  0.00    -0.000 C 
BRANCH  18  19
ATOM     19  C   UNL     1      35.234  57.554  32.353  1.00  0.00    -0.003 C 
ATOM     20  C   UNL     1      34.000  57.359  33.228  1.00  0.00     0.004 C 
ENDBRANCH  18  19
ENDBRANCH  17  18
ENDBRANCH  16  17
ENDBRANCH  15  16
ENDBRANCH  14  15
ENDBRANCH  13  14
ENDBRANCH  12  13
ENDBRANCH   1  12
TORSDOF 16
ENDMDL
