MODEL 1
REMARK VINA RESULT:    -6.547      0.000      0.000
REMARK INTER + INTRA:          -7.733
REMARK INTER:                  -7.504
REMARK INTRA:                  -0.229
REMARK UNBOUND:                -0.229
REMARK SMILES C=C(C)[C@@H]1CC[C@]2(C(=O)[O-])CC[C@@]3(C)[C@H](CC[C@@H]4[C@@]5(C)CC[C@@H](O)C(C)(C)[C@H]5CC[C@]43C)[C@@H]12
REMARK SMILES IDX 7 1 6 2 33 3 11 4 5 5 15 6 4 7 12 8 16 9 13 10 17 11 31 12
REMARK SMILES IDX 14 13 18 14 30 15 32 16 19 17 29 18 21 19 20 20 28 21 22 22
REMARK SMILES IDX 25 23 23 24 26 25 27 26 8 27 9 28 10 29 2 30 3 31 1 32 24 33
REMARK H PARENT 24 34
REMARK Flexibility Score: inf
ROOT
ATOM      1  C   UNL     1      16.402   3.910  32.716  1.00  0.00     0.014 C 
ATOM      2  C   UNL     1      16.449   4.741  34.009  1.00  0.00     0.014 C 
ATOM      3  C   UNL     1      16.847   2.531  33.220  1.00  0.00     0.012 C 
ATOM      4  C   UNL     1      14.988   3.779  32.098  1.00  0.00     0.014 C 
ATOM      5  C   UNL     1      17.727   4.282  34.713  1.00  0.00     0.009 C 
ATOM      6  C   UNL     1      17.110   1.559  32.030  1.00  0.00     0.000 C 
ATOM      7  C   UNL     1      17.975   2.829  34.254  1.00  0.00     0.018 C 
ATOM      8  C   UNL     1      14.641   2.368  31.548  1.00  0.00     0.008 C 
ATOM      9  C   UNL     1      17.702   0.231  32.523  1.00  0.00     0.005 C 
ATOM     10  C   UNL     1      15.829   1.413  31.063  1.00  0.00    -0.024 C 
ATOM     11  C   UNL     1      16.670  -0.704  33.147  1.00  0.00     0.005 C 
ATOM     12  C   UNL     1      15.308  -0.135  30.947  1.00  0.00    -0.024 C 
ATOM     13  C   UNL     1      16.230   1.942  29.657  1.00  0.00     0.012 C 
ATOM     14  C   UNL     1      15.294  -0.769  32.406  1.00  0.00     0.002 C 
ATOM     15  C   UNL     1      13.866  -0.212  30.297  1.00  0.00     0.008 C 
ATOM     16  C   UNL     1      16.185  -1.004  29.976  1.00  0.00     0.012 C 
ATOM     17  C   UNL     1      14.532  -2.163  32.593  1.00  0.00    -0.026 C 
ATOM     18  C   UNL     1      12.799  -0.843  31.182  1.00  0.00     0.005 C 
ATOM     19  C   UNL     1      14.115  -2.300  34.108  1.00  0.00     0.010 C 
ATOM     20  C   UNL     1      15.499  -3.356  32.264  1.00  0.00     0.012 C 
ATOM     21  C   UNL     1      13.242  -2.254  31.657  1.00  0.00     0.003 C 
ATOM     22  C   UNL     1      12.716  -1.764  34.415  1.00  0.00     0.033 C 
ATOM     23  C   UNL     1      12.036  -3.088  32.264  1.00  0.00    -0.006 C 
ATOM     24  C   UNL     1      11.593  -2.519  33.671  1.00  0.00     0.120 C 
ATOM     25  C   UNL     1      12.438  -4.585  32.421  1.00  0.00     0.014 C 
ATOM     26  C   UNL     1      10.828  -3.127  31.273  1.00  0.00     0.014 C 
ENDROOT
BRANCH   1  27
ATOM     27  C   UNL     1      17.357   4.592  31.725  1.00  0.00     0.048 C 
ATOM     28  O   UNL     1      17.107   5.759  31.325  1.00  0.00    -0.550 OA
ATOM     29  O   UNL     1      18.597   4.045  31.409  1.00  0.00    -0.550 OA
ENDBRANCH   1  27
BRANCH   7  30
ATOM     30  C   UNL     1      17.991   1.873  35.449  1.00  0.00    -0.077 C 
ATOM     31  C   UNL     1      16.735   1.150  35.858  1.00  0.00     0.039 C 
ATOM     32  C   UNL     1      19.123   1.607  36.123  1.00  0.00     0.008 C 
ENDBRANCH   7  30
BRANCH  24  33
ATOM     33  O   UNL     1      10.496  -1.641  33.568  1.00  0.00    -0.393 OA
ATOM     34  H   UNL     1       9.697  -2.130  33.882  1.00  0.00     0.210 HD
ENDBRANCH  24  33
TORSDOF 3
ENDMDL
MODEL 2
REMARK VINA RESULT:    -5.663      2.717      6.938
REMARK INTER + INTRA:          -6.720
REMARK INTER:                  -7.076
REMARK INTRA:                   0.357
REMARK UNBOUND:                -0.229
REMARK SMILES C=C(C)[C@@H]1CC[C@]2(C(=O)[O-])CC[C@@]3(C)[C@H](CC[C@@H]4[C@@]5(C)CC[C@@H](O)C(C)(C)[C@H]5CC[C@]43C)[C@@H]12
REMARK SMILES IDX 7 1 6 2 33 3 11 4 5 5 15 6 4 7 12 8 16 9 13 10 17 11 31 12
REMARK SMILES IDX 14 13 18 14 30 15 32 16 19 17 29 18 21 19 20 20 28 21 22 22
REMARK SMILES IDX 25 23 23 24 26 25 27 26 8 27 9 28 10 29 2 30 3 31 1 32 24 33
REMARK H PARENT 24 34
REMARK Flexibility Score: inf
ROOT
ATOM      1  C   UNL     1      13.990  -1.460  34.809  1.00  0.00     0.014 C 
ATOM      2  C   UNL     1      12.594  -0.968  35.227  1.00  0.00     0.014 C 
ATOM      3  C   UNL     1      13.742  -1.886  33.355  1.00  0.00     0.012 C 
ATOM      4  C   UNL     1      15.080  -0.360  34.824  1.00  0.00     0.014 C 
ATOM      5  C   UNL     1      11.630  -1.989  34.619  1.00  0.00     0.009 C 
ATOM      6  C   UNL     1      14.973  -2.652  32.781  1.00  0.00     0.000 C 
ATOM      7  C   UNL     1      12.337  -2.559  33.371  1.00  0.00     0.018 C 
ATOM      8  C   UNL     1      16.068  -0.399  33.624  1.00  0.00     0.008 C 
ATOM      9  C   UNL     1      14.670  -3.213  31.384  1.00  0.00     0.005 C 
ATOM     10  C   UNL     1      16.333  -1.793  32.887  1.00  0.00    -0.024 C 
ATOM     11  C   UNL     1      14.722  -2.162  30.279  1.00  0.00     0.005 C 
ATOM     12  C   UNL     1      17.030  -1.545  31.426  1.00  0.00    -0.024 C 
ATOM     13  C   UNL     1      17.314  -2.566  33.814  1.00  0.00     0.012 C 
ATOM     14  C   UNL     1      15.892  -1.130  30.394  1.00  0.00     0.002 C 
ATOM     15  C   UNL     1      18.144  -0.422  31.501  1.00  0.00     0.008 C 
ATOM     16  C   UNL     1      17.819  -2.798  30.903  1.00  0.00     0.012 C 
ATOM     17  C   UNL     1      16.361  -0.535  28.984  1.00  0.00    -0.026 C 
ATOM     18  C   UNL     1      17.894   0.788  30.609  1.00  0.00     0.005 C 
ATOM     19  C   UNL     1      15.186   0.339  28.400  1.00  0.00     0.010 C 
ATOM     20  C   UNL     1      16.628  -1.702  27.967  1.00  0.00     0.012 C 
ATOM     21  C   UNL     1      17.683   0.348  29.134  1.00  0.00     0.003 C 
ATOM     22  C   UNL     1      15.265   1.817  28.783  1.00  0.00     0.033 C 
ATOM     23  C   UNL     1      17.784   1.570  28.125  1.00  0.00    -0.006 C 
ATOM     24  C   UNL     1      16.529   2.523  28.246  1.00  0.00     0.120 C 
ATOM     25  C   UNL     1      17.895   1.053  26.659  1.00  0.00     0.014 C 
ATOM     26  C   UNL     1      19.112   2.365  28.343  1.00  0.00     0.014 C 
ENDROOT
BRANCH   1  27
ATOM     27  C   UNL     1      14.361  -2.593  35.777  1.00  0.00     0.048 C 
ATOM     28  O   UNL     1      13.483  -3.424  36.125  1.00  0.00    -0.550 OA
ATOM     29  O   UNL     1      15.682  -2.854  36.125  1.00  0.00    -0.550 OA
ENDBRANCH   1  27
BRANCH   7  30
ATOM     30  C   UNL     1      11.510  -2.301  32.109  1.00  0.00    -0.077 C 
ATOM     31  C   UNL     1      11.265  -0.892  31.639  1.00  0.00     0.039 C 
ATOM     32  C   UNL     1      11.037  -3.312  31.359  1.00  0.00     0.008 C 
ENDBRANCH   7  30
BRANCH  24  33
ATOM     33  O   UNL     1      16.779   3.628  29.085  1.00  0.00    -0.393 OA
ATOM     34  H   UNL     1      16.898   3.279  30.001  1.00  0.00     0.210 HD
ENDBRANCH  24  33
TORSDOF 3
ENDMDL
MODEL 3
REMARK VINA RESULT:    -5.510      2.208      7.308
REMARK INTER + INTRA:          -6.544
REMARK INTER:                  -6.077
REMARK INTRA:                  -0.467
REMARK UNBOUND:                -0.229
REMARK SMILES C=C(C)[C@@H]1CC[C@]2(C(=O)[O-])CC[C@@]3(C)[C@H](CC[C@@H]4[C@@]5(C)CC[C@@H](O)C(C)(C)[C@H]5CC[C@]43C)[C@@H]12
REMARK SMILES IDX 7 1 6 2 33 3 11 4 5 5 15 6 4 7 12 8 16 9 13 10 17 11 31 12
REMARK SMILES IDX 14 13 18 14 30 15 32 16 19 17 29 18 21 19 20 20 28 21 22 22
REMARK SMILES IDX 25 23 23 24 26 25 27 26 8 27 9 28 10 29 2 30 3 31 1 32 24 33
REMARK H PARENT 24 34
REMARK Flexibility Score: inf
ROOT
ATOM      1  C   UNL     1      15.360  -3.503  33.043  1.00  0.00     0.014 C 
ATOM      2  C   UNL     1      14.235  -3.895  34.015  1.00  0.00     0.014 C 
ATOM      3  C   UNL     1      14.660  -2.451  32.172  1.00  0.00     0.012 C 
ATOM      4  C   UNL     1      16.586  -2.846  33.724  1.00  0.00     0.014 C 
ATOM      5  C   UNL     1      12.982  -3.973  33.142  1.00  0.00     0.009 C 
ATOM      6  C   UNL     1      15.539  -2.070  30.942  1.00  0.00     0.000 C 
ATOM      7  C   UNL     1      13.216  -3.002  31.965  1.00  0.00     0.018 C 
ATOM      8  C   UNL     1      17.191  -1.636  32.958  1.00  0.00     0.008 C 
ATOM      9  C   UNL     1      14.778  -1.137  29.989  1.00  0.00     0.005 C 
ATOM     10  C   UNL     1      17.004  -1.553  31.372  1.00  0.00    -0.024 C 
ATOM     11  C   UNL     1      14.710   0.308  30.474  1.00  0.00     0.005 C 
ATOM     12  C   UNL     1      17.312  -0.036  30.837  1.00  0.00    -0.024 C 
ATOM     13  C   UNL     1      18.050  -2.542  30.784  1.00  0.00     0.012 C 
ATOM     14  C   UNL     1      16.027   0.861  31.111  1.00  0.00     0.002 C 
ATOM     15  C   UNL     1      18.581   0.582  31.555  1.00  0.00     0.008 C 
ATOM     16  C   UNL     1      17.702   0.009  29.317  1.00  0.00     0.012 C 
ATOM     17  C   UNL     1      16.193   2.446  30.964  1.00  0.00    -0.026 C 
ATOM     18  C   UNL     1      18.311   1.857  32.344  1.00  0.00     0.005 C 
ATOM     19  C   UNL     1      15.072   3.143  31.826  1.00  0.00     0.010 C 
ATOM     20  C   UNL     1      15.970   2.875  29.469  1.00  0.00     0.012 C 
ATOM     21  C   UNL     1      17.637   2.928  31.443  1.00  0.00     0.003 C 
ATOM     22  C   UNL     1      15.504   3.469  33.256  1.00  0.00     0.033 C 
ATOM     23  C   UNL     1      17.672   4.372  32.102  1.00  0.00    -0.006 C 
ATOM     24  C   UNL     1      16.679   4.469  33.328  1.00  0.00     0.120 C 
ATOM     25  C   UNL     1      17.291   5.456  31.049  1.00  0.00     0.014 C 
ATOM     26  C   UNL     1      19.125   4.757  32.529  1.00  0.00     0.014 C 
ENDROOT
BRANCH   1  27
ATOM     27  C   UNL     1      15.778  -4.791  32.318  1.00  0.00     0.048 C 
ATOM     28  O   UNL     1      16.358  -5.704  32.961  1.00  0.00    -0.550 OA
ATOM     29  O   UNL     1      15.357  -5.070  31.022  1.00  0.00    -0.550 OA
ENDBRANCH   1  27
BRANCH   7  30
ATOM     30  C   UNL     1      12.137  -1.918  31.927  1.00  0.00    -0.077 C 
ATOM     31  C   UNL     1      12.098  -0.851  32.989  1.00  0.00     0.039 C 
ATOM     32  C   UNL     1      11.242  -1.849  30.926  1.00  0.00     0.008 C 
ENDBRANCH   7  30
BRANCH  24  33
ATOM     33  O   UNL     1      17.332   4.258  34.559  1.00  0.00    -0.393 OA
ATOM     34  H   UNL     1      17.256   5.095  35.079  1.00  0.00     0.210 HD
ENDBRANCH  24  33
TORSDOF 3
ENDMDL
MODEL 4
REMARK VINA RESULT:    -5.356      2.791      7.153
REMARK INTER + INTRA:          -6.368
REMARK INTER:                  -5.917
REMARK INTRA:                  -0.452
REMARK UNBOUND:                -0.229
REMARK SMILES C=C(C)[C@@H]1CC[C@]2(C(=O)[O-])CC[C@@]3(C)[C@H](CC[C@@H]4[C@@]5(C)CC[C@@H](O)C(C)(C)[C@H]5CC[C@]43C)[C@@H]12
REMARK SMILES IDX 7 1 6 2 33 3 11 4 5 5 15 6 4 7 12 8 16 9 13 10 17 11 31 12
REMARK SMILES IDX 14 13 18 14 30 15 32 16 19 17 29 18 21 19 20 20 28 21 22 22
REMARK SMILES IDX 25 23 23 24 26 25 27 26 8 27 9 28 10 29 2 30 3 31 1 32 24 33
REMARK H PARENT 24 34
REMARK Flexibility Score: inf
ROOT
ATOM      1  C   UNL     1      17.287  -2.991  29.362  1.00  0.00     0.014 C 
ATOM      2  C   UNL     1      17.199  -4.371  30.037  1.00  0.00     0.014 C 
ATOM      3  C   UNL     1      16.095  -2.263  29.999  1.00  0.00     0.012 C 
ATOM      4  C   UNL     1      18.581  -2.206  29.691  1.00  0.00     0.014 C 
ATOM      5  C   UNL     1      15.704  -4.695  30.055  1.00  0.00     0.009 C 
ATOM      6  C   UNL     1      15.829  -0.901  29.288  1.00  0.00     0.000 C 
ATOM      7  C   UNL     1      14.970  -3.338  30.084  1.00  0.00     0.018 C 
ATOM      8  C   UNL     1      18.377  -0.688  29.954  1.00  0.00     0.008 C 
ATOM      9  C   UNL     1      14.547  -0.243  29.820  1.00  0.00     0.005 C 
ATOM     10  C   UNL     1      17.129   0.053  29.284  1.00  0.00    -0.024 C 
ATOM     11  C   UNL     1      14.721   0.424  31.180  1.00  0.00     0.005 C 
ATOM     12  C   UNL     1      16.851   1.489  30.019  1.00  0.00    -0.024 C 
ATOM     13  C   UNL     1      17.541   0.290  27.803  1.00  0.00     0.012 C 
ATOM     14  C   UNL     1      16.058   1.213  31.371  1.00  0.00     0.002 C 
ATOM     15  C   UNL     1      18.205   2.255  30.320  1.00  0.00     0.008 C 
ATOM     16  C   UNL     1      16.062   2.499  29.113  1.00  0.00     0.012 C 
ATOM     17  C   UNL     1      15.945   2.420  32.415  1.00  0.00    -0.026 C 
ATOM     18  C   UNL     1      18.462   2.544  31.793  1.00  0.00     0.005 C 
ATOM     19  C   UNL     1      15.696   1.813  33.849  1.00  0.00     0.010 C 
ATOM     20  C   UNL     1      14.707   3.322  32.067  1.00  0.00     0.012 C 
ATOM     21  C   UNL     1      17.267   3.315  32.418  1.00  0.00     0.003 C 
ATOM     22  C   UNL     1      16.976   1.557  34.644  1.00  0.00     0.033 C 
ATOM     23  C   UNL     1      17.636   3.953  33.825  1.00  0.00    -0.006 C 
ATOM     24  C   UNL     1      17.781   2.842  34.940  1.00  0.00     0.120 C 
ATOM     25  C   UNL     1      16.543   4.974  34.259  1.00  0.00     0.014 C 
ATOM     26  C   UNL     1      18.936   4.815  33.724  1.00  0.00     0.014 C 
ENDROOT
BRANCH   1  27
ATOM     27  C   UNL     1      17.181  -3.238  27.850  1.00  0.00     0.048 C 
ATOM     28  O   UNL     1      17.953  -4.065  27.301  1.00  0.00    -0.550 OA
ATOM     29  O   UNL     1      16.126  -2.729  27.099  1.00  0.00    -0.550 OA
ENDBRANCH   1  27
BRANCH   7  30
ATOM     30  C   UNL     1      14.090  -3.218  31.330  1.00  0.00    -0.077 C 
ATOM     31  C   UNL     1      14.716  -3.004  32.682  1.00  0.00     0.039 C 
ATOM     32  C   UNL     1      12.748  -3.240  31.249  1.00  0.00     0.008 C 
ENDBRANCH   7  30
BRANCH  24  33
ATOM     33  O   UNL     1      19.122   2.458  35.138  1.00  0.00    -0.393 OA
ATOM     34  H   UNL     1      19.211   2.178  36.081  1.00  0.00     0.210 HD
ENDBRANCH  24  33
TORSDOF 3
ENDMDL
MODEL 5
REMARK VINA RESULT:    -5.134      2.315      7.111
REMARK INTER + INTRA:          -6.114
REMARK INTER:                  -5.659
REMARK INTRA:                  -0.455
REMARK UNBOUND:                -0.229
REMARK SMILES C=C(C)[C@@H]1CC[C@]2(C(=O)[O-])CC[C@@]3(C)[C@H](CC[C@@H]4[C@@]5(C)CC[C@@H](O)C(C)(C)[C@H]5CC[C@]43C)[C@@H]12
REMARK SMILES IDX 7 1 6 2 33 3 11 4 5 5 15 6 4 7 12 8 16 9 13 10 17 11 31 12
REMARK SMILES IDX 14 13 18 14 30 15 32 16 19 17 29 18 21 19 20 20 28 21 22 22
REMARK SMILES IDX 25 23 23 24 26 25 27 26 8 27 9 28 10 29 2 30 3 31 1 32 24 33
REMARK H PARENT 24 34
REMARK Flexibility Score: inf
ROOT
ATOM      1  C   UNL     1      15.453  -3.243  34.763  1.00  0.00     0.014 C 
ATOM      2  C   UNL     1      14.506  -3.054  35.960  1.00  0.00     0.014 C 
ATOM      3  C   UNL     1      14.605  -2.688  33.611  1.00  0.00     0.012 C 
ATOM      4  C   UNL     1      16.762  -2.421  34.856  1.00  0.00     0.014 C 
ATOM      5  C   UNL     1      13.129  -3.457  35.428  1.00  0.00     0.009 C 
ATOM      6  C   UNL     1      15.268  -2.993  32.233  1.00  0.00     0.000 C 
ATOM      7  C   UNL     1      13.156  -3.178  33.910  1.00  0.00     0.018 C 
ATOM      8  C   UNL     1      17.217  -1.761  33.524  1.00  0.00     0.008 C 
ATOM      9  C   UNL     1      14.350  -2.577  31.075  1.00  0.00     0.005 C 
ATOM     10  C   UNL     1      16.775  -2.428  32.140  1.00  0.00    -0.024 C 
ATOM     11  C   UNL     1      14.338  -1.074  30.814  1.00  0.00     0.005 C 
ATOM     12  C   UNL     1      16.969  -1.369  30.906  1.00  0.00    -0.024 C 
ATOM     13  C   UNL     1      17.728  -3.641  31.948  1.00  0.00     0.012 C 
ATOM     14  C   UNL     1      15.732  -0.370  30.905  1.00  0.00     0.002 C 
ATOM     15  C   UNL     1      18.328  -0.567  31.042  1.00  0.00     0.008 C 
ATOM     16  C   UNL     1      17.109  -2.075  29.510  1.00  0.00     0.012 C 
ATOM     17  C   UNL     1      15.847   0.941  29.995  1.00  0.00    -0.026 C 
ATOM     18  C   UNL     1      18.169   0.944  31.155  1.00  0.00     0.005 C 
ATOM     19  C   UNL     1      14.869   2.034  30.574  1.00  0.00     0.010 C 
ATOM     20  C   UNL     1      15.379   0.624  28.529  1.00  0.00     0.012 C 
ATOM     21  C   UNL     1      17.342   1.501  29.964  1.00  0.00     0.003 C 
ATOM     22  C   UNL     1      15.521   2.971  31.592  1.00  0.00     0.033 C 
ATOM     23  C   UNL     1      17.460   3.079  29.838  1.00  0.00    -0.006 C 
ATOM     24  C   UNL     1      16.677   3.809  31.001  1.00  0.00     0.120 C 
ATOM     25  C   UNL     1      16.898   3.556  28.465  1.00  0.00     0.014 C 
ATOM     26  C   UNL     1      18.957   3.527  29.807  1.00  0.00     0.014 C 
ENDROOT
BRANCH   1  27
ATOM     27  C   UNL     1      15.768  -4.744  34.690  1.00  0.00     0.048 C 
ATOM     28  O   UNL     1      16.367  -5.300  35.647  1.00  0.00    -0.550 OA
ATOM     29  O   UNL     1      15.237  -5.555  33.693  1.00  0.00    -0.550 OA
ENDBRANCH   1  27
BRANCH   7  30
ATOM     30  C   UNL     1      12.068  -2.175  33.520  1.00  0.00    -0.077 C 
ATOM     31  C   UNL     1      10.853  -2.633  32.757  1.00  0.00     0.039 C 
ATOM     32  C   UNL     1      12.133  -0.885  33.893  1.00  0.00     0.008 C 
ENDBRANCH   7  30
BRANCH  24  33
ATOM     33  O   UNL     1      17.523   4.166  32.070  1.00  0.00    -0.393 OA
ATOM     34  H   UNL     1      18.147   4.853  31.734  1.00  0.00     0.210 HD
ENDBRANCH  24  33
TORSDOF 3
ENDMDL
MODEL 6
REMARK VINA RESULT:    -4.968      2.257      7.157
REMARK INTER + INTRA:          -5.923
REMARK INTER:                  -5.655
REMARK INTRA:                  -0.268
REMARK UNBOUND:                -0.229
REMARK SMILES C=C(C)[C@@H]1CC[C@]2(C(=O)[O-])CC[C@@]3(C)[C@H](CC[C@@H]4[C@@]5(C)CC[C@@H](O)C(C)(C)[C@H]5CC[C@]43C)[C@@H]12
REMARK SMILES IDX 7 1 6 2 33 3 11 4 5 5 15 6 4 7 12 8 16 9 13 10 17 11 31 12
REMARK SMILES IDX 14 13 18 14 30 15 32 16 19 17 29 18 21 19 20 20 28 21 22 22
REMARK SMILES IDX 25 23 23 24 26 25 27 26 8 27 9 28 10 29 2 30 3 31 1 32 24 33
REMARK H PARENT 24 34
REMARK Flexibility Score: inf
ROOT
ATOM      1  C   UNL     1      12.909  -2.370  33.577  1.00  0.00     0.014 C 
ATOM      2  C   UNL     1      11.850  -3.291  32.950  1.00  0.00     0.014 C 
ATOM      3  C   UNL     1      14.168  -2.775  32.798  1.00  0.00     0.012 C 
ATOM      4  C   UNL     1      12.650  -0.859  33.350  1.00  0.00     0.014 C 
ATOM      5  C   UNL     1      12.556  -4.639  32.794  1.00  0.00     0.009 C 
ATOM      6  C   UNL     1      15.444  -2.136  33.426  1.00  0.00     0.000 C 
ATOM      7  C   UNL     1      14.059  -4.322  32.641  1.00  0.00     0.018 C 
ATOM      8  C   UNL     1      13.915  -0.021  33.012  1.00  0.00     0.008 C 
ATOM      9  C   UNL     1      16.716  -2.662  32.745  1.00  0.00     0.005 C 
ATOM     10  C   UNL     1      15.341  -0.531  33.525  1.00  0.00    -0.024 C 
ATOM     11  C   UNL     1      16.986  -2.027  31.384  1.00  0.00     0.005 C 
ATOM     12  C   UNL     1      16.546   0.223  32.712  1.00  0.00    -0.024 C 
ATOM     13  C   UNL     1      15.396  -0.141  35.030  1.00  0.00     0.012 C 
ATOM     14  C   UNL     1      16.716  -0.489  31.300  1.00  0.00     0.002 C 
ATOM     15  C   UNL     1      16.236   1.764  32.520  1.00  0.00     0.008 C 
ATOM     16  C   UNL     1      17.905   0.226  33.496  1.00  0.00     0.012 C 
ATOM     17  C   UNL     1      17.613   0.258  30.204  1.00  0.00    -0.026 C 
ATOM     18  C   UNL     1      16.156   2.224  31.070  1.00  0.00     0.005 C 
ATOM     19  C   UNL     1      17.175  -0.249  28.777  1.00  0.00     0.010 C 
ATOM     20  C   UNL     1      19.125  -0.122  30.393  1.00  0.00     0.012 C 
ATOM     21  C   UNL     1      17.450   1.843  30.300  1.00  0.00     0.003 C 
ATOM     22  C   UNL     1      16.086   0.604  28.124  1.00  0.00     0.033 C 
ATOM     23  C   UNL     1      17.569   2.609  28.914  1.00  0.00    -0.006 C 
ATOM     24  C   UNL     1      16.525   2.062  27.861  1.00  0.00     0.120 C 
ATOM     25  C   UNL     1      19.007   2.458  28.335  1.00  0.00     0.014 C 
ATOM     26  C   UNL     1      17.406   4.151  29.112  1.00  0.00     0.014 C 
ENDROOT
BRANCH   1  27
ATOM     27  C   UNL     1      12.930  -2.689  35.079  1.00  0.00     0.048 C 
ATOM     28  O   UNL     1      13.793  -3.484  35.533  1.00  0.00    -0.550 OA
ATOM     29  O   UNL     1      12.158  -1.974  35.989  1.00  0.00    -0.550 OA
ENDBRANCH   1  27
BRANCH   7  30
ATOM     30  C   UNL     1      14.597  -4.851  31.310  1.00  0.00    -0.077 C 
ATOM     31  C   UNL     1      15.461  -6.083  31.278  1.00  0.00     0.039 C 
ATOM     32  C   UNL     1      14.268  -4.276  30.139  1.00  0.00     0.008 C 
ENDBRANCH   7  30
BRANCH  24  33
ATOM     33  O   UNL     1      15.356   2.847  27.813  1.00  0.00    -0.393 OA
ATOM     34  H   UNL     1      15.119   2.963  26.861  1.00  0.00     0.210 HD
ENDBRANCH  24  33
TORSDOF 3
ENDMDL
MODEL 7
REMARK VINA RESULT:    -4.762      1.965      7.355
REMARK INTER + INTRA:          -5.687
REMARK INTER:                  -5.237
REMARK INTRA:                  -0.450
REMARK UNBOUND:                -0.229
REMARK SMILES C=C(C)[C@@H]1CC[C@]2(C(=O)[O-])CC[C@@]3(C)[C@H](CC[C@@H]4[C@@]5(C)CC[C@@H](O)C(C)(C)[C@H]5CC[C@]43C)[C@@H]12
REMARK SMILES IDX 7 1 6 2 33 3 11 4 5 5 15 6 4 7 12 8 16 9 13 10 17 11 31 12
REMARK SMILES IDX 14 13 18 14 30 15 32 16 19 17 29 18 21 19 20 20 28 21 22 22
REMARK SMILES IDX 25 23 23 24 26 25 27 26 8 27 9 28 10 29 2 30 3 31 1 32 24 33
REMARK H PARENT 24 34
REMARK Flexibility Score: inf
ROOT
ATOM      1  C   UNL     1      14.082  -3.269  31.288  1.00  0.00     0.014 C 
ATOM      2  C   UNL     1      14.280  -4.257  30.126  1.00  0.00     0.014 C 
ATOM      3  C   UNL     1      15.533  -2.991  31.704  1.00  0.00     0.012 C 
ATOM      4  C   UNL     1      13.420  -1.931  30.876  1.00  0.00     0.014 C 
ATOM      5  C   UNL     1      15.395  -5.190  30.600  1.00  0.00     0.009 C 
ATOM      6  C   UNL     1      15.587  -2.187  33.038  1.00  0.00     0.000 C 
ATOM      7  C   UNL     1      16.253  -4.369  31.587  1.00  0.00     0.018 C 
ATOM      8  C   UNL     1      14.032  -0.665  31.538  1.00  0.00     0.008 C 
ATOM      9  C   UNL     1      17.032  -2.041  33.536  1.00  0.00     0.005 C 
ATOM     10  C   UNL     1      14.756  -0.808  32.957  1.00  0.00    -0.024 C 
ATOM     11  C   UNL     1      17.833  -0.981  32.786  1.00  0.00     0.005 C 
ATOM     12  C   UNL     1      15.690   0.502  33.259  1.00  0.00    -0.024 C 
ATOM     13  C   UNL     1      13.603  -0.885  33.998  1.00  0.00     0.012 C 
ATOM     14  C   UNL     1      17.056   0.336  32.461  1.00  0.00     0.002 C 
ATOM     15  C   UNL     1      14.959   1.842  32.832  1.00  0.00     0.008 C 
ATOM     16  C   UNL     1      15.966   0.717  34.789  1.00  0.00     0.012 C 
ATOM     17  C   UNL     1      18.000   1.624  32.345  1.00  0.00    -0.026 C 
ATOM     18  C   UNL     1      15.688   2.657  31.771  1.00  0.00     0.005 C 
ATOM     19  C   UNL     1      18.924   1.448  31.081  1.00  0.00     0.010 C 
ATOM     20  C   UNL     1      18.937   1.721  33.602  1.00  0.00     0.012 C 
ATOM     21  C   UNL     1      17.143   2.966  32.219  1.00  0.00     0.003 C 
ATOM     22  C   UNL     1      18.345   2.050  29.801  1.00  0.00     0.033 C 
ATOM     23  C   UNL     1      17.813   4.102  31.335  1.00  0.00    -0.006 C 
ATOM     24  C   UNL     1      18.144   3.580  29.880  1.00  0.00     0.120 C 
ATOM     25  C   UNL     1      19.125   4.607  32.007  1.00  0.00     0.014 C 
ATOM     26  C   UNL     1      16.907   5.374  31.279  1.00  0.00     0.014 C 
ENDROOT
BRANCH   1  27
ATOM     27  C   UNL     1      13.221  -3.993  32.333  1.00  0.00     0.048 C 
ATOM     28  O   UNL     1      11.985  -4.122  32.137  1.00  0.00    -0.550 OA
ATOM     29  O   UNL     1      13.791  -4.688  33.395  1.00  0.00    -0.550 OA
ENDBRANCH   1  27
BRANCH   7  30
ATOM     30  C   UNL     1      17.702  -4.274  31.106  1.00  0.00    -0.077 C 
ATOM     31  C   UNL     1      18.056  -3.392  29.938  1.00  0.00     0.039 C 
ATOM     32  C   UNL     1      18.698  -4.919  31.739  1.00  0.00     0.008 C 
ENDBRANCH   7  30
BRANCH  24  33
ATOM     33  O   UNL     1      17.137   3.917  28.953  1.00  0.00    -0.393 OA
ATOM     34  H   UNL     1      17.421   3.570  28.072  1.00  0.00     0.210 HD
ENDBRANCH  24  33
TORSDOF 3
ENDMDL
MODEL 8
REMARK VINA RESULT:    -4.587      2.431      4.310
REMARK INTER + INTRA:          -5.486
REMARK INTER:                  -5.160
REMARK INTRA:                  -0.327
REMARK UNBOUND:                -0.229
REMARK SMILES C=C(C)[C@@H]1CC[C@]2(C(=O)[O-])CC[C@@]3(C)[C@H](CC[C@@H]4[C@@]5(C)CC[C@@H](O)C(C)(C)[C@H]5CC[C@]43C)[C@@H]12
REMARK SMILES IDX 7 1 6 2 33 3 11 4 5 5 15 6 4 7 12 8 16 9 13 10 17 11 31 12
REMARK SMILES IDX 14 13 18 14 30 15 32 16 19 17 29 18 21 19 20 20 28 21 22 22
REMARK SMILES IDX 25 23 23 24 26 25 27 26 8 27 9 28 10 29 2 30 3 31 1 32 24 33
REMARK H PARENT 24 34
REMARK Flexibility Score: inf
ROOT
ATOM      1  C   UNL     1      16.920   0.985  28.170  1.00  0.00     0.014 C 
ATOM      2  C   UNL     1      15.969   2.120  27.754  1.00  0.00     0.014 C 
ATOM      3  C   UNL     1      16.961   1.162  29.694  1.00  0.00     0.012 C 
ATOM      4  C   UNL     1      16.389  -0.435  27.850  1.00  0.00     0.014 C 
ATOM      5  C   UNL     1      16.384   3.307  28.626  1.00  0.00     0.009 C 
ATOM      6  C   UNL     1      18.062   0.262  30.331  1.00  0.00     0.000 C 
ATOM      7  C   UNL     1      16.983   2.705  29.915  1.00  0.00     0.018 C 
ATOM      8  C   UNL     1      16.638  -1.493  28.962  1.00  0.00     0.008 C 
ATOM      9  C   UNL     1      18.210   0.551  31.832  1.00  0.00     0.005 C 
ATOM     10  C   UNL     1      17.875  -1.294  29.955  1.00  0.00    -0.024 C 
ATOM     11  C   UNL     1      17.110  -0.073  32.685  1.00  0.00     0.005 C 
ATOM     12  C   UNL     1      17.703  -2.240  31.281  1.00  0.00    -0.024 C 
ATOM     13  C   UNL     1      19.125  -1.744  29.146  1.00  0.00     0.012 C 
ATOM     14  C   UNL     1      16.691  -1.523  32.278  1.00  0.00     0.002 C 
ATOM     15  C   UNL     1      17.171  -3.682  30.896  1.00  0.00     0.008 C 
ATOM     16  C   UNL     1      19.065  -2.541  32.000  1.00  0.00     0.012 C 
ATOM     17  C   UNL     1      16.121  -2.391  33.496  1.00  0.00    -0.026 C 
ATOM     18  C   UNL     1      15.839  -4.062  31.529  1.00  0.00     0.005 C 
ATOM     19  C   UNL     1      14.756  -1.755  33.962  1.00  0.00     0.010 C 
ATOM     20  C   UNL     1      17.110  -2.325  34.715  1.00  0.00     0.012 C 
ATOM     21  C   UNL     1      15.903  -3.916  33.075  1.00  0.00     0.003 C 
ATOM     22  C   UNL     1      13.529  -2.351  33.273  1.00  0.00     0.033 C 
ATOM     23  C   UNL     1      14.687  -4.638  33.796  1.00  0.00    -0.006 C 
ATOM     24  C   UNL     1      13.333  -3.856  33.563  1.00  0.00     0.120 C 
ATOM     25  C   UNL     1      14.956  -4.751  35.326  1.00  0.00     0.014 C 
ATOM     26  C   UNL     1      14.561  -6.123  33.326  1.00  0.00     0.014 C 
ENDROOT
BRANCH   1  27
ATOM     27  C   UNL     1      18.246   1.237  27.438  1.00  0.00     0.048 C 
ATOM     28  O   UNL     1      18.515   0.582  26.398  1.00  0.00    -0.550 OA
ATOM     29  O   UNL     1      19.072   2.307  27.769  1.00  0.00    -0.550 OA
ENDBRANCH   1  27
BRANCH   7  30
ATOM     30  C   UNL     1      16.203   3.167  31.148  1.00  0.00    -0.077 C 
ATOM     31  C   UNL     1      16.734   4.286  32.005  1.00  0.00     0.039 C 
ATOM     32  C   UNL     1      15.008   2.638  31.465  1.00  0.00     0.008 C 
ENDBRANCH   7  30
BRANCH  24  33
ATOM     33  O   UNL     1      12.585  -4.392  32.496  1.00  0.00    -0.393 OA
ATOM     34  H   UNL     1      13.159  -4.367  31.692  1.00  0.00     0.210 HD
ENDBRANCH  24  33
TORSDOF 3
ENDMDL
