MODEL 1
REMARK VINA RESULT:    -3.414      0.000      0.000
REMARK INTER + INTRA:          -3.957
REMARK INTER:                  -3.913
REMARK INTRA:                  -0.043
REMARK UNBOUND:                -0.043
REMARK SMILES CC(C)[C@H]([NH3+])C(=O)[O-]
REMARK SMILES IDX 4 1 5 2 6 6 7 7 8 8 2 9 1 10 3 11
REMARK H PARENT 5 3 5 4 5 5
REMARK Flexibility Score: inf
ROOT
ATOM      1  C   UNL     1      14.189   9.706  32.750  1.00  0.00     0.230 C 
ENDROOT
BRANCH   1   2
ATOM      2  N   UNL     1      14.576   8.334  32.384  1.00  0.00    -0.350 N 
ATOM      3  H   UNL     1      14.607   8.234  31.343  1.00  0.00     0.345 HD
ATOM      4  H   UNL     1      13.867   7.652  32.738  1.00  0.00     0.345 HD
ATOM      5  H   UNL     1      15.516   8.098  32.777  1.00  0.00     0.345 HD
ENDBRANCH   1   2
BRANCH   1   6
ATOM      6  C   UNL     1      14.767  10.040  34.103  1.00  0.00     0.099 C 
ATOM      7  O   UNL     1      14.350  11.044  34.739  1.00  0.00    -0.544 OA
ATOM      8  O   UNL     1      15.760   9.243  34.657  1.00  0.00    -0.544 OA
ENDBRANCH   1   6
BRANCH   1   9
ATOM      9  C   UNL     1      12.640   9.891  32.750  1.00  0.00     0.047 C 
ATOM     10  C   UNL     1      12.227  11.125  31.929  1.00  0.00     0.014 C 
ATOM     11  C   UNL     1      11.915   8.653  32.196  1.00  0.00     0.014 C 
ENDBRANCH   1   9
TORSDOF 3
ENDMDL
MODEL 2
REMARK VINA RESULT:    -3.262     14.655     15.643
REMARK INTER + INTRA:          -3.782
REMARK INTER:                  -3.727
REMARK INTRA:                  -0.056
REMARK UNBOUND:                -0.043
REMARK SMILES CC(C)[C@H]([NH3+])C(=O)[O-]
REMARK SMILES IDX 4 1 5 2 6 6 7 7 8 8 2 9 1 10 3 11
REMARK H PARENT 5 3 5 4 5 5
REMARK Flexibility Score: inf
ROOT
ATOM      1  C   UNL     1      27.926   7.141  27.809  1.00  0.00     0.230 C 
ENDROOT
BRANCH   1   2
ATOM      2  N   UNL     1      26.755   7.812  27.222  1.00  0.00    -0.350 N 
ATOM      3  H   UNL     1      26.400   8.551  27.873  1.00  0.00     0.345 HD
ATOM      4  H   UNL     1      25.978   7.126  27.082  1.00  0.00     0.345 HD
ATOM      5  H   UNL     1      27.002   8.255  26.307  1.00  0.00     0.345 HD
ENDBRANCH   1   2
BRANCH   1   6
ATOM      6  C   UNL     1      28.263   5.922  26.984  1.00  0.00     0.099 C 
ATOM      7  O   UNL     1      27.411   5.008  26.827  1.00  0.00    -0.544 OA
ATOM      8  O   UNL     1      29.514   5.802  26.392  1.00  0.00    -0.544 OA
ENDBRANCH   1   6
BRANCH   1   9
ATOM      9  C   UNL     1      27.684   6.750  29.299  1.00  0.00     0.047 C 
ATOM     10  C   UNL     1      28.992   6.807  30.108  1.00  0.00     0.014 C 
ATOM     11  C   UNL     1      26.639   7.658  29.968  1.00  0.00     0.014 C 
ENDBRANCH   1   9
TORSDOF 3
ENDMDL
MODEL 3
REMARK VINA RESULT:    -3.257     14.457     15.316
REMARK INTER + INTRA:          -3.776
REMARK INTER:                  -3.717
REMARK INTRA:                  -0.059
REMARK UNBOUND:                -0.043
REMARK SMILES CC(C)[C@H]([NH3+])C(=O)[O-]
REMARK SMILES IDX 4 1 5 2 6 6 7 7 8 8 2 9 1 10 3 11
REMARK H PARENT 5 3 5 4 5 5
REMARK Flexibility Score: inf
ROOT
ATOM      1  C   UNL     1      28.060   7.020  28.368  1.00  0.00     0.230 C 
ENDROOT
BRANCH   1   2
ATOM      2  N   UNL     1      27.654   5.966  29.312  1.00  0.00    -0.350 N 
ATOM      3  H   UNL     1      27.165   5.196  28.801  1.00  0.00     0.345 HD
ATOM      4  H   UNL     1      26.979   6.349  30.012  1.00  0.00     0.345 HD
ATOM      5  H   UNL     1      28.487   5.571  29.807  1.00  0.00     0.345 HD
ENDBRANCH   1   2
BRANCH   1   6
ATOM      6  C   UNL     1      27.041   8.133  28.399  1.00  0.00     0.099 C 
ATOM      7  O   UNL     1      26.866   8.859  27.385  1.00  0.00    -0.544 OA
ATOM      8  O   UNL     1      26.289   8.362  29.544  1.00  0.00    -0.544 OA
ENDBRANCH   1   6
BRANCH   1   9
ATOM      9  C   UNL     1      28.231   6.468  26.920  1.00  0.00     0.047 C 
ATOM     10  C   UNL     1      29.716   6.258  26.575  1.00  0.00     0.014 C 
ATOM     11  C   UNL     1      27.476   5.142  26.719  1.00  0.00     0.014 C 
ENDBRANCH   1   9
TORSDOF 3
ENDMDL
MODEL 4
REMARK VINA RESULT:    -3.244     14.723     15.639
REMARK INTER + INTRA:          -3.761
REMARK INTER:                  -3.711
REMARK INTRA:                  -0.050
REMARK UNBOUND:                -0.043
REMARK SMILES CC(C)[C@H]([NH3+])C(=O)[O-]
REMARK SMILES IDX 4 1 5 2 6 6 7 7 8 8 2 9 1 10 3 11
REMARK H PARENT 5 3 5 4 5 5
REMARK Flexibility Score: inf
ROOT
ATOM      1  C   UNL     1      27.676   7.187  27.836  1.00  0.00     0.230 C 
ENDROOT
BRANCH   1   2
ATOM      2  N   UNL     1      28.315   8.442  27.407  1.00  0.00    -0.350 N 
ATOM      3  H   UNL     1      28.973   8.258  26.615  1.00  0.00     0.345 HD
ATOM      4  H   UNL     1      28.880   8.845  28.189  1.00  0.00     0.345 HD
ATOM      5  H   UNL     1      27.596   9.137  27.099  1.00  0.00     0.345 HD
ENDBRANCH   1   2
BRANCH   1   6
ATOM      6  C   UNL     1      27.691   7.113  29.343  1.00  0.00     0.099 C 
ATOM      7  O   UNL     1      28.751   6.807  29.951  1.00  0.00    -0.544 OA
ATOM      8  O   UNL     1      26.539   7.383  30.070  1.00  0.00    -0.544 OA
ENDBRANCH   1   6
BRANCH   1   9
ATOM      9  C   UNL     1      28.374   5.939  27.214  1.00  0.00     0.047 C 
ATOM     10  C   UNL     1      27.400   5.141  26.329  1.00  0.00     0.014 C 
ATOM     11  C   UNL     1      29.607   6.327  26.381  1.00  0.00     0.014 C 
ENDBRANCH   1   9
TORSDOF 3
ENDMDL
MODEL 5
REMARK VINA RESULT:    -3.114      2.108      3.406
REMARK INTER + INTRA:          -3.613
REMARK INTER:                  -3.601
REMARK INTRA:                  -0.012
REMARK UNBOUND:                -0.043
REMARK SMILES CC(C)[C@H]([NH3+])C(=O)[O-]
REMARK SMILES IDX 4 1 5 2 6 6 7 7 8 8 2 9 1 10 3 11
REMARK H PARENT 5 3 5 4 5 5
REMARK Flexibility Score: inf
ROOT
ATOM      1  C   UNL     1      13.975   9.126  33.057  1.00  0.00     0.230 C 
ENDROOT
BRANCH   1   2
ATOM      2  N   UNL     1      14.724   8.298  32.098  1.00  0.00    -0.350 N 
ATOM      3  H   UNL     1      14.409   8.504  31.122  1.00  0.00     0.345 HD
ATOM      4  H   UNL     1      14.539   7.284  32.274  1.00  0.00     0.345 HD
ATOM      5  H   UNL     1      15.751   8.486  32.171  1.00  0.00     0.345 HD
ENDBRANCH   1   2
BRANCH   1   6
ATOM      6  C   UNL     1      12.658   9.532  32.439  1.00  0.00     0.099 C 
ATOM      7  O   UNL     1      11.901   8.662  31.934  1.00  0.00    -0.544 OA
ATOM      8  O   UNL     1      12.273  10.866  32.427  1.00  0.00    -0.544 OA
ENDBRANCH   1   6
BRANCH   1   9
ATOM      9  C   UNL     1      14.787  10.381  33.499  1.00  0.00     0.047 C 
ATOM     10  C   UNL     1      15.679  10.068  34.713  1.00  0.00     0.014 C 
ATOM     11  C   UNL     1      15.664  10.928  32.358  1.00  0.00     0.014 C 
ENDBRANCH   1   9
TORSDOF 3
ENDMDL
MODEL 6
REMARK VINA RESULT:    -3.110     14.687     15.624
REMARK INTER + INTRA:          -3.607
REMARK INTER:                  -3.530
REMARK INTRA:                  -0.077
REMARK UNBOUND:                -0.043
REMARK SMILES CC(C)[C@H]([NH3+])C(=O)[O-]
REMARK SMILES IDX 4 1 5 2 6 6 7 7 8 8 2 9 1 10 3 11
REMARK H PARENT 5 3 5 4 5 5
REMARK Flexibility Score: inf
ROOT
ATOM      1  C   UNL     1      27.827   6.778  27.996  1.00  0.00     0.230 C 
ENDROOT
BRANCH   1   2
ATOM      2  N   UNL     1      26.993   6.655  26.791  1.00  0.00    -0.350 N 
ATOM      3  H   UNL     1      27.332   7.310  26.049  1.00  0.00     0.345 HD
ATOM      4  H   UNL     1      26.005   6.920  27.007  1.00  0.00     0.345 HD
ATOM      5  H   UNL     1      27.021   5.677  26.419  1.00  0.00     0.345 HD
ENDBRANCH   1   2
BRANCH   1   6
ATOM      6  C   UNL     1      27.167   7.733  28.961  1.00  0.00     0.099 C 
ATOM      7  O   UNL     1      26.975   8.933  28.632  1.00  0.00    -0.544 OA
ATOM      8  O   UNL     1      26.766   7.293  30.216  1.00  0.00    -0.544 OA
ENDBRANCH   1   6
BRANCH   1   9
ATOM      9  C   UNL     1      29.274   7.251  27.655  1.00  0.00     0.047 C 
ATOM     10  C   UNL     1      30.149   7.323  28.918  1.00  0.00     0.014 C 
ATOM     11  C   UNL     1      29.951   6.328  26.627  1.00  0.00     0.014 C 
ENDBRANCH   1   9
TORSDOF 3
ENDMDL
MODEL 7
REMARK VINA RESULT:    -3.083     15.698     16.317
REMARK INTER + INTRA:          -3.576
REMARK INTER:                  -3.517
REMARK INTRA:                  -0.059
REMARK UNBOUND:                -0.043
REMARK SMILES CC(C)[C@H]([NH3+])C(=O)[O-]
REMARK SMILES IDX 4 1 5 2 6 6 7 7 8 8 2 9 1 10 3 11
REMARK H PARENT 5 3 5 4 5 5
REMARK Flexibility Score: inf
ROOT
ATOM      1  C   UNL     1      28.147   6.975  27.868  1.00  0.00     0.230 C 
ENDROOT
BRANCH   1   2
ATOM      2  N   UNL     1      26.980   7.740  27.400  1.00  0.00    -0.350 N 
ATOM      3  H   UNL     1      26.886   7.653  26.362  1.00  0.00     0.345 HD
ATOM      4  H   UNL     1      27.104   8.756  27.614  1.00  0.00     0.345 HD
ATOM      5  H   UNL     1      26.103   7.391  27.852  1.00  0.00     0.345 HD
ENDBRANCH   1   2
BRANCH   1   6
ATOM      6  C   UNL     1      29.262   7.933  28.214  1.00  0.00     0.099 C 
ATOM      7  O   UNL     1      29.157   9.155  27.930  1.00  0.00    -0.544 OA
ATOM      8  O   UNL     1      30.408   7.473  28.849  1.00  0.00    -0.544 OA
ENDBRANCH   1   6
BRANCH   1   9
ATOM      9  C   UNL     1      28.623   5.935  26.808  1.00  0.00     0.047 C 
ATOM     10  C   UNL     1      27.462   5.031  26.357  1.00  0.00     0.014 C 
ATOM     11  C   UNL     1      29.240   6.615  25.574  1.00  0.00     0.014 C 
ENDBRANCH   1   9
TORSDOF 3
ENDMDL
MODEL 8
REMARK VINA RESULT:    -3.038     14.214     15.083
REMARK INTER + INTRA:          -3.525
REMARK INTER:                  -3.448
REMARK INTRA:                  -0.076
REMARK UNBOUND:                -0.043
REMARK SMILES CC(C)[C@H]([NH3+])C(=O)[O-]
REMARK SMILES IDX 4 1 5 2 6 6 7 7 8 8 2 9 1 10 3 11
REMARK H PARENT 5 3 5 4 5 5
REMARK Flexibility Score: inf
ROOT
ATOM      1  C   UNL     1      27.515   7.192  28.759  1.00  0.00     0.230 C 
ENDROOT
BRANCH   1   2
ATOM      2  N   UNL     1      27.654   6.717  30.145  1.00  0.00    -0.350 N 
ATOM      3  H   UNL     1      27.394   5.705  30.206  1.00  0.00     0.345 HD
ATOM      4  H   UNL     1      27.004   7.241  30.773  1.00  0.00     0.345 HD
ATOM      5  H   UNL     1      28.638   6.836  30.480  1.00  0.00     0.345 HD
ENDBRANCH   1   2
BRANCH   1   6
ATOM      6  C   UNL     1      28.831   7.017  28.040  1.00  0.00     0.099 C 
ATOM      7  O   UNL     1      28.927   6.205  27.082  1.00  0.00    -0.544 OA
ATOM      8  O   UNL     1      29.944   7.752  28.428  1.00  0.00    -0.544 OA
ENDBRANCH   1   6
BRANCH   1   9
ATOM      9  C   UNL     1      27.047   8.678  28.699  1.00  0.00     0.047 C 
ATOM     10  C   UNL     1      26.685   9.091  27.261  1.00  0.00     0.014 C 
ATOM     11  C   UNL     1      25.839   8.936  29.616  1.00  0.00     0.014 C 
ENDBRANCH   1   9
TORSDOF 3
ENDMDL
MODEL 9
REMARK VINA RESULT:    -2.934     14.036     14.881
REMARK INTER + INTRA:          -3.405
REMARK INTER:                  -3.353
REMARK INTRA:                  -0.053
REMARK UNBOUND:                -0.043
REMARK SMILES CC(C)[C@H]([NH3+])C(=O)[O-]
REMARK SMILES IDX 4 1 5 2 6 6 7 7 8 8 2 9 1 10 3 11
REMARK H PARENT 5 3 5 4 5 5
REMARK Flexibility Score: inf
ROOT
ATOM      1  C   UNL     1      27.399   8.499  27.880  1.00  0.00     0.230 C 
ENDROOT
BRANCH   1   2
ATOM      2  N   UNL     1      26.927   7.247  27.267  1.00  0.00    -0.350 N 
ATOM      3  H   UNL     1      27.717   6.763  26.782  1.00  0.00     0.345 HD
ATOM      4  H   UNL     1      26.199   7.451  26.544  1.00  0.00     0.345 HD
ATOM      5  H   UNL     1      26.530   6.606  27.993  1.00  0.00     0.345 HD
ENDBRANCH   1   2
BRANCH   1   6
ATOM      6  C   UNL     1      28.908   8.521  27.861  1.00  0.00     0.099 C 
ATOM      7  O   UNL     1      29.524   9.619  27.827  1.00  0.00    -0.544 OA
ATOM      8  O   UNL     1      29.627   7.333  27.885  1.00  0.00    -0.544 OA
ENDBRANCH   1   6
BRANCH   1   9
ATOM      9  C   UNL     1      26.863   8.671  29.334  1.00  0.00     0.047 C 
ATOM     10  C   UNL     1      25.458   9.299  29.339  1.00  0.00     0.014 C 
ATOM     11  C   UNL     1      26.817   7.332  30.091  1.00  0.00     0.014 C 
ENDBRANCH   1   9
TORSDOF 3
ENDMDL
