MODEL 1
REMARK VINA RESULT:    27.554      0.000      0.000
REMARK INTER + INTRA:          54.670
REMARK INTER:                  45.273
REMARK INTRA:                   9.398
REMARK UNBOUND:                 9.398
REMARK SMILES C[C@H]1O[C@H](OC[C@@H]2O[C@@H](Oc3c(-c4ccc(O)c(O)c4)oc4cc(O)cc(O)c4c3=O)[C@H](O)[C@H](O)[C@@H]2O)[C@H](O)[C@H](O)[C@H]1O
REMARK SMILES IDX 7 1 36 2 34 3 32 4 9 5 8 6 6 7 5 8 4 9 1 10 2 11 42 12 3 13
REMARK SMILES IDX 40 14 38 15 43 16 41 18 39 20 37 22 35 24 10 26 11 27 12 28
REMARK SMILES IDX 30 29 21 30 29 31 31 32 22 33 27 34 23 35 26 36 24 37 13 38
REMARK SMILES IDX 20 39 14 40 18 41 15 42 16 43 19 44 17 46 28 48 25 50 33 52
REMARK H PARENT 43 17 41 19 39 21 37 23 35 25 19 45 17 47 28 49 25 51 33 53
REMARK Flexibility Score: inf
ROOT
ATOM      1  C   UNL     1     -31.164 -20.152 -33.062  1.00  0.00     0.180 C 
ATOM      2  C   UNL     1     -29.770 -20.745 -33.659  1.00  0.00     0.177 C 
ATOM      3  C   UNL     1     -29.045 -21.093 -32.299  1.00  0.00     0.180 C 
ATOM      4  C   UNL     1     -28.599 -19.800 -31.584  1.00  0.00     0.214 C 
ATOM      5  C   UNL     1     -29.786 -18.881 -31.505  1.00  0.00     0.339 C 
ATOM      6  O   UNL     1     -30.796 -18.880 -32.526  1.00  0.00    -0.332 OA
ENDROOT
BRANCH   1   7
ATOM      7  C   UNL     1     -32.660 -20.071 -33.681  1.00  0.00     0.198 C 
BRANCH   7   8
ATOM      8  O   UNL     1     -32.870 -19.843 -35.079  1.00  0.00    -0.347 OA
BRANCH   8   9
ATOM      9  C   UNL     1     -33.576 -20.963 -35.674  1.00  0.00     0.281 C 
ATOM     10  C   UNL     1     -34.125 -21.568 -39.124  1.00  0.00     0.041 C 
ATOM     11  C   UNL     1     -33.262 -20.875 -38.046  1.00  0.00     0.150 C 
ATOM     12  C   UNL     1     -31.821 -21.654 -37.913  1.00  0.00     0.174 C 
ATOM     13  O   UNL     1     -34.118 -20.647 -36.920  1.00  0.00    -0.344 OA
ATOM     14  C   UNL     1     -31.571 -22.304 -36.503  1.00  0.00     0.179 C 
ATOM     15  C   UNL     1     -32.907 -22.313 -35.805  1.00  0.00     0.202 C 
BRANCH  12  16
ATOM     16  O   UNL     1     -31.793 -22.664 -38.936  1.00  0.00    -0.388 OA
ATOM     17  H   UNL     1     -31.772 -23.584 -38.545  1.00  0.00     0.211 HD
ENDBRANCH  12  16
BRANCH  14  18
ATOM     18  O   UNL     1     -30.568 -21.744 -35.715  1.00  0.00    -0.387 OA
ATOM     19  H   UNL     1     -29.797 -21.709 -36.290  1.00  0.00     0.211 HD
ENDBRANCH  14  18
BRANCH  15  20
ATOM     20  O   UNL     1     -33.025 -23.141 -34.656  1.00  0.00    -0.385 OA
ATOM     21  H   UNL     1     -33.547 -23.911 -35.064  1.00  0.00     0.211 HD
ENDBRANCH  15  20
ENDBRANCH   8   9
ENDBRANCH   7   8
ENDBRANCH   1   7
BRANCH   2  22
ATOM     22  O   UNL     1     -29.042 -19.673 -34.163  1.00  0.00    -0.387 OA
ATOM     23  H   UNL     1     -28.540 -19.150 -33.440  1.00  0.00     0.211 HD
ENDBRANCH   2  22
BRANCH   3  24
ATOM     24  O   UNL     1     -28.013 -22.075 -32.371  1.00  0.00    -0.387 OA
ATOM     25  H   UNL     1     -27.215 -21.452 -32.529  1.00  0.00     0.211 HD
ENDBRANCH   3  24
BRANCH   5  26
ATOM     26  O   UNL     1     -30.333 -19.227 -30.305  1.00  0.00    -0.454 OA
BRANCH  26  27
ATOM     27  C   UNL     1     -30.498 -20.503 -29.923  1.00  0.00     0.214 A 
ATOM     28  C   UNL     1     -29.634 -21.113 -28.933  1.00  0.00     0.180 A 
ATOM     29  C   UNL     1     -31.324 -21.300 -30.656  1.00  0.00     0.239 A 
ATOM     30  O   UNL     1     -29.708 -22.368 -28.636  1.00  0.00    -0.452 OA
ATOM     31  C   UNL     1     -31.277 -22.664 -30.509  1.00  0.00     0.111 A 
ATOM     32  O   UNL     1     -31.993 -20.798 -31.566  1.00  0.00    -0.285 OA
ATOM     33  C   UNL     1     -30.446 -23.221 -29.405  1.00  0.00     0.146 A 
ATOM     34  C   UNL     1     -31.765 -23.546 -31.483  1.00  0.00     0.134 A 
ATOM     35  C   UNL     1     -30.405 -24.631 -29.185  1.00  0.00     0.094 A 
ATOM     36  C   UNL     1     -31.629 -24.945 -31.258  1.00  0.00     0.093 A 
ATOM     37  C   UNL     1     -31.061 -25.524 -30.069  1.00  0.00     0.123 A 
BRANCH  28  38
ATOM     38  C   UNL     1     -28.431 -20.396 -28.362  1.00  0.00     0.025 A 
ATOM     39  C   UNL     1     -28.512 -19.777 -27.011  1.00  0.00     0.062 A 
ATOM     40  C   UNL     1     -27.181 -20.973 -28.763  1.00  0.00     0.016 A 
ATOM     41  C   UNL     1     -27.370 -20.073 -26.181  1.00  0.00     0.158 A 
ATOM     42  C   UNL     1     -25.983 -20.842 -28.014  1.00  0.00     0.051 A 
ATOM     43  C   UNL     1     -26.057 -20.362 -26.689  1.00  0.00     0.157 A 
BRANCH  41  44
ATOM     44  O   UNL     1     -27.593 -20.238 -24.795  1.00  0.00    -0.504 OA
ATOM     45  H   UNL     1     -28.295 -19.656 -24.344  1.00  0.00     0.293 HD
ENDBRANCH  41  44
BRANCH  43  46
ATOM     46  O   UNL     1     -24.875 -19.938 -26.001  1.00  0.00    -0.504 OA
ATOM     47  H   UNL     1     -24.352 -19.118 -26.157  1.00  0.00     0.293 HD
ENDBRANCH  43  46
ENDBRANCH  28  38
BRANCH  34  48
ATOM     48  O   UNL     1     -32.465 -23.114 -32.566  1.00  0.00    -0.507 OA
ATOM     49  H   UNL     1     -32.013 -22.326 -33.083  1.00  0.00     0.293 HD
ENDBRANCH  34  48
BRANCH  37  50
ATOM     50  O   UNL     1     -31.111 -26.860 -29.775  1.00  0.00    -0.508 OA
ATOM     51  H   UNL     1     -30.576 -27.224 -29.009  1.00  0.00     0.293 HD
ENDBRANCH  37  50
ENDBRANCH  26  27
ENDBRANCH   5  26
BRANCH   4  52
ATOM     52  O   UNL     1     -27.468 -19.256 -32.198  1.00  0.00    -0.384 OA
ATOM     53  H   UNL     1     -26.768 -19.911 -31.862  1.00  0.00     0.211 HD
ENDBRANCH   4  52
TORSDOF 16
ENDMDL
MODEL 2
REMARK VINA RESULT:    27.971      0.905      1.485
REMARK INTER + INTRA:          55.357
REMARK INTER:                  45.305
REMARK INTRA:                  10.052
REMARK UNBOUND:                 9.398
REMARK SMILES C[C@H]1O[C@H](OC[C@@H]2O[C@@H](Oc3c(-c4ccc(O)c(O)c4)oc4cc(O)cc(O)c4c3=O)[C@H](O)[C@H](O)[C@@H]2O)[C@H](O)[C@H](O)[C@H]1O
REMARK SMILES IDX 7 1 36 2 34 3 32 4 9 5 8 6 6 7 5 8 4 9 1 10 2 11 42 12 3 13
REMARK SMILES IDX 40 14 38 15 43 16 41 18 39 20 37 22 35 24 10 26 11 27 12 28
REMARK SMILES IDX 30 29 21 30 29 31 31 32 22 33 27 34 23 35 26 36 24 37 13 38
REMARK SMILES IDX 20 39 14 40 18 41 15 42 16 43 19 44 17 46 28 48 25 50 33 52
REMARK H PARENT 43 17 41 19 39 21 37 23 35 25 19 45 17 47 28 49 25 51 33 53
REMARK Flexibility Score: inf
ROOT
ATOM      1  C   UNL     1     -31.301 -20.153 -33.560  1.00  0.00     0.180 C 
ATOM      2  C   UNL     1     -29.931 -20.834 -34.114  1.00  0.00     0.177 C 
ATOM      3  C   UNL     1     -29.233 -21.153 -32.733  1.00  0.00     0.180 C 
ATOM      4  C   UNL     1     -28.736 -19.849 -32.071  1.00  0.00     0.214 C 
ATOM      5  C   UNL     1     -29.880 -18.875 -32.047  1.00  0.00     0.339 C 
ATOM      6  O   UNL     1     -30.880 -18.875 -33.078  1.00  0.00    -0.332 OA
ENDROOT
BRANCH   1   7
ATOM      7  C   UNL     1     -32.786 -20.033 -34.197  1.00  0.00     0.198 C 
BRANCH   7   8
ATOM      8  O   UNL     1     -33.127 -20.713 -35.410  1.00  0.00    -0.347 OA
BRANCH   8   9
ATOM      9  C   UNL     1     -32.172 -21.769 -35.685  1.00  0.00     0.281 C 
ATOM     10  C   UNL     1     -32.869 -25.055 -36.820  1.00  0.00     0.041 C 
ATOM     11  C   UNL     1     -33.336 -23.586 -36.723  1.00  0.00     0.150 C 
ATOM     12  C   UNL     1     -33.201 -22.869 -38.195  1.00  0.00     0.174 C 
ATOM     13  O   UNL     1     -32.730 -23.041 -35.545  1.00  0.00    -0.344 OA
ATOM     14  C   UNL     1     -32.186 -21.668 -38.234  1.00  0.00     0.179 C 
ATOM     15  C   UNL     1     -31.372 -21.770 -36.969  1.00  0.00     0.202 C 
BRANCH  12  16
ATOM     16  O   UNL     1     -32.797 -23.889 -39.125  1.00  0.00    -0.388 OA
ATOM     17  H   UNL     1     -32.511 -24.723 -38.655  1.00  0.00     0.211 HD
ENDBRANCH  12  16
BRANCH  14  18
ATOM     18  O   UNL     1     -32.717 -20.394 -38.418  1.00  0.00    -0.387 OA
ATOM     19  H   UNL     1     -32.173 -19.820 -37.869  1.00  0.00     0.211 HD
ENDBRANCH  14  18
BRANCH  15  20
ATOM     20  O   UNL     1     -30.173 -21.008 -36.915  1.00  0.00    -0.385 OA
ATOM     21  H   UNL     1     -30.288 -20.590 -35.996  1.00  0.00     0.211 HD
ENDBRANCH  15  20
ENDBRANCH   8   9
ENDBRANCH   7   8
ENDBRANCH   1   7
BRANCH   2  22
ATOM     22  O   UNL     1     -29.150 -19.820 -34.659  1.00  0.00    -0.387 OA
ATOM     23  H   UNL     1     -29.487 -18.881 -34.426  1.00  0.00     0.211 HD
ENDBRANCH   2  22
BRANCH   3  24
ATOM     24  O   UNL     1     -28.246 -22.181 -32.749  1.00  0.00    -0.387 OA
ATOM     25  H   UNL     1     -28.848 -22.972 -32.998  1.00  0.00     0.211 HD
ENDBRANCH   3  24
BRANCH   5  26
ATOM     26  O   UNL     1     -30.452 -19.141 -30.838  1.00  0.00    -0.454 OA
BRANCH  26  27
ATOM     27  C   UNL     1     -30.665 -20.390 -30.395  1.00  0.00     0.214 A 
ATOM     28  C   UNL     1     -29.887 -20.949 -29.309  1.00  0.00     0.180 A 
ATOM     29  C   UNL     1     -31.447 -21.221 -31.140  1.00  0.00     0.239 A 
ATOM     30  O   UNL     1     -30.004 -22.183 -28.944  1.00  0.00    -0.452 OA
ATOM     31  C   UNL     1     -31.433 -22.574 -30.909  1.00  0.00     0.111 A 
ATOM     32  O   UNL     1     -32.038 -20.767 -32.126  1.00  0.00    -0.285 OA
ATOM     33  C   UNL     1     -30.696 -23.072 -29.715  1.00  0.00     0.146 A 
ATOM     34  C   UNL     1     -31.860 -23.508 -31.863  1.00  0.00     0.134 A 
ATOM     35  C   UNL     1     -30.693 -24.467 -29.409  1.00  0.00     0.094 A 
ATOM     36  C   UNL     1     -31.763 -24.892 -31.547  1.00  0.00     0.093 A 
ATOM     37  C   UNL     1     -31.295 -25.404 -30.286  1.00  0.00     0.123 A 
BRANCH  28  38
ATOM     38  C   UNL     1     -28.719 -20.213 -28.691  1.00  0.00     0.025 A 
ATOM     39  C   UNL     1     -28.737 -19.884 -27.240  1.00  0.00     0.062 A 
ATOM     40  C   UNL     1     -27.460 -20.539 -29.291  1.00  0.00     0.016 A 
ATOM     41  C   UNL     1     -27.495 -20.190 -26.573  1.00  0.00     0.158 A 
ATOM     42  C   UNL     1     -26.216 -20.408 -28.620  1.00  0.00     0.051 A 
ATOM     43  C   UNL     1     -26.214 -20.209 -27.223  1.00  0.00     0.157 A 
BRANCH  41  44
ATOM     44  O   UNL     1     -27.565 -20.648 -25.237  1.00  0.00    -0.504 OA
ATOM     45  H   UNL     1     -28.434 -20.519 -24.726  1.00  0.00     0.293 HD
ENDBRANCH  41  44
BRANCH  43  46
ATOM     46  O   UNL     1     -25.023 -19.782 -26.550  1.00  0.00    -0.504 OA
ATOM     47  H   UNL     1     -24.819 -18.882 -26.207  1.00  0.00     0.293 HD
ENDBRANCH  43  46
ENDBRANCH  28  38
BRANCH  34  48
ATOM     48  O   UNL     1     -32.470 -23.134 -33.020  1.00  0.00    -0.507 OA
ATOM     49  H   UNL     1     -32.595 -23.910 -33.710  1.00  0.00     0.293 HD
ENDBRANCH  34  48
BRANCH  37  50
ATOM     50  O   UNL     1     -31.388 -26.719 -29.917  1.00  0.00    -0.508 OA
ATOM     51  H   UNL     1     -30.765 -27.090 -29.225  1.00  0.00     0.293 HD
ENDBRANCH  37  50
ENDBRANCH  26  27
ENDBRANCH   5  26
BRANCH   4  52
ATOM     52  O   UNL     1     -27.576 -19.385 -32.698  1.00  0.00    -0.384 OA
ATOM     53  H   UNL     1     -27.468 -18.501 -32.209  1.00  0.00     0.211 HD
ENDBRANCH   4  52
TORSDOF 16
ENDMDL
