MODEL 1
REMARK VINA RESULT:    -4.812      0.000      0.000
REMARK INTER + INTRA:          -5.560
REMARK INTER:                  -5.515
REMARK INTRA:                  -0.045
REMARK UNBOUND:                -0.045
REMARK SMILES O=C([O-])c1cc(O)c(O)c(O)c1
REMARK SMILES IDX 4 1 5 2 12 3 6 4 10 5 8 6 2 7 1 8 3 9 7 10 11 12 9 14
REMARK H PARENT 7 11 11 13 9 15
REMARK Flexibility Score: inf
ROOT
ATOM      1  C   UNL     1      27.078  30.438 -11.807  1.00  0.00     0.005 A 
ATOM      2  C   UNL     1      27.707  30.220 -13.045  1.00  0.00     0.060 A 
ATOM      3  C   UNL     1      25.776  30.965 -11.788  1.00  0.00     0.060 A 
ATOM      4  C   UNL     1      27.050  30.521 -14.243  1.00  0.00     0.162 A 
ATOM      5  C   UNL     1      25.111  31.269 -12.984  1.00  0.00     0.162 A 
ATOM      6  C   UNL     1      25.747  31.047 -14.216  1.00  0.00     0.200 A 
ENDROOT
BRANCH   1   7
ATOM      7  C   UNL     1      27.774  30.119 -10.541  1.00  0.00     0.072 C 
ATOM      8  O   UNL     1      28.527  30.966  -9.993  1.00  0.00    -0.545 OA
ATOM      9  O   UNL     1      27.606  28.878  -9.937  1.00  0.00    -0.545 OA
ENDBRANCH   1   7
BRANCH   4  10
ATOM     10  O   UNL     1      27.709  30.290 -15.450  1.00  0.00    -0.504 OA
ATOM     11  H   UNL     1      27.653  30.936 -16.227  1.00  0.00     0.293 HD
ENDBRANCH   4  10
BRANCH   5  12
ATOM     12  O   UNL     1      23.819  31.792 -12.950  1.00  0.00    -0.504 OA
ATOM     13  H   UNL     1      23.499  32.464 -13.638  1.00  0.00     0.293 HD
ENDBRANCH   5  12
BRANCH   6  14
ATOM     14  O   UNL     1      25.100  31.345 -15.416  1.00  0.00    -0.502 OA
ATOM     15  H   UNL     1      24.296  30.821 -15.740  1.00  0.00     0.293 HD
ENDBRANCH   6  14
TORSDOF 4
ENDMDL
MODEL 2
REMARK VINA RESULT:    -4.803      0.037      2.429
REMARK INTER + INTRA:          -5.549
REMARK INTER:                  -5.505
REMARK INTRA:                  -0.045
REMARK UNBOUND:                -0.045
REMARK SMILES O=C([O-])c1cc(O)c(O)c(O)c1
REMARK SMILES IDX 4 1 5 2 12 3 6 4 10 5 8 6 2 7 1 8 3 9 7 10 11 12 9 14
REMARK H PARENT 7 11 11 13 9 15
REMARK Flexibility Score: inf
ROOT
ATOM      1  C   UNL     1      27.085  30.430 -11.814  1.00  0.00     0.005 A 
ATOM      2  C   UNL     1      25.773  30.932 -11.804  1.00  0.00     0.060 A 
ATOM      3  C   UNL     1      27.725  30.220 -13.047  1.00  0.00     0.060 A 
ATOM      4  C   UNL     1      25.109  31.221 -13.001  1.00  0.00     0.162 A 
ATOM      5  C   UNL     1      27.067  30.507 -14.251  1.00  0.00     0.162 A 
ATOM      6  C   UNL     1      25.755  31.010 -14.231  1.00  0.00     0.200 A 
ENDROOT
BRANCH   1   7
ATOM      7  C   UNL     1      27.786  30.124 -10.548  1.00  0.00     0.072 C 
ATOM      8  O   UNL     1      28.527  30.983 -10.001  1.00  0.00    -0.545 OA
ATOM      9  O   UNL     1      27.637  28.881  -9.942  1.00  0.00    -0.545 OA
ENDBRANCH   1   7
BRANCH   4  10
ATOM     10  O   UNL     1      23.807  31.718 -12.947  1.00  0.00    -0.504 OA
ATOM     11  H   UNL     1      23.144  31.419 -12.242  1.00  0.00     0.293 HD
ENDBRANCH   4  10
BRANCH   5  12
ATOM     12  O   UNL     1      27.713  30.295 -15.468  1.00  0.00    -0.504 OA
ATOM     13  H   UNL     1      28.687  30.540 -15.603  1.00  0.00     0.293 HD
ENDBRANCH   5  12
BRANCH   6  14
ATOM     14  O   UNL     1      25.085  31.301 -15.420  1.00  0.00    -0.502 OA
ATOM     15  H   UNL     1      25.483  31.904 -16.130  1.00  0.00     0.293 HD
ENDBRANCH   6  14
TORSDOF 4
ENDMDL
MODEL 3
REMARK VINA RESULT:    -4.759      1.747      3.083
REMARK INTER + INTRA:          -5.499
REMARK INTER:                  -5.448
REMARK INTRA:                  -0.051
REMARK UNBOUND:                -0.045
REMARK SMILES O=C([O-])c1cc(O)c(O)c(O)c1
REMARK SMILES IDX 4 1 5 2 12 3 6 4 10 5 8 6 2 7 1 8 3 9 7 10 11 12 9 14
REMARK H PARENT 7 11 11 13 9 15
REMARK Flexibility Score: inf
ROOT
ATOM      1  C   UNL     1      27.141  29.353 -10.726  1.00  0.00     0.005 A 
ATOM      2  C   UNL     1      26.162  29.405 -11.733  1.00  0.00     0.060 A 
ATOM      3  C   UNL     1      28.461  29.722 -11.039  1.00  0.00     0.060 A 
ATOM      4  C   UNL     1      26.490  29.818 -13.028  1.00  0.00     0.162 A 
ATOM      5  C   UNL     1      28.798  30.136 -12.335  1.00  0.00     0.162 A 
ATOM      6  C   UNL     1      27.812  30.185 -13.334  1.00  0.00     0.200 A 
ENDROOT
BRANCH   1   7
ATOM      7  C   UNL     1      26.793  28.917  -9.356  1.00  0.00     0.072 C 
ATOM      8  O   UNL     1      27.496  29.269  -8.372  1.00  0.00    -0.545 OA
ATOM      9  O   UNL     1      25.682  28.110  -9.134  1.00  0.00    -0.545 OA
ENDBRANCH   1   7
BRANCH   4  10
ATOM     10  O   UNL     1      25.490  29.855 -13.998  1.00  0.00    -0.504 OA
ATOM     11  H   UNL     1      24.530  29.605 -13.794  1.00  0.00     0.293 HD
ENDBRANCH   4  10
BRANCH   5  12
ATOM     12  O   UNL     1      30.111  30.499 -12.632  1.00  0.00    -0.504 OA
ATOM     13  H   UNL     1      30.408  30.687 -13.582  1.00  0.00     0.293 HD
ENDBRANCH   5  12
BRANCH   6  14
ATOM     14  O   UNL     1      28.130  30.595 -14.630  1.00  0.00    -0.502 OA
ATOM     15  H   UNL     1      28.696  30.030 -15.251  1.00  0.00     0.293 HD
ENDBRANCH   6  14
TORSDOF 4
ENDMDL
MODEL 4
REMARK VINA RESULT:    -4.753      1.729      2.436
REMARK INTER + INTRA:          -5.492
REMARK INTER:                  -5.441
REMARK INTRA:                  -0.051
REMARK UNBOUND:                -0.045
REMARK SMILES O=C([O-])c1cc(O)c(O)c(O)c1
REMARK SMILES IDX 4 1 5 2 12 3 6 4 10 5 8 6 2 7 1 8 3 9 7 10 11 12 9 14
REMARK H PARENT 7 11 11 13 9 15
REMARK Flexibility Score: inf
ROOT
ATOM      1  C   UNL     1      27.121  29.353 -10.781  1.00  0.00     0.005 A 
ATOM      2  C   UNL     1      28.433  29.740 -11.105  1.00  0.00     0.060 A 
ATOM      3  C   UNL     1      26.133  29.390 -11.778  1.00  0.00     0.060 A 
ATOM      4  C   UNL     1      28.754  30.158 -12.400  1.00  0.00     0.162 A 
ATOM      5  C   UNL     1      26.447  29.807 -13.079  1.00  0.00     0.162 A 
ATOM      6  C   UNL     1      27.761  30.192 -13.394  1.00  0.00     0.200 A 
ENDROOT
BRANCH   1   7
ATOM      7  C   UNL     1      26.782  28.911  -9.410  1.00  0.00     0.072 C 
ATOM      8  O   UNL     1      27.478  29.280  -8.427  1.00  0.00    -0.545 OA
ATOM      9  O   UNL     1      25.689  28.082  -9.186  1.00  0.00    -0.545 OA
ENDBRANCH   1   7
BRANCH   4  10
ATOM     10  O   UNL     1      30.067  30.535 -12.681  1.00  0.00    -0.504 OA
ATOM     11  H   UNL     1      30.622  30.071 -13.390  1.00  0.00     0.293 HD
ENDBRANCH   4  10
BRANCH   5  12
ATOM     12  O   UNL     1      25.457  29.840 -14.060  1.00  0.00    -0.504 OA
ATOM     13  H   UNL     1      24.604  29.300 -13.972  1.00  0.00     0.293 HD
ENDBRANCH   5  12
BRANCH   6  14
ATOM     14  O   UNL     1      28.092  30.610 -14.684  1.00  0.00    -0.502 OA
ATOM     15  H   UNL     1      27.473  31.190 -15.239  1.00  0.00     0.293 HD
ENDBRANCH   6  14
TORSDOF 4
ENDMDL
MODEL 5
REMARK VINA RESULT:    -4.628      1.153      4.190
REMARK INTER + INTRA:          -5.349
REMARK INTER:                  -5.296
REMARK INTRA:                  -0.053
REMARK UNBOUND:                -0.045
REMARK SMILES O=C([O-])c1cc(O)c(O)c(O)c1
REMARK SMILES IDX 4 1 5 2 12 3 6 4 10 5 8 6 2 7 1 8 3 9 7 10 11 12 9 14
REMARK H PARENT 7 11 11 13 9 15
REMARK Flexibility Score: inf
ROOT
ATOM      1  C   UNL     1      25.177  31.320 -12.851  1.00  0.00     0.005 A 
ATOM      2  C   UNL     1      25.840  30.961 -11.665  1.00  0.00     0.060 A 
ATOM      3  C   UNL     1      25.827  31.126 -14.081  1.00  0.00     0.060 A 
ATOM      4  C   UNL     1      27.127  30.417 -11.703  1.00  0.00     0.162 A 
ATOM      5  C   UNL     1      27.117  30.581 -14.128  1.00  0.00     0.162 A 
ATOM      6  C   UNL     1      27.772  30.224 -12.937  1.00  0.00     0.200 A 
ENDROOT
BRANCH   1   7
ATOM      7  C   UNL     1      23.814  31.896 -12.809  1.00  0.00     0.072 C 
ATOM      8  O   UNL     1      23.278  32.194 -11.709  1.00  0.00    -0.545 OA
ATOM      9  O   UNL     1      23.105  32.117 -13.985  1.00  0.00    -0.545 OA
ENDBRANCH   1   7
BRANCH   4  10
ATOM     10  O   UNL     1      27.751  30.074 -10.504  1.00  0.00    -0.504 OA
ATOM     11  H   UNL     1      28.662  29.633 -10.476  1.00  0.00     0.293 HD
ENDBRANCH   4  10
BRANCH   5  12
ATOM     12  O   UNL     1      27.751  30.393 -15.355  1.00  0.00    -0.504 OA
ATOM     13  H   UNL     1      27.227  30.204 -16.201  1.00  0.00     0.293 HD
ENDBRANCH   5  12
BRANCH   6  14
ATOM     14  O   UNL     1      29.057  29.681 -12.966  1.00  0.00    -0.502 OA
ATOM     15  H   UNL     1      29.285  28.809 -12.503  1.00  0.00     0.293 HD
ENDBRANCH   6  14
TORSDOF 4
ENDMDL
MODEL 6
REMARK VINA RESULT:    -4.620      1.138      3.808
REMARK INTER + INTRA:          -5.340
REMARK INTER:                  -5.287
REMARK INTRA:                  -0.053
REMARK UNBOUND:                -0.045
REMARK SMILES O=C([O-])c1cc(O)c(O)c(O)c1
REMARK SMILES IDX 4 1 5 2 12 3 6 4 10 5 8 6 2 7 1 8 3 9 7 10 11 12 9 14
REMARK H PARENT 7 11 11 13 9 15
REMARK Flexibility Score: inf
ROOT
ATOM      1  C   UNL     1      25.204  31.278 -12.803  1.00  0.00     0.005 A 
ATOM      2  C   UNL     1      25.836  31.093 -14.045  1.00  0.00     0.060 A 
ATOM      3  C   UNL     1      25.894  30.931 -11.630  1.00  0.00     0.060 A 
ATOM      4  C   UNL     1      27.131  30.572 -14.117  1.00  0.00     0.162 A 
ATOM      5  C   UNL     1      27.193  30.408 -11.693  1.00  0.00     0.162 A 
ATOM      6  C   UNL     1      27.816  30.227 -12.940  1.00  0.00     0.200 A 
ENDROOT
BRANCH   1   7
ATOM      7  C   UNL     1      23.834  31.830 -12.729  1.00  0.00     0.072 C 
ATOM      8  O   UNL     1      23.311  32.102 -11.615  1.00  0.00    -0.545 OA
ATOM      9  O   UNL     1      23.100  32.056 -13.888  1.00  0.00    -0.545 OA
ENDBRANCH   1   7
BRANCH   4  10
ATOM     10  O   UNL     1      27.722  30.403 -15.369  1.00  0.00    -0.504 OA
ATOM     11  H   UNL     1      28.579  29.878 -15.495  1.00  0.00     0.293 HD
ENDBRANCH   4  10
BRANCH   5  12
ATOM     12  O   UNL     1      27.866  30.067 -10.521  1.00  0.00    -0.504 OA
ATOM     13  H   UNL     1      27.813  30.645  -9.690  1.00  0.00     0.293 HD
ENDBRANCH   5  12
BRANCH   6  14
ATOM     14  O   UNL     1      29.109  29.707 -13.021  1.00  0.00    -0.502 OA
ATOM     15  H   UNL     1      29.794  29.848 -12.289  1.00  0.00     0.293 HD
ENDBRANCH   6  14
TORSDOF 4
ENDMDL
MODEL 7
REMARK VINA RESULT:    -4.574      1.400      4.734
REMARK INTER + INTRA:          -5.287
REMARK INTER:                  -5.234
REMARK INTRA:                  -0.052
REMARK UNBOUND:                -0.045
REMARK SMILES O=C([O-])c1cc(O)c(O)c(O)c1
REMARK SMILES IDX 4 1 5 2 12 3 6 4 10 5 8 6 2 7 1 8 3 9 7 10 11 12 9 14
REMARK H PARENT 7 11 11 13 9 15
REMARK Flexibility Score: inf
ROOT
ATOM      1  C   UNL     1      26.857  30.127 -13.602  1.00  0.00     0.005 A 
ATOM      2  C   UNL     1      25.880  30.175 -12.593  1.00  0.00     0.060 A 
ATOM      3  C   UNL     1      28.213  30.207 -13.242  1.00  0.00     0.060 A 
ATOM      4  C   UNL     1      26.246  30.300 -11.249  1.00  0.00     0.162 A 
ATOM      5  C   UNL     1      28.589  30.333 -11.898  1.00  0.00     0.162 A 
ATOM      6  C   UNL     1      27.604  30.380 -10.896  1.00  0.00     0.200 A 
ENDROOT
BRANCH   1   7
ATOM      7  C   UNL     1      26.469  29.994 -15.023  1.00  0.00     0.072 C 
ATOM      8  O   UNL     1      27.332  29.735 -15.903  1.00  0.00    -0.545 OA
ATOM      9  O   UNL     1      25.142  30.153 -15.410  1.00  0.00    -0.545 OA
ENDBRANCH   1   7
BRANCH   4  10
ATOM     10  O   UNL     1      25.246  30.345 -10.279  1.00  0.00    -0.504 OA
ATOM     11  H   UNL     1      24.872  29.507  -9.851  1.00  0.00     0.293 HD
ENDBRANCH   4  10
BRANCH   5  12
ATOM     12  O   UNL     1      29.937  30.412 -11.554  1.00  0.00    -0.504 OA
ATOM     13  H   UNL     1      30.459  29.596 -11.256  1.00  0.00     0.293 HD
ENDBRANCH   5  12
BRANCH   6  14
ATOM     14  O   UNL     1      27.960  30.505  -9.553  1.00  0.00    -0.502 OA
ATOM     15  H   UNL     1      27.269  30.583  -8.816  1.00  0.00     0.293 HD
ENDBRANCH   6  14
TORSDOF 4
ENDMDL
MODEL 8
REMARK VINA RESULT:    -4.470      1.386      4.138
REMARK INTER + INTRA:          -5.168
REMARK INTER:                  -5.117
REMARK INTRA:                  -0.051
REMARK UNBOUND:                -0.045
REMARK SMILES O=C([O-])c1cc(O)c(O)c(O)c1
REMARK SMILES IDX 4 1 5 2 12 3 6 4 10 5 8 6 2 7 1 8 3 9 7 10 11 12 9 14
REMARK H PARENT 7 11 11 13 9 15
REMARK Flexibility Score: inf
ROOT
ATOM      1  C   UNL     1      26.684  30.064 -13.657  1.00  0.00     0.005 A 
ATOM      2  C   UNL     1      28.055  30.175 -13.368  1.00  0.00     0.060 A 
ATOM      3  C   UNL     1      25.759  30.104 -12.601  1.00  0.00     0.060 A 
ATOM      4  C   UNL     1      28.497  30.324 -12.050  1.00  0.00     0.162 A 
ATOM      5  C   UNL     1      26.194  30.254 -11.276  1.00  0.00     0.162 A 
ATOM      6  C   UNL     1      27.567  30.365 -10.997  1.00  0.00     0.200 A 
ENDROOT
BRANCH   1   7
ATOM      7  C   UNL     1      26.218  29.906 -15.052  1.00  0.00     0.072 C 
ATOM      8  O   UNL     1      26.962  29.379 -15.921  1.00  0.00    -0.545 OA
ATOM      9  O   UNL     1      24.949  30.337 -15.426  1.00  0.00    -0.545 OA
ENDBRANCH   1   7
BRANCH   4  10
ATOM     10  O   UNL     1      29.866  30.430 -11.805  1.00  0.00    -0.504 OA
ATOM     11  H   UNL     1      30.263  31.204 -11.287  1.00  0.00     0.293 HD
ENDBRANCH   4  10
BRANCH   5  12
ATOM     12  O   UNL     1      25.265  30.293 -10.237  1.00  0.00    -0.504 OA
ATOM     13  H   UNL     1      25.397  30.890  -9.429  1.00  0.00     0.293 HD
ENDBRANCH   5  12
BRANCH   6  14
ATOM     14  O   UNL     1      28.017  30.514  -9.685  1.00  0.00    -0.502 OA
ATOM     15  H   UNL     1      28.022  31.411  -9.214  1.00  0.00     0.293 HD
ENDBRANCH   6  14
TORSDOF 4
ENDMDL
MODEL 9
REMARK VINA RESULT:    -4.216      2.192      3.970
REMARK INTER + INTRA:          -4.877
REMARK INTER:                  -4.832
REMARK INTRA:                  -0.045
REMARK UNBOUND:                -0.045
REMARK SMILES O=C([O-])c1cc(O)c(O)c(O)c1
REMARK SMILES IDX 4 1 5 2 12 3 6 4 10 5 8 6 2 7 1 8 3 9 7 10 11 12 9 14
REMARK H PARENT 7 11 11 13 9 15
REMARK Flexibility Score: inf
ROOT
ATOM      1  C   UNL     1      23.775  31.508 -12.414  1.00  0.00     0.005 A 
ATOM      2  C   UNL     1      23.945  32.412 -13.477  1.00  0.00     0.060 A 
ATOM      3  C   UNL     1      24.726  30.492 -12.226  1.00  0.00     0.060 A 
ATOM      4  C   UNL     1      25.044  32.307 -14.336  1.00  0.00     0.162 A 
ATOM      5  C   UNL     1      25.830  30.379 -13.082  1.00  0.00     0.162 A 
ATOM      6  C   UNL     1      25.992  31.289 -14.141  1.00  0.00     0.200 A 
ENDROOT
BRANCH   1   7
ATOM      7  C   UNL     1      22.612  31.621 -11.506  1.00  0.00     0.072 C 
ATOM      8  O   UNL     1      22.765  31.985 -10.311  1.00  0.00    -0.545 OA
ATOM      9  O   UNL     1      21.331  31.326 -11.961  1.00  0.00    -0.545 OA
ENDBRANCH   1   7
BRANCH   4  10
ATOM     10  O   UNL     1      25.176  33.224 -15.378  1.00  0.00    -0.504 OA
ATOM     11  H   UNL     1      24.951  34.205 -15.265  1.00  0.00     0.293 HD
ENDBRANCH   4  10
BRANCH   5  12
ATOM     12  O   UNL     1      26.767  29.366 -12.884  1.00  0.00    -0.504 OA
ATOM     13  H   UNL     1      26.662  28.453 -13.312  1.00  0.00     0.293 HD
ENDBRANCH   5  12
BRANCH   6  14
ATOM     14  O   UNL     1      27.085  31.191 -15.003  1.00  0.00    -0.502 OA
ATOM     15  H   UNL     1      27.186  31.787 -15.816  1.00  0.00     0.293 HD
ENDBRANCH   6  14
TORSDOF 4
ENDMDL
