MODEL 1
REMARK VINA RESULT:    -4.747      0.000      0.000
REMARK INTER + INTRA:         -17.607
REMARK INTER:                 -12.517
REMARK INTRA:                  -5.090
REMARK UNBOUND:                -5.090
REMARK SMILES CCCCCCCCCCCCCCCCCCCCCCCCCCCCCC(=O)[O-]
REMARK SMILES IDX 16 1 17 2 18 3 19 4 20 5 21 6 22 7 23 8 24 9 25 10 26 11
REMARK SMILES IDX 27 12 28 13 29 14 30 15 31 16 32 17 15 18 14 19 13 20 12 21
REMARK SMILES IDX 11 22 10 23 9 24 8 25 7 26 6 27 5 28 4 29 3 30 2 31 1 32
REMARK H PARENT
REMARK Flexibility Score: inf
ROOT
ATOM      1  C   UNL     1       2.845  52.020  -2.903  1.00  0.00     0.000 C 
ENDROOT
BRANCH   1   2
ATOM      2  C   UNL     1       3.818  51.262  -3.821  1.00  0.00     0.000 C 
BRANCH   2   3
ATOM      3  C   UNL     1       5.221  51.882  -3.778  1.00  0.00     0.000 C 
BRANCH   3   4
ATOM      4  C   UNL     1       5.200  53.410  -3.597  1.00  0.00     0.000 C 
BRANCH   4   5
ATOM      5  C   UNL     1       6.538  54.104  -3.930  1.00  0.00     0.000 C 
BRANCH   5   6
ATOM      6  C   UNL     1       6.407  55.136  -5.067  1.00  0.00     0.000 C 
BRANCH   6   7
ATOM      7  C   UNL     1       7.775  55.731  -5.469  1.00  0.00     0.000 C 
BRANCH   7   8
ATOM      8  C   UNL     1       7.993  57.167  -4.958  1.00  0.00     0.000 C 
BRANCH   8   9
ATOM      9  C   UNL     1       7.998  57.312  -3.426  1.00  0.00     0.000 C 
BRANCH   9  10
ATOM     10  C   UNL     1       6.867  58.221  -2.913  1.00  0.00     0.000 C 
BRANCH  10  11
ATOM     11  C   UNL     1       5.762  57.440  -2.181  1.00  0.00     0.000 C 
BRANCH  11  12
ATOM     12  C   UNL     1       6.291  56.632  -0.987  1.00  0.00     0.000 C 
BRANCH  12  13
ATOM     13  C   UNL     1       5.342  55.480  -0.633  1.00  0.00     0.006 C 
BRANCH  13  14
ATOM     14  C   UNL     1       4.330  55.913   0.434  1.00  0.00     0.053 C 
BRANCH  14  15
ATOM     15  C   UNL     1       2.979  56.126  -0.172  1.00  0.00     0.041 C 
ATOM     16  O   UNL     1       2.274  57.107   0.182  1.00  0.00    -0.550 OA
ATOM     17  O   UNL     1       2.490  55.235  -1.119  1.00  0.00    -0.550 OA
ENDBRANCH  14  15
ENDBRANCH  13  14
ENDBRANCH  12  13
ENDBRANCH  11  12
ENDBRANCH  10  11
ENDBRANCH   9  10
ENDBRANCH   8   9
ENDBRANCH   7   8
ENDBRANCH   6   7
ENDBRANCH   5   6
ENDBRANCH   4   5
ENDBRANCH   3   4
ENDBRANCH   2   3
ENDBRANCH   1   2
BRANCH   1  18
ATOM     18  C   UNL     1       2.225  51.117  -1.825  1.00  0.00     0.000 C 
BRANCH  18  19
ATOM     19  C   UNL     1       2.330  51.724  -0.414  1.00  0.00     0.000 C 
BRANCH  19  20
ATOM     20  C   UNL     1       2.812  50.708   0.633  1.00  0.00     0.000 C 
BRANCH  20  21
ATOM     21  C   UNL     1       3.979  51.247   1.481  1.00  0.00     0.000 C 
BRANCH  21  22
ATOM     22  C   UNL     1       5.058  51.935   0.632  1.00  0.00     0.000 C 
BRANCH  22  23
ATOM     23  C   UNL     1       6.157  52.585   1.490  1.00  0.00     0.000 C 
BRANCH  23  24
ATOM     24  C   UNL     1       7.486  52.730   0.731  1.00  0.00    -0.000 C 
BRANCH  24  25
ATOM     25  C   UNL     1       7.350  52.397  -0.763  1.00  0.00    -0.000 C 
BRANCH  25  26
ATOM     26  C   UNL     1       8.653  51.859  -1.380  1.00  0.00    -0.000 C 
BRANCH  26  27
ATOM     27  C   UNL     1       9.787  51.653  -0.353  1.00  0.00    -0.000 C 
BRANCH  27  28
ATOM     28  C   UNL     1      11.174  51.911  -0.960  1.00  0.00    -0.000 C 
BRANCH  28  29
ATOM     29  C   UNL     1      11.279  53.342  -1.508  1.00  0.00    -0.000 C 
BRANCH  29  30
ATOM     30  C   UNL     1      10.927  54.404  -0.444  1.00  0.00    -0.000 C 
BRANCH  30  31
ATOM     31  C   UNL     1       9.813  55.370  -0.884  1.00  0.00    -0.003 C 
ATOM     32  C   UNL     1       9.943  56.758  -0.257  1.00  0.00     0.004 C 
ENDBRANCH  30  31
ENDBRANCH  29  30
ENDBRANCH  28  29
ENDBRANCH  27  28
ENDBRANCH  26  27
ENDBRANCH  25  26
ENDBRANCH  24  25
ENDBRANCH  23  24
ENDBRANCH  22  23
ENDBRANCH  21  22
ENDBRANCH  20  21
ENDBRANCH  19  20
ENDBRANCH  18  19
ENDBRANCH   1  18
TORSDOF 28
ENDMDL
MODEL 2
REMARK VINA RESULT:    -4.688      2.173      3.486
REMARK INTER + INTRA:         -17.453
REMARK INTER:                 -11.594
REMARK INTRA:                  -5.859
REMARK UNBOUND:                -5.090
REMARK SMILES CCCCCCCCCCCCCCCCCCCCCCCCCCCCCC(=O)[O-]
REMARK SMILES IDX 16 1 17 2 18 3 19 4 20 5 21 6 22 7 23 8 24 9 25 10 26 11
REMARK SMILES IDX 27 12 28 13 29 14 30 15 31 16 32 17 15 18 14 19 13 20 12 21
REMARK SMILES IDX 11 22 10 23 9 24 8 25 7 26 6 27 5 28 4 29 3 30 2 31 1 32
REMARK H PARENT
REMARK Flexibility Score: inf
ROOT
ATOM      1  C   UNL     1       1.951  51.334  -3.048  1.00  0.00     0.000 C 
ENDROOT
BRANCH   1   2
ATOM      2  C   UNL     1       3.018  51.173  -4.144  1.00  0.00     0.000 C 
BRANCH   2   3
ATOM      3  C   UNL     1       4.375  51.721  -3.683  1.00  0.00     0.000 C 
BRANCH   3   4
ATOM      4  C   UNL     1       4.784  53.015  -4.410  1.00  0.00     0.000 C 
BRANCH   4   5
ATOM      5  C   UNL     1       4.437  54.308  -3.642  1.00  0.00     0.000 C 
BRANCH   5   6
ATOM      6  C   UNL     1       4.063  54.045  -2.171  1.00  0.00     0.000 C 
BRANCH   6   7
ATOM      7  C   UNL     1       2.778  54.796  -1.757  1.00  0.00     0.000 C 
BRANCH   7   8
ATOM      8  C   UNL     1       2.569  54.860  -0.232  1.00  0.00     0.000 C 
BRANCH   8   9
ATOM      9  C   UNL     1       3.303  56.015   0.471  1.00  0.00     0.000 C 
BRANCH   9  10
ATOM     10  C   UNL     1       4.573  55.551   1.204  1.00  0.00     0.000 C 
BRANCH  10  11
ATOM     11  C   UNL     1       5.847  56.234   0.678  1.00  0.00     0.000 C 
BRANCH  11  12
ATOM     12  C   UNL     1       5.633  56.945  -0.666  1.00  0.00     0.000 C 
BRANCH  12  13
ATOM     13  C   UNL     1       6.721  56.560  -1.677  1.00  0.00     0.006 C 
BRANCH  13  14
ATOM     14  C   UNL     1       6.783  57.572  -2.826  1.00  0.00     0.053 C 
BRANCH  14  15
ATOM     15  C   UNL     1       8.191  57.756  -3.297  1.00  0.00     0.041 C 
ATOM     16  O   UNL     1       8.438  57.878  -4.525  1.00  0.00    -0.550 OA
ATOM     17  O   UNL     1       9.236  57.781  -2.380  1.00  0.00    -0.550 OA
ENDBRANCH  14  15
ENDBRANCH  13  14
ENDBRANCH  12  13
ENDBRANCH  11  12
ENDBRANCH  10  11
ENDBRANCH   9  10
ENDBRANCH   8   9
ENDBRANCH   7   8
ENDBRANCH   6   7
ENDBRANCH   5   6
ENDBRANCH   4   5
ENDBRANCH   3   4
ENDBRANCH   2   3
ENDBRANCH   1   2
BRANCH   1  18
ATOM     18  C   UNL     1       2.254  50.485  -1.802  1.00  0.00     0.000 C 
BRANCH  18  19
ATOM     19  C   UNL     1       2.088  51.279  -0.493  1.00  0.00     0.000 C 
BRANCH  19  20
ATOM     20  C   UNL     1       2.458  50.456   0.750  1.00  0.00     0.000 C 
BRANCH  20  21
ATOM     21  C   UNL     1       3.608  51.089   1.553  1.00  0.00     0.000 C 
BRANCH  21  22
ATOM     22  C   UNL     1       4.645  51.781   0.655  1.00  0.00     0.000 C 
BRANCH  22  23
ATOM     23  C   UNL     1       5.934  52.142   1.414  1.00  0.00     0.000 C 
BRANCH  23  24
ATOM     24  C   UNL     1       6.990  52.790   0.503  1.00  0.00    -0.000 C 
BRANCH  24  25
ATOM     25  C   UNL     1       6.792  52.428  -0.978  1.00  0.00    -0.000 C 
BRANCH  25  26
ATOM     26  C   UNL     1       8.114  52.365  -1.763  1.00  0.00    -0.000 C 
BRANCH  26  27
ATOM     27  C   UNL     1       9.225  51.571  -1.045  1.00  0.00    -0.000 C 
BRANCH  27  28
ATOM     28  C   UNL     1      10.625  52.125  -1.350  1.00  0.00    -0.000 C 
BRANCH  28  29
ATOM     29  C   UNL     1      11.084  53.097  -0.253  1.00  0.00    -0.000 C 
BRANCH  29  30
ATOM     30  C   UNL     1      10.916  54.574  -0.670  1.00  0.00    -0.000 C 
BRANCH  30  31
ATOM     31  C   UNL     1       9.723  55.272   0.006  1.00  0.00    -0.003 C 
ATOM     32  C   UNL     1       9.710  55.096   1.525  1.00  0.00     0.004 C 
ENDBRANCH  30  31
ENDBRANCH  29  30
ENDBRANCH  28  29
ENDBRANCH  27  28
ENDBRANCH  26  27
ENDBRANCH  25  26
ENDBRANCH  24  25
ENDBRANCH  23  24
ENDBRANCH  22  23
ENDBRANCH  21  22
ENDBRANCH  20  21
ENDBRANCH  19  20
ENDBRANCH  18  19
ENDBRANCH   1  18
TORSDOF 28
ENDMDL
MODEL 3
REMARK VINA RESULT:    -4.646      2.277      5.117
REMARK INTER + INTRA:         -17.342
REMARK INTER:                 -11.110
REMARK INTRA:                  -6.232
REMARK UNBOUND:                -5.090
REMARK SMILES CCCCCCCCCCCCCCCCCCCCCCCCCCCCCC(=O)[O-]
REMARK SMILES IDX 16 1 17 2 18 3 19 4 20 5 21 6 22 7 23 8 24 9 25 10 26 11
REMARK SMILES IDX 27 12 28 13 29 14 30 15 31 16 32 17 15 18 14 19 13 20 12 21
REMARK SMILES IDX 11 22 10 23 9 24 8 25 7 26 6 27 5 28 4 29 3 30 2 31 1 32
REMARK H PARENT
REMARK Flexibility Score: inf
ROOT
ATOM      1  C   UNL     1       2.711  52.684  -1.474  1.00  0.00     0.000 C 
ENDROOT
BRANCH   1   2
ATOM      2  C   UNL     1       3.882  51.968  -2.167  1.00  0.00     0.000 C 
BRANCH   2   3
ATOM      3  C   UNL     1       5.053  52.928  -2.412  1.00  0.00     0.000 C 
BRANCH   3   4
ATOM      4  C   UNL     1       6.416  52.215  -2.477  1.00  0.00     0.000 C 
BRANCH   4   5
ATOM      5  C   UNL     1       7.441  52.715  -1.436  1.00  0.00     0.000 C 
BRANCH   5   6
ATOM      6  C   UNL     1       8.500  53.653  -2.047  1.00  0.00     0.000 C 
BRANCH   6   7
ATOM      7  C   UNL     1       9.071  54.637  -1.002  1.00  0.00     0.000 C 
BRANCH   7   8
ATOM      8  C   UNL     1      10.580  54.454  -0.749  1.00  0.00     0.000 C 
BRANCH   8   9
ATOM      9  C   UNL     1      11.197  53.208  -1.408  1.00  0.00     0.000 C 
BRANCH   9  10
ATOM     10  C   UNL     1      11.065  51.949  -0.534  1.00  0.00     0.000 C 
BRANCH  10  11
ATOM     11  C   UNL     1      11.556  52.170   0.907  1.00  0.00     0.000 C 
BRANCH  11  12
ATOM     12  C   UNL     1      10.594  51.599   1.960  1.00  0.00     0.000 C 
BRANCH  12  13
ATOM     13  C   UNL     1       9.170  52.130   1.756  1.00  0.00     0.006 C 
BRANCH  13  14
ATOM     14  C   UNL     1       8.564  52.595   3.085  1.00  0.00     0.053 C 
BRANCH  14  15
ATOM     15  C   UNL     1       8.447  54.086   3.123  1.00  0.00     0.041 C 
ATOM     16  O   UNL     1       7.448  54.630   3.661  1.00  0.00    -0.550 OA
ATOM     17  O   UNL     1       9.437  54.878   2.553  1.00  0.00    -0.550 OA
ENDBRANCH  14  15
ENDBRANCH  13  14
ENDBRANCH  12  13
ENDBRANCH  11  12
ENDBRANCH  10  11
ENDBRANCH   9  10
ENDBRANCH   8   9
ENDBRANCH   7   8
ENDBRANCH   6   7
ENDBRANCH   5   6
ENDBRANCH   4   5
ENDBRANCH   3   4
ENDBRANCH   2   3
ENDBRANCH   1   2
BRANCH   1  18
ATOM     18  C   UNL     1       1.910  51.750  -0.552  1.00  0.00     0.000 C 
BRANCH  18  19
ATOM     19  C   UNL     1       2.808  50.756   0.205  1.00  0.00     0.000 C 
BRANCH  19  20
ATOM     20  C   UNL     1       3.367  51.338   1.513  1.00  0.00     0.000 C 
BRANCH  20  21
ATOM     21  C   UNL     1       4.895  51.520   1.470  1.00  0.00     0.000 C 
BRANCH  21  22
ATOM     22  C   UNL     1       5.311  52.997   1.403  1.00  0.00     0.000 C 
BRANCH  22  23
ATOM     23  C   UNL     1       4.124  53.954   1.613  1.00  0.00     0.000 C 
BRANCH  23  24
ATOM     24  C   UNL     1       4.279  55.264   0.824  1.00  0.00    -0.000 C 
BRANCH  24  25
ATOM     25  C   UNL     1       5.684  55.427   0.223  1.00  0.00    -0.000 C 
BRANCH  25  26
ATOM     26  C   UNL     1       5.695  56.284  -1.055  1.00  0.00    -0.000 C 
BRANCH  26  27
ATOM     27  C   UNL     1       6.606  57.526  -0.960  1.00  0.00    -0.000 C 
BRANCH  27  28
ATOM     28  C   UNL     1       7.395  57.768  -2.256  1.00  0.00    -0.000 C 
BRANCH  28  29
ATOM     29  C   UNL     1       6.662  57.171  -3.467  1.00  0.00    -0.000 C 
BRANCH  29  30
ATOM     30  C   UNL     1       7.609  56.378  -4.393  1.00  0.00    -0.000 C 
BRANCH  30  31
ATOM     31  C   UNL     1       6.960  55.127  -5.010  1.00  0.00    -0.003 C 
ATOM     32  C   UNL     1       5.441  55.243  -5.139  1.00  0.00     0.004 C 
ENDBRANCH  30  31
ENDBRANCH  29  30
ENDBRANCH  28  29
ENDBRANCH  27  28
ENDBRANCH  26  27
ENDBRANCH  25  26
ENDBRANCH  24  25
ENDBRANCH  23  24
ENDBRANCH  22  23
ENDBRANCH  21  22
ENDBRANCH  20  21
ENDBRANCH  19  20
ENDBRANCH  18  19
ENDBRANCH   1  18
TORSDOF 28
ENDMDL
MODEL 4
REMARK VINA RESULT:    -4.643      2.786      6.811
REMARK INTER + INTRA:         -17.334
REMARK INTER:                 -11.546
REMARK INTRA:                  -5.788
REMARK UNBOUND:                -5.090
REMARK SMILES CCCCCCCCCCCCCCCCCCCCCCCCCCCCCC(=O)[O-]
REMARK SMILES IDX 16 1 17 2 18 3 19 4 20 5 21 6 22 7 23 8 24 9 25 10 26 11
REMARK SMILES IDX 27 12 28 13 29 14 30 15 31 16 32 17 15 18 14 19 13 20 12 21
REMARK SMILES IDX 11 22 10 23 9 24 8 25 7 26 6 27 5 28 4 29 3 30 2 31 1 32
REMARK H PARENT
REMARK Flexibility Score: inf
ROOT
ATOM      1  C   UNL     1       5.842  53.170   1.431  1.00  0.00     0.000 C 
ENDROOT
BRANCH   1   2
ATOM      2  C   UNL     1       5.171  51.790   1.526  1.00  0.00     0.000 C 
BRANCH   2   3
ATOM      3  C   UNL     1       3.644  51.920   1.604  1.00  0.00     0.000 C 
BRANCH   3   4
ATOM      4  C   UNL     1       2.904  50.665   1.105  1.00  0.00     0.000 C 
BRANCH   4   5
ATOM      5  C   UNL     1       2.230  50.835  -0.273  1.00  0.00     0.000 C 
BRANCH   5   6
ATOM      6  C   UNL     1       1.967  52.311  -0.629  1.00  0.00     0.000 C 
BRANCH   6   7
ATOM      7  C   UNL     1       2.657  52.719  -1.949  1.00  0.00     0.000 C 
BRANCH   7   8
ATOM      8  C   UNL     1       4.093  52.176  -2.084  1.00  0.00     0.000 C 
BRANCH   8   9
ATOM      9  C   UNL     1       4.814  52.578  -3.382  1.00  0.00     0.000 C 
BRANCH   9  10
ATOM     10  C   UNL     1       6.345  52.592  -3.230  1.00  0.00     0.000 C 
BRANCH  10  11
ATOM     11  C   UNL     1       6.807  52.175  -1.823  1.00  0.00     0.000 C 
BRANCH  11  12
ATOM     12  C   UNL     1       8.333  52.216  -1.658  1.00  0.00     0.000 C 
BRANCH  12  13
ATOM     13  C   UNL     1       8.757  53.336  -0.699  1.00  0.00     0.006 C 
BRANCH  13  14
ATOM     14  C   UNL     1      10.143  53.877  -1.069  1.00  0.00     0.053 C 
BRANCH  14  15
ATOM     15  C   UNL     1      11.220  52.971  -0.561  1.00  0.00     0.041 C 
ATOM     16  O   UNL     1      11.539  52.987   0.656  1.00  0.00    -0.550 OA
ATOM     17  O   UNL     1      11.883  52.117  -1.434  1.00  0.00    -0.550 OA
ENDBRANCH  14  15
ENDBRANCH  13  14
ENDBRANCH  12  13
ENDBRANCH  11  12
ENDBRANCH  10  11
ENDBRANCH   9  10
ENDBRANCH   8   9
ENDBRANCH   7   8
ENDBRANCH   6   7
ENDBRANCH   5   6
ENDBRANCH   4   5
ENDBRANCH   3   4
ENDBRANCH   2   3
ENDBRANCH   1   2
BRANCH   1  18
ATOM     18  C   UNL     1       4.927  54.229   0.796  1.00  0.00     0.000 C 
BRANCH  18  19
ATOM     19  C   UNL     1       5.718  55.386   0.158  1.00  0.00     0.000 C 
BRANCH  19  20
ATOM     20  C   UNL     1       5.244  55.714  -1.266  1.00  0.00     0.000 C 
BRANCH  20  21
ATOM     21  C   UNL     1       6.407  56.094  -2.200  1.00  0.00     0.000 C 
BRANCH  21  22
ATOM     22  C   UNL     1       7.340  57.147  -1.583  1.00  0.00     0.000 C 
BRANCH  22  23
ATOM     23  C   UNL     1       8.784  57.030  -2.101  1.00  0.00     0.000 C 
BRANCH  23  24
ATOM     24  C   UNL     1       9.565  58.348  -1.967  1.00  0.00    -0.000 C 
BRANCH  24  25
ATOM     25  C   UNL     1       8.783  59.553  -2.516  1.00  0.00    -0.000 C 
BRANCH  25  26
ATOM     26  C   UNL     1       8.722  59.580  -4.053  1.00  0.00    -0.000 C 
BRANCH  26  27
ATOM     27  C   UNL     1       7.285  59.625  -4.615  1.00  0.00    -0.000 C 
BRANCH  27  28
ATOM     28  C   UNL     1       6.841  58.268  -5.182  1.00  0.00    -0.000 C 
BRANCH  28  29
ATOM     29  C   UNL     1       7.950  57.640  -6.040  1.00  0.00    -0.000 C 
BRANCH  29  30
ATOM     30  C   UNL     1       8.207  56.162  -5.675  1.00  0.00    -0.000 C 
BRANCH  30  31
ATOM     31  C   UNL     1       6.965  55.266  -5.831  1.00  0.00    -0.003 C 
ATOM     32  C   UNL     1       6.501  55.135  -7.281  1.00  0.00     0.004 C 
ENDBRANCH  30  31
ENDBRANCH  29  30
ENDBRANCH  28  29
ENDBRANCH  27  28
ENDBRANCH  26  27
ENDBRANCH  25  26
ENDBRANCH  24  25
ENDBRANCH  23  24
ENDBRANCH  22  23
ENDBRANCH  21  22
ENDBRANCH  20  21
ENDBRANCH  19  20
ENDBRANCH  18  19
ENDBRANCH   1  18
TORSDOF 28
ENDMDL
MODEL 5
REMARK VINA RESULT:    -4.594      2.499      6.179
REMARK INTER + INTRA:         -17.205
REMARK INTER:                 -11.166
REMARK INTRA:                  -6.039
REMARK UNBOUND:                -5.090
REMARK SMILES CCCCCCCCCCCCCCCCCCCCCCCCCCCCCC(=O)[O-]
REMARK SMILES IDX 16 1 17 2 18 3 19 4 20 5 21 6 22 7 23 8 24 9 25 10 26 11
REMARK SMILES IDX 27 12 28 13 29 14 30 15 31 16 32 17 15 18 14 19 13 20 12 21
REMARK SMILES IDX 11 22 10 23 9 24 8 25 7 26 6 27 5 28 4 29 3 30 2 31 1 32
REMARK H PARENT
REMARK Flexibility Score: inf
ROOT
ATOM      1  C   UNL     1       4.775  52.240   1.441  1.00  0.00     0.000 C 
ENDROOT
BRANCH   1   2
ATOM      2  C   UNL     1       4.170  53.621   1.140  1.00  0.00     0.000 C 
BRANCH   2   3
ATOM      3  C   UNL     1       5.025  54.744   1.740  1.00  0.00     0.000 C 
BRANCH   3   4
ATOM      4  C   UNL     1       6.537  54.468   1.647  1.00  0.00     0.000 C 
BRANCH   4   5
ATOM      5  C   UNL     1       7.305  54.702   2.966  1.00  0.00     0.000 C 
BRANCH   5   6
ATOM      6  C   UNL     1       8.277  53.555   3.301  1.00  0.00     0.000 C 
BRANCH   6   7
ATOM      7  C   UNL     1       8.423  52.560   2.129  1.00  0.00     0.000 C 
BRANCH   7   8
ATOM      8  C   UNL     1       9.664  51.655   2.243  1.00  0.00     0.000 C 
BRANCH   8   9
ATOM      9  C   UNL     1      10.193  51.114   0.903  1.00  0.00     0.000 C 
BRANCH   9  10
ATOM     10  C   UNL     1       9.451  51.705  -0.309  1.00  0.00     0.000 C 
BRANCH  10  11
ATOM     11  C   UNL     1      10.403  52.132  -1.439  1.00  0.00     0.000 C 
BRANCH  11  12
ATOM     12  C   UNL     1      11.135  53.449  -1.139  1.00  0.00     0.000 C 
BRANCH  12  13
ATOM     13  C   UNL     1      10.150  54.548  -0.722  1.00  0.00     0.006 C 
BRANCH  13  14
ATOM     14  C   UNL     1      10.591  55.210   0.588  1.00  0.00     0.053 C 
BRANCH  14  15
ATOM     15  C   UNL     1      10.285  56.675   0.573  1.00  0.00     0.041 C 
ATOM     16  O   UNL     1      11.090  57.484   0.043  1.00  0.00    -0.550 OA
ATOM     17  O   UNL     1       9.117  57.150   1.156  1.00  0.00    -0.550 OA
ENDBRANCH  14  15
ENDBRANCH  13  14
ENDBRANCH  12  13
ENDBRANCH  11  12
ENDBRANCH  10  11
ENDBRANCH   9  10
ENDBRANCH   8   9
ENDBRANCH   7   8
ENDBRANCH   6   7
ENDBRANCH   5   6
ENDBRANCH   4   5
ENDBRANCH   3   4
ENDBRANCH   2   3
ENDBRANCH   1   2
BRANCH   1  18
ATOM     18  C   UNL     1       3.752  51.102   1.294  1.00  0.00     0.000 C 
BRANCH  18  19
ATOM     19  C   UNL     1       2.573  51.482   0.380  1.00  0.00     0.000 C 
BRANCH  19  20
ATOM     20  C   UNL     1       2.273  50.409  -0.678  1.00  0.00     0.000 C 
BRANCH  20  21
ATOM     21  C   UNL     1       2.267  50.979  -2.108  1.00  0.00     0.000 C 
BRANCH  21  22
ATOM     22  C   UNL     1       3.416  51.969  -2.354  1.00  0.00     0.000 C 
BRANCH  22  23
ATOM     23  C   UNL     1       4.193  51.659  -3.645  1.00  0.00     0.000 C 
BRANCH  23  24
ATOM     24  C   UNL     1       5.706  51.881  -3.488  1.00  0.00    -0.000 C 
BRANCH  24  25
ATOM     25  C   UNL     1       6.118  52.110  -2.024  1.00  0.00    -0.000 C 
BRANCH  25  26
ATOM     26  C   UNL     1       6.752  53.493  -1.788  1.00  0.00    -0.000 C 
BRANCH  26  27
ATOM     27  C   UNL     1       6.956  54.310  -3.081  1.00  0.00    -0.000 C 
BRANCH  27  28
ATOM     28  C   UNL     1       6.115  55.596  -3.094  1.00  0.00    -0.000 C 
BRANCH  28  29
ATOM     29  C   UNL     1       4.927  55.467  -4.058  1.00  0.00    -0.000 C 
BRANCH  29  30
ATOM     30  C   UNL     1       3.575  55.727  -3.359  1.00  0.00    -0.000 C 
BRANCH  30  31
ATOM     31  C   UNL     1       3.638  55.589  -1.828  1.00  0.00    -0.003 C 
ATOM     32  C   UNL     1       3.229  56.867  -1.095  1.00  0.00     0.004 C 
ENDBRANCH  30  31
ENDBRANCH  29  30
ENDBRANCH  28  29
ENDBRANCH  27  28
ENDBRANCH  26  27
ENDBRANCH  25  26
ENDBRANCH  24  25
ENDBRANCH  23  24
ENDBRANCH  22  23
ENDBRANCH  21  22
ENDBRANCH  20  21
ENDBRANCH  19  20
ENDBRANCH  18  19
ENDBRANCH   1  18
TORSDOF 28
ENDMDL
MODEL 6
REMARK VINA RESULT:    -4.586      2.153      5.682
REMARK INTER + INTRA:         -17.183
REMARK INTER:                 -11.412
REMARK INTRA:                  -5.771
REMARK UNBOUND:                -5.090
REMARK SMILES CCCCCCCCCCCCCCCCCCCCCCCCCCCCCC(=O)[O-]
REMARK SMILES IDX 16 1 17 2 18 3 19 4 20 5 21 6 22 7 23 8 24 9 25 10 26 11
REMARK SMILES IDX 27 12 28 13 29 14 30 15 31 16 32 17 15 18 14 19 13 20 12 21
REMARK SMILES IDX 11 22 10 23 9 24 8 25 7 26 6 27 5 28 4 29 3 30 2 31 1 32
REMARK H PARENT
REMARK Flexibility Score: inf
ROOT
ATOM      1  C   UNL     1       3.728  51.813   1.521  1.00  0.00     0.000 C 
ENDROOT
BRANCH   1   2
ATOM      2  C   UNL     1       5.265  51.819   1.474  1.00  0.00     0.000 C 
BRANCH   2   3
ATOM      3  C   UNL     1       5.813  53.251   1.424  1.00  0.00     0.000 C 
BRANCH   3   4
ATOM      4  C   UNL     1       6.812  53.476   0.274  1.00  0.00     0.000 C 
BRANCH   4   5
ATOM      5  C   UNL     1       6.467  52.711  -1.022  1.00  0.00     0.000 C 
BRANCH   5   6
ATOM      6  C   UNL     1       7.716  52.185  -1.754  1.00  0.00     0.000 C 
BRANCH   6   7
ATOM      7  C   UNL     1       8.885  51.914  -0.781  1.00  0.00     0.000 C 
BRANCH   7   8
ATOM      8  C   UNL     1      10.262  51.877  -1.471  1.00  0.00     0.000 C 
BRANCH   8   9
ATOM      9  C   UNL     1      11.087  53.168  -1.332  1.00  0.00     0.000 C 
BRANCH   9  10
ATOM     10  C   UNL     1      11.003  53.777   0.078  1.00  0.00     0.000 C 
BRANCH  10  11
ATOM     11  C   UNL     1      10.699  55.285   0.058  1.00  0.00     0.000 C 
BRANCH  11  12
ATOM     12  C   UNL     1       9.627  55.666  -0.973  1.00  0.00     0.000 C 
BRANCH  12  13
ATOM     13  C   UNL     1       9.724  57.149  -1.352  1.00  0.00     0.006 C 
BRANCH  13  14
ATOM     14  C   UNL     1      10.494  57.937  -0.286  1.00  0.00     0.053 C 
BRANCH  14  15
ATOM     15  C   UNL     1       9.591  58.903   0.415  1.00  0.00     0.041 C 
ATOM     16  O   UNL     1       9.776  59.175   1.630  1.00  0.00    -0.550 OA
ATOM     17  O   UNL     1       8.537  59.495  -0.269  1.00  0.00    -0.550 OA
ENDBRANCH  14  15
ENDBRANCH  13  14
ENDBRANCH  12  13
ENDBRANCH  11  12
ENDBRANCH  10  11
ENDBRANCH   9  10
ENDBRANCH   8   9
ENDBRANCH   7   8
ENDBRANCH   6   7
ENDBRANCH   5   6
ENDBRANCH   4   5
ENDBRANCH   3   4
ENDBRANCH   2   3
ENDBRANCH   1   2
BRANCH   1  18
ATOM     18  C   UNL     1       3.113  50.743   0.604  1.00  0.00     0.000 C 
BRANCH  18  19
ATOM     19  C   UNL     1       2.623  51.323  -0.735  1.00  0.00     0.000 C 
BRANCH  19  20
ATOM     20  C   UNL     1       1.875  52.655  -0.565  1.00  0.00     0.000 C 
BRANCH  20  21
ATOM     21  C   UNL     1       2.617  53.833  -1.221  1.00  0.00     0.000 C 
BRANCH  21  22
ATOM     22  C   UNL     1       2.860  54.995  -0.244  1.00  0.00     0.000 C 
BRANCH  22  23
ATOM     23  C   UNL     1       3.582  56.180  -0.908  1.00  0.00     0.000 C 
BRANCH  23  24
ATOM     24  C   UNL     1       4.952  56.464  -0.271  1.00  0.00    -0.000 C 
BRANCH  24  25
ATOM     25  C   UNL     1       6.023  56.825  -1.313  1.00  0.00    -0.000 C 
BRANCH  25  26
ATOM     26  C   UNL     1       5.717  56.257  -2.710  1.00  0.00    -0.000 C 
BRANCH  26  27
ATOM     27  C   UNL     1       6.943  55.628  -3.406  1.00  0.00    -0.000 C 
BRANCH  27  28
ATOM     28  C   UNL     1       6.545  54.512  -4.384  1.00  0.00    -0.000 C 
BRANCH  28  29
ATOM     29  C   UNL     1       5.059  54.154  -4.237  1.00  0.00    -0.000 C 
BRANCH  29  30
ATOM     30  C   UNL     1       4.491  53.477  -5.503  1.00  0.00    -0.000 C 
BRANCH  30  31
ATOM     31  C   UNL     1       4.211  51.975  -5.323  1.00  0.00    -0.003 C 
ATOM     32  C   UNL     1       4.624  51.450  -3.948  1.00  0.00     0.004 C 
ENDBRANCH  30  31
ENDBRANCH  29  30
ENDBRANCH  28  29
ENDBRANCH  27  28
ENDBRANCH  26  27
ENDBRANCH  25  26
ENDBRANCH  24  25
ENDBRANCH  23  24
ENDBRANCH  22  23
ENDBRANCH  21  22
ENDBRANCH  20  21
ENDBRANCH  19  20
ENDBRANCH  18  19
ENDBRANCH   1  18
TORSDOF 28
ENDMDL
MODEL 7
REMARK VINA RESULT:    -4.570      2.111      6.123
REMARK INTER + INTRA:         -17.140
REMARK INTER:                 -11.870
REMARK INTRA:                  -5.270
REMARK UNBOUND:                -5.090
REMARK SMILES CCCCCCCCCCCCCCCCCCCCCCCCCCCCCC(=O)[O-]
REMARK SMILES IDX 16 1 17 2 18 3 19 4 20 5 21 6 22 7 23 8 24 9 25 10 26 11
REMARK SMILES IDX 27 12 28 13 29 14 30 15 31 16 32 17 15 18 14 19 13 20 12 21
REMARK SMILES IDX 11 22 10 23 9 24 8 25 7 26 6 27 5 28 4 29 3 30 2 31 1 32
REMARK H PARENT
REMARK Flexibility Score: inf
ROOT
ATOM      1  C   UNL     1       5.967  52.763   0.107  1.00  0.00     0.000 C 
ENDROOT
BRANCH   1   2
ATOM      2  C   UNL     1       5.352  51.871   1.198  1.00  0.00     0.000 C 
BRANCH   2   3
ATOM      3  C   UNL     1       3.826  52.021   1.243  1.00  0.00     0.000 C 
BRANCH   3   4
ATOM      4  C   UNL     1       3.091  50.680   1.423  1.00  0.00     0.000 C 
BRANCH   4   5
ATOM      5  C   UNL     1       2.069  50.365   0.309  1.00  0.00     0.000 C 
BRANCH   5   6
ATOM      6  C   UNL     1       2.119  51.379  -0.850  1.00  0.00     0.000 C 
BRANCH   6   7
ATOM      7  C   UNL     1       2.369  50.690  -2.210  1.00  0.00     0.000 C 
BRANCH   7   8
ATOM      8  C   UNL     1       2.632  51.681  -3.360  1.00  0.00     0.000 C 
BRANCH   8   9
ATOM      9  C   UNL     1       3.896  51.386  -4.187  1.00  0.00     0.000 C 
BRANCH   9  10
ATOM     10  C   UNL     1       5.148  52.078  -3.622  1.00  0.00     0.000 C 
BRANCH  10  11
ATOM     11  C   UNL     1       4.902  53.553  -3.260  1.00  0.00     0.000 C 
BRANCH  11  12
ATOM     12  C   UNL     1       5.419  54.526  -4.330  1.00  0.00     0.000 C 
BRANCH  12  13
ATOM     13  C   UNL     1       6.951  54.602  -4.316  1.00  0.00     0.006 C 
BRANCH  13  14
ATOM     14  C   UNL     1       7.474  55.314  -5.568  1.00  0.00     0.053 C 
BRANCH  14  15
ATOM     15  C   UNL     1       7.350  56.799  -5.426  1.00  0.00     0.041 C 
ATOM     16  O   UNL     1       6.571  57.444  -6.175  1.00  0.00    -0.550 OA
ATOM     17  O   UNL     1       8.106  57.474  -4.475  1.00  0.00    -0.550 OA
ENDBRANCH  14  15
ENDBRANCH  13  14
ENDBRANCH  12  13
ENDBRANCH  11  12
ENDBRANCH  10  11
ENDBRANCH   9  10
ENDBRANCH   8   9
ENDBRANCH   7   8
ENDBRANCH   6   7
ENDBRANCH   5   6
ENDBRANCH   4   5
ENDBRANCH   3   4
ENDBRANCH   2   3
ENDBRANCH   1   2
BRANCH   1  18
ATOM     18  C   UNL     1       7.495  52.615   0.016  1.00  0.00     0.000 C 
BRANCH  18  19
ATOM     19  C   UNL     1       7.969  52.252  -1.403  1.00  0.00     0.000 C 
BRANCH  19  20
ATOM     20  C   UNL     1       9.410  51.721  -1.429  1.00  0.00     0.000 C 
BRANCH  20  21
ATOM     21  C   UNL     1      10.105  51.842  -0.061  1.00  0.00     0.000 C 
BRANCH  21  22
ATOM     22  C   UNL     1      11.243  52.875  -0.066  1.00  0.00     0.000 C 
BRANCH  22  23
ATOM     23  C   UNL     1      11.112  53.899   1.075  1.00  0.00     0.000 C 
BRANCH  23  24
ATOM     24  C   UNL     1      10.179  55.066   0.711  1.00  0.00    -0.000 C 
BRANCH  24  25
ATOM     25  C   UNL     1      10.081  55.291  -0.807  1.00  0.00    -0.000 C 
BRANCH  25  26
ATOM     26  C   UNL     1       9.154  56.460  -1.183  1.00  0.00    -0.000 C 
BRANCH  26  27
ATOM     27  C   UNL     1       7.655  56.095  -1.159  1.00  0.00    -0.000 C 
BRANCH  27  28
ATOM     28  C   UNL     1       6.862  56.960  -0.168  1.00  0.00    -0.000 C 
BRANCH  28  29
ATOM     29  C   UNL     1       6.141  56.088   0.871  1.00  0.00    -0.000 C 
BRANCH  29  30
ATOM     30  C   UNL     1       4.607  56.249   0.807  1.00  0.00    -0.000 C 
BRANCH  30  31
ATOM     31  C   UNL     1       4.008  55.892  -0.565  1.00  0.00    -0.003 C 
ATOM     32  C   UNL     1       2.704  55.100  -0.460  1.00  0.00     0.004 C 
ENDBRANCH  30  31
ENDBRANCH  29  30
ENDBRANCH  28  29
ENDBRANCH  27  28
ENDBRANCH  26  27
ENDBRANCH  25  26
ENDBRANCH  24  25
ENDBRANCH  23  24
ENDBRANCH  22  23
ENDBRANCH  21  22
ENDBRANCH  20  21
ENDBRANCH  19  20
ENDBRANCH  18  19
ENDBRANCH   1  18
TORSDOF 28
ENDMDL
MODEL 8
REMARK VINA RESULT:    -4.568      2.847      6.093
REMARK INTER + INTRA:         -17.134
REMARK INTER:                 -11.843
REMARK INTRA:                  -5.291
REMARK UNBOUND:                -5.090
REMARK SMILES CCCCCCCCCCCCCCCCCCCCCCCCCCCCCC(=O)[O-]
REMARK SMILES IDX 16 1 17 2 18 3 19 4 20 5 21 6 22 7 23 8 24 9 25 10 26 11
REMARK SMILES IDX 27 12 28 13 29 14 30 15 31 16 32 17 15 18 14 19 13 20 12 21
REMARK SMILES IDX 11 22 10 23 9 24 8 25 7 26 6 27 5 28 4 29 3 30 2 31 1 32
REMARK H PARENT
REMARK Flexibility Score: inf
ROOT
ATOM      1  C   UNL     1       4.159  51.740   0.744  1.00  0.00     0.000 C 
ENDROOT
BRANCH   1   2
ATOM      2  C   UNL     1       3.980  53.064   1.505  1.00  0.00     0.000 C 
BRANCH   2   3
ATOM      3  C   UNL     1       3.842  54.246   0.537  1.00  0.00     0.000 C 
BRANCH   3   4
ATOM      4  C   UNL     1       4.868  55.364   0.799  1.00  0.00     0.000 C 
BRANCH   4   5
ATOM      5  C   UNL     1       5.798  55.099   2.003  1.00  0.00     0.000 C 
BRANCH   5   6
ATOM      6  C   UNL     1       7.237  54.751   1.578  1.00  0.00     0.000 C 
BRANCH   6   7
ATOM      7  C   UNL     1       7.797  53.547   2.367  1.00  0.00     0.000 C 
BRANCH   7   8
ATOM      8  C   UNL     1       7.957  52.275   1.513  1.00  0.00     0.000 C 
BRANCH   8   9
ATOM      9  C   UNL     1       9.402  51.762   1.386  1.00  0.00     0.000 C 
BRANCH   9  10
ATOM     10  C   UNL     1       9.901  51.751  -0.070  1.00  0.00     0.000 C 
BRANCH  10  11
ATOM     11  C   UNL     1      11.230  52.503  -0.249  1.00  0.00     0.000 C 
BRANCH  11  12
ATOM     12  C   UNL     1      11.089  53.771  -1.105  1.00  0.00     0.000 C 
BRANCH  12  13
ATOM     13  C   UNL     1      10.492  54.926  -0.291  1.00  0.00     0.006 C 
BRANCH  13  14
ATOM     14  C   UNL     1      11.140  55.009   1.096  1.00  0.00     0.053 C 
BRANCH  14  15
ATOM     15  C   UNL     1      11.822  56.327   1.286  1.00  0.00     0.041 C 
ATOM     16  O   UNL     1      11.923  57.132   0.324  1.00  0.00    -0.550 OA
ATOM     17  O   UNL     1      12.359  56.663   2.523  1.00  0.00    -0.550 OA
ENDBRANCH  14  15
ENDBRANCH  13  14
ENDBRANCH  12  13
ENDBRANCH  11  12
ENDBRANCH  10  11
ENDBRANCH   9  10
ENDBRANCH   8   9
ENDBRANCH   7   8
ENDBRANCH   6   7
ENDBRANCH   5   6
ENDBRANCH   4   5
ENDBRANCH   3   4
ENDBRANCH   2   3
ENDBRANCH   1   2
BRANCH   1  18
ATOM     18  C   UNL     1       3.008  50.753   0.996  1.00  0.00     0.000 C 
BRANCH  18  19
ATOM     19  C   UNL     1       2.269  50.365  -0.298  1.00  0.00     0.000 C 
BRANCH  19  20
ATOM     20  C   UNL     1       2.309  51.476  -1.359  1.00  0.00     0.000 C 
BRANCH  20  21
ATOM     21  C   UNL     1       2.284  50.918  -2.794  1.00  0.00     0.000 C 
BRANCH  21  22
ATOM     22  C   UNL     1       3.498  51.367  -3.622  1.00  0.00     0.000 C 
BRANCH  22  23
ATOM     23  C   UNL     1       4.389  52.368  -2.866  1.00  0.00     0.000 C 
BRANCH  23  24
ATOM     24  C   UNL     1       5.864  51.936  -2.839  1.00  0.00    -0.000 C 
BRANCH  24  25
ATOM     25  C   UNL     1       6.665  52.647  -1.736  1.00  0.00    -0.000 C 
BRANCH  25  26
ATOM     26  C   UNL     1       7.529  53.803  -2.271  1.00  0.00    -0.000 C 
BRANCH  26  27
ATOM     27  C   UNL     1       6.858  55.187  -2.146  1.00  0.00    -0.000 C 
BRANCH  27  28
ATOM     28  C   UNL     1       6.633  55.848  -3.514  1.00  0.00    -0.000 C 
BRANCH  28  29
ATOM     29  C   UNL     1       7.073  54.918  -4.654  1.00  0.00    -0.000 C 
BRANCH  29  30
ATOM     30  C   UNL     1       7.769  55.684  -5.800  1.00  0.00    -0.000 C 
BRANCH  30  31
ATOM     31  C   UNL     1       7.232  57.113  -5.999  1.00  0.00    -0.003 C 
ATOM     32  C   UNL     1       8.328  58.177  -5.934  1.00  0.00     0.004 C 
ENDBRANCH  30  31
ENDBRANCH  29  30
ENDBRANCH  28  29
ENDBRANCH  27  28
ENDBRANCH  26  27
ENDBRANCH  25  26
ENDBRANCH  24  25
ENDBRANCH  23  24
ENDBRANCH  22  23
ENDBRANCH  21  22
ENDBRANCH  20  21
ENDBRANCH  19  20
ENDBRANCH  18  19
ENDBRANCH   1  18
TORSDOF 28
ENDMDL
MODEL 9
REMARK VINA RESULT:    -4.566      2.299      5.037
REMARK INTER + INTRA:         -17.131
REMARK INTER:                 -11.650
REMARK INTRA:                  -5.481
REMARK UNBOUND:                -5.090
REMARK SMILES CCCCCCCCCCCCCCCCCCCCCCCCCCCCCC(=O)[O-]
REMARK SMILES IDX 16 1 17 2 18 3 19 4 20 5 21 6 22 7 23 8 24 9 25 10 26 11
REMARK SMILES IDX 27 12 28 13 29 14 30 15 31 16 32 17 15 18 14 19 13 20 12 21
REMARK SMILES IDX 11 22 10 23 9 24 8 25 7 26 6 27 5 28 4 29 3 30 2 31 1 32
REMARK H PARENT
REMARK Flexibility Score: inf
ROOT
ATOM      1  C   UNL     1       4.031  51.119   1.396  1.00  0.00     0.000 C 
ENDROOT
BRANCH   1   2
ATOM      2  C   UNL     1       2.682  51.459   0.740  1.00  0.00     0.000 C 
BRANCH   2   3
ATOM      3  C   UNL     1       2.274  50.386  -0.278  1.00  0.00     0.000 C 
BRANCH   3   4
ATOM      4  C   UNL     1       2.314  50.889  -1.733  1.00  0.00     0.000 C 
BRANCH   4   5
ATOM      5  C   UNL     1       2.271  52.426  -1.872  1.00  0.00     0.000 C 
BRANCH   5   6
ATOM      6  C   UNL     1       3.458  52.984  -2.681  1.00  0.00     0.000 C 
BRANCH   6   7
ATOM      7  C   UNL     1       4.199  51.875  -3.460  1.00  0.00     0.000 C 
BRANCH   7   8
ATOM      8  C   UNL     1       5.732  52.021  -3.425  1.00  0.00     0.000 C 
BRANCH   8   9
ATOM      9  C   UNL     1       6.332  52.178  -2.016  1.00  0.00     0.000 C 
BRANCH   9  10
ATOM     10  C   UNL     1       7.289  53.378  -1.910  1.00  0.00     0.000 C 
BRANCH  10  11
ATOM     11  C   UNL     1       6.664  54.686  -2.425  1.00  0.00     0.000 C 
BRANCH  11  12
ATOM     12  C   UNL     1       7.545  55.403  -3.459  1.00  0.00     0.000 C 
BRANCH  12  13
ATOM     13  C   UNL     1       7.023  55.176  -4.884  1.00  0.00     0.006 C 
BRANCH  13  14
ATOM     14  C   UNL     1       7.895  55.911  -5.908  1.00  0.00     0.053 C 
BRANCH  14  15
ATOM     15  C   UNL     1       7.610  57.380  -5.893  1.00  0.00     0.041 C 
ATOM     16  O   UNL     1       8.543  58.207  -6.063  1.00  0.00    -0.550 OA
ATOM     17  O   UNL     1       6.316  57.837  -5.677  1.00  0.00    -0.550 OA
ENDBRANCH  14  15
ENDBRANCH  13  14
ENDBRANCH  12  13
ENDBRANCH  11  12
ENDBRANCH  10  11
ENDBRANCH   9  10
ENDBRANCH   8   9
ENDBRANCH   7   8
ENDBRANCH   6   7
ENDBRANCH   5   6
ENDBRANCH   4   5
ENDBRANCH   3   4
ENDBRANCH   2   3
ENDBRANCH   1   2
BRANCH   1  18
ATOM     18  C   UNL     1       5.048  52.266   1.284  1.00  0.00     0.000 C 
BRANCH  18  19
ATOM     19  C   UNL     1       4.382  53.614   0.951  1.00  0.00     0.000 C 
BRANCH  19  20
ATOM     20  C   UNL     1       5.098  54.806   1.605  1.00  0.00     0.000 C 
BRANCH  20  21
ATOM     21  C   UNL     1       6.591  54.529   1.856  1.00  0.00     0.000 C 
BRANCH  21  22
ATOM     22  C   UNL     1       7.466  55.775   1.646  1.00  0.00     0.000 C 
BRANCH  22  23
ATOM     23  C   UNL     1       6.919  56.698   0.543  1.00  0.00     0.000 C 
BRANCH  23  24
ATOM     24  C   UNL     1       7.794  57.945   0.333  1.00  0.00    -0.000 C 
BRANCH  24  25
ATOM     25  C   UNL     1       8.389  58.014  -1.083  1.00  0.00    -0.000 C 
BRANCH  25  26
ATOM     26  C   UNL     1       9.928  58.002  -1.090  1.00  0.00    -0.000 C 
BRANCH  26  27
ATOM     27  C   UNL     1      10.542  56.836  -0.285  1.00  0.00    -0.000 C 
BRANCH  27  28
ATOM     28  C   UNL     1      10.147  55.466  -0.857  1.00  0.00    -0.000 C 
BRANCH  28  29
ATOM     29  C   UNL     1      10.930  54.336  -0.171  1.00  0.00    -0.000 C 
BRANCH  29  30
ATOM     30  C   UNL     1      10.901  53.025  -0.985  1.00  0.00    -0.000 C 
BRANCH  30  31
ATOM     31  C   UNL     1      10.546  51.787  -0.143  1.00  0.00    -0.003 C 
ATOM     32  C   UNL     1       9.331  52.005   0.759  1.00  0.00     0.004 C 
ENDBRANCH  30  31
ENDBRANCH  29  30
ENDBRANCH  28  29
ENDBRANCH  27  28
ENDBRANCH  26  27
ENDBRANCH  25  26
ENDBRANCH  24  25
ENDBRANCH  23  24
ENDBRANCH  22  23
ENDBRANCH  21  22
ENDBRANCH  20  21
ENDBRANCH  19  20
ENDBRANCH  18  19
ENDBRANCH   1  18
TORSDOF 28
ENDMDL
