MODEL 1
REMARK VINA RESULT:    -2.577      0.000      0.000
REMARK INTER + INTRA:          -3.131
REMARK INTER:                  -3.029
REMARK INTRA:                  -0.102
REMARK UNBOUND:                -0.102
REMARK SMILES O=C([O-])CCC(=O)[O-]
REMARK SMILES IDX 4 1 2 2 1 3 3 4 5 5 6 6 7 7 8 8
REMARK H PARENT
REMARK Flexibility Score: inf
ROOT
ATOM      1  C   UNL     1      71.691  32.811  60.383  1.00  0.00     0.059 C 
ENDROOT
BRANCH   1   2
ATOM      2  C   UNL     1      70.949  33.152  59.127  1.00  0.00     0.042 C 
ATOM      3  O   UNL     1      70.560  32.238  58.352  1.00  0.00    -0.550 OA
ATOM      4  O   UNL     1      70.653  34.476  58.832  1.00  0.00    -0.550 OA
ENDBRANCH   1   2
BRANCH   1   5
ATOM      5  C   UNL     1      72.395  31.454  60.271  1.00  0.00     0.059 C 
BRANCH   5   6
ATOM      6  C   UNL     1      71.965  30.519  61.359  1.00  0.00     0.042 C 
ATOM      7  O   UNL     1      72.797  30.111  62.211  1.00  0.00    -0.550 OA
ATOM      8  O   UNL     1      70.635  30.129  61.456  1.00  0.00    -0.550 OA
ENDBRANCH   5   6
ENDBRANCH   1   5
TORSDOF 3
ENDMDL
MODEL 2
REMARK VINA RESULT:    -2.560      8.459      9.521
REMARK INTER + INTRA:          -3.110
REMARK INTER:                  -2.992
REMARK INTRA:                  -0.119
REMARK UNBOUND:                -0.102
REMARK SMILES O=C([O-])CCC(=O)[O-]
REMARK SMILES IDX 4 1 2 2 1 3 3 4 5 5 6 6 7 7 8 8
REMARK H PARENT
REMARK Flexibility Score: inf
ROOT
ATOM      1  C   UNL     1      61.835  31.862  60.090  1.00  0.00     0.059 C 
ENDROOT
BRANCH   1   2
ATOM      2  C   UNL     1      61.526  31.046  61.308  1.00  0.00     0.042 C 
ATOM      3  O   UNL     1      60.447  31.223  61.933  1.00  0.00    -0.550 OA
ATOM      4  O   UNL     1      62.411  30.062  61.729  1.00  0.00    -0.550 OA
ENDBRANCH   1   2
BRANCH   1   5
ATOM      5  C   UNL     1      62.294  33.276  60.461  1.00  0.00     0.059 C 
BRANCH   5   6
ATOM      6  C   UNL     1      63.781  33.348  60.627  1.00  0.00     0.042 C 
ATOM      7  O   UNL     1      64.518  32.455  60.132  1.00  0.00    -0.550 OA
ATOM      8  O   UNL     1      64.356  34.423  61.294  1.00  0.00    -0.550 OA
ENDBRANCH   5   6
ENDBRANCH   1   5
TORSDOF 3
ENDMDL
MODEL 3
REMARK VINA RESULT:    -2.557      0.940      3.957
REMARK INTER + INTRA:          -3.107
REMARK INTER:                  -3.002
REMARK INTRA:                  -0.106
REMARK UNBOUND:                -0.102
REMARK SMILES O=C([O-])CCC(=O)[O-]
REMARK SMILES IDX 4 1 2 2 1 3 3 4 5 5 6 6 7 7 8 8
REMARK H PARENT
REMARK Flexibility Score: inf
ROOT
ATOM      1  C   UNL     1      72.656  31.150  60.214  1.00  0.00     0.059 C 
ENDROOT
BRANCH   1   2
ATOM      2  C   UNL     1      72.145  30.389  61.400  1.00  0.00     0.042 C 
ATOM      3  O   UNL     1      72.943  29.991  62.290  1.00  0.00    -0.550 OA
ATOM      4  O   UNL     1      70.784  30.156  61.543  1.00  0.00    -0.550 OA
ENDBRANCH   1   2
BRANCH   1   5
ATOM      5  C   UNL     1      71.514  31.584  59.290  1.00  0.00     0.059 C 
BRANCH   5   6
ATOM      6  C   UNL     1      71.276  33.061  59.364  1.00  0.00     0.042 C 
ATOM      7  O   UNL     1      71.213  33.638  60.482  1.00  0.00    -0.550 OA
ATOM      8  O   UNL     1      71.164  33.808  58.198  1.00  0.00    -0.550 OA
ENDBRANCH   5   6
ENDBRANCH   1   5
TORSDOF 3
ENDMDL
MODEL 4
REMARK VINA RESULT:    -2.548     21.150     21.766
REMARK INTER + INTRA:          -3.096
REMARK INTER:                  -2.974
REMARK INTRA:                  -0.123
REMARK UNBOUND:                -0.102
REMARK SMILES O=C([O-])CCC(=O)[O-]
REMARK SMILES IDX 4 1 2 2 1 3 3 4 5 5 6 6 7 7 8 8
REMARK H PARENT
REMARK Flexibility Score: inf
ROOT
ATOM      1  C   UNL     1      57.715  17.563  50.510  1.00  0.00     0.059 C 
ENDROOT
BRANCH   1   2
ATOM      2  C   UNL     1      58.672  17.980  49.434  1.00  0.00     0.042 C 
ATOM      3  O   UNL     1      59.059  17.147  48.572  1.00  0.00    -0.550 OA
ATOM      4  O   UNL     1      59.104  19.298  49.360  1.00  0.00    -0.550 OA
ENDBRANCH   1   2
BRANCH   1   5
ATOM      5  C   UNL     1      56.416  18.374  50.454  1.00  0.00     0.059 C 
BRANCH   5   6
ATOM      6  C   UNL     1      56.269  19.262  51.651  1.00  0.00     0.042 C 
ATOM      7  O   UNL     1      57.285  19.779  52.185  1.00  0.00    -0.550 OA
ATOM      8  O   UNL     1      55.006  19.551  52.152  1.00  0.00    -0.550 OA
ENDBRANCH   5   6
ENDBRANCH   1   5
TORSDOF 3
ENDMDL
MODEL 5
REMARK VINA RESULT:    -2.529      8.508      9.256
REMARK INTER + INTRA:          -3.075
REMARK INTER:                  -2.955
REMARK INTRA:                  -0.120
REMARK UNBOUND:                -0.102
REMARK SMILES O=C([O-])CCC(=O)[O-]
REMARK SMILES IDX 4 1 2 2 1 3 3 4 5 5 6 6 7 7 8 8
REMARK H PARENT
REMARK Flexibility Score: inf
ROOT
ATOM      1  C   UNL     1      62.237  33.127  60.451  1.00  0.00     0.059 C 
ENDROOT
BRANCH   1   2
ATOM      2  C   UNL     1      63.726  33.224  60.589  1.00  0.00     0.042 C 
ATOM      3  O   UNL     1      64.245  34.200  61.193  1.00  0.00    -0.550 OA
ATOM      4  O   UNL     1      64.538  32.215  60.087  1.00  0.00    -0.550 OA
ENDBRANCH   1   2
BRANCH   1   5
ATOM      5  C   UNL     1      61.795  31.703  60.099  1.00  0.00     0.059 C 
BRANCH   5   6
ATOM      6  C   UNL     1      61.479  30.905  61.326  1.00  0.00     0.042 C 
ATOM      7  O   UNL     1      60.458  31.174  62.012  1.00  0.00    -0.550 OA
ATOM      8  O   UNL     1      62.290  29.837  61.690  1.00  0.00    -0.550 OA
ENDBRANCH   5   6
ENDBRANCH   1   5
TORSDOF 3
ENDMDL
MODEL 6
REMARK VINA RESULT:    -2.497     16.854     17.977
REMARK INTER + INTRA:          -3.036
REMARK INTER:                  -2.918
REMARK INTRA:                  -0.119
REMARK UNBOUND:                -0.102
REMARK SMILES O=C([O-])CCC(=O)[O-]
REMARK SMILES IDX 4 1 2 2 1 3 3 4 5 5 6 6 7 7 8 8
REMARK H PARENT
REMARK Flexibility Score: inf
ROOT
ATOM      1  C   UNL     1      57.931  28.381  50.843  1.00  0.00     0.059 C 
ENDROOT
BRANCH   1   2
ATOM      2  C   UNL     1      58.818  28.578  49.652  1.00  0.00     0.042 C 
ATOM      3  O   UNL     1      58.779  29.657  49.003  1.00  0.00    -0.550 OA
ATOM      4  O   UNL     1      59.716  27.585  49.282  1.00  0.00    -0.550 OA
ENDBRANCH   1   2
BRANCH   1   5
ATOM      5  C   UNL     1      56.498  28.031  50.427  1.00  0.00     0.059 C 
BRANCH   5   6
ATOM      6  C   UNL     1      56.324  26.554  50.243  1.00  0.00     0.042 C 
ATOM      7  O   UNL     1      57.125  25.748  50.785  1.00  0.00    -0.550 OA
ATOM      8  O   UNL     1      55.252  26.067  49.505  1.00  0.00    -0.550 OA
ENDBRANCH   5   6
ENDBRANCH   1   5
TORSDOF 3
ENDMDL
MODEL 7
REMARK VINA RESULT:    -2.485     21.422     22.084
REMARK INTER + INTRA:          -3.022
REMARK INTER:                  -2.928
REMARK INTRA:                  -0.094
REMARK UNBOUND:                -0.102
REMARK SMILES O=C([O-])CCC(=O)[O-]
REMARK SMILES IDX 4 1 2 2 1 3 3 4 5 5 6 6 7 7 8 8
REMARK H PARENT
REMARK Flexibility Score: inf
ROOT
ATOM      1  C   UNL     1      57.650  18.407  51.481  1.00  0.00     0.059 C 
ENDROOT
BRANCH   1   2
ATOM      2  C   UNL     1      56.220  18.853  51.520  1.00  0.00     0.042 C 
ATOM      3  O   UNL     1      55.646  19.049  52.624  1.00  0.00    -0.550 OA
ATOM      4  O   UNL     1      55.534  19.093  50.336  1.00  0.00    -0.550 OA
ENDBRANCH   1   2
BRANCH   1   5
ATOM      5  C   UNL     1      57.850  17.244  50.504  1.00  0.00     0.059 C 
BRANCH   5   6
ATOM      6  C   UNL     1      58.629  17.668  49.296  1.00  0.00     0.042 C 
ATOM      7  O   UNL     1      59.315  18.723  49.322  1.00  0.00    -0.550 OA
ATOM      8  O   UNL     1      58.628  16.876  48.155  1.00  0.00    -0.550 OA
ENDBRANCH   5   6
ENDBRANCH   1   5
TORSDOF 3
ENDMDL
MODEL 8
REMARK VINA RESULT:    -2.454     16.573     17.920
REMARK INTER + INTRA:          -2.986
REMARK INTER:                  -2.880
REMARK INTRA:                  -0.107
REMARK UNBOUND:                -0.102
REMARK SMILES O=C([O-])CCC(=O)[O-]
REMARK SMILES IDX 4 1 2 2 1 3 3 4 5 5 6 6 7 7 8 8
REMARK H PARENT
REMARK Flexibility Score: inf
ROOT
ATOM      1  C   UNL     1      56.874  27.916  50.392  1.00  0.00     0.059 C 
ENDROOT
BRANCH   1   2
ATOM      2  C   UNL     1      56.672  26.439  50.241  1.00  0.00     0.042 C 
ATOM      3  O   UNL     1      55.598  25.991  49.761  1.00  0.00    -0.550 OA
ATOM      4  O   UNL     1      57.688  25.559  50.594  1.00  0.00    -0.550 OA
ENDBRANCH   1   2
BRANCH   1   5
ATOM      5  C   UNL     1      58.325  28.254  50.749  1.00  0.00     0.059 C 
BRANCH   5   6
ATOM      6  C   UNL     1      59.129  28.592  49.531  1.00  0.00     0.042 C 
ATOM      7  O   UNL     1      58.817  29.585  48.822  1.00  0.00    -0.550 OA
ATOM      8  O   UNL     1      60.246  27.836  49.202  1.00  0.00    -0.550 OA
ENDBRANCH   5   6
ENDBRANCH   1   5
TORSDOF 3
ENDMDL
MODEL 9
REMARK VINA RESULT:    -2.435      9.150      9.653
REMARK INTER + INTRA:          -2.964
REMARK INTER:                  -2.877
REMARK INTRA:                  -0.087
REMARK UNBOUND:                -0.102
REMARK SMILES O=C([O-])CCC(=O)[O-]
REMARK SMILES IDX 4 1 2 2 1 3 3 4 5 5 6 6 7 7 8 8
REMARK H PARENT
REMARK Flexibility Score: inf
ROOT
ATOM      1  C   UNL     1      61.170  31.930  60.231  1.00  0.00     0.059 C 
ENDROOT
BRANCH   1   2
ATOM      2  C   UNL     1      61.883  33.237  60.405  1.00  0.00     0.042 C 
ATOM      3  O   UNL     1      63.110  33.258  60.687  1.00  0.00    -0.550 OA
ATOM      4  O   UNL     1      61.201  34.432  60.215  1.00  0.00    -0.550 OA
ENDBRANCH   1   2
BRANCH   1   5
ATOM      5  C   UNL     1      61.171  31.112  61.526  1.00  0.00     0.059 C 
BRANCH   5   6
ATOM      6  C   UNL     1      62.130  29.963  61.451  1.00  0.00     0.042 C 
ATOM      7  O   UNL     1      63.368  30.163  61.556  1.00  0.00    -0.550 OA
ATOM      8  O   UNL     1      61.652  28.666  61.307  1.00  0.00    -0.550 OA
ENDBRANCH   5   6
ENDBRANCH   1   5
TORSDOF 3
ENDMDL
