MODEL 1
REMARK VINA RESULT:    -3.540      0.000      0.000
REMARK INTER + INTRA:          -3.978
REMARK INTER:                  -3.850
REMARK INTRA:                  -0.127
REMARK UNBOUND:                -0.127
REMARK SMILES Cc1ccc(C(C)C)cc1O
REMARK SMILES IDX 1 1 2 2 10 3 9 4 5 5 4 6 3 7 11 8 6 10 7 11 8 12
REMARK H PARENT 11 9
REMARK Flexibility Score: inf
ROOT
ATOM      1  C   UNL     1     124.501 120.370 114.500  1.00  0.00     0.048 C 
ATOM      2  C   UNL     1     124.806 120.778 115.914  1.00  0.00    -0.009 A 
ATOM      3  C   UNL     1     125.645 121.880 116.193  1.00  0.00     0.118 A 
ATOM      4  C   UNL     1     125.911 122.235 117.520  1.00  0.00     0.050 A 
ATOM      5  C   UNL     1     125.351 121.510 118.588  1.00  0.00    -0.042 A 
ATOM      6  C   UNL     1     124.518 120.417 118.303  1.00  0.00     0.004 A 
ATOM      7  C   UNL     1     124.249 120.055 116.982  1.00  0.00     0.007 A 
ENDROOT
BRANCH   3   8
ATOM      8  O   UNL     1     126.230 122.639 115.177  1.00  0.00    -0.508 OA
ATOM      9  H   UNL     1     125.841 123.514 114.847  1.00  0.00     0.293 HD
ENDBRANCH   3   8
BRANCH   5  10
ATOM     10  C   UNL     1     125.635 121.891 120.030  1.00  0.00     0.013 C 
ATOM     11  C   UNL     1     125.153 120.803 120.995  1.00  0.00     0.012 C 
ATOM     12  C   UNL     1     127.125 122.192 120.237  1.00  0.00     0.012 C 
ENDBRANCH   5  10
TORSDOF 2
ENDMDL
MODEL 2
REMARK VINA RESULT:    -3.531     14.031     14.472
REMARK INTER + INTRA:          -3.967
REMARK INTER:                  -3.840
REMARK INTRA:                  -0.127
REMARK UNBOUND:                -0.127
REMARK SMILES Cc1ccc(C(C)C)cc1O
REMARK SMILES IDX 1 1 2 2 10 3 9 4 5 5 4 6 3 7 11 8 6 10 7 11 8 12
REMARK H PARENT 11 9
REMARK Flexibility Score: inf
ROOT
ATOM      1  C   UNL     1     112.818 124.736 114.433  1.00  0.00     0.048 C 
ATOM      2  C   UNL     1     112.337 125.105 115.808  1.00  0.00    -0.009 A 
ATOM      3  C   UNL     1     111.234 125.968 115.991  1.00  0.00     0.118 A 
ATOM      4  C   UNL     1     110.810 126.293 117.284  1.00  0.00     0.050 A 
ATOM      5  C   UNL     1     111.467 125.769 118.413  1.00  0.00    -0.042 A 
ATOM      6  C   UNL     1     112.562 124.912 118.224  1.00  0.00     0.004 A 
ATOM      7  C   UNL     1     112.992 124.583 116.936  1.00  0.00     0.007 A 
ENDROOT
BRANCH   3   8
ATOM      8  O   UNL     1     110.541 126.519 114.911  1.00  0.00    -0.508 OA
ATOM      9  H   UNL     1     110.222 127.480 114.892  1.00  0.00     0.293 HD
ENDBRANCH   3   8
BRANCH   5  10
ATOM     10  C   UNL     1     111.011 126.118 119.818  1.00  0.00     0.013 C 
ATOM     11  C   UNL     1     109.903 125.171 120.291  1.00  0.00     0.012 C 
ATOM     12  C   UNL     1     112.192 126.119 120.797  1.00  0.00     0.012 C 
ENDBRANCH   5  10
TORSDOF 2
ENDMDL
MODEL 3
REMARK VINA RESULT:    -3.463     13.187     14.075
REMARK INTER + INTRA:          -3.894
REMARK INTER:                  -3.766
REMARK INTRA:                  -0.128
REMARK UNBOUND:                -0.127
REMARK SMILES Cc1ccc(C(C)C)cc1O
REMARK SMILES IDX 1 1 2 2 10 3 9 4 5 5 4 6 3 7 11 8 6 10 7 11 8 12
REMARK H PARENT 11 9
REMARK Flexibility Score: inf
ROOT
ATOM      1  C   UNL     1     120.046 108.471 114.133  1.00  0.00     0.048 C 
ATOM      2  C   UNL     1     120.635 108.255 115.498  1.00  0.00    -0.009 A 
ATOM      3  C   UNL     1     121.839 107.536 115.671  1.00  0.00     0.118 A 
ATOM      4  C   UNL     1     122.363 107.352 116.955  1.00  0.00     0.050 A 
ATOM      5  C   UNL     1     121.706 107.874 118.084  1.00  0.00    -0.042 A 
ATOM      6  C   UNL     1     120.511 108.588 117.905  1.00  0.00     0.004 A 
ATOM      7  C   UNL     1     119.982 108.775 116.627  1.00  0.00     0.007 A 
ENDROOT
BRANCH   3   8
ATOM      8  O   UNL     1     122.537 106.993 114.589  1.00  0.00    -0.508 OA
ATOM      9  H   UNL     1     122.464 106.021 114.317  1.00  0.00     0.293 HD
ENDBRANCH   3   8
BRANCH   5  10
ATOM     10  C   UNL     1     122.270 107.677 119.481  1.00  0.00     0.013 C 
ATOM     11  C   UNL     1     122.620 109.021 120.130  1.00  0.00     0.012 C 
ATOM     12  C   UNL     1     121.301 106.875 120.359  1.00  0.00     0.012 C 
ENDBRANCH   5  10
TORSDOF 2
ENDMDL
MODEL 4
REMARK VINA RESULT:    -3.392     19.244     20.351
REMARK INTER + INTRA:          -3.817
REMARK INTER:                  -3.690
REMARK INTRA:                  -0.127
REMARK UNBOUND:                -0.127
REMARK SMILES Cc1ccc(C(C)C)cc1O
REMARK SMILES IDX 1 1 2 2 10 3 9 4 5 5 4 6 3 7 11 8 6 10 7 11 8 12
REMARK H PARENT 11 9
REMARK Flexibility Score: inf
ROOT
ATOM      1  C   UNL     1     108.397 112.859 114.145  1.00  0.00     0.048 C 
ATOM      2  C   UNL     1     108.120 112.248 115.490  1.00  0.00    -0.009 A 
ATOM      3  C   UNL     1     107.383 111.049 115.612  1.00  0.00     0.118 A 
ATOM      4  C   UNL     1     107.141 110.505 116.878  1.00  0.00     0.050 A 
ATOM      5  C   UNL     1     107.625 111.136 118.039  1.00  0.00    -0.042 A 
ATOM      6  C   UNL     1     108.358 112.326 117.911  1.00  0.00     0.004 A 
ATOM      7  C   UNL     1     108.603 112.875 116.651  1.00  0.00     0.007 A 
ENDROOT
BRANCH   3   8
ATOM      8  O   UNL     1     106.877 110.377 114.497  1.00  0.00    -0.508 OA
ATOM      9  H   UNL     1     105.906 110.104 114.411  1.00  0.00     0.293 HD
ENDBRANCH   3   8
BRANCH   5  10
ATOM     10  C   UNL     1     107.366 110.549 119.415  1.00  0.00     0.013 C 
ATOM     11  C   UNL     1     108.348 109.415 119.727  1.00  0.00     0.012 C 
ATOM     12  C   UNL     1     107.417 111.636 120.497  1.00  0.00     0.012 C 
ENDBRANCH   5  10
TORSDOF 2
ENDMDL
MODEL 5
REMARK VINA RESULT:    -3.347     13.252     13.745
REMARK INTER + INTRA:          -3.768
REMARK INTER:                  -3.641
REMARK INTRA:                  -0.126
REMARK UNBOUND:                -0.127
REMARK SMILES Cc1ccc(C(C)C)cc1O
REMARK SMILES IDX 1 1 2 2 10 3 9 4 5 5 4 6 3 7 11 8 6 10 7 11 8 12
REMARK H PARENT 11 9
REMARK Flexibility Score: inf
ROOT
ATOM      1  C   UNL     1     122.299 107.332 115.270  1.00  0.00     0.048 C 
ATOM      2  C   UNL     1     121.581 107.907 116.459  1.00  0.00    -0.009 A 
ATOM      3  C   UNL     1     120.567 108.878 116.304  1.00  0.00     0.118 A 
ATOM      4  C   UNL     1     119.918 109.395 117.430  1.00  0.00     0.050 A 
ATOM      5  C   UNL     1     120.259 108.958 118.723  1.00  0.00    -0.042 A 
ATOM      6  C   UNL     1     121.266 107.992 118.871  1.00  0.00     0.004 A 
ATOM      7  C   UNL     1     121.920 107.473 117.751  1.00  0.00     0.007 A 
ENDROOT
BRANCH   3   8
ATOM      8  O   UNL     1     120.185 109.351 115.046  1.00  0.00    -0.508 OA
ATOM      9  H   UNL     1     119.979 108.740 114.266  1.00  0.00     0.293 HD
ENDBRANCH   3   8
BRANCH   5  10
ATOM     10  C   UNL     1     119.557 109.515 119.949  1.00  0.00     0.013 C 
ATOM     11  C   UNL     1     118.125 109.947 119.617  1.00  0.00     0.012 C 
ATOM     12  C   UNL     1     119.576 108.504 121.103  1.00  0.00     0.012 C 
ENDBRANCH   5  10
TORSDOF 2
ENDMDL
MODEL 6
REMARK VINA RESULT:    -3.295      1.344      2.924
REMARK INTER + INTRA:          -3.711
REMARK INTER:                  -3.583
REMARK INTRA:                  -0.128
REMARK UNBOUND:                -0.127
REMARK SMILES Cc1ccc(C(C)C)cc1O
REMARK SMILES IDX 1 1 2 2 10 3 9 4 5 5 4 6 3 7 11 8 6 10 7 11 8 12
REMARK H PARENT 11 9
REMARK Flexibility Score: inf
ROOT
ATOM      1  C   UNL     1     126.898 123.658 116.072  1.00  0.00     0.048 C 
ATOM      2  C   UNL     1     126.067 122.604 116.748  1.00  0.00    -0.009 A 
ATOM      3  C   UNL     1     125.307 121.678 115.999  1.00  0.00     0.118 A 
ATOM      4  C   UNL     1     124.542 120.709 116.658  1.00  0.00     0.050 A 
ATOM      5  C   UNL     1     124.519 120.640 118.063  1.00  0.00    -0.042 A 
ATOM      6  C   UNL     1     125.277 121.563 118.801  1.00  0.00     0.004 A 
ATOM      7  C   UNL     1     126.042 122.533 118.151  1.00  0.00     0.007 A 
ENDROOT
BRANCH   3   8
ATOM      8  O   UNL     1     125.289 121.696 114.602  1.00  0.00    -0.508 OA
ATOM      9  H   UNL     1     124.522 122.080 114.065  1.00  0.00     0.293 HD
ENDBRANCH   3   8
BRANCH   5  10
ATOM     10  C   UNL     1     123.692 119.590 118.783  1.00  0.00     0.013 C 
ATOM     11  C   UNL     1     123.906 119.662 120.299  1.00  0.00     0.012 C 
ATOM     12  C   UNL     1     122.206 119.720 118.429  1.00  0.00     0.012 C 
ENDBRANCH   5  10
TORSDOF 2
ENDMDL
MODEL 7
REMARK VINA RESULT:    -3.250     17.812     18.992
REMARK INTER + INTRA:          -3.663
REMARK INTER:                  -3.549
REMARK INTRA:                  -0.113
REMARK UNBOUND:                -0.127
REMARK SMILES Cc1ccc(C(C)C)cc1O
REMARK SMILES IDX 1 1 2 2 10 3 9 4 5 5 4 6 3 7 11 8 6 10 7 11 8 12
REMARK H PARENT 11 9
REMARK Flexibility Score: inf
ROOT
ATOM      1  C   UNL     1     107.285 110.550 115.039  1.00  0.00     0.048 C 
ATOM      2  C   UNL     1     107.783 111.332 116.223  1.00  0.00    -0.009 A 
ATOM      3  C   UNL     1     108.706 112.389 116.066  1.00  0.00     0.118 A 
ATOM      4  C   UNL     1     109.151 113.098 117.187  1.00  0.00     0.050 A 
ATOM      5  C   UNL     1     108.690 112.774 118.476  1.00  0.00    -0.042 A 
ATOM      6  C   UNL     1     107.772 111.723 118.624  1.00  0.00     0.004 A 
ATOM      7  C   UNL     1     107.323 111.010 117.510  1.00  0.00     0.007 A 
ENDROOT
BRANCH   3   8
ATOM      8  O   UNL     1     109.201 112.757 114.812  1.00  0.00    -0.508 OA
ATOM      9  H   UNL     1     109.915 113.464 114.686  1.00  0.00     0.293 HD
ENDBRANCH   3   8
BRANCH   5  10
ATOM     10  C   UNL     1     109.169 113.540 119.696  1.00  0.00     0.013 C 
ATOM     11  C   UNL     1     110.008 112.646 120.615  1.00  0.00     0.012 C 
ATOM     12  C   UNL     1     109.948 114.797 119.287  1.00  0.00     0.012 C 
ENDBRANCH   5  10
TORSDOF 2
ENDMDL
MODEL 8
REMARK VINA RESULT:    -3.229     14.688     15.646
REMARK INTER + INTRA:          -3.640
REMARK INTER:                  -3.515
REMARK INTRA:                  -0.125
REMARK UNBOUND:                -0.127
REMARK SMILES Cc1ccc(C(C)C)cc1O
REMARK SMILES IDX 1 1 2 2 10 3 9 4 5 5 4 6 3 7 11 8 6 10 7 11 8 12
REMARK H PARENT 11 9
REMARK Flexibility Score: inf
ROOT
ATOM      1  C   UNL     1     113.592 124.288 117.879  1.00  0.00     0.048 C 
ATOM      2  C   UNL     1     112.332 124.741 117.194  1.00  0.00    -0.009 A 
ATOM      3  C   UNL     1     112.346 125.178 115.851  1.00  0.00     0.118 A 
ATOM      4  C   UNL     1     111.157 125.594 115.242  1.00  0.00     0.050 A 
ATOM      5  C   UNL     1     109.941 125.583 115.949  1.00  0.00    -0.042 A 
ATOM      6  C   UNL     1     109.935 125.147 117.283  1.00  0.00     0.004 A 
ATOM      7  C   UNL     1     111.117 124.731 117.898  1.00  0.00     0.007 A 
ENDROOT
BRANCH   3   8
ATOM      8  O   UNL     1     113.521 125.212 115.097  1.00  0.00    -0.508 OA
ATOM      9  H   UNL     1     113.530 125.156 114.086  1.00  0.00     0.293 HD
ENDBRANCH   3   8
BRANCH   5  10
ATOM     10  C   UNL     1     108.648 126.033 115.293  1.00  0.00     0.013 C 
ATOM     11  C   UNL     1     108.753 125.973 113.765  1.00  0.00     0.012 C 
ATOM     12  C   UNL     1     107.457 125.208 115.796  1.00  0.00     0.012 C 
ENDBRANCH   5  10
TORSDOF 2
ENDMDL
MODEL 9
REMARK VINA RESULT:    -0.914      1.992      3.794
REMARK INTER + INTRA:          -1.121
REMARK INTER:                  -0.997
REMARK INTRA:                  -0.124
REMARK UNBOUND:                -0.127
REMARK SMILES Cc1ccc(C(C)C)cc1O
REMARK SMILES IDX 1 1 2 2 10 3 9 4 5 5 4 6 3 7 11 8 6 10 7 11 8 12
REMARK H PARENT 11 9
REMARK Flexibility Score: inf
ROOT
ATOM      1  C   UNL     1     123.919 119.672 118.158  1.00  0.00     0.048 C 
ATOM      2  C   UNL     1     124.708 120.790 117.536  1.00  0.00    -0.009 A 
ATOM      3  C   UNL     1     124.587 121.096 116.162  1.00  0.00     0.118 A 
ATOM      4  C   UNL     1     125.335 122.143 115.613  1.00  0.00     0.050 A 
ATOM      5  C   UNL     1     126.209 122.902 116.412  1.00  0.00    -0.042 A 
ATOM      6  C   UNL     1     126.323 122.594 117.776  1.00  0.00     0.004 A 
ATOM      7  C   UNL     1     125.581 121.550 118.332  1.00  0.00     0.007 A 
ENDROOT
BRANCH   3   8
ATOM      8  O   UNL     1     123.736 120.379 115.318  1.00  0.00    -0.508 OA
ATOM      9  H   UNL     1     122.737 120.535 115.279  1.00  0.00     0.293 HD
ENDBRANCH   3   8
BRANCH   5  10
ATOM     10  C   UNL     1     127.023 124.040 115.821  1.00  0.00     0.013 C 
ATOM     11  C   UNL     1     126.443 124.495 114.478  1.00  0.00     0.012 C 
ATOM     12  C   UNL     1     127.125 125.214 116.804  1.00  0.00     0.012 C 
ENDBRANCH   5  10
TORSDOF 2
ENDMDL
