MODEL 1
REMARK VINA RESULT:    -4.250      0.000      0.000
REMARK INTER + INTRA:          -6.836
REMARK INTER:                  -6.486
REMARK INTRA:                  -0.350
REMARK UNBOUND:                -0.350
REMARK SMILES CC1=CCC[C@H](C)C(=O)C[C@@H](C(C)C)C(=O)C1
REMARK SMILES IDX 8 1 9 2 6 3 7 4 5 5 4 6 3 7 2 8 1 9 10 11 11 12 15 13 16 14
REMARK SMILES IDX 17 15 12 17 13 18 14 19
REMARK H PARENT
REMARK Flexibility Score: 70.00
ROOT
ATOM      1  C   UNL     1       3.612  27.637  31.712  1.00  0.00     0.136 C 
ATOM      2  O   UNL     1       3.755  27.084  32.793  1.00  0.00    -0.299 OA
ENDROOT
BRANCH   1   3
ATOM      3  C   UNL     1       4.255  26.998  30.489  1.00  0.00     0.053 C 
ATOM      4  C   UNL     1       4.624  25.531  30.744  1.00  0.00     0.016 C 
BRANCH   3   5
ATOM      5  C   UNL     1       3.394  27.138  29.216  1.00  0.00     0.015 C 
BRANCH   5   6
ATOM      6  C   UNL     1       2.121  26.270  29.270  1.00  0.00     0.028 C 
BRANCH   6   7
ATOM      7  C   UNL     1       1.006  26.775  28.398  1.00  0.00    -0.028 C 
ATOM      8  C   UNL     1      -0.003  27.597  28.784  1.00  0.00    -0.070 CG0
ATOM      9  C   UNL     1      -0.902  28.121  27.688  1.00  0.00     0.039 C 
ATOM     10  G   UNL     1      -0.407  27.885  30.229  1.00  0.00     0.000 G0
ENDBRANCH   6   7
ENDBRANCH   5   6
ENDBRANCH   3   5
ENDBRANCH   1   3
BRANCH   1  11
ATOM     11  C   UNL     1       2.776  28.898  31.668  1.00  0.00     0.087 C 
BRANCH  11  12
ATOM     12  C   UNL     1       1.281  28.754  32.075  1.00  0.00     0.066 C 
BRANCH  12  13
ATOM     13  C   UNL     1       0.325  29.042  30.916  1.00  0.00     0.140 C 
ATOM     14  O   UNL     1       0.036  30.197  30.634  1.00  0.00    -0.299 OA
BRANCH  13  15
ATOM     15  C   UNL     1      -0.401  27.901  30.229  1.00  0.00     0.106 CG0
ATOM     16  G   UNL     1      -0.025  27.594  28.780  1.00  0.00     0.000 G0
ENDBRANCH  13  15
ENDBRANCH  12  13
BRANCH  12  17
ATOM     17  C   UNL     1       0.954  29.674  33.300  1.00  0.00    -0.006 C 
ATOM     18  C   UNL     1       0.857  28.880  34.615  1.00  0.00     0.008 C 
ATOM     19  C   UNL     1       1.997  30.795  33.476  1.00  0.00     0.008 C 
ENDBRANCH  12  17
ENDBRANCH  11  12
ENDBRANCH   1  11
TORSDOF 1
ENDMDL
MODEL 2
REMARK VINA RESULT:    -4.173      2.101      4.902
REMARK INTER + INTRA:          -6.719
REMARK INTER:                  -7.246
REMARK INTRA:                   0.527
REMARK UNBOUND:                -0.350
REMARK SMILES CC1=CCC[C@H](C)C(=O)C[C@@H](C(C)C)C(=O)C1
REMARK SMILES IDX 8 1 9 2 6 3 7 4 5 5 4 6 3 7 2 8 1 9 10 11 11 12 15 13 16 14
REMARK SMILES IDX 17 15 12 17 13 18 14 19
REMARK H PARENT
REMARK Flexibility Score: 70.00
ROOT
ATOM      1  C   UNL     1      -0.285  28.487  32.464  1.00  0.00     0.136 C 
ATOM      2  O   UNL     1      -0.739  27.367  32.645  1.00  0.00    -0.299 OA
ENDROOT
BRANCH   1   3
ATOM      3  C   UNL     1       0.172  29.281  33.681  1.00  0.00     0.053 C 
ATOM      4  C   UNL     1       0.542  28.361  34.851  1.00  0.00     0.016 C 
BRANCH   3   5
ATOM      5  C   UNL     1       1.323  30.258  33.361  1.00  0.00     0.015 C 
BRANCH   5   6
ATOM      6  C   UNL     1       2.672  29.784  33.935  1.00  0.00     0.028 C 
BRANCH   6   7
ATOM      7  C   UNL     1       3.199  28.533  33.292  1.00  0.00    -0.028 C 
ATOM      8  C   UNL     1       3.387  28.334  31.962  1.00  0.00    -0.070 CG0
ATOM      9  C   UNL     1       4.104  27.065  31.564  1.00  0.00     0.039 C 
ATOM     10  G   UNL     1       2.782  29.184  30.845  1.00  0.00     0.000 G0
ENDBRANCH   6   7
ENDBRANCH   5   6
ENDBRANCH   3   5
ENDBRANCH   1   3
BRANCH   1  11
ATOM     11  C   UNL     1      -0.181  28.987  31.039  1.00  0.00     0.087 C 
BRANCH  11  12
ATOM     12  C   UNL     1       0.534  28.047  30.025  1.00  0.00     0.066 C 
BRANCH  12  13
ATOM     13  C   UNL     1       1.980  28.464  29.754  1.00  0.00     0.140 C 
ATOM     14  O   UNL     1       2.541  28.096  28.732  1.00  0.00    -0.299 OA
BRANCH  13  15
ATOM     15  C   UNL     1       2.776  29.186  30.826  1.00  0.00     0.106 CG0
ATOM     16  G   UNL     1       3.372  28.344  31.953  1.00  0.00     0.000 G0
ENDBRANCH  13  15
ENDBRANCH  12  13
BRANCH  12  17
ATOM     17  C   UNL     1      -0.275  27.966  28.686  1.00  0.00    -0.006 C 
ATOM     18  C   UNL     1      -1.517  27.064  28.810  1.00  0.00     0.008 C 
ATOM     19  C   UNL     1      -0.722  29.357  28.196  1.00  0.00     0.008 C 
ENDBRANCH  12  17
ENDBRANCH  11  12
ENDBRANCH   1  11
TORSDOF 1
ENDMDL
MODEL 3
REMARK VINA RESULT:    -3.934      2.068      4.301
REMARK INTER + INTRA:          -6.354
REMARK INTER:                  -5.996
REMARK INTRA:                  -0.358
REMARK UNBOUND:                -0.350
REMARK SMILES CC1=CCC[C@H](C)C(=O)C[C@@H](C(C)C)C(=O)C1
REMARK SMILES IDX 8 1 9 2 6 3 7 4 5 5 4 6 3 7 2 8 1 9 10 11 11 12 15 13 16 14
REMARK SMILES IDX 17 15 12 17 13 18 14 19
REMARK H PARENT
REMARK Flexibility Score: 70.00
ROOT
ATOM      1  C   UNL     1      -0.237  28.398  32.908  1.00  0.00     0.136 C 
ATOM      2  O   UNL     1      -0.387  27.362  33.540  1.00  0.00    -0.299 OA
ENDROOT
BRANCH   1   3
ATOM      3  C   UNL     1       0.718  29.445  33.464  1.00  0.00     0.053 C 
ATOM      4  C   UNL     1       1.559  28.888  34.620  1.00  0.00     0.016 C 
BRANCH   3   5
ATOM      5  C   UNL     1       1.618  30.071  32.379  1.00  0.00     0.015 C 
BRANCH   5   6
ATOM      6  C   UNL     1       2.692  29.091  31.868  1.00  0.00     0.028 C 
BRANCH   6   7
ATOM      7  C   UNL     1       3.108  29.333  30.445  1.00  0.00    -0.028 C 
ATOM      8  C   UNL     1       2.514  28.817  29.338  1.00  0.00    -0.070 CG0
ATOM      9  C   UNL     1       2.990  29.351  28.007  1.00  0.00     0.039 C 
ATOM     10  G   UNL     1       1.551  27.631  29.321  1.00  0.00     0.000 G0
ENDBRANCH   6   7
ENDBRANCH   5   6
ENDBRANCH   3   5
ENDBRANCH   1   3
BRANCH   1  11
ATOM     11  C   UNL     1      -0.990  28.545  31.603  1.00  0.00     0.087 C 
BRANCH  11  12
ATOM     12  C   UNL     1      -0.767  27.427  30.544  1.00  0.00     0.066 C 
BRANCH  12  13
ATOM     13  C   UNL     1       0.069  27.900  29.354  1.00  0.00     0.140 C 
ATOM     14  O   UNL     1      -0.481  28.387  28.377  1.00  0.00    -0.299 OA
BRANCH  13  15
ATOM     15  C   UNL     1       1.557  27.610  29.308  1.00  0.00     0.106 CG0
ATOM     16  G   UNL     1       2.512  28.802  29.340  1.00  0.00     0.000 G0
ENDBRANCH  13  15
ENDBRANCH  12  13
BRANCH  12  17
ATOM     17  C   UNL     1      -2.140  26.850  30.058  1.00  0.00    -0.006 C 
ATOM     18  C   UNL     1      -1.976  25.524  29.292  1.00  0.00     0.008 C 
ATOM     19  C   UNL     1      -3.119  26.626  31.227  1.00  0.00     0.008 C 
ENDBRANCH  12  17
ENDBRANCH  11  12
ENDBRANCH   1  11
TORSDOF 1
ENDMDL
MODEL 4
REMARK VINA RESULT:    -3.777      2.328      4.313
REMARK INTER + INTRA:          -6.115
REMARK INTER:                  -5.926
REMARK INTRA:                  -0.189
REMARK UNBOUND:                -0.350
REMARK SMILES CC1=CCC[C@H](C)C(=O)C[C@@H](C(C)C)C(=O)C1
REMARK SMILES IDX 8 1 9 2 6 3 7 4 5 5 4 6 3 7 2 8 1 9 10 11 11 12 15 13 16 14
REMARK SMILES IDX 17 15 12 17 13 18 14 19
REMARK H PARENT
REMARK Flexibility Score: 70.00
ROOT
ATOM      1  C   UNL     1       0.303  28.928  32.022  1.00  0.00     0.136 C 
ATOM      2  O   UNL     1       0.861  28.072  32.694  1.00  0.00    -0.299 OA
ENDROOT
BRANCH   1   3
ATOM      3  C   UNL     1       0.855  30.347  32.065  1.00  0.00     0.053 C 
ATOM      4  C   UNL     1       1.266  30.752  33.486  1.00  0.00     0.016 C 
BRANCH   3   5
ATOM      5  C   UNL     1       2.013  30.570  31.070  1.00  0.00     0.015 C 
BRANCH   5   6
ATOM      6  C   UNL     1       1.514  30.778  29.627  1.00  0.00     0.028 C 
BRANCH   6   7
ATOM      7  C   UNL     1       2.231  29.935  28.610  1.00  0.00    -0.028 C 
ATOM      8  C   UNL     1       1.701  28.896  27.915  1.00  0.00    -0.070 CG0
ATOM      9  C   UNL     1       2.556  28.318  26.811  1.00  0.00     0.039 C 
ATOM     10  G   UNL     1       0.411  28.159  28.270  1.00  0.00     0.000 G0
ENDBRANCH   6   7
ENDBRANCH   5   6
ENDBRANCH   3   5
ENDBRANCH   1   3
BRANCH   1  11
ATOM     11  C   UNL     1      -0.875  28.502  31.172  1.00  0.00     0.087 C 
BRANCH  11  12
ATOM     12  C   UNL     1      -0.732  27.150  30.416  1.00  0.00     0.066 C 
BRANCH  12  13
ATOM     13  C   UNL     1       0.411  27.160  29.400  1.00  0.00     0.140 C 
ATOM     14  O   UNL     1       1.403  26.472  29.589  1.00  0.00    -0.299 OA
BRANCH  13  15
ATOM     15  C   UNL     1       0.395  28.149  28.249  1.00  0.00     0.106 CG0
ATOM     16  G   UNL     1       1.696  28.882  27.927  1.00  0.00     0.000 G0
ENDBRANCH  13  15
ENDBRANCH  12  13
BRANCH  12  17
ATOM     17  C   UNL     1      -2.082  26.762  29.722  1.00  0.00    -0.006 C 
ATOM     18  C   UNL     1      -2.063  25.324  29.173  1.00  0.00     0.008 C 
ATOM     19  C   UNL     1      -3.284  26.911  30.675  1.00  0.00     0.008 C 
ENDBRANCH  12  17
ENDBRANCH  11  12
ENDBRANCH   1  11
TORSDOF 1
ENDMDL
MODEL 5
REMARK VINA RESULT:    -3.676      2.486      3.173
REMARK INTER + INTRA:          -5.959
REMARK INTER:                  -5.637
REMARK INTRA:                  -0.322
REMARK UNBOUND:                -0.350
REMARK SMILES CC1=CCC[C@H](C)C(=O)C[C@@H](C(C)C)C(=O)C1
REMARK SMILES IDX 8 1 9 2 6 3 7 4 5 5 4 6 3 7 2 8 1 9 10 11 11 12 15 13 16 14
REMARK SMILES IDX 17 15 12 17 13 18 14 19
REMARK H PARENT
REMARK Flexibility Score: 70.00
ROOT
ATOM      1  C   UNL     1       2.893  30.804  29.596  1.00  0.00     0.136 C 
ATOM      2  O   UNL     1       4.008  30.310  29.675  1.00  0.00    -0.299 OA
ENDROOT
BRANCH   1   3
ATOM      3  C   UNL     1       2.471  31.417  28.267  1.00  0.00     0.053 C 
ATOM      4  C   UNL     1       3.383  32.584  27.868  1.00  0.00     0.016 C 
BRANCH   3   5
ATOM      5  C   UNL     1       2.375  30.377  27.131  1.00  0.00     0.015 C 
BRANCH   5   6
ATOM      6  C   UNL     1       0.944  29.831  26.955  1.00  0.00     0.028 C 
BRANCH   6   7
ATOM      7  C   UNL     1       0.758  28.437  27.483  1.00  0.00    -0.028 C 
ATOM      8  C   UNL     1       0.099  28.090  28.618  1.00  0.00    -0.070 CG0
ATOM      9  C   UNL     1      -0.121  26.613  28.846  1.00  0.00     0.039 C 
ATOM     10  G   UNL     1      -0.272  29.044  29.753  1.00  0.00     0.000 G0
ENDBRANCH   6   7
ENDBRANCH   5   6
ENDBRANCH   3   5
ENDBRANCH   1   3
BRANCH   1  11
ATOM     11  C   UNL     1       2.002  30.739  30.819  1.00  0.00     0.087 C 
BRANCH  11  12
ATOM     12  C   UNL     1       1.761  29.327  31.426  1.00  0.00     0.066 C 
BRANCH  12  13
ATOM     13  C   UNL     1       0.362  28.786  31.124  1.00  0.00     0.140 C 
ATOM     14  O   UNL     1      -0.187  28.035  31.917  1.00  0.00    -0.299 OA
BRANCH  13  15
ATOM     15  C   UNL     1      -0.274  29.039  29.770  1.00  0.00     0.106 CG0
ATOM     16  G   UNL     1       0.106  28.103  28.624  1.00  0.00     0.000 G0
ENDBRANCH  13  15
ENDBRANCH  12  13
BRANCH  12  17
ATOM     17  C   UNL     1       2.024  29.339  32.970  1.00  0.00    -0.006 C 
ATOM     18  C   UNL     1       3.445  28.863  33.323  1.00  0.00     0.008 C 
ATOM     19  C   UNL     1       1.807  30.738  33.581  1.00  0.00     0.008 C 
ENDBRANCH  12  17
ENDBRANCH  11  12
ENDBRANCH   1  11
TORSDOF 1
ENDMDL
MODEL 6
REMARK VINA RESULT:    -3.590      2.095      4.699
REMARK INTER + INTRA:          -5.828
REMARK INTER:                  -5.918
REMARK INTRA:                   0.090
REMARK UNBOUND:                -0.350
REMARK SMILES CC1=CCC[C@H](C)C(=O)C[C@@H](C(C)C)C(=O)C1
REMARK SMILES IDX 8 1 9 2 6 3 7 4 5 5 4 6 3 7 2 8 1 9 10 11 11 12 15 13 16 14
REMARK SMILES IDX 17 15 12 17 13 18 14 19
REMARK H PARENT
REMARK Flexibility Score: 70.00
ROOT
ATOM      1  C   UNL     1       0.313  28.772  32.151  1.00  0.00     0.136 C 
ATOM      2  O   UNL     1      -0.404  27.786  32.056  1.00  0.00    -0.299 OA
ENDROOT
BRANCH   1   3
ATOM      3  C   UNL     1       0.789  29.180  33.539  1.00  0.00     0.053 C 
ATOM      4  C   UNL     1      -0.227  28.794  34.622  1.00  0.00     0.016 C 
BRANCH   3   5
ATOM      5  C   UNL     1       2.192  28.634  33.877  1.00  0.00     0.015 C 
BRANCH   5   6
ATOM      6  C   UNL     1       3.226  28.953  32.779  1.00  0.00     0.028 C 
BRANCH   6   7
ATOM      7  C   UNL     1       3.745  27.738  32.064  1.00  0.00    -0.028 C 
ATOM      8  C   UNL     1       3.854  27.586  30.719  1.00  0.00    -0.070 CG0
ATOM      9  C   UNL     1       4.579  26.351  30.237  1.00  0.00     0.039 C 
ATOM     10  G   UNL     1       3.158  28.452  29.670  1.00  0.00     0.000 G0
ENDBRANCH   6   7
ENDBRANCH   5   6
ENDBRANCH   3   5
ENDBRANCH   1   3
BRANCH   1  11
ATOM     11  C   UNL     1       0.701  29.491  30.877  1.00  0.00     0.087 C 
BRANCH  11  12
ATOM     12  C   UNL     1       0.532  28.693  29.552  1.00  0.00     0.066 C 
BRANCH  12  13
ATOM     13  C   UNL     1       1.816  27.980  29.126  1.00  0.00     0.140 C 
ATOM     14  O   UNL     1       1.753  26.948  28.472  1.00  0.00    -0.299 OA
BRANCH  13  15
ATOM     15  C   UNL     1       3.158  28.449  29.656  1.00  0.00     0.106 CG0
ATOM     16  G   UNL     1       3.833  27.596  30.728  1.00  0.00     0.000 G0
ENDBRANCH  13  15
ENDBRANCH  12  13
BRANCH  12  17
ATOM     17  C   UNL     1       0.018  29.631  28.407  1.00  0.00    -0.006 C 
ATOM     18  C   UNL     1      -1.093  28.973  27.569  1.00  0.00     0.008 C 
ATOM     19  C   UNL     1      -0.505  30.975  28.953  1.00  0.00     0.008 C 
ENDBRANCH  12  17
ENDBRANCH  11  12
ENDBRANCH   1  11
TORSDOF 1
ENDMDL
MODEL 7
REMARK VINA RESULT:    -3.589      1.712      2.307
REMARK INTER + INTRA:          -5.827
REMARK INTER:                  -5.671
REMARK INTRA:                  -0.156
REMARK UNBOUND:                -0.350
REMARK SMILES CC1=CCC[C@H](C)C(=O)C[C@@H](C(C)C)C(=O)C1
REMARK SMILES IDX 8 1 9 2 6 3 7 4 5 5 4 6 3 7 2 8 1 9 10 11 11 12 15 13 16 14
REMARK SMILES IDX 17 15 12 17 13 18 14 19
REMARK H PARENT
REMARK Flexibility Score: 70.00
ROOT
ATOM      1  C   UNL     1       2.562  27.998  30.039  1.00  0.00     0.136 C 
ATOM      2  O   UNL     1       3.283  27.158  30.556  1.00  0.00    -0.299 OA
ENDROOT
BRANCH   1   3
ATOM      3  C   UNL     1       2.308  27.901  28.540  1.00  0.00     0.053 C 
ATOM      4  C   UNL     1       3.617  27.781  27.750  1.00  0.00     0.016 C 
BRANCH   3   5
ATOM      5  C   UNL     1       1.332  26.764  28.170  1.00  0.00     0.015 C 
BRANCH   5   6
ATOM      6  C   UNL     1      -0.132  27.242  28.113  1.00  0.00     0.028 C 
BRANCH   6   7
ATOM      7  C   UNL     1      -1.012  26.627  29.165  1.00  0.00    -0.028 C 
ATOM      8  C   UNL     1      -1.469  27.240  30.286  1.00  0.00    -0.070 CG0
ATOM      9  C   UNL     1      -2.492  26.483  31.100  1.00  0.00     0.039 C 
ATOM     10  G   UNL     1      -0.909  28.532  30.880  1.00  0.00     0.000 G0
ENDBRANCH   6   7
ENDBRANCH   5   6
ENDBRANCH   3   5
ENDBRANCH   1   3
BRANCH   1  11
ATOM     11  C   UNL     1       1.949  29.053  30.935  1.00  0.00     0.087 C 
BRANCH  11  12
ATOM     12  C   UNL     1       1.338  28.554  32.276  1.00  0.00     0.066 C 
BRANCH  12  13
ATOM     13  C   UNL     1      -0.187  28.452  32.228  1.00  0.00     0.140 C 
ATOM     14  O   UNL     1      -0.811  28.153  33.236  1.00  0.00    -0.299 OA
BRANCH  13  15
ATOM     15  C   UNL     1      -0.913  28.551  30.899  1.00  0.00     0.106 CG0
ATOM     16  G   UNL     1      -1.455  27.258  30.291  1.00  0.00     0.000 G0
ENDBRANCH  13  15
ENDBRANCH  12  13
BRANCH  12  17
ATOM     17  C   UNL     1       1.792  29.471  33.462  1.00  0.00    -0.006 C 
ATOM     18  C   UNL     1       3.257  29.224  33.864  1.00  0.00     0.008 C 
ATOM     19  C   UNL     1       1.615  30.967  33.134  1.00  0.00     0.008 C 
ENDBRANCH  12  17
ENDBRANCH  11  12
ENDBRANCH   1  11
TORSDOF 1
ENDMDL
MODEL 8
REMARK VINA RESULT:    -3.545      1.449      4.070
REMARK INTER + INTRA:          -5.761
REMARK INTER:                  -5.602
REMARK INTRA:                  -0.159
REMARK UNBOUND:                -0.350
REMARK SMILES CC1=CCC[C@H](C)C(=O)C[C@@H](C(C)C)C(=O)C1
REMARK SMILES IDX 8 1 9 2 6 3 7 4 5 5 4 6 3 7 2 8 1 9 10 11 11 12 15 13 16 14
REMARK SMILES IDX 17 15 12 17 13 18 14 19
REMARK H PARENT
REMARK Flexibility Score: 70.00
ROOT
ATOM      1  C   UNL     1       2.639  29.290  31.619  1.00  0.00     0.136 C 
ATOM      2  O   UNL     1       3.090  30.253  31.016  1.00  0.00    -0.299 OA
ENDROOT
BRANCH   1   3
ATOM      3  C   UNL     1       1.536  29.536  32.640  1.00  0.00     0.053 C 
ATOM      4  C   UNL     1       1.815  30.785  33.486  1.00  0.00     0.016 C 
BRANCH   3   5
ATOM      5  C   UNL     1       0.132  29.603  32.003  1.00  0.00     0.015 C 
BRANCH   5   6
ATOM      6  C   UNL     1      -0.406  28.210  31.621  1.00  0.00     0.028 C 
BRANCH   6   7
ATOM      7  C   UNL     1      -0.931  28.127  30.216  1.00  0.00    -0.028 C 
ATOM      8  C   UNL     1      -0.393  27.405  29.200  1.00  0.00    -0.070 CG0
ATOM      9  C   UNL     1      -1.201  27.326  27.926  1.00  0.00     0.039 C 
ATOM     10  G   UNL     1       1.022  26.827  29.178  1.00  0.00     0.000 G0
ENDBRANCH   6   7
ENDBRANCH   5   6
ENDBRANCH   3   5
ENDBRANCH   1   3
BRANCH   1  11
ATOM     11  C   UNL     1       3.189  27.921  31.280  1.00  0.00     0.087 C 
BRANCH  11  12
ATOM     12  C   UNL     1       3.456  27.636  29.774  1.00  0.00     0.066 C 
BRANCH  12  13
ATOM     13  C   UNL     1       2.193  27.750  28.919  1.00  0.00     0.140 C 
ATOM     14  O   UNL     1       2.072  28.675  28.128  1.00  0.00    -0.299 OA
BRANCH  13  15
ATOM     15  C   UNL     1       1.020  26.821  29.169  1.00  0.00     0.106 CG0
ATOM     16  G   UNL     1      -0.377  27.439  29.201  1.00  0.00     0.000 G0
ENDBRANCH  13  15
ENDBRANCH  12  13
BRANCH  12  17
ATOM     17  C   UNL     1       4.119  26.228  29.591  1.00  0.00    -0.006 C 
ATOM     18  C   UNL     1       4.535  25.965  28.132  1.00  0.00     0.008 C 
ATOM     19  C   UNL     1       5.355  26.050  30.495  1.00  0.00     0.008 C 
ENDBRANCH  12  17
ENDBRANCH  11  12
ENDBRANCH   1  11
TORSDOF 1
ENDMDL
MODEL 9
REMARK VINA RESULT:    -3.404      2.088      3.748
REMARK INTER + INTRA:          -5.545
REMARK INTER:                  -5.436
REMARK INTRA:                  -0.109
REMARK UNBOUND:                -0.350
REMARK SMILES CC1=CCC[C@H](C)C(=O)C[C@@H](C(C)C)C(=O)C1
REMARK SMILES IDX 8 1 9 2 6 3 7 4 5 5 4 6 3 7 2 8 1 9 10 11 11 12 15 13 16 14
REMARK SMILES IDX 17 15 12 17 13 18 14 19
REMARK H PARENT
REMARK Flexibility Score: 70.00
ROOT
ATOM      1  C   UNL     1       2.456  28.911  31.838  1.00  0.00     0.136 C 
ATOM      2  O   UNL     1       3.209  27.992  32.125  1.00  0.00    -0.299 OA
ENDROOT
BRANCH   1   3
ATOM      3  C   UNL     1       1.400  29.319  32.857  1.00  0.00     0.053 C 
ATOM      4  C   UNL     1       1.651  30.731  33.399  1.00  0.00     0.016 C 
BRANCH   3   5
ATOM      5  C   UNL     1      -0.039  29.183  32.316  1.00  0.00     0.015 C 
BRANCH   5   6
ATOM      6  C   UNL     1      -0.432  27.715  32.055  1.00  0.00     0.028 C 
BRANCH   6   7
ATOM      7  C   UNL     1      -1.120  27.497  30.737  1.00  0.00    -0.028 C 
ATOM      8  C   UNL     1      -0.566  26.951  29.624  1.00  0.00    -0.070 CG0
ATOM      9  C   UNL     1      -1.505  26.659  28.477  1.00  0.00     0.039 C 
ATOM     10  G   UNL     1       0.931  26.778  29.374  1.00  0.00     0.000 G0
ENDBRANCH   6   7
ENDBRANCH   5   6
ENDBRANCH   3   5
ENDBRANCH   1   3
BRANCH   1  11
ATOM     11  C   UNL     1       2.654  29.597  30.503  1.00  0.00     0.087 C 
BRANCH  11  12
ATOM     12  C   UNL     1       1.574  29.322  29.416  1.00  0.00     0.066 C 
BRANCH  12  13
ATOM     13  C   UNL     1       1.710  27.934  28.788  1.00  0.00     0.140 C 
ATOM     14  O   UNL     1       2.325  27.795  27.741  1.00  0.00    -0.299 OA
BRANCH  13  15
ATOM     15  C   UNL     1       0.940  26.761  29.365  1.00  0.00     0.106 CG0
ATOM     16  G   UNL     1      -0.553  26.954  29.626  1.00  0.00     0.000 G0
ENDBRANCH  13  15
ENDBRANCH  12  13
BRANCH  12  17
ATOM     17  C   UNL     1       1.612  30.432  28.311  1.00  0.00    -0.006 C 
ATOM     18  C   UNL     1       0.332  31.289  28.302  1.00  0.00     0.008 C 
ATOM     19  C   UNL     1       2.829  31.364  28.471  1.00  0.00     0.008 C 
ENDBRANCH  12  17
ENDBRANCH  11  12
ENDBRANCH   1  11
TORSDOF 1
ENDMDL
