MODEL 1
REMARK VINA RESULT:    -4.274      0.000      0.000
REMARK INTER + INTRA:          -7.663
REMARK INTER:                  -6.772
REMARK INTRA:                  -0.891
REMARK UNBOUND:                -0.891
REMARK SMILES CCCCCCCCCCCC(=O)[O-]
REMARK SMILES IDX 7 1 8 2 9 3 10 4 11 5 12 6 13 7 14 8 6 9 5 10 4 11 3 12 2 13
REMARK SMILES IDX 1 14
REMARK H PARENT
REMARK Flexibility Score: inf
ROOT
ATOM      1  C   UNL     1       7.158 -19.524  23.161  1.00  0.00     0.000 C 
ENDROOT
BRANCH   1   2
ATOM      2  C   UNL     1       7.995 -19.002  21.985  1.00  0.00     0.000 C 
BRANCH   2   3
ATOM      3  C   UNL     1       8.217 -17.482  22.042  1.00  0.00     0.000 C 
BRANCH   3   4
ATOM      4  C   UNL     1       7.338 -16.795  23.098  1.00  0.00     0.006 C 
BRANCH   4   5
ATOM      5  C   UNL     1       7.825 -15.367  23.368  1.00  0.00     0.053 C 
BRANCH   5   6
ATOM      6  C   UNL     1       9.005 -15.382  24.287  1.00  0.00     0.041 C 
ATOM      7  O   UNL     1       8.859 -15.671  25.503  1.00  0.00    -0.550 OA
ATOM      8  O   UNL     1      10.262 -15.030  23.810  1.00  0.00    -0.550 OA
ENDBRANCH   5   6
ENDBRANCH   4   5
ENDBRANCH   3   4
ENDBRANCH   2   3
ENDBRANCH   1   2
BRANCH   1   9
ATOM      9  C   UNL     1       7.016 -21.050  23.100  1.00  0.00     0.000 C 
BRANCH   9  10
ATOM     10  C   UNL     1       7.371 -21.582  21.707  1.00  0.00    -0.000 C 
BRANCH  10  11
ATOM     11  C   UNL     1       8.155 -22.895  21.802  1.00  0.00    -0.000 C 
BRANCH  11  12
ATOM     12  C   UNL     1       9.497 -22.789  21.063  1.00  0.00    -0.000 C 
BRANCH  12  13
ATOM     13  C   UNL     1      10.697 -22.748  22.020  1.00  0.00    -0.003 C 
ATOM     14  C   UNL     1      10.993 -21.341  22.539  1.00  0.00     0.004 C 
ENDBRANCH  12  13
ENDBRANCH  11  12
ENDBRANCH  10  11
ENDBRANCH   9  10
ENDBRANCH   1   9
TORSDOF 10
ENDMDL
MODEL 2
REMARK VINA RESULT:    -4.158      3.103      5.988
REMARK INTER + INTRA:          -7.479
REMARK INTER:                  -6.436
REMARK INTRA:                  -1.043
REMARK UNBOUND:                -0.891
REMARK SMILES CCCCCCCCCCCC(=O)[O-]
REMARK SMILES IDX 7 1 8 2 9 3 10 4 11 5 12 6 13 7 14 8 6 9 5 10 4 11 3 12 2 13
REMARK SMILES IDX 1 14
REMARK H PARENT
REMARK Flexibility Score: inf
ROOT
ATOM      1  C   UNL     1       7.161 -17.601  23.884  1.00  0.00     0.000 C 
ENDROOT
BRANCH   1   2
ATOM      2  C   UNL     1       7.846 -18.963  23.700  1.00  0.00     0.000 C 
BRANCH   2   3
ATOM      3  C   UNL     1       6.852 -20.135  23.722  1.00  0.00     0.000 C 
BRANCH   3   4
ATOM      4  C   UNL     1       7.237 -21.256  22.745  1.00  0.00     0.006 C 
BRANCH   4   5
ATOM      5  C   UNL     1       7.198 -20.757  21.297  1.00  0.00     0.053 C 
BRANCH   5   6
ATOM      6  C   UNL     1       8.433 -21.178  20.566  1.00  0.00     0.041 C 
ATOM      7  O   UNL     1       9.545 -20.655  20.845  1.00  0.00    -0.550 OA
ATOM      8  O   UNL     1       8.351 -22.114  19.542  1.00  0.00    -0.550 OA
ENDBRANCH   5   6
ENDBRANCH   4   5
ENDBRANCH   3   4
ENDBRANCH   2   3
ENDBRANCH   1   2
BRANCH   1   9
ATOM      9  C   UNL     1       7.551 -16.634  22.760  1.00  0.00     0.000 C 
BRANCH   9  10
ATOM     10  C   UNL     1       7.824 -15.229  23.310  1.00  0.00    -0.000 C 
BRANCH  10  11
ATOM     11  C   UNL     1       8.860 -15.271  24.440  1.00  0.00    -0.000 C 
BRANCH  11  12
ATOM     12  C   UNL     1      10.274 -15.495  23.882  1.00  0.00    -0.000 C 
BRANCH  12  13
ATOM     13  C   UNL     1      10.978 -16.699  24.525  1.00  0.00    -0.003 C 
ATOM     14  C   UNL     1      10.339 -17.123  25.847  1.00  0.00     0.004 C 
ENDBRANCH  12  13
ENDBRANCH  11  12
ENDBRANCH  10  11
ENDBRANCH   9  10
ENDBRANCH   1   9
TORSDOF 10
ENDMDL
MODEL 3
REMARK VINA RESULT:    -4.155      1.290      1.897
REMARK INTER + INTRA:          -7.474
REMARK INTER:                  -6.892
REMARK INTRA:                  -0.582
REMARK UNBOUND:                -0.891
REMARK SMILES CCCCCCCCCCCC(=O)[O-]
REMARK SMILES IDX 7 1 8 2 9 3 10 4 11 5 12 6 13 7 14 8 6 9 5 10 4 11 3 12 2 13
REMARK SMILES IDX 1 14
REMARK H PARENT
REMARK Flexibility Score: inf
ROOT
ATOM      1  C   UNL     1       6.865 -18.772  23.860  1.00  0.00     0.000 C 
ENDROOT
BRANCH   1   2
ATOM      2  C   UNL     1       7.579 -18.140  22.657  1.00  0.00     0.000 C 
BRANCH   2   3
ATOM      3  C   UNL     1       7.793 -16.627  22.820  1.00  0.00     0.000 C 
BRANCH   3   4
ATOM      4  C   UNL     1       9.262 -16.261  23.081  1.00  0.00     0.006 C 
BRANCH   4   5
ATOM      5  C   UNL     1       9.398 -15.419  24.354  1.00  0.00     0.053 C 
BRANCH   5   6
ATOM      6  C   UNL     1       9.385 -16.297  25.565  1.00  0.00     0.041 C 
ATOM      7  O   UNL     1      10.423 -16.925  25.904  1.00  0.00    -0.550 OA
ATOM      8  O   UNL     1       8.214 -16.461  26.293  1.00  0.00    -0.550 OA
ENDBRANCH   5   6
ENDBRANCH   4   5
ENDBRANCH   3   4
ENDBRANCH   2   3
ENDBRANCH   1   2
BRANCH   1   9
ATOM      9  C   UNL     1       6.518 -20.240  23.585  1.00  0.00     0.000 C 
BRANCH   9  10
ATOM     10  C   UNL     1       7.538 -20.879  22.636  1.00  0.00    -0.000 C 
BRANCH  10  11
ATOM     11  C   UNL     1       6.851 -21.437  21.383  1.00  0.00    -0.000 C 
BRANCH  11  12
ATOM     12  C   UNL     1       7.848 -22.208  20.506  1.00  0.00    -0.000 C 
BRANCH  12  13
ATOM     13  C   UNL     1       8.630 -23.269  21.293  1.00  0.00    -0.003 C 
ATOM     14  C   UNL     1      10.125 -22.963  21.377  1.00  0.00     0.004 C 
ENDBRANCH  12  13
ENDBRANCH  11  12
ENDBRANCH  10  11
ENDBRANCH   9  10
ENDBRANCH   1   9
TORSDOF 10
ENDMDL
MODEL 4
REMARK VINA RESULT:    -4.150      1.445      1.987
REMARK INTER + INTRA:          -7.466
REMARK INTER:                  -6.701
REMARK INTRA:                  -0.765
REMARK UNBOUND:                -0.891
REMARK SMILES CCCCCCCCCCCC(=O)[O-]
REMARK SMILES IDX 7 1 8 2 9 3 10 4 11 5 12 6 13 7 14 8 6 9 5 10 4 11 3 12 2 13
REMARK SMILES IDX 1 14
REMARK H PARENT
REMARK Flexibility Score: inf
ROOT
ATOM      1  C   UNL     1       7.590 -19.474  23.317  1.00  0.00     0.000 C 
ENDROOT
BRANCH   1   2
ATOM      2  C   UNL     1       6.639 -18.875  24.364  1.00  0.00     0.000 C 
BRANCH   2   3
ATOM      3  C   UNL     1       7.346 -18.543  25.687  1.00  0.00     0.000 C 
BRANCH   3   4
ATOM      4  C   UNL     1       8.713 -17.875  25.477  1.00  0.00     0.006 C 
BRANCH   4   5
ATOM      5  C   UNL     1       8.622 -16.361  25.697  1.00  0.00     0.053 C 
BRANCH   5   6
ATOM      6  C   UNL     1       8.917 -15.630  24.425  1.00  0.00     0.041 C 
ATOM      7  O   UNL     1      10.107 -15.371  24.104  1.00  0.00    -0.550 OA
ATOM      8  O   UNL     1       7.875 -15.191  23.618  1.00  0.00    -0.550 OA
ENDBRANCH   5   6
ENDBRANCH   4   5
ENDBRANCH   3   4
ENDBRANCH   2   3
ENDBRANCH   1   2
BRANCH   1   9
ATOM      9  C   UNL     1       7.008 -20.758  22.716  1.00  0.00     0.000 C 
BRANCH   9  10
ATOM     10  C   UNL     1       7.124 -20.754  21.188  1.00  0.00    -0.000 C 
BRANCH  10  11
ATOM     11  C   UNL     1       7.563 -22.127  20.664  1.00  0.00    -0.000 C 
BRANCH  11  12
ATOM     12  C   UNL     1       8.290 -22.926  21.756  1.00  0.00    -0.000 C 
BRANCH  12  13
ATOM     13  C   UNL     1       9.805 -23.003  21.521  1.00  0.00    -0.003 C 
ATOM     14  C   UNL     1      10.558 -21.810  22.108  1.00  0.00     0.004 C 
ENDBRANCH  12  13
ENDBRANCH  11  12
ENDBRANCH  10  11
ENDBRANCH   9  10
ENDBRANCH   1   9
TORSDOF 10
ENDMDL
MODEL 5
REMARK VINA RESULT:    -4.137      3.561      6.251
REMARK INTER + INTRA:          -7.446
REMARK INTER:                  -6.410
REMARK INTRA:                  -1.036
REMARK UNBOUND:                -0.891
REMARK SMILES CCCCCCCCCCCC(=O)[O-]
REMARK SMILES IDX 7 1 8 2 9 3 10 4 11 5 12 6 13 7 14 8 6 9 5 10 4 11 3 12 2 13
REMARK SMILES IDX 1 14
REMARK H PARENT
REMARK Flexibility Score: inf
ROOT
ATOM      1  C   UNL     1       7.489 -18.641  25.876  1.00  0.00     0.000 C 
ENDROOT
BRANCH   1   2
ATOM      2  C   UNL     1       6.718 -19.013  24.601  1.00  0.00     0.000 C 
BRANCH   2   3
ATOM      3  C   UNL     1       6.756 -20.520  24.302  1.00  0.00     0.000 C 
BRANCH   3   4
ATOM      4  C   UNL     1       6.805 -20.824  22.797  1.00  0.00     0.006 C 
BRANCH   4   5
ATOM      5  C   UNL     1       8.227 -21.192  22.360  1.00  0.00     0.053 C 
BRANCH   5   6
ATOM      6  C   UNL     1       8.208 -22.406  21.487  1.00  0.00     0.041 C 
ATOM      7  O   UNL     1       7.230 -22.624  20.724  1.00  0.00    -0.550 OA
ATOM      8  O   UNL     1       9.248 -23.324  21.550  1.00  0.00    -0.550 OA
ENDBRANCH   5   6
ENDBRANCH   4   5
ENDBRANCH   3   4
ENDBRANCH   2   3
ENDBRANCH   1   2
BRANCH   1   9
ATOM      9  C   UNL     1       8.763 -17.857  25.538  1.00  0.00     0.000 C 
BRANCH   9  10
ATOM     10  C   UNL     1       8.599 -16.370  25.870  1.00  0.00    -0.000 C 
BRANCH  10  11
ATOM     11  C   UNL     1       8.938 -15.494  24.658  1.00  0.00    -0.000 C 
BRANCH  11  12
ATOM     12  C   UNL     1       9.051 -16.340  23.381  1.00  0.00    -0.000 C 
BRANCH  12  13
ATOM     13  C   UNL     1       7.830 -16.188  22.462  1.00  0.00    -0.003 C 
ATOM     14  C   UNL     1       7.730 -17.301  21.420  1.00  0.00     0.004 C 
ENDBRANCH  12  13
ENDBRANCH  11  12
ENDBRANCH  10  11
ENDBRANCH   9  10
ENDBRANCH   1   9
TORSDOF 10
ENDMDL
MODEL 6
REMARK VINA RESULT:    -4.135      1.879      3.942
REMARK INTER + INTRA:          -7.443
REMARK INTER:                  -5.847
REMARK INTRA:                  -1.596
REMARK UNBOUND:                -0.891
REMARK SMILES CCCCCCCCCCCC(=O)[O-]
REMARK SMILES IDX 7 1 8 2 9 3 10 4 11 5 12 6 13 7 14 8 6 9 5 10 4 11 3 12 2 13
REMARK SMILES IDX 1 14
REMARK H PARENT
REMARK Flexibility Score: inf
ROOT
ATOM      1  C   UNL     1       6.757 -20.735  22.934  1.00  0.00     0.000 C 
ENDROOT
BRANCH   1   2
ATOM      2  C   UNL     1       6.827 -20.370  24.424  1.00  0.00     0.000 C 
BRANCH   2   3
ATOM      3  C   UNL     1       6.622 -18.868  24.677  1.00  0.00     0.000 C 
BRANCH   3   4
ATOM      4  C   UNL     1       7.567 -18.314  25.755  1.00  0.00     0.006 C 
BRANCH   4   5
ATOM      5  C   UNL     1       9.007 -18.249  25.237  1.00  0.00     0.053 C 
BRANCH   5   6
ATOM      6  C   UNL     1       9.518 -16.843  25.288  1.00  0.00     0.041 C 
ATOM      7  O   UNL     1      10.674 -16.573  24.869  1.00  0.00    -0.550 OA
ATOM      8  O   UNL     1       8.735 -15.839  25.843  1.00  0.00    -0.550 OA
ENDBRANCH   5   6
ENDBRANCH   4   5
ENDBRANCH   3   4
ENDBRANCH   2   3
ENDBRANCH   1   2
BRANCH   1   9
ATOM      9  C   UNL     1       8.121 -20.554  22.258  1.00  0.00     0.000 C 
BRANCH   9  10
ATOM     10  C   UNL     1       8.115 -19.343  21.319  1.00  0.00    -0.000 C 
BRANCH  10  11
ATOM     11  C   UNL     1       9.372 -18.487  21.515  1.00  0.00    -0.000 C 
BRANCH  11  12
ATOM     12  C   UNL     1       9.008 -17.004  21.680  1.00  0.00    -0.000 C 
BRANCH  12  13
ATOM     13  C   UNL     1       7.507 -16.787  21.920  1.00  0.00    -0.003 C 
ATOM     14  C   UNL     1       7.204 -15.459  22.614  1.00  0.00     0.004 C 
ENDBRANCH  12  13
ENDBRANCH  11  12
ENDBRANCH  10  11
ENDBRANCH   9  10
ENDBRANCH   1   9
TORSDOF 10
ENDMDL
MODEL 7
REMARK VINA RESULT:    -4.097      2.527      4.476
REMARK INTER + INTRA:          -7.383
REMARK INTER:                  -6.104
REMARK INTRA:                  -1.279
REMARK UNBOUND:                -0.891
REMARK SMILES CCCCCCCCCCCC(=O)[O-]
REMARK SMILES IDX 7 1 8 2 9 3 10 4 11 5 12 6 13 7 14 8 6 9 5 10 4 11 3 12 2 13
REMARK SMILES IDX 1 14
REMARK H PARENT
REMARK Flexibility Score: inf
ROOT
ATOM      1  C   UNL     1       8.038 -14.929  23.563  1.00  0.00     0.000 C 
ENDROOT
BRANCH   1   2
ATOM      2  C   UNL     1       9.336 -15.492  24.160  1.00  0.00     0.000 C 
BRANCH   2   3
ATOM      3  C   UNL     1       9.151 -16.019  25.591  1.00  0.00     0.000 C 
BRANCH   3   4
ATOM      4  C   UNL     1      10.087 -17.193  25.916  1.00  0.00     0.006 C 
BRANCH   4   5
ATOM      5  C   UNL     1      10.704 -17.770  24.638  1.00  0.00     0.053 C 
BRANCH   5   6
ATOM      6  C   UNL     1      12.198 -17.730  24.715  1.00  0.00     0.041 C 
ATOM      7  O   UNL     1      12.808 -18.423  25.571  1.00  0.00    -0.550 OA
ATOM      8  O   UNL     1      12.915 -16.891  23.872  1.00  0.00    -0.550 OA
ENDBRANCH   5   6
ENDBRANCH   4   5
ENDBRANCH   3   4
ENDBRANCH   2   3
ENDBRANCH   1   2
BRANCH   1   9
ATOM      9  C   UNL     1       7.112 -16.058  23.095  1.00  0.00     0.000 C 
BRANCH   9  10
ATOM     10  C   UNL     1       7.810 -16.952  22.064  1.00  0.00    -0.000 C 
BRANCH  10  11
ATOM     11  C   UNL     1       7.664 -18.434  22.430  1.00  0.00    -0.000 C 
BRANCH  11  12
ATOM     12  C   UNL     1       6.956 -18.599  23.783  1.00  0.00    -0.000 C 
BRANCH  12  13
ATOM     13  C   UNL     1       6.594 -20.061  24.085  1.00  0.00    -0.003 C 
ATOM     14  C   UNL     1       7.008 -21.017  22.967  1.00  0.00     0.004 C 
ENDBRANCH  12  13
ENDBRANCH  11  12
ENDBRANCH  10  11
ENDBRANCH   9  10
ENDBRANCH   1   9
TORSDOF 10
ENDMDL
MODEL 8
REMARK VINA RESULT:    -4.075      2.067      3.025
REMARK INTER + INTRA:          -7.348
REMARK INTER:                  -5.921
REMARK INTRA:                  -1.427
REMARK UNBOUND:                -0.891
REMARK SMILES CCCCCCCCCCCC(=O)[O-]
REMARK SMILES IDX 7 1 8 2 9 3 10 4 11 5 12 6 13 7 14 8 6 9 5 10 4 11 3 12 2 13
REMARK SMILES IDX 1 14
REMARK H PARENT
REMARK Flexibility Score: inf
ROOT
ATOM      1  C   UNL     1       6.350 -17.989  24.317  1.00  0.00     0.000 C 
ENDROOT
BRANCH   1   2
ATOM      2  C   UNL     1       7.481 -17.028  23.925  1.00  0.00     0.000 C 
BRANCH   2   3
ATOM      3  C   UNL     1       8.110 -17.373  22.566  1.00  0.00     0.000 C 
BRANCH   3   4
ATOM      4  C   UNL     1       9.515 -17.978  22.700  1.00  0.00     0.006 C 
BRANCH   4   5
ATOM      5  C   UNL     1      10.155 -17.585  24.036  1.00  0.00     0.053 C 
BRANCH   5   6
ATOM      6  C   UNL     1      11.070 -16.416  23.854  1.00  0.00     0.041 C 
ATOM      7  O   UNL     1      12.317 -16.585  23.824  1.00  0.00    -0.550 OA
ATOM      8  O   UNL     1      10.548 -15.132  23.766  1.00  0.00    -0.550 OA
ENDBRANCH   5   6
ENDBRANCH   4   5
ENDBRANCH   3   4
ENDBRANCH   2   3
ENDBRANCH   1   2
BRANCH   1   9
ATOM      9  C   UNL     1       6.760 -18.866  25.506  1.00  0.00     0.000 C 
BRANCH   9  10
ATOM     10  C   UNL     1       7.076 -20.296  25.053  1.00  0.00    -0.000 C 
BRANCH  10  11
ATOM     11  C   UNL     1       6.453 -20.592  23.684  1.00  0.00    -0.000 C 
BRANCH  11  12
ATOM     12  C   UNL     1       7.494 -21.186  22.723  1.00  0.00    -0.000 C 
BRANCH  12  13
ATOM     13  C   UNL     1       6.986 -21.260  21.275  1.00  0.00    -0.003 C 
ATOM     14  C   UNL     1       7.798 -20.390  20.317  1.00  0.00     0.004 C 
ENDBRANCH  12  13
ENDBRANCH  11  12
ENDBRANCH  10  11
ENDBRANCH   9  10
ENDBRANCH   1   9
TORSDOF 10
ENDMDL
MODEL 9
REMARK VINA RESULT:    -4.057      2.052      3.246
REMARK INTER + INTRA:          -7.320
REMARK INTER:                  -5.982
REMARK INTRA:                  -1.337
REMARK UNBOUND:                -0.891
REMARK SMILES CCCCCCCCCCCC(=O)[O-]
REMARK SMILES IDX 7 1 8 2 9 3 10 4 11 5 12 6 13 7 14 8 6 9 5 10 4 11 3 12 2 13
REMARK SMILES IDX 1 14
REMARK H PARENT
REMARK Flexibility Score: inf
ROOT
ATOM      1  C   UNL     1       7.854 -16.633  20.621  1.00  0.00     0.000 C 
ENDROOT
BRANCH   1   2
ATOM      2  C   UNL     1       6.834 -15.761  21.369  1.00  0.00     0.000 C 
BRANCH   2   3
ATOM      3  C   UNL     1       7.273 -15.433  22.804  1.00  0.00     0.000 C 
BRANCH   3   4
ATOM      4  C   UNL     1       7.658 -16.684  23.608  1.00  0.00     0.006 C 
BRANCH   4   5
ATOM      5  C   UNL     1       9.133 -16.639  24.018  1.00  0.00     0.053 C 
BRANCH   5   6
ATOM      6  C   UNL     1       9.262 -16.661  25.509  1.00  0.00     0.041 C 
ATOM      7  O   UNL     1       8.303 -16.287  26.234  1.00  0.00    -0.550 OA
ATOM      8  O   UNL     1      10.459 -17.049  26.097  1.00  0.00    -0.550 OA
ENDBRANCH   5   6
ENDBRANCH   4   5
ENDBRANCH   3   4
ENDBRANCH   2   3
ENDBRANCH   1   2
BRANCH   1   9
ATOM      9  C   UNL     1       7.149 -17.657  19.725  1.00  0.00     0.000 C 
BRANCH   9  10
ATOM     10  C   UNL     1       7.528 -19.089  20.120  1.00  0.00    -0.000 C 
BRANCH  10  11
ATOM     11  C   UNL     1       8.787 -19.105  20.994  1.00  0.00    -0.000 C 
BRANCH  11  12
ATOM     12  C   UNL     1       8.599 -20.022  22.212  1.00  0.00    -0.000 C 
BRANCH  12  13
ATOM     13  C   UNL     1       7.124 -20.357  22.478  1.00  0.00    -0.003 C 
ATOM     14  C   UNL     1       6.771 -20.336  23.965  1.00  0.00     0.004 C 
ENDBRANCH  12  13
ENDBRANCH  11  12
ENDBRANCH  10  11
ENDBRANCH   9  10
ENDBRANCH   1   9
TORSDOF 10
ENDMDL
