MODEL 1
REMARK VINA RESULT:    -3.995      0.000      0.000
REMARK INTER + INTRA:          -4.321
REMARK INTER:                  -4.228
REMARK INTRA:                  -0.093
REMARK UNBOUND:                -0.093
REMARK SMILES C=C(C)[C@@H]1CC=C(C)C(=O)C1
REMARK SMILES IDX 8 1 7 2 6 3 5 4 4 5 11 6 9 7 10 8 2 9 1 10 3 11
REMARK H PARENT
REMARK Flexibility Score: inf
ROOT
ATOM      1  C   UNL     1     133.979  53.122  25.959  1.00  0.00     0.048 C 
ATOM      2  C   UNL     1     134.318  52.878  24.515  1.00  0.00    -0.012 C 
ATOM      3  C   UNL     1     133.900  53.743  23.573  1.00  0.00    -0.019 C 
ATOM      4  C   UNL     1     134.227  53.555  22.116  1.00  0.00     0.036 C 
ATOM      5  C   UNL     1     134.312  52.061  21.755  1.00  0.00     0.025 C 
ATOM      6  C   UNL     1     135.317  51.344  22.674  1.00  0.00     0.089 C 
ATOM      7  C   UNL     1     135.005  51.623  24.118  1.00  0.00     0.158 C 
ATOM      8  O   UNL     1     135.366  50.794  24.996  1.00  0.00    -0.295 OA
ENDROOT
BRANCH   5   9
ATOM      9  C   UNL     1     134.661  51.862  20.286  1.00  0.00    -0.077 C 
ATOM     10  C   UNL     1     133.876  52.383  19.330  1.00  0.00     0.008 C 
ATOM     11  C   UNL     1     135.882  51.080  19.867  1.00  0.00     0.039 C 
ENDBRANCH   5   9
TORSDOF 1
ENDMDL
MODEL 2
REMARK VINA RESULT:    -3.656      1.668      4.294
REMARK INTER + INTRA:          -3.963
REMARK INTER:                  -3.868
REMARK INTRA:                  -0.095
REMARK UNBOUND:                -0.093
REMARK SMILES C=C(C)[C@@H]1CC=C(C)C(=O)C1
REMARK SMILES IDX 8 1 7 2 6 3 5 4 4 5 11 6 9 7 10 8 2 9 1 10 3 11
REMARK H PARENT
REMARK Flexibility Score: inf
ROOT
ATOM      1  C   UNL     1     134.187  52.243  19.602  1.00  0.00     0.048 C 
ATOM      2  C   UNL     1     134.251  52.034  21.090  1.00  0.00    -0.012 C 
ATOM      3  C   UNL     1     133.900  53.031  21.922  1.00  0.00    -0.019 C 
ATOM      4  C   UNL     1     133.929  52.869  23.418  1.00  0.00     0.036 C 
ATOM      5  C   UNL     1     135.056  51.913  23.851  1.00  0.00     0.025 C 
ATOM      6  C   UNL     1     134.923  50.564  23.121  1.00  0.00     0.089 C 
ATOM      7  C   UNL     1     134.815  50.775  21.636  1.00  0.00     0.158 C 
ATOM      8  O   UNL     1     135.178  49.852  20.857  1.00  0.00    -0.295 OA
ENDROOT
BRANCH   5   9
ATOM      9  C   UNL     1     135.080  51.728  25.362  1.00  0.00    -0.077 C 
ATOM     10  C   UNL     1     135.023  52.796  26.173  1.00  0.00     0.008 C 
ATOM     11  C   UNL     1     135.171  50.356  25.984  1.00  0.00     0.039 C 
ENDBRANCH   5   9
TORSDOF 1
ENDMDL
MODEL 3
REMARK VINA RESULT:    -3.648      1.568      2.356
REMARK INTER + INTRA:          -3.955
REMARK INTER:                  -3.856
REMARK INTRA:                  -0.098
REMARK UNBOUND:                -0.093
REMARK SMILES C=C(C)[C@@H]1CC=C(C)C(=O)C1
REMARK SMILES IDX 8 1 7 2 6 3 5 4 4 5 11 6 9 7 10 8 2 9 1 10 3 11
REMARK H PARENT
REMARK Flexibility Score: inf
ROOT
ATOM      1  C   UNL     1     134.523  52.985  26.276  1.00  0.00     0.048 C 
ATOM      2  C   UNL     1     134.548  52.356  24.911  1.00  0.00    -0.012 C 
ATOM      3  C   UNL     1     134.964  51.086  24.766  1.00  0.00    -0.019 C 
ATOM      4  C   UNL     1     134.992  50.403  23.425  1.00  0.00     0.036 C 
ATOM      5  C   UNL     1     135.294  51.407  22.298  1.00  0.00     0.025 C 
ATOM      6  C   UNL     1     134.290  52.573  22.337  1.00  0.00     0.089 C 
ATOM      7  C   UNL     1     134.231  53.175  23.714  1.00  0.00     0.158 C 
ATOM      8  O   UNL     1     133.875  54.377  23.844  1.00  0.00    -0.295 OA
ENDROOT
BRANCH   5   9
ATOM      9  C   UNL     1     135.306  50.728  20.935  1.00  0.00    -0.077 C 
ATOM     10  C   UNL     1     134.953  49.438  20.821  1.00  0.00     0.008 C 
ATOM     11  C   UNL     1     135.711  51.476  19.688  1.00  0.00     0.039 C 
ENDBRANCH   5   9
TORSDOF 1
ENDMDL
MODEL 4
REMARK VINA RESULT:    -3.644      0.664      1.236
REMARK INTER + INTRA:          -3.950
REMARK INTER:                  -3.851
REMARK INTRA:                  -0.099
REMARK UNBOUND:                -0.093
REMARK SMILES C=C(C)[C@@H]1CC=C(C)C(=O)C1
REMARK SMILES IDX 8 1 7 2 6 3 5 4 4 5 11 6 9 7 10 8 2 9 1 10 3 11
REMARK H PARENT
REMARK Flexibility Score: inf
ROOT
ATOM      1  C   UNL     1     133.983  52.615  26.599  1.00  0.00     0.048 C 
ATOM      2  C   UNL     1     134.320  52.472  25.141  1.00  0.00    -0.012 C 
ATOM      3  C   UNL     1     133.875  53.383  24.258  1.00  0.00    -0.019 C 
ATOM      4  C   UNL     1     134.198  53.297  22.791  1.00  0.00     0.036 C 
ATOM      5  C   UNL     1     134.319  51.831  22.335  1.00  0.00     0.025 C 
ATOM      6  C   UNL     1     135.347  51.084  23.203  1.00  0.00     0.089 C 
ATOM      7  C   UNL     1     135.037  51.263  24.663  1.00  0.00     0.158 C 
ATOM      8  O   UNL     1     135.424  50.389  25.485  1.00  0.00    -0.295 OA
ENDROOT
BRANCH   5   9
ATOM      9  C   UNL     1     134.664  51.734  20.855  1.00  0.00    -0.077 C 
ATOM     10  C   UNL     1     135.686  50.963  20.451  1.00  0.00     0.008 C 
ATOM     11  C   UNL     1     133.879  52.493  19.813  1.00  0.00     0.039 C 
ENDBRANCH   5   9
TORSDOF 1
ENDMDL
MODEL 5
REMARK VINA RESULT:    -3.593      1.889      4.721
REMARK INTER + INTRA:          -3.896
REMARK INTER:                  -3.798
REMARK INTRA:                  -0.098
REMARK UNBOUND:                -0.093
REMARK SMILES C=C(C)[C@@H]1CC=C(C)C(=O)C1
REMARK SMILES IDX 8 1 7 2 6 3 5 4 4 5 11 6 9 7 10 8 2 9 1 10 3 11
REMARK H PARENT
REMARK Flexibility Score: inf
ROOT
ATOM      1  C   UNL     1     134.238  51.886  20.184  1.00  0.00     0.048 C 
ATOM      2  C   UNL     1     134.598  51.900  21.643  1.00  0.00    -0.012 C 
ATOM      3  C   UNL     1     134.982  50.762  22.249  1.00  0.00    -0.019 C 
ATOM      4  C   UNL     1     135.371  50.724  23.702  1.00  0.00     0.036 C 
ATOM      5  C   UNL     1     134.571  51.756  24.518  1.00  0.00     0.025 C 
ATOM      6  C   UNL     1     134.732  53.160  23.909  1.00  0.00     0.089 C 
ATOM      7  C   UNL     1     134.413  53.139  22.439  1.00  0.00     0.158 C 
ATOM      8  O   UNL     1     134.019  54.198  21.880  1.00  0.00    -0.295 OA
ENDROOT
BRANCH   5   9
ATOM      9  C   UNL     1     134.971  51.737  25.987  1.00  0.00    -0.077 C 
ATOM     10  C   UNL     1     135.065  52.886  26.674  1.00  0.00     0.008 C 
ATOM     11  C   UNL     1     135.273  50.444  26.703  1.00  0.00     0.039 C 
ENDBRANCH   5   9
TORSDOF 1
ENDMDL
MODEL 6
REMARK VINA RESULT:    -3.566      1.577      2.393
REMARK INTER + INTRA:          -3.867
REMARK INTER:                  -3.769
REMARK INTRA:                  -0.098
REMARK UNBOUND:                -0.093
REMARK SMILES C=C(C)[C@@H]1CC=C(C)C(=O)C1
REMARK SMILES IDX 8 1 7 2 6 3 5 4 4 5 11 6 9 7 10 8 2 9 1 10 3 11
REMARK H PARENT
REMARK Flexibility Score: inf
ROOT
ATOM      1  C   UNL     1     135.303  50.215  26.767  1.00  0.00     0.048 C 
ATOM      2  C   UNL     1     135.034  50.620  25.344  1.00  0.00    -0.012 C 
ATOM      3  C   UNL     1     134.990  49.685  24.379  1.00  0.00    -0.019 C 
ATOM      4  C   UNL     1     134.708  50.033  22.942  1.00  0.00     0.036 C 
ATOM      5  C   UNL     1     135.261  51.426  22.590  1.00  0.00     0.025 C 
ATOM      6  C   UNL     1     134.710  52.483  23.565  1.00  0.00     0.089 C 
ATOM      7  C   UNL     1     134.940  52.058  24.990  1.00  0.00     0.158 C 
ATOM      8  O   UNL     1     135.016  52.939  25.889  1.00  0.00    -0.295 OA
ENDROOT
BRANCH   5   9
ATOM      9  C   UNL     1     134.962  51.796  21.143  1.00  0.00    -0.077 C 
ATOM     10  C   UNL     1     133.915  52.583  20.851  1.00  0.00     0.008 C 
ATOM     11  C   UNL     1     135.823  51.293  20.010  1.00  0.00     0.039 C 
ENDBRANCH   5   9
TORSDOF 1
ENDMDL
MODEL 7
REMARK VINA RESULT:    -3.139      2.050      5.231
REMARK INTER + INTRA:          -3.415
REMARK INTER:                  -3.316
REMARK INTRA:                  -0.099
REMARK UNBOUND:                -0.093
REMARK SMILES C=C(C)[C@@H]1CC=C(C)C(=O)C1
REMARK SMILES IDX 8 1 7 2 6 3 5 4 4 5 11 6 9 7 10 8 2 9 1 10 3 11
REMARK H PARENT
REMARK Flexibility Score: inf
ROOT
ATOM      1  C   UNL     1     134.426  50.558  21.615  1.00  0.00     0.048 C 
ATOM      2  C   UNL     1     134.758  50.946  23.029  1.00  0.00    -0.012 C 
ATOM      3  C   UNL     1     134.986  49.992  23.949  1.00  0.00    -0.019 C 
ATOM      4  C   UNL     1     135.340  50.325  25.374  1.00  0.00     0.036 C 
ATOM      5  C   UNL     1     134.659  51.631  25.823  1.00  0.00     0.025 C 
ATOM      6  C   UNL     1     135.004  52.776  24.854  1.00  0.00     0.089 C 
ATOM      7  C   UNL     1     134.714  52.373  23.435  1.00  0.00     0.158 C 
ATOM      8  O   UNL     1     134.465  53.267  22.581  1.00  0.00    -0.295 OA
ENDROOT
BRANCH   5   9
ATOM      9  C   UNL     1     135.026  51.986  27.258  1.00  0.00    -0.077 C 
ATOM     10  C   UNL     1     135.639  53.149  27.528  1.00  0.00     0.008 C 
ATOM     11  C   UNL     1     134.718  51.052  28.402  1.00  0.00     0.039 C 
ENDBRANCH   5   9
TORSDOF 1
ENDMDL
MODEL 8
REMARK VINA RESULT:    -3.092      5.460      7.735
REMARK INTER + INTRA:          -3.366
REMARK INTER:                  -3.269
REMARK INTRA:                  -0.097
REMARK UNBOUND:                -0.093
REMARK SMILES C=C(C)[C@@H]1CC=C(C)C(=O)C1
REMARK SMILES IDX 8 1 7 2 6 3 5 4 4 5 11 6 9 7 10 8 2 9 1 10 3 11
REMARK H PARENT
REMARK Flexibility Score: inf
ROOT
ATOM      1  C   UNL     1     133.947  56.570  32.255  1.00  0.00     0.048 C 
ATOM      2  C   UNL     1     134.054  55.514  31.191  1.00  0.00    -0.012 C 
ATOM      3  C   UNL     1     134.183  54.222  31.539  1.00  0.00    -0.019 C 
ATOM      4  C   UNL     1     134.277  53.124  30.514  1.00  0.00     0.036 C 
ATOM      5  C   UNL     1     134.987  53.615  29.240  1.00  0.00     0.025 C 
ATOM      6  C   UNL     1     134.288  54.870  28.686  1.00  0.00     0.089 C 
ATOM      7  C   UNL     1     134.141  55.910  29.762  1.00  0.00     0.158 C 
ATOM      8  O   UNL     1     134.055  57.124  29.435  1.00  0.00    -0.295 OA
ENDROOT
BRANCH   5   9
ATOM      9  C   UNL     1     135.070  52.515  28.189  1.00  0.00    -0.077 C 
ATOM     10  C   UNL     1     135.404  52.816  26.924  1.00  0.00     0.008 C 
ATOM     11  C   UNL     1     134.781  51.075  28.534  1.00  0.00     0.039 C 
ENDBRANCH   5   9
TORSDOF 1
ENDMDL
MODEL 9
REMARK VINA RESULT:    -3.083      2.248      4.570
REMARK INTER + INTRA:          -3.356
REMARK INTER:                  -3.263
REMARK INTRA:                  -0.093
REMARK UNBOUND:                -0.093
REMARK SMILES C=C(C)[C@@H]1CC=C(C)C(=O)C1
REMARK SMILES IDX 8 1 7 2 6 3 5 4 4 5 11 6 9 7 10 8 2 9 1 10 3 11
REMARK H PARENT
REMARK Flexibility Score: inf
ROOT
ATOM      1  C   UNL     1     134.130  52.566  20.723  1.00  0.00     0.048 C 
ATOM      2  C   UNL     1     134.361  51.892  22.047  1.00  0.00    -0.012 C 
ATOM      3  C   UNL     1     134.644  52.631  23.134  1.00  0.00    -0.019 C 
ATOM      4  C   UNL     1     134.867  52.008  24.487  1.00  0.00     0.036 C 
ATOM      5  C   UNL     1     135.512  50.616  24.357  1.00  0.00     0.025 C 
ATOM      6  C   UNL     1     134.667  49.719  23.434  1.00  0.00     0.089 C 
ATOM      7  C   UNL     1     134.398  50.410  22.126  1.00  0.00     0.158 C 
ATOM      8  O   UNL     1     134.168  49.715  21.100  1.00  0.00    -0.295 OA
ENDROOT
BRANCH   5   9
ATOM      9  C   UNL     1     135.723  49.971  25.720  1.00  0.00    -0.077 C 
ATOM     10  C   UNL     1     136.496  48.879  25.835  1.00  0.00     0.008 C 
ATOM     11  C   UNL     1     135.077  50.530  26.963  1.00  0.00     0.039 C 
ENDBRANCH   5   9
TORSDOF 1
ENDMDL
