MODEL 1
REMARK VINA RESULT:    -4.926      0.000      0.000
REMARK INTER + INTRA:          -6.267
REMARK INTER:                  -6.941
REMARK INTRA:                   0.674
REMARK UNBOUND:                 0.674
REMARK SMILES CC1=CCC(=C(C)C)C(=O)CC(C)=CCC1
REMARK SMILES IDX 12 1 14 2 13 3 15 4 16 5 2 6 1 7 3 8 11 10 9 11 10 12 5 13
REMARK SMILES IDX 6 14 7 15 8 16 4 17
REMARK H PARENT
REMARK Flexibility Score: 60.00
ROOT
ATOM      1  C   UNL     1      17.215 -31.695  21.609  1.00  0.00    -0.070 C 
ATOM      2  C   UNL     1      17.724 -32.126  20.430  1.00  0.00    -0.027 C 
ATOM      3  C   UNL     1      16.973 -30.214  21.761  1.00  0.00     0.039 C 
ENDROOT
BRANCH   2   4
ATOM      4  C   UNL     1      18.141 -33.540  20.099  1.00  0.00     0.032 C 
BRANCH   4   5
ATOM      5  C   UNL     1      17.125 -34.259  19.191  1.00  0.00     0.034 C 
BRANCH   5   6
ATOM      6  C   UNL     1      16.209 -35.180  19.973  1.00  0.00    -0.077 C 
ATOM      7  C   UNL     1      16.645 -36.607  20.190  1.00  0.00     0.039 C 
ATOM      8  C   UNL     1      15.033 -34.788  20.511  1.00  0.00    -0.023 CG0
ATOM      9  G   UNL     1      14.445 -33.399  20.433  1.00  0.00     0.000 G0
ENDBRANCH   5   6
ENDBRANCH   4   5
ENDBRANCH   2   4
BRANCH   1  10
ATOM     10  C   UNL     1      16.943 -32.606  22.794  1.00  0.00     0.111 C 
BRANCH  10  11
ATOM     11  C   UNL     1      15.552 -33.190  22.736  1.00  0.00     0.163 C 
ATOM     12  O   UNL     1      15.254 -34.098  23.558  1.00  0.00    -0.294 OA
BRANCH  11  13
ATOM     13  C   UNL     1      14.521 -32.686  21.774  1.00  0.00    -0.002 C 
ATOM     14  C   UNL     1      13.642 -31.697  22.117  1.00  0.00    -0.069 C 
ATOM     15  C   UNL     1      12.627 -31.167  21.127  1.00  0.00     0.039 C 
ATOM     16  C   UNL     1      13.613 -31.108  23.509  1.00  0.00     0.039 C 
BRANCH  13  17
ATOM     17  C   UNL     1      14.444 -33.375  20.424  1.00  0.00     0.066 CG0
ATOM     18  G   UNL     1      15.013 -34.770  20.527  1.00  0.00     0.000 G0
ENDBRANCH  13  17
ENDBRANCH  11  13
ENDBRANCH  10  11
ENDBRANCH   1  10
TORSDOF 0
ENDMDL
MODEL 2
REMARK VINA RESULT:    -4.674      1.563      4.071
REMARK INTER + INTRA:          -5.912
REMARK INTER:                  -6.268
REMARK INTRA:                   0.356
REMARK UNBOUND:                 0.674
REMARK SMILES CC1=CCC(=C(C)C)C(=O)CC(C)=CCC1
REMARK SMILES IDX 12 1 14 2 13 3 15 4 16 5 2 6 1 7 3 8 11 10 9 11 10 12 5 13
REMARK SMILES IDX 6 14 7 15 8 16 4 17
REMARK H PARENT
REMARK Flexibility Score: 60.00
ROOT
ATOM      1  C   UNL     1      17.999 -30.422  21.156  1.00  0.00    -0.070 C 
ATOM      2  C   UNL     1      17.017 -29.707  21.755  1.00  0.00    -0.027 C 
ATOM      3  C   UNL     1      19.411 -29.903  21.280  1.00  0.00     0.039 C 
ENDROOT
BRANCH   2   4
ATOM      4  C   UNL     1      15.534 -29.981  21.671  1.00  0.00     0.032 C 
BRANCH   4   5
ATOM      5  C   UNL     1      15.117 -31.232  22.468  1.00  0.00     0.034 C 
BRANCH   5   6
ATOM      6  C   UNL     1      14.304 -32.199  21.631  1.00  0.00    -0.077 C 
ATOM      7  C   UNL     1      13.051 -31.689  20.964  1.00  0.00     0.039 C 
ATOM      8  C   UNL     1      14.650 -33.489  21.425  1.00  0.00    -0.023 CG0
ATOM      9  G   UNL     1      15.880 -34.171  21.976  1.00  0.00     0.000 G0
ENDBRANCH   5   6
ENDBRANCH   4   5
ENDBRANCH   2   4
BRANCH   1  10
ATOM     10  C   UNL     1      17.749 -31.665  20.320  1.00  0.00     0.111 C 
BRANCH  10  11
ATOM     11  C   UNL     1      17.948 -32.925  21.126  1.00  0.00     0.163 C 
ATOM     12  O   UNL     1      18.890 -32.952  21.963  1.00  0.00    -0.294 OA
BRANCH  11  13
ATOM     13  C   UNL     1      17.034 -34.103  20.993  1.00  0.00    -0.002 C 
ATOM     14  C   UNL     1      17.188 -35.024  19.994  1.00  0.00    -0.069 C 
ATOM     15  C   UNL     1      16.283 -36.232  19.889  1.00  0.00     0.039 C 
ATOM     16  C   UNL     1      18.244 -34.863  18.924  1.00  0.00     0.039 C 
BRANCH  13  17
ATOM     17  C   UNL     1      15.879 -34.193  21.974  1.00  0.00     0.066 CG0
ATOM     18  G   UNL     1      14.673 -33.477  21.412  1.00  0.00     0.000 G0
ENDBRANCH  13  17
ENDBRANCH  11  13
ENDBRANCH  10  11
ENDBRANCH   1  10
TORSDOF 0
ENDMDL
MODEL 3
REMARK VINA RESULT:    -4.514      2.005      4.897
REMARK INTER + INTRA:          -5.687
REMARK INTER:                  -6.435
REMARK INTRA:                   0.747
REMARK UNBOUND:                 0.674
REMARK SMILES CC1=CCC(=C(C)C)C(=O)CC(C)=CCC1
REMARK SMILES IDX 12 1 14 2 13 3 15 4 16 5 2 6 1 7 3 8 11 10 9 11 10 12 5 13
REMARK SMILES IDX 6 14 7 15 8 16 4 17
REMARK H PARENT
REMARK Flexibility Score: 60.00
ROOT
ATOM      1  C   UNL     1      14.678 -33.578  21.154  1.00  0.00    -0.070 C 
ATOM      2  C   UNL     1      13.853 -32.525  20.944  1.00  0.00    -0.027 C 
ATOM      3  C   UNL     1      15.149 -34.345  19.942  1.00  0.00     0.039 C 
ENDROOT
BRANCH   2   4
ATOM      4  C   UNL     1      13.182 -31.689  22.008  1.00  0.00     0.032 C 
BRANCH   4   5
ATOM      5  C   UNL     1      14.136 -31.321  23.160  1.00  0.00     0.034 C 
BRANCH   5   6
ATOM      6  C   UNL     1      15.186 -30.313  22.736  1.00  0.00    -0.077 C 
ATOM      7  C   UNL     1      14.725 -29.020  22.113  1.00  0.00     0.039 C 
ATOM      8  C   UNL     1      16.514 -30.494  22.908  1.00  0.00    -0.023 CG0
ATOM      9  G   UNL     1      17.165 -31.701  23.542  1.00  0.00     0.000 G0
ENDBRANCH   5   6
ENDBRANCH   4   5
ENDBRANCH   2   4
BRANCH   1  10
ATOM     10  C   UNL     1      15.096 -34.062  22.532  1.00  0.00     0.111 C 
BRANCH  10  11
ATOM     11  C   UNL     1      16.596 -34.042  22.696  1.00  0.00     0.163 C 
ATOM     12  O   UNL     1      17.180 -35.129  22.949  1.00  0.00    -0.294 OA
BRANCH  11  13
ATOM     13  C   UNL     1      17.396 -32.789  22.517  1.00  0.00    -0.002 C 
ATOM     14  C   UNL     1      18.317 -32.662  21.515  1.00  0.00    -0.069 C 
ATOM     15  C   UNL     1      19.095 -31.379  21.318  1.00  0.00     0.039 C 
ATOM     16  C   UNL     1      18.634 -33.806  20.579  1.00  0.00     0.039 C 
BRANCH  13  17
ATOM     17  C   UNL     1      17.192 -31.689  23.543  1.00  0.00     0.066 CG0
ATOM     18  G   UNL     1      16.516 -30.504  22.896  1.00  0.00     0.000 G0
ENDBRANCH  13  17
ENDBRANCH  11  13
ENDBRANCH  10  11
ENDBRANCH   1  10
TORSDOF 0
ENDMDL
MODEL 4
REMARK VINA RESULT:    -4.507      1.721      3.286
REMARK INTER + INTRA:          -5.677
REMARK INTER:                  -6.481
REMARK INTRA:                   0.804
REMARK UNBOUND:                 0.674
REMARK SMILES CC1=CCC(=C(C)C)C(=O)CC(C)=CCC1
REMARK SMILES IDX 12 1 14 2 13 3 15 4 16 5 2 6 1 7 3 8 11 10 9 11 10 12 5 13
REMARK SMILES IDX 6 14 7 15 8 16 4 17
REMARK H PARENT
REMARK Flexibility Score: 60.00
ROOT
ATOM      1  C   UNL     1      14.259 -33.231  20.971  1.00  0.00    -0.070 C 
ATOM      2  C   UNL     1      14.684 -34.154  20.076  1.00  0.00    -0.027 C 
ATOM      3  C   UNL     1      13.493 -32.045  20.437  1.00  0.00     0.039 C 
ENDROOT
BRANCH   2   4
ATOM      4  C   UNL     1      15.550 -35.354  20.373  1.00  0.00     0.032 C 
BRANCH   4   5
ATOM      5  C   UNL     1      16.874 -34.973  21.062  1.00  0.00     0.034 C 
BRANCH   5   6
ATOM      6  C   UNL     1      17.587 -33.842  20.347  1.00  0.00    -0.077 C 
ATOM      7  C   UNL     1      17.937 -34.025  18.891  1.00  0.00     0.039 C 
ATOM      8  C   UNL     1      17.906 -32.666  20.931  1.00  0.00    -0.023 CG0
ATOM      9  G   UNL     1      17.609 -32.282  22.362  1.00  0.00     0.000 G0
ENDBRANCH   5   6
ENDBRANCH   4   5
ENDBRANCH   2   4
BRANCH   1  10
ATOM     10  C   UNL     1      14.567 -33.292  22.458  1.00  0.00     0.111 C 
BRANCH  10  11
ATOM     11  C   UNL     1      15.115 -31.981  22.965  1.00  0.00     0.163 C 
ATOM     12  O   UNL     1      14.513 -31.413  23.915  1.00  0.00    -0.294 OA
BRANCH  11  13
ATOM     13  C   UNL     1      16.367 -31.378  22.409  1.00  0.00    -0.002 C 
ATOM     14  C   UNL     1      16.388 -30.112  21.892  1.00  0.00    -0.069 C 
ATOM     15  C   UNL     1      17.666 -29.496  21.366  1.00  0.00     0.039 C 
ATOM     16  C   UNL     1      15.130 -29.279  21.785  1.00  0.00     0.039 C 
BRANCH  13  17
ATOM     17  C   UNL     1      17.601 -32.261  22.374  1.00  0.00     0.066 CG0
ATOM     18  G   UNL     1      17.901 -32.667  20.951  1.00  0.00     0.000 G0
ENDBRANCH  13  17
ENDBRANCH  11  13
ENDBRANCH  10  11
ENDBRANCH   1  10
TORSDOF 0
ENDMDL
MODEL 5
REMARK VINA RESULT:    -4.452      2.502      4.112
REMARK INTER + INTRA:          -5.599
REMARK INTER:                  -5.944
REMARK INTRA:                   0.345
REMARK UNBOUND:                 0.674
REMARK SMILES CC1=CCC(=C(C)C)C(=O)CC(C)=CCC1
REMARK SMILES IDX 12 1 14 2 13 3 15 4 16 5 2 6 1 7 3 8 11 10 9 11 10 12 5 13
REMARK SMILES IDX 6 14 7 15 8 16 4 17
REMARK H PARENT
REMARK Flexibility Score: 60.00
ROOT
ATOM      1  C   UNL     1      14.698 -32.874  22.560  1.00  0.00    -0.070 C 
ATOM      2  C   UNL     1      14.607 -32.979  21.213  1.00  0.00    -0.027 C 
ATOM      3  C   UNL     1      14.372 -31.536  23.177  1.00  0.00     0.039 C 
ENDROOT
BRANCH   2   4
ATOM      4  C   UNL     1      14.986 -34.182  20.382  1.00  0.00     0.032 C 
BRANCH   4   5
ATOM      5  C   UNL     1      16.486 -34.210  20.031  1.00  0.00     0.034 C 
BRANCH   5   6
ATOM      6  C   UNL     1      17.107 -35.571  20.280  1.00  0.00    -0.077 C 
ATOM      7  C   UNL     1      16.783 -36.691  19.324  1.00  0.00     0.039 C 
ATOM      8  C   UNL     1      17.958 -35.833  21.297  1.00  0.00    -0.023 CG0
ATOM      9  G   UNL     1      18.429 -34.839  22.332  1.00  0.00     0.000 G0
ENDBRANCH   5   6
ENDBRANCH   4   5
ENDBRANCH   2   4
BRANCH   1  10
ATOM     10  C   UNL     1      15.171 -34.000  23.464  1.00  0.00     0.111 C 
BRANCH  10  11
ATOM     11  C   UNL     1      16.626 -33.841  23.833  1.00  0.00     0.163 C 
ATOM     12  O   UNL     1      16.983 -32.770  24.393  1.00  0.00    -0.294 OA
BRANCH  11  13
ATOM     13  C   UNL     1      17.626 -34.931  23.599  1.00  0.00    -0.002 C 
ATOM     14  C   UNL     1      17.837 -35.922  24.516  1.00  0.00    -0.069 C 
ATOM     15  C   UNL     1      18.823 -37.040  24.255  1.00  0.00     0.039 C 
ATOM     16  C   UNL     1      17.127 -35.931  25.851  1.00  0.00     0.039 C 
BRANCH  13  17
ATOM     17  C   UNL     1      18.451 -34.846  22.328  1.00  0.00     0.066 CG0
ATOM     18  G   UNL     1      17.936 -35.840  21.315  1.00  0.00     0.000 G0
ENDBRANCH  13  17
ENDBRANCH  11  13
ENDBRANCH  10  11
ENDBRANCH   1  10
TORSDOF 0
ENDMDL
MODEL 6
REMARK VINA RESULT:    -4.450      2.276      4.228
REMARK INTER + INTRA:          -5.597
REMARK INTER:                  -6.076
REMARK INTRA:                   0.479
REMARK UNBOUND:                 0.674
REMARK SMILES CC1=CCC(=C(C)C)C(=O)CC(C)=CCC1
REMARK SMILES IDX 12 1 14 2 13 3 15 4 16 5 2 6 1 7 3 8 11 10 9 11 10 12 5 13
REMARK SMILES IDX 6 14 7 15 8 16 4 17
REMARK H PARENT
REMARK Flexibility Score: 60.00
ROOT
ATOM      1  C   UNL     1      15.259 -31.288  22.691  1.00  0.00    -0.070 C 
ATOM      2  C   UNL     1      15.792 -30.445  21.775  1.00  0.00    -0.027 C 
ATOM      3  C   UNL     1      13.798 -31.117  23.027  1.00  0.00     0.039 C 
ENDROOT
BRANCH   2   4
ATOM      4  C   UNL     1      17.245 -30.368  21.369  1.00  0.00     0.032 C 
BRANCH   4   5
ATOM      5  C   UNL     1      17.701 -31.603  20.569  1.00  0.00     0.034 C 
BRANCH   5   6
ATOM      6  C   UNL     1      18.966 -32.217  21.135  1.00  0.00    -0.077 C 
ATOM      7  C   UNL     1      20.161 -31.323  21.351  1.00  0.00     0.039 C 
ATOM      8  C   UNL     1      19.078 -33.518  21.485  1.00  0.00    -0.023 CG0
ATOM      9  G   UNL     1      17.987 -34.557  21.378  1.00  0.00     0.000 G0
ENDBRANCH   5   6
ENDBRANCH   4   5
ENDBRANCH   2   4
BRANCH   1  10
ATOM     10  C   UNL     1      16.062 -32.340  23.438  1.00  0.00     0.111 C 
BRANCH  10  11
ATOM     11  C   UNL     1      15.988 -33.683  22.753  1.00  0.00     0.163 C 
ATOM     12  O   UNL     1      14.902 -34.011  22.205  1.00  0.00    -0.294 OA
BRANCH  11  13
ATOM     13  C   UNL     1      17.172 -34.595  22.669  1.00  0.00    -0.002 C 
ATOM     14  C   UNL     1      17.553 -35.378  23.722  1.00  0.00    -0.069 C 
ATOM     15  C   UNL     1      18.729 -36.325  23.616  1.00  0.00     0.039 C 
ATOM     16  C   UNL     1      16.845 -35.312  25.057  1.00  0.00     0.039 C 
BRANCH  13  17
ATOM     17  C   UNL     1      17.979 -34.558  21.384  1.00  0.00     0.066 CG0
ATOM     18  G   UNL     1      19.073 -33.523  21.495  1.00  0.00     0.000 G0
ENDBRANCH  13  17
ENDBRANCH  11  13
ENDBRANCH  10  11
ENDBRANCH   1  10
TORSDOF 0
ENDMDL
MODEL 7
REMARK VINA RESULT:    -4.354      2.008      3.778
REMARK INTER + INTRA:          -5.461
REMARK INTER:                  -5.891
REMARK INTRA:                   0.430
REMARK UNBOUND:                 0.674
REMARK SMILES CC1=CCC(=C(C)C)C(=O)CC(C)=CCC1
REMARK SMILES IDX 12 1 14 2 13 3 15 4 16 5 2 6 1 7 3 8 11 10 9 11 10 12 5 13
REMARK SMILES IDX 6 14 7 15 8 16 4 17
REMARK H PARENT
REMARK Flexibility Score: 60.00
ROOT
ATOM      1  C   UNL     1      14.288 -32.573  21.052  1.00  0.00    -0.070 C 
ATOM      2  C   UNL     1      14.149 -33.595  20.174  1.00  0.00    -0.027 C 
ATOM      3  C   UNL     1      13.428 -31.351  20.839  1.00  0.00     0.039 C 
ENDROOT
BRANCH   2   4
ATOM      4  C   UNL     1      14.975 -34.858  20.134  1.00  0.00     0.032 C 
BRANCH   4   5
ATOM      5  C   UNL     1      16.294 -34.678  19.357  1.00  0.00     0.034 C 
BRANCH   5   6
ATOM      6  C   UNL     1      17.492 -35.177  20.140  1.00  0.00    -0.077 C 
ATOM      7  C   UNL     1      17.674 -36.666  20.298  1.00  0.00     0.039 C 
ATOM      8  C   UNL     1      18.425 -34.365  20.684  1.00  0.00    -0.023 CG0
ATOM      9  G   UNL     1      18.438 -32.857  20.602  1.00  0.00     0.000 G0
ENDBRANCH   5   6
ENDBRANCH   4   5
ENDBRANCH   2   4
BRANCH   1  10
ATOM     10  C   UNL     1      15.301 -32.565  22.184  1.00  0.00     0.111 C 
BRANCH  10  11
ATOM     11  C   UNL     1      16.500 -31.711  21.851  1.00  0.00     0.163 C 
ATOM     12  O   UNL     1      16.306 -30.495  21.580  1.00  0.00    -0.294 OA
BRANCH  11  13
ATOM     13  C   UNL     1      17.894 -32.255  21.885  1.00  0.00    -0.002 C 
ATOM     14  C   UNL     1      18.675 -32.161  23.004  1.00  0.00    -0.069 C 
ATOM     15  C   UNL     1      20.070 -32.746  23.042  1.00  0.00     0.039 C 
ATOM     16  C   UNL     1      18.200 -31.436  24.244  1.00  0.00     0.039 C 
BRANCH  13  17
ATOM     17  C   UNL     1      18.433 -32.850  20.598  1.00  0.00     0.066 CG0
ATOM     18  G   UNL     1      18.424 -34.358  20.687  1.00  0.00     0.000 G0
ENDBRANCH  13  17
ENDBRANCH  11  13
ENDBRANCH  10  11
ENDBRANCH   1  10
TORSDOF 0
ENDMDL
MODEL 8
REMARK VINA RESULT:    -4.335      2.393      4.834
REMARK INTER + INTRA:          -5.435
REMARK INTER:                  -5.817
REMARK INTRA:                   0.382
REMARK UNBOUND:                 0.674
REMARK SMILES CC1=CCC(=C(C)C)C(=O)CC(C)=CCC1
REMARK SMILES IDX 12 1 14 2 13 3 15 4 16 5 2 6 1 7 3 8 11 10 9 11 10 12 5 13
REMARK SMILES IDX 6 14 7 15 8 16 4 17
REMARK H PARENT
REMARK Flexibility Score: 60.00
ROOT
ATOM      1  C   UNL     1      16.033 -35.071  20.620  1.00  0.00    -0.070 C 
ATOM      2  C   UNL     1      15.118 -34.215  20.104  1.00  0.00    -0.027 C 
ATOM      3  C   UNL     1      16.660 -36.070  19.679  1.00  0.00     0.039 C 
ENDROOT
BRANCH   2   4
ATOM      4  C   UNL     1      14.295 -33.213  20.877  1.00  0.00     0.032 C 
BRANCH   4   5
ATOM      5  C   UNL     1      15.099 -31.954  21.256  1.00  0.00     0.034 C 
BRANCH   5   6
ATOM      6  C   UNL     1      15.092 -31.699  22.751  1.00  0.00    -0.077 C 
ATOM      7  C   UNL     1      13.772 -31.411  23.421  1.00  0.00     0.039 C 
ATOM      8  C   UNL     1      16.199 -31.741  23.525  1.00  0.00    -0.023 CG0
ATOM      9  G   UNL     1      17.599 -32.047  23.047  1.00  0.00     0.000 G0
ENDBRANCH   5   6
ENDBRANCH   4   5
ENDBRANCH   2   4
BRANCH   1  10
ATOM     10  C   UNL     1      16.405 -35.120  22.092  1.00  0.00     0.111 C 
BRANCH  10  11
ATOM     11  C   UNL     1      17.760 -34.504  22.342  1.00  0.00     0.163 C 
ATOM     12  O   UNL     1      18.715 -34.846  21.596  1.00  0.00    -0.294 OA
BRANCH  11  13
ATOM     13  C   UNL     1      17.977 -33.473  23.407  1.00  0.00    -0.002 C 
ATOM     14  C   UNL     1      18.423 -33.811  24.654  1.00  0.00    -0.069 C 
ATOM     15  C   UNL     1      18.675 -32.759  25.712  1.00  0.00     0.039 C 
ATOM     16  C   UNL     1      18.649 -35.252  25.052  1.00  0.00     0.039 C 
BRANCH  13  17
ATOM     17  C   UNL     1      17.610 -32.041  23.064  1.00  0.00     0.066 CG0
ATOM     18  G   UNL     1      16.200 -31.750  23.520  1.00  0.00     0.000 G0
ENDBRANCH  13  17
ENDBRANCH  11  13
ENDBRANCH  10  11
ENDBRANCH   1  10
TORSDOF 0
ENDMDL
MODEL 9
REMARK VINA RESULT:    -4.321      2.009      4.833
REMARK INTER + INTRA:          -5.415
REMARK INTER:                  -6.201
REMARK INTRA:                   0.786
REMARK UNBOUND:                 0.674
REMARK SMILES CC1=CCC(=C(C)C)C(=O)CC(C)=CCC1
REMARK SMILES IDX 12 1 14 2 13 3 15 4 16 5 2 6 1 7 3 8 11 10 9 11 10 12 5 13
REMARK SMILES IDX 6 14 7 15 8 16 4 17
REMARK H PARENT
REMARK Flexibility Score: 60.00
ROOT
ATOM      1  C   UNL     1      15.164 -33.309  20.607  1.00  0.00    -0.070 C 
ATOM      2  C   UNL     1      13.890 -32.855  20.528  1.00  0.00    -0.027 C 
ATOM      3  C   UNL     1      15.380 -34.797  20.485  1.00  0.00     0.039 C 
ENDROOT
BRANCH   2   4
ATOM      4  C   UNL     1      13.435 -31.429  20.728  1.00  0.00     0.032 C 
BRANCH   4   5
ATOM      5  C   UNL     1      12.457 -31.279  21.909  1.00  0.00     0.034 C 
BRANCH   5   6
ATOM      6  C   UNL     1      13.111 -30.635  23.116  1.00  0.00    -0.077 C 
ATOM      7  C   UNL     1      12.749 -29.209  23.450  1.00  0.00     0.039 C 
ATOM      8  C   UNL     1      13.981 -31.274  23.929  1.00  0.00    -0.023 CG0
ATOM      9  G   UNL     1      14.438 -32.706  23.781  1.00  0.00     0.000 G0
ENDBRANCH   5   6
ENDBRANCH   4   5
ENDBRANCH   2   4
BRANCH   1  10
ATOM     10  C   UNL     1      16.363 -32.416  20.876  1.00  0.00     0.111 C 
BRANCH  10  11
ATOM     11  C   UNL     1      16.367 -31.905  22.296  1.00  0.00     0.163 C 
ATOM     12  O   UNL     1      16.720 -30.713  22.498  1.00  0.00    -0.294 OA
BRANCH  11  13
ATOM     13  C   UNL     1      15.917 -32.755  23.445  1.00  0.00    -0.002 C 
ATOM     14  C   UNL     1      16.779 -33.587  24.103  1.00  0.00    -0.069 C 
ATOM     15  C   UNL     1      16.326 -34.414  25.286  1.00  0.00     0.039 C 
ATOM     16  C   UNL     1      18.216 -33.753  23.661  1.00  0.00     0.039 C 
BRANCH  13  17
ATOM     17  C   UNL     1      14.443 -32.708  23.801  1.00  0.00     0.066 CG0
ATOM     18  G   UNL     1      13.988 -31.272  23.912  1.00  0.00     0.000 G0
ENDBRANCH  13  17
ENDBRANCH  11  13
ENDBRANCH  10  11
ENDBRANCH   1  10
TORSDOF 0
ENDMDL
