MODEL 1
REMARK VINA RESULT:    -3.948      0.000      0.000
REMARK INTER + INTRA:          -6.348
REMARK INTER:                  -5.794
REMARK INTRA:                  -0.554
REMARK UNBOUND:                -0.554
REMARK SMILES O=C([O-])CCCCCCCC(=O)[O-]
REMARK SMILES IDX 7 1 6 2 5 3 4 4 2 5 1 6 3 7 8 8 9 9 10 10 11 11 12 12 13 13
REMARK H PARENT
REMARK Flexibility Score: inf
ROOT
ATOM      1  C   UNL     1      -3.977  -6.846 -17.351  1.00  0.00     0.000 C 
ENDROOT
BRANCH   1   2
ATOM      2  C   UNL     1      -5.167  -7.232 -16.460  1.00  0.00     0.000 C 
BRANCH   2   3
ATOM      3  C   UNL     1      -4.805  -8.312 -15.426  1.00  0.00     0.006 C 
BRANCH   3   4
ATOM      4  C   UNL     1      -5.977  -8.633 -14.488  1.00  0.00     0.053 C 
BRANCH   4   5
ATOM      5  C   UNL     1      -6.724  -9.854 -14.930  1.00  0.00     0.041 C 
ATOM      6  O   UNL     1      -7.781 -10.199 -14.341  1.00  0.00    -0.550 OA
ATOM      7  O   UNL     1      -6.235 -10.625 -15.977  1.00  0.00    -0.550 OA
ENDBRANCH   4   5
ENDBRANCH   3   4
ENDBRANCH   2   3
ENDBRANCH   1   2
BRANCH   1   8
ATOM      8  C   UNL     1      -3.116  -8.059 -17.748  1.00  0.00     0.000 C 
BRANCH   8   9
ATOM      9  C   UNL     1      -1.610  -7.752 -17.709  1.00  0.00     0.006 C 
BRANCH   9  10
ATOM     10  C   UNL     1      -0.911  -8.387 -16.501  1.00  0.00     0.053 C 
BRANCH  10  11
ATOM     11  C   UNL     1      -1.007  -7.486 -15.310  1.00  0.00     0.041 C 
ATOM     12  O   UNL     1      -1.444  -7.927 -14.216  1.00  0.00    -0.550 OA
ATOM     13  O   UNL     1      -0.659  -6.145 -15.423  1.00  0.00    -0.550 OA
ENDBRANCH  10  11
ENDBRANCH   9  10
ENDBRANCH   8   9
ENDBRANCH   1   8
TORSDOF 8
ENDMDL
MODEL 2
REMARK VINA RESULT:    -3.930     14.477     16.252
REMARK INTER + INTRA:          -6.322
REMARK INTER:                  -6.151
REMARK INTRA:                  -0.171
REMARK UNBOUND:                -0.554
REMARK SMILES O=C([O-])CCCCCCCC(=O)[O-]
REMARK SMILES IDX 7 1 6 2 5 3 4 4 2 5 1 6 3 7 8 8 9 9 10 10 11 11 12 12 13 13
REMARK H PARENT
REMARK Flexibility Score: inf
ROOT
ATOM      1  C   UNL     1     -16.292  -2.019 -20.584  1.00  0.00     0.000 C 
ENDROOT
BRANCH   1   2
ATOM      2  C   UNL     1     -17.419  -1.121 -21.117  1.00  0.00     0.000 C 
BRANCH   2   3
ATOM      3  C   UNL     1     -17.495  -1.120 -22.653  1.00  0.00     0.006 C 
BRANCH   3   4
ATOM      4  C   UNL     1     -18.858  -1.606 -23.166  1.00  0.00     0.053 C 
BRANCH   4   5
ATOM      5  C   UNL     1     -19.346  -0.778 -24.316  1.00  0.00     0.041 C 
ATOM      6  O   UNL     1     -19.288   0.478 -24.264  1.00  0.00    -0.550 OA
ATOM      7  O   UNL     1     -19.892  -1.397 -25.435  1.00  0.00    -0.550 OA
ENDBRANCH   4   5
ENDBRANCH   3   4
ENDBRANCH   2   3
ENDBRANCH   1   2
BRANCH   1   8
ATOM      8  C   UNL     1     -15.532  -1.381 -19.406  1.00  0.00     0.000 C 
BRANCH   8   9
ATOM      9  C   UNL     1     -16.282  -1.528 -18.072  1.00  0.00     0.006 C 
BRANCH   9  10
ATOM     10  C   UNL     1     -15.509  -2.376 -17.053  1.00  0.00     0.053 C 
BRANCH  10  11
ATOM     11  C   UNL     1     -15.598  -1.764 -15.691  1.00  0.00     0.041 C 
ATOM     12  O   UNL     1     -14.568  -1.655 -14.977  1.00  0.00    -0.550 OA
ATOM     13  O   UNL     1     -16.829  -1.358 -15.190  1.00  0.00    -0.550 OA
ENDBRANCH  10  11
ENDBRANCH   9  10
ENDBRANCH   8   9
ENDBRANCH   1   8
TORSDOF 8
ENDMDL
MODEL 3
REMARK VINA RESULT:    -3.917      1.226      5.200
REMARK INTER + INTRA:          -6.302
REMARK INTER:                  -5.639
REMARK INTRA:                  -0.663
REMARK UNBOUND:                -0.554
REMARK SMILES O=C([O-])CCCCCCCC(=O)[O-]
REMARK SMILES IDX 7 1 6 2 5 3 4 4 2 5 1 6 3 7 8 8 9 9 10 10 11 11 12 12 13 13
REMARK H PARENT
REMARK Flexibility Score: inf
ROOT
ATOM      1  C   UNL     1      -4.783  -6.851 -16.961  1.00  0.00     0.000 C 
ENDROOT
BRANCH   1   2
ATOM      2  C   UNL     1      -4.298  -7.563 -18.233  1.00  0.00     0.000 C 
BRANCH   2   3
ATOM      3  C   UNL     1      -2.765  -7.575 -18.356  1.00  0.00     0.006 C 
BRANCH   3   4
ATOM      4  C   UNL     1      -2.096  -6.625 -17.353  1.00  0.00     0.053 C 
BRANCH   4   5
ATOM      5  C   UNL     1      -1.296  -7.371 -16.329  1.00  0.00     0.041 C 
ATOM      6  O   UNL     1      -1.239  -8.628 -16.361  1.00  0.00    -0.550 OA
ATOM      7  O   UNL     1      -0.636  -6.677 -15.323  1.00  0.00    -0.550 OA
ENDBRANCH   4   5
ENDBRANCH   3   4
ENDBRANCH   2   3
ENDBRANCH   1   2
BRANCH   1   8
ATOM      8  C   UNL     1      -5.534  -7.794 -16.004  1.00  0.00     0.000 C 
BRANCH   8   9
ATOM      9  C   UNL     1      -4.621  -8.379 -14.914  1.00  0.00     0.006 C 
BRANCH   9  10
ATOM     10  C   UNL     1      -4.614  -9.913 -14.912  1.00  0.00     0.053 C 
BRANCH  10  11
ATOM     11  C   UNL     1      -5.953 -10.440 -14.502  1.00  0.00     0.041 C 
ATOM     12  O   UNL     1      -6.467 -10.085 -13.410  1.00  0.00    -0.550 OA
ATOM     13  O   UNL     1      -6.611 -11.364 -15.304  1.00  0.00    -0.550 OA
ENDBRANCH  10  11
ENDBRANCH   9  10
ENDBRANCH   8   9
ENDBRANCH   1   8
TORSDOF 8
ENDMDL
MODEL 4
REMARK VINA RESULT:    -3.846      2.304      5.670
REMARK INTER + INTRA:          -6.198
REMARK INTER:                  -5.539
REMARK INTRA:                  -0.660
REMARK UNBOUND:                -0.554
REMARK SMILES O=C([O-])CCCCCCCC(=O)[O-]
REMARK SMILES IDX 7 1 6 2 5 3 4 4 2 5 1 6 3 7 8 8 9 9 10 10 11 11 12 12 13 13
REMARK H PARENT
REMARK Flexibility Score: inf
ROOT
ATOM      1  C   UNL     1      -4.248  -8.539 -15.288  1.00  0.00     0.000 C 
ENDROOT
BRANCH   1   2
ATOM      2  C   UNL     1      -5.173  -7.613 -16.093  1.00  0.00     0.000 C 
BRANCH   2   3
ATOM      3  C   UNL     1      -4.409  -6.777 -17.135  1.00  0.00     0.006 C 
BRANCH   3   4
ATOM      4  C   UNL     1      -4.426  -7.428 -18.525  1.00  0.00     0.053 C 
BRANCH   4   5
ATOM      5  C   UNL     1      -3.040  -7.678 -19.037  1.00  0.00     0.041 C 
ATOM      6  O   UNL     1      -2.773  -7.508 -20.255  1.00  0.00    -0.550 OA
ATOM      7  O   UNL     1      -2.050  -8.126 -18.171  1.00  0.00    -0.550 OA
ENDBRANCH   4   5
ENDBRANCH   3   4
ENDBRANCH   2   3
ENDBRANCH   1   2
BRANCH   1   8
ATOM      8  C   UNL     1      -4.278  -9.992 -15.794  1.00  0.00     0.000 C 
BRANCH   8   9
ATOM      9  C   UNL     1      -5.629 -10.370 -16.423  1.00  0.00     0.006 C 
BRANCH   9  10
ATOM     10  C   UNL     1      -6.294 -11.561 -15.720  1.00  0.00     0.053 C 
BRANCH  10  11
ATOM     11  C   UNL     1      -7.244 -11.081 -14.669  1.00  0.00     0.041 C 
ATOM     12  O   UNL     1      -7.513  -9.856 -14.570  1.00  0.00    -0.550 OA
ATOM     13  O   UNL     1      -7.794 -11.982 -13.766  1.00  0.00    -0.550 OA
ENDBRANCH  10  11
ENDBRANCH   9  10
ENDBRANCH   8   9
ENDBRANCH   1   8
TORSDOF 8
ENDMDL
MODEL 5
REMARK VINA RESULT:    -3.835      2.342      3.141
REMARK INTER + INTRA:          -6.183
REMARK INTER:                  -5.422
REMARK INTRA:                  -0.761
REMARK UNBOUND:                -0.554
REMARK SMILES O=C([O-])CCCCCCCC(=O)[O-]
REMARK SMILES IDX 7 1 6 2 5 3 4 4 2 5 1 6 3 7 8 8 9 9 10 10 11 11 12 12 13 13
REMARK H PARENT
REMARK Flexibility Score: inf
ROOT
ATOM      1  C   UNL     1      -4.318  -8.432 -15.115  1.00  0.00     0.000 C 
ENDROOT
BRANCH   1   2
ATOM      2  C   UNL     1      -4.415  -9.964 -15.177  1.00  0.00     0.000 C 
BRANCH   2   3
ATOM      3  C   UNL     1      -5.426 -10.450 -16.229  1.00  0.00     0.006 C 
BRANCH   3   4
ATOM      4  C   UNL     1      -6.399 -11.492 -15.661  1.00  0.00     0.053 C 
BRANCH   4   5
ATOM      5  C   UNL     1      -7.078 -11.000 -14.420  1.00  0.00     0.041 C 
ATOM      6  O   UNL     1      -7.818  -9.983 -14.461  1.00  0.00    -0.550 OA
ATOM      7  O   UNL     1      -6.870 -11.651 -13.210  1.00  0.00    -0.550 OA
ENDBRANCH   4   5
ENDBRANCH   3   4
ENDBRANCH   2   3
ENDBRANCH   1   2
BRANCH   1   8
ATOM      8  C   UNL     1      -5.272  -7.738 -16.103  1.00  0.00     0.000 C 
BRANCH   8   9
ATOM      9  C   UNL     1      -4.535  -6.804 -17.077  1.00  0.00     0.006 C 
BRANCH   9  10
ATOM     10  C   UNL     1      -4.352  -7.428 -18.467  1.00  0.00     0.053 C 
BRANCH  10  11
ATOM     11  C   UNL     1      -2.991  -8.038 -18.589  1.00  0.00     0.041 C 
ATOM     12  O   UNL     1      -2.837  -9.278 -18.439  1.00  0.00    -0.550 OA
ATOM     13  O   UNL     1      -1.885  -7.230 -18.821  1.00  0.00    -0.550 OA
ENDBRANCH  10  11
ENDBRANCH   9  10
ENDBRANCH   8   9
ENDBRANCH   1   8
TORSDOF 8
ENDMDL
MODEL 6
REMARK VINA RESULT:    -3.832     14.360     16.437
REMARK INTER + INTRA:          -6.178
REMARK INTER:                  -5.995
REMARK INTRA:                  -0.183
REMARK UNBOUND:                -0.554
REMARK SMILES O=C([O-])CCCCCCCC(=O)[O-]
REMARK SMILES IDX 7 1 6 2 5 3 4 4 2 5 1 6 3 7 8 8 9 9 10 10 11 11 12 12 13 13
REMARK H PARENT
REMARK Flexibility Score: inf
ROOT
ATOM      1  C   UNL     1     -16.144  -1.984 -20.644  1.00  0.00     0.000 C 
ENDROOT
BRANCH   1   2
ATOM      2  C   UNL     1     -15.485  -1.387 -19.391  1.00  0.00     0.000 C 
BRANCH   2   3
ATOM      3  C   UNL     1     -15.591  -2.316 -18.169  1.00  0.00     0.006 C 
BRANCH   3   4
ATOM      4  C   UNL     1     -16.273  -1.631 -16.977  1.00  0.00     0.053 C 
BRANCH   4   5
ATOM      5  C   UNL     1     -15.802  -2.192 -15.670  1.00  0.00     0.041 C 
ATOM      6  O   UNL     1     -14.877  -1.625 -15.032  1.00  0.00    -0.550 OA
ATOM      7  O   UNL     1     -16.370  -3.358 -15.170  1.00  0.00    -0.550 OA
ENDBRANCH   4   5
ENDBRANCH   3   4
ENDBRANCH   2   3
ENDBRANCH   1   2
BRANCH   1   8
ATOM      8  C   UNL     1     -17.313  -1.127 -21.163  1.00  0.00     0.000 C 
BRANCH   8   9
ATOM      9  C   UNL     1     -17.500  -1.245 -22.685  1.00  0.00     0.006 C 
BRANCH   9  10
ATOM     10  C   UNL     1     -18.933  -1.629 -23.075  1.00  0.00     0.053 C 
BRANCH  10  11
ATOM     11  C   UNL     1     -19.379  -0.840 -24.265  1.00  0.00     0.041 C 
ATOM     12  O   UNL     1     -19.322   0.417 -24.249  1.00  0.00    -0.550 OA
ATOM     13  O   UNL     1     -19.906  -1.491 -25.373  1.00  0.00    -0.550 OA
ENDBRANCH  10  11
ENDBRANCH   9  10
ENDBRANCH   8   9
ENDBRANCH   1   8
TORSDOF 8
ENDMDL
MODEL 7
REMARK VINA RESULT:    -3.819      2.386      4.690
REMARK INTER + INTRA:          -6.158
REMARK INTER:                  -5.376
REMARK INTRA:                  -0.782
REMARK UNBOUND:                -0.554
REMARK SMILES O=C([O-])CCCCCCCC(=O)[O-]
REMARK SMILES IDX 7 1 6 2 5 3 4 4 2 5 1 6 3 7 8 8 9 9 10 10 11 11 12 12 13 13
REMARK H PARENT
REMARK Flexibility Score: inf
ROOT
ATOM      1  C   UNL     1      -5.271  -7.892 -16.144  1.00  0.00     0.000 C 
ENDROOT
BRANCH   1   2
ATOM      2  C   UNL     1      -4.496  -8.318 -14.888  1.00  0.00     0.000 C 
BRANCH   2   3
ATOM      3  C   UNL     1      -3.180  -9.040 -15.223  1.00  0.00     0.006 C 
BRANCH   3   4
ATOM      4  C   UNL     1      -1.960  -8.333 -14.617  1.00  0.00     0.053 C 
BRANCH   4   5
ATOM      5  C   UNL     1      -1.166  -7.605 -15.658  1.00  0.00     0.041 C 
ATOM      6  O   UNL     1      -0.595  -6.519 -15.377  1.00  0.00    -0.550 OA
ATOM      7  O   UNL     1      -1.079  -8.115 -16.948  1.00  0.00    -0.550 OA
ENDBRANCH   4   5
ENDBRANCH   3   4
ENDBRANCH   2   3
ENDBRANCH   1   2
BRANCH   1   8
ATOM      8  C   UNL     1      -4.480  -6.905 -17.023  1.00  0.00     0.000 C 
BRANCH   8   9
ATOM      9  C   UNL     1      -4.296  -7.414 -18.462  1.00  0.00     0.006 C 
BRANCH   9  10
ATOM     10  C   UNL     1      -4.754  -8.868 -18.636  1.00  0.00     0.053 C 
BRANCH  10  11
ATOM     11  C   UNL     1      -3.597  -9.737 -19.018  1.00  0.00     0.041 C 
ATOM     12  O   UNL     1      -3.454 -10.869 -18.488  1.00  0.00    -0.550 OA
ATOM     13  O   UNL     1      -2.650  -9.275 -19.924  1.00  0.00    -0.550 OA
ENDBRANCH  10  11
ENDBRANCH   9  10
ENDBRANCH   8   9
ENDBRANCH   1   8
TORSDOF 8
ENDMDL
MODEL 8
REMARK VINA RESULT:    -3.814      2.046      4.830
REMARK INTER + INTRA:          -6.152
REMARK INTER:                  -5.342
REMARK INTRA:                  -0.810
REMARK UNBOUND:                -0.554
REMARK SMILES O=C([O-])CCCCCCCC(=O)[O-]
REMARK SMILES IDX 7 1 6 2 5 3 4 4 2 5 1 6 3 7 8 8 9 9 10 10 11 11 12 12 13 13
REMARK H PARENT
REMARK Flexibility Score: inf
ROOT
ATOM      1  C   UNL     1      -2.071  -8.245 -14.816  1.00  0.00     0.000 C 
ENDROOT
BRANCH   1   2
ATOM      2  C   UNL     1      -1.267  -7.757 -16.031  1.00  0.00     0.000 C 
BRANCH   2   3
ATOM      3  C   UNL     1      -2.010  -6.677 -16.836  1.00  0.00     0.006 C 
BRANCH   3   4
ATOM      4  C   UNL     1      -2.682  -7.249 -18.092  1.00  0.00     0.053 C 
BRANCH   4   5
ATOM      5  C   UNL     1      -4.142  -7.502 -17.875  1.00  0.00     0.041 C 
ATOM      6  O   UNL     1      -4.785  -8.236 -18.670  1.00  0.00    -0.550 OA
ATOM      7  O   UNL     1      -4.799  -6.904 -16.806  1.00  0.00    -0.550 OA
ENDBRANCH   4   5
ENDBRANCH   3   4
ENDBRANCH   2   3
ENDBRANCH   1   2
BRANCH   1   8
ATOM      8  C   UNL     1      -2.222  -9.777 -14.781  1.00  0.00     0.000 C 
BRANCH   8   9
ATOM      9  C   UNL     1      -3.554 -10.252 -15.385  1.00  0.00     0.006 C 
BRANCH   9  10
ATOM     10  C   UNL     1      -4.772  -9.679 -14.650  1.00  0.00     0.053 C 
BRANCH  10  11
ATOM     11  C   UNL     1      -6.028  -9.991 -15.400  1.00  0.00     0.041 C 
ATOM     12  O   UNL     1      -5.970 -10.521 -16.540  1.00  0.00    -0.550 OA
ATOM     13  O   UNL     1      -7.263  -9.650 -14.861  1.00  0.00    -0.550 OA
ENDBRANCH  10  11
ENDBRANCH   9  10
ENDBRANCH   8   9
ENDBRANCH   1   8
TORSDOF 8
ENDMDL
MODEL 9
REMARK VINA RESULT:    -3.805     14.731     16.483
REMARK INTER + INTRA:          -6.138
REMARK INTER:                  -5.893
REMARK INTRA:                  -0.246
REMARK UNBOUND:                -0.554
REMARK SMILES O=C([O-])CCCCCCCC(=O)[O-]
REMARK SMILES IDX 7 1 6 2 5 3 4 4 2 5 1 6 3 7 8 8 9 9 10 10 11 11 12 12 13 13
REMARK H PARENT
REMARK Flexibility Score: inf
ROOT
ATOM      1  C   UNL     1     -17.137  -1.289 -20.819  1.00  0.00     0.000 C 
ENDROOT
BRANCH   1   2
ATOM      2  C   UNL     1     -18.621  -1.616 -20.591  1.00  0.00     0.000 C 
BRANCH   2   3
ATOM      3  C   UNL     1     -19.443  -1.563 -21.890  1.00  0.00     0.006 C 
BRANCH   3   4
ATOM      4  C   UNL     1     -18.558  -1.370 -23.130  1.00  0.00     0.053 C 
BRANCH   4   5
ATOM      5  C   UNL     1     -19.332  -0.809 -24.283  1.00  0.00     0.041 C 
ATOM      6  O   UNL     1     -19.607   0.418 -24.327  1.00  0.00    -0.550 OA
ATOM      7  O   UNL     1     -19.772  -1.650 -25.299  1.00  0.00    -0.550 OA
ENDBRANCH   4   5
ENDBRANCH   3   4
ENDBRANCH   2   3
ENDBRANCH   1   2
BRANCH   1   8
ATOM      8  C   UNL     1     -16.214  -1.979 -19.798  1.00  0.00     0.000 C 
BRANCH   8   9
ATOM      9  C   UNL     1     -16.307  -1.348 -18.399  1.00  0.00     0.006 C 
BRANCH   9  10
ATOM     10  C   UNL     1     -15.241  -1.889 -17.438  1.00  0.00     0.053 C 
BRANCH  10  11
ATOM     11  C   UNL     1     -15.657  -1.665 -16.018  1.00  0.00     0.041 C 
ATOM     12  O   UNL     1     -16.859  -1.414 -15.743  1.00  0.00    -0.550 OA
ATOM     13  O   UNL     1     -14.708  -1.684 -15.004  1.00  0.00    -0.550 OA
ENDBRANCH  10  11
ENDBRANCH   9  10
ENDBRANCH   8   9
ENDBRANCH   1   8
TORSDOF 8
ENDMDL
