MODEL 1
REMARK VINA RESULT:    -6.000      0.000      0.000
REMARK INTER + INTRA:          -6.768
REMARK INTER:                  -6.351
REMARK INTRA:                  -0.417
REMARK UNBOUND:                -0.417
REMARK SMILES C=C1CC[C@H](C(C)C)[C@H]2C=C(C)CC[C@@H]12
REMARK SMILES IDX 12 1 11 2 10 3 9 4 15 5 14 6 13 7 2 8 1 9 3 10 4 11 5 12
REMARK SMILES IDX 6 13 7 14 8 15
REMARK H PARENT
REMARK Flexibility Score: inf
ROOT
ATOM      1  C   UNL     1     104.810 109.314 125.306  1.00  0.00     0.039 C 
ATOM      2  C   UNL     1     103.755 108.253 125.465  1.00  0.00    -0.077 C 
ATOM      3  C   UNL     1     103.380 107.883 126.708  1.00  0.00    -0.024 C 
ATOM      4  C   UNL     1     102.294 106.853 126.989  1.00  0.00     0.022 C 
ATOM      5  C   UNL     1     102.029 105.931 125.759  1.00  0.00     0.022 C 
ATOM      6  C   UNL     1     101.921 106.807 124.494  1.00  0.00     0.013 C 
ATOM      7  C   UNL     1     103.227 107.559 124.229  1.00  0.00     0.031 C 
ATOM      8  C   UNL     1     103.078 104.832 125.629  1.00  0.00    -0.074 C 
ATOM      9  C   UNL     1     103.070 103.974 124.593  1.00  0.00     0.008 C 
ATOM     10  C   UNL     1     104.029 104.616 126.774  1.00  0.00     0.031 C 
ATOM     11  C   UNL     1     103.219 104.667 128.066  1.00  0.00     0.009 C 
ATOM     12  C   UNL     1     102.604 106.072 128.326  1.00  0.00    -0.001 C 
ENDROOT
BRANCH  12  13
ATOM     13  C   UNL     1     101.359 106.009 129.279  1.00  0.00    -0.014 C 
ATOM     14  C   UNL     1     100.521 107.304 129.248  1.00  0.00     0.007 C 
ATOM     15  C   UNL     1     100.426 104.835 128.913  1.00  0.00     0.007 C 
ENDBRANCH  12  13
TORSDOF 1
ENDMDL
MODEL 2
REMARK VINA RESULT:    -5.966      3.728      5.745
REMARK INTER + INTRA:          -6.732
REMARK INTER:                  -6.311
REMARK INTRA:                  -0.421
REMARK UNBOUND:                -0.417
REMARK SMILES C=C1CC[C@H](C(C)C)[C@H]2C=C(C)CC[C@@H]12
REMARK SMILES IDX 12 1 11 2 10 3 9 4 15 5 14 6 13 7 2 8 1 9 3 10 4 11 5 12
REMARK SMILES IDX 6 13 7 14 8 15
REMARK H PARENT
REMARK Flexibility Score: inf
ROOT
ATOM      1  C   UNL     1     109.347 107.556 125.338  1.00  0.00     0.039 C 
ATOM      2  C   UNL     1     108.295 108.623 125.469  1.00  0.00    -0.077 C 
ATOM      3  C   UNL     1     107.905 109.011 126.702  1.00  0.00    -0.024 C 
ATOM      4  C   UNL     1     106.881 110.109 126.956  1.00  0.00     0.022 C 
ATOM      5  C   UNL     1     105.987 110.377 125.707  1.00  0.00     0.022 C 
ATOM      6  C   UNL     1     106.889 110.467 124.459  1.00  0.00     0.013 C 
ATOM      7  C   UNL     1     107.631 109.151 124.217  1.00  0.00     0.031 C 
ATOM      8  C   UNL     1     104.879 109.339 125.561  1.00  0.00    -0.074 C 
ATOM      9  C   UNL     1     104.042 109.350 124.508  1.00  0.00     0.008 C 
ATOM     10  C   UNL     1     104.630 108.397 126.707  1.00  0.00     0.031 C 
ATOM     11  C   UNL     1     104.664 109.215 127.996  1.00  0.00     0.009 C 
ATOM     12  C   UNL     1     106.071 109.816 128.280  1.00  0.00    -0.001 C 
ENDROOT
BRANCH  12  13
ATOM     13  C   UNL     1     106.002 111.068 129.224  1.00  0.00    -0.014 C 
ATOM     14  C   UNL     1     107.295 111.908 129.190  1.00  0.00     0.007 C 
ATOM     15  C   UNL     1     104.827 111.995 128.848  1.00  0.00     0.007 C 
ENDBRANCH  12  13
TORSDOF 1
ENDMDL
MODEL 3
REMARK VINA RESULT:    -5.963      5.660      7.697
REMARK INTER + INTRA:          -6.729
REMARK INTER:                  -6.428
REMARK INTRA:                  -0.301
REMARK UNBOUND:                -0.417
REMARK SMILES C=C1CC[C@H](C(C)C)[C@H]2C=C(C)CC[C@@H]12
REMARK SMILES IDX 12 1 11 2 10 3 9 4 15 5 14 6 13 7 2 8 1 9 3 10 4 11 5 12
REMARK SMILES IDX 6 13 7 14 8 15
REMARK H PARENT
REMARK Flexibility Score: inf
ROOT
ATOM      1  C   UNL     1     108.347 103.858 128.881  1.00  0.00     0.039 C 
ATOM      2  C   UNL     1     108.986 105.216 128.770  1.00  0.00    -0.077 C 
ATOM      3  C   UNL     1     108.208 106.288 128.510  1.00  0.00    -0.024 C 
ATOM      4  C   UNL     1     108.737 107.712 128.419  1.00  0.00     0.022 C 
ATOM      5  C   UNL     1     110.274 107.750 128.156  1.00  0.00     0.022 C 
ATOM      6  C   UNL     1     110.967 106.753 129.108  1.00  0.00     0.013 C 
ATOM      7  C   UNL     1     110.493 105.321 128.848  1.00  0.00     0.031 C 
ATOM      8  C   UNL     1     110.612 107.501 126.690  1.00  0.00    -0.074 C 
ATOM      9  C   UNL     1     111.887 107.422 126.269  1.00  0.00     0.008 C 
ATOM     10  C   UNL     1     109.490 107.511 125.689  1.00  0.00     0.031 C 
ATOM     11  C   UNL     1     108.591 108.701 126.011  1.00  0.00     0.009 C 
ATOM     12  C   UNL     1     107.885 108.555 127.390  1.00  0.00    -0.001 C 
ENDROOT
BRANCH  12  13
ATOM     13  C   UNL     1     107.442 109.940 127.980  1.00  0.00    -0.014 C 
ATOM     14  C   UNL     1     106.041 110.369 127.499  1.00  0.00     0.007 C 
ATOM     15  C   UNL     1     107.425 109.918 129.523  1.00  0.00     0.007 C 
ENDBRANCH  12  13
TORSDOF 1
ENDMDL
MODEL 4
REMARK VINA RESULT:    -5.958      6.109      8.154
REMARK INTER + INTRA:          -6.723
REMARK INTER:                  -6.294
REMARK INTRA:                  -0.429
REMARK UNBOUND:                -0.417
REMARK SMILES C=C1CC[C@H](C(C)C)[C@H]2C=C(C)CC[C@@H]12
REMARK SMILES IDX 12 1 11 2 10 3 9 4 15 5 14 6 13 7 2 8 1 9 3 10 4 11 5 12
REMARK SMILES IDX 6 13 7 14 8 15
REMARK H PARENT
REMARK Flexibility Score: inf
ROOT
ATOM      1  C   UNL     1     107.573 103.096 125.529  1.00  0.00     0.039 C 
ATOM      2  C   UNL     1     108.655 104.134 125.648  1.00  0.00    -0.077 C 
ATOM      3  C   UNL     1     109.054 104.527 126.877  1.00  0.00    -0.024 C 
ATOM      4  C   UNL     1     110.167 105.537 127.119  1.00  0.00     0.022 C 
ATOM      5  C   UNL     1     110.440 106.420 125.863  1.00  0.00     0.022 C 
ATOM      6  C   UNL     1     110.511 105.510 124.620  1.00  0.00     0.013 C 
ATOM      7  C   UNL     1     109.185 104.784 124.389  1.00  0.00     0.031 C 
ATOM      8  C   UNL     1     109.416 107.541 125.716  1.00  0.00    -0.074 C 
ATOM      9  C   UNL     1     109.433 108.372 124.659  1.00  0.00     0.008 C 
ATOM     10  C   UNL     1     108.484 107.809 126.866  1.00  0.00     0.031 C 
ATOM     11  C   UNL     1     109.307 107.772 128.150  1.00  0.00     0.009 C 
ATOM     12  C   UNL     1     109.892 106.359 128.440  1.00  0.00    -0.001 C 
ENDROOT
BRANCH  12  13
ATOM     13  C   UNL     1     111.148 106.416 129.377  1.00  0.00    -0.014 C 
ATOM     14  C   UNL     1     112.022 105.150 129.276  1.00  0.00     0.007 C 
ATOM     15  C   UNL     1     112.041 107.632 129.051  1.00  0.00     0.007 C 
ENDBRANCH  12  13
TORSDOF 1
ENDMDL
MODEL 5
REMARK VINA RESULT:    -5.956      3.638      5.602
REMARK INTER + INTRA:          -6.721
REMARK INTER:                  -6.289
REMARK INTRA:                  -0.432
REMARK UNBOUND:                -0.417
REMARK SMILES C=C1CC[C@H](C(C)C)[C@H]2C=C(C)CC[C@@H]12
REMARK SMILES IDX 12 1 11 2 10 3 9 4 15 5 14 6 13 7 2 8 1 9 3 10 4 11 5 12
REMARK SMILES IDX 6 13 7 14 8 15
REMARK H PARENT
REMARK Flexibility Score: inf
ROOT
ATOM      1  C   UNL     1     103.056 105.246 126.084  1.00  0.00     0.039 C 
ATOM      2  C   UNL     1     104.029 104.100 126.049  1.00  0.00    -0.077 C 
ATOM      3  C   UNL     1     104.502 103.606 127.214  1.00  0.00    -0.024 C 
ATOM      4  C   UNL     1     105.456 102.422 127.302  1.00  0.00     0.022 C 
ATOM      5  C   UNL     1     106.206 102.173 125.958  1.00  0.00     0.022 C 
ATOM      6  C   UNL     1     105.186 102.229 124.801  1.00  0.00     0.013 C 
ATOM      7  C   UNL     1     104.529 103.608 124.709  1.00  0.00     0.031 C 
ATOM      8  C   UNL     1     107.373 103.136 125.764  1.00  0.00    -0.074 C 
ATOM      9  C   UNL     1     108.104 103.132 124.635  1.00  0.00     0.008 C 
ATOM     10  C   UNL     1     107.800 103.981 126.932  1.00  0.00     0.031 C 
ATOM     11  C   UNL     1     107.824 103.086 128.168  1.00  0.00     0.009 C 
ATOM     12  C   UNL     1     106.407 102.570 128.555  1.00  0.00    -0.001 C 
ENDROOT
BRANCH  12  13
ATOM     13  C   UNL     1     106.466 101.259 129.414  1.00  0.00    -0.014 C 
ATOM     14  C   UNL     1     105.175 100.422 129.309  1.00  0.00     0.007 C 
ATOM     15  C   UNL     1     107.646 100.359 128.991  1.00  0.00     0.007 C 
ENDBRANCH  12  13
TORSDOF 1
ENDMDL
MODEL 6
REMARK VINA RESULT:    -5.930      2.009      3.933
REMARK INTER + INTRA:          -6.694
REMARK INTER:                  -6.379
REMARK INTRA:                  -0.314
REMARK UNBOUND:                -0.417
REMARK SMILES C=C1CC[C@H](C(C)C)[C@H]2C=C(C)CC[C@@H]12
REMARK SMILES IDX 12 1 11 2 10 3 9 4 15 5 14 6 13 7 2 8 1 9 3 10 4 11 5 12
REMARK SMILES IDX 6 13 7 14 8 15
REMARK H PARENT
REMARK Flexibility Score: inf
ROOT
ATOM      1  C   UNL     1     104.116 108.816 128.758  1.00  0.00     0.039 C 
ATOM      2  C   UNL     1     103.595 107.405 128.721  1.00  0.00    -0.077 C 
ATOM      3  C   UNL     1     104.452 106.397 128.453  1.00  0.00    -0.024 C 
ATOM      4  C   UNL     1     104.047 104.929 128.431  1.00  0.00     0.022 C 
ATOM      5  C   UNL     1     102.508 104.749 128.248  1.00  0.00     0.022 C 
ATOM      6  C   UNL     1     101.777 105.714 129.204  1.00  0.00     0.013 C 
ATOM      7  C   UNL     1     102.109 107.172 128.878  1.00  0.00     0.031 C 
ATOM      8  C   UNL     1     102.078 104.919 126.795  1.00  0.00    -0.074 C 
ATOM      9  C   UNL     1     100.783 104.872 126.437  1.00  0.00     0.008 C 
ATOM     10  C   UNL     1     103.147 104.972 125.738  1.00  0.00     0.031 C 
ATOM     11  C   UNL     1     104.163 103.876 126.049  1.00  0.00     0.009 C 
ATOM     12  C   UNL     1     104.919 104.129 127.385  1.00  0.00    -0.001 C 
ENDROOT
BRANCH  12  13
ATOM     13  C   UNL     1     105.511 102.809 127.992  1.00  0.00    -0.014 C 
ATOM     14  C   UNL     1     104.907 102.466 129.368  1.00  0.00     0.007 C 
ATOM     15  C   UNL     1     105.274 101.603 127.059  1.00  0.00     0.007 C 
ENDBRANCH  12  13
TORSDOF 1
ENDMDL
MODEL 7
REMARK VINA RESULT:    -5.910      5.620      7.458
REMARK INTER + INTRA:          -6.672
REMARK INTER:                  -6.379
REMARK INTRA:                  -0.293
REMARK UNBOUND:                -0.417
REMARK SMILES C=C1CC[C@H](C(C)C)[C@H]2C=C(C)CC[C@@H]12
REMARK SMILES IDX 12 1 11 2 10 3 9 4 15 5 14 6 13 7 2 8 1 9 3 10 4 11 5 12
REMARK SMILES IDX 6 13 7 14 8 15
REMARK H PARENT
REMARK Flexibility Score: inf
ROOT
ATOM      1  C   UNL     1     107.909 108.845 124.365  1.00  0.00     0.039 C 
ATOM      2  C   UNL     1     108.240 108.639 125.818  1.00  0.00    -0.077 C 
ATOM      3  C   UNL     1     109.312 107.886 126.145  1.00  0.00    -0.024 C 
ATOM      4  C   UNL     1     109.766 107.645 127.578  1.00  0.00     0.022 C 
ATOM      5  C   UNL     1     108.626 107.913 128.608  1.00  0.00     0.022 C 
ATOM      6  C   UNL     1     107.940 109.249 128.254  1.00  0.00     0.013 C 
ATOM      7  C   UNL     1     107.299 109.191 126.866  1.00  0.00     0.031 C 
ATOM      8  C   UNL     1     107.643 106.750 128.693  1.00  0.00    -0.074 C 
ATOM      9  C   UNL     1     106.548 106.813 129.471  1.00  0.00     0.008 C 
ATOM     10  C   UNL     1     108.011 105.457 128.018  1.00  0.00     0.031 C 
ATOM     11  C   UNL     1     109.475 105.167 128.335  1.00  0.00     0.009 C 
ATOM     12  C   UNL     1     110.437 106.221 127.715  1.00  0.00    -0.001 C 
ENDROOT
BRANCH  12  13
ATOM     13  C   UNL     1     111.814 106.282 128.463  1.00  0.00    -0.014 C 
ATOM     14  C   UNL     1     112.033 107.623 129.194  1.00  0.00     0.007 C 
ATOM     15  C   UNL     1     111.942 105.151 129.505  1.00  0.00     0.007 C 
ENDBRANCH  12  13
TORSDOF 1
ENDMDL
MODEL 8
REMARK VINA RESULT:    -5.908      2.927      4.987
REMARK INTER + INTRA:          -6.671
REMARK INTER:                  -6.353
REMARK INTRA:                  -0.318
REMARK UNBOUND:                -0.417
REMARK SMILES C=C1CC[C@H](C(C)C)[C@H]2C=C(C)CC[C@@H]12
REMARK SMILES IDX 12 1 11 2 10 3 9 4 15 5 14 6 13 7 2 8 1 9 3 10 4 11 5 12
REMARK SMILES IDX 6 13 7 14 8 15
REMARK H PARENT
REMARK Flexibility Score: inf
ROOT
ATOM      1  C   UNL     1     108.951 108.263 128.504  1.00  0.00     0.039 C 
ATOM      2  C   UNL     1     107.550 108.808 128.555  1.00  0.00    -0.077 C 
ATOM      3  C   UNL     1     106.512 107.970 128.348  1.00  0.00    -0.024 C 
ATOM      4  C   UNL     1     105.053 108.401 128.418  1.00  0.00     0.022 C 
ATOM      5  C   UNL     1     104.889 109.943 128.250  1.00  0.00     0.022 C 
ATOM      6  C   UNL     1     105.925 110.654 129.146  1.00  0.00     0.013 C 
ATOM      7  C   UNL     1     107.353 110.298 128.730  1.00  0.00     0.031 C 
ATOM      8  C   UNL     1     104.976 110.374 126.790  1.00  0.00    -0.074 C 
ATOM      9  C   UNL     1     104.930 111.671 126.438  1.00  0.00     0.008 C 
ATOM     10  C   UNL     1     104.945 109.307 125.730  1.00  0.00     0.031 C 
ATOM     11  C   UNL     1     103.852 108.310 126.106  1.00  0.00     0.009 C 
ATOM     12  C   UNL     1     104.175 107.546 127.422  1.00  0.00    -0.001 C 
ENDROOT
BRANCH  12  13
ATOM     13  C   UNL     1     102.885 106.975 128.109  1.00  0.00    -0.014 C 
ATOM     14  C   UNL     1     102.648 107.567 129.513  1.00  0.00     0.007 C 
ATOM     15  C   UNL     1     101.624 107.252 127.262  1.00  0.00     0.007 C 
ENDBRANCH  12  13
TORSDOF 1
ENDMDL
MODEL 9
REMARK VINA RESULT:    -5.867      4.404      6.874
REMARK INTER + INTRA:          -6.627
REMARK INTER:                  -6.306
REMARK INTRA:                  -0.321
REMARK UNBOUND:                -0.417
REMARK SMILES C=C1CC[C@H](C(C)C)[C@H]2C=C(C)CC[C@@H]12
REMARK SMILES IDX 12 1 11 2 10 3 9 4 15 5 14 6 13 7 2 8 1 9 3 10 4 11 5 12
REMARK SMILES IDX 6 13 7 14 8 15
REMARK H PARENT
REMARK Flexibility Score: inf
ROOT
ATOM      1  C   UNL     1     103.458 104.127 128.517  1.00  0.00     0.039 C 
ATOM      2  C   UNL     1     104.867 103.597 128.551  1.00  0.00    -0.077 C 
ATOM      3  C   UNL     1     105.891 104.448 128.327  1.00  0.00    -0.024 C 
ATOM      4  C   UNL     1     107.356 104.034 128.379  1.00  0.00     0.022 C 
ATOM      5  C   UNL     1     107.536 102.494 128.214  1.00  0.00     0.022 C 
ATOM      6  C   UNL     1     106.521 101.773 129.125  1.00  0.00     0.013 C 
ATOM      7  C   UNL     1     105.083 102.111 128.727  1.00  0.00     0.031 C 
ATOM      8  C   UNL     1     107.434 102.057 126.756  1.00  0.00    -0.074 C 
ATOM      9  C   UNL     1     107.491 100.759 126.407  1.00  0.00     0.008 C 
ATOM     10  C   UNL     1     107.438 103.120 125.692  1.00  0.00     0.031 C 
ATOM     11  C   UNL     1     108.524 104.131 126.050  1.00  0.00     0.009 C 
ATOM     12  C   UNL     1     108.211 104.896 127.369  1.00  0.00    -0.001 C 
ENDROOT
BRANCH  12  13
ATOM     13  C   UNL     1     109.503 105.484 128.035  1.00  0.00    -0.014 C 
ATOM     14  C   UNL     1     109.758 104.910 129.444  1.00  0.00     0.007 C 
ATOM     15  C   UNL     1     110.757 105.207 127.180  1.00  0.00     0.007 C 
ENDBRANCH  12  13
TORSDOF 1
ENDMDL
