MODEL 1
REMARK VINA RESULT:    -2.998      0.000      0.000
REMARK INTER + INTRA:          -8.125
REMARK INTER:                  -5.451
REMARK INTRA:                  -2.674
REMARK UNBOUND:                -2.674
REMARK SMILES CCCCCCCCCCCCCC[C@@H](C)C(=O)[O-]
REMARK SMILES IDX 9 1 10 2 11 3 12 4 13 5 14 6 15 7 16 8 17 9 18 10 19 11 8 12
REMARK SMILES IDX 7 13 6 14 5 15 4 16 3 17 2 18 1 19
REMARK H PARENT
REMARK Flexibility Score: inf
ROOT
ATOM      1  C   UNL     1      -0.054   7.135  25.262  1.00  0.00     0.000 C 
ENDROOT
BRANCH   1   2
ATOM      2  C   UNL     1       0.919   6.066  24.740  1.00  0.00     0.000 C 
BRANCH   2   3
ATOM      3  C   UNL     1       1.131   4.962  25.786  1.00  0.00     0.000 C 
BRANCH   3   4
ATOM      4  C   UNL     1       0.495   5.300  27.143  1.00  0.00     0.000 C 
BRANCH   4   5
ATOM      5  C   UNL     1       1.504   5.242  28.302  1.00  0.00     0.001 C 
BRANCH   5   6
ATOM      6  C   UNL     1       0.896   5.745  29.630  1.00  0.00     0.009 C 
BRANCH   6   7
ATOM      7  C   UNL     1       1.496   7.082  30.119  1.00  0.00     0.032 C 
ATOM      8  C   UNL     1       0.853   8.298  29.439  1.00  0.00     0.014 C 
BRANCH   7   9
ATOM      9  C   UNL     1       1.336   7.195  31.610  1.00  0.00     0.044 C 
ATOM     10  O   UNL     1       0.734   8.183  32.109  1.00  0.00    -0.550 OA
ATOM     11  O   UNL     1       1.852   6.214  32.449  1.00  0.00    -0.550 OA
ENDBRANCH   7   9
ENDBRANCH   6   7
ENDBRANCH   5   6
ENDBRANCH   4   5
ENDBRANCH   3   4
ENDBRANCH   2   3
ENDBRANCH   1   2
BRANCH   1  12
ATOM     12  C   UNL     1       0.625   8.497  25.492  1.00  0.00     0.000 C 
BRANCH  12  13
ATOM     13  C   UNL     1       2.142   8.523  25.216  1.00  0.00    -0.000 C 
BRANCH  13  14
ATOM     14  C   UNL     1       3.025   8.864  26.433  1.00  0.00    -0.000 C 
BRANCH  14  15
ATOM     15  C   UNL     1       3.738   7.662  27.081  1.00  0.00    -0.000 C 
BRANCH  15  16
ATOM     16  C   UNL     1       4.424   6.750  26.050  1.00  0.00    -0.000 C 
BRANCH  16  17
ATOM     17  C   UNL     1       5.136   5.554  26.703  1.00  0.00    -0.000 C 
BRANCH  17  18
ATOM     18  C   UNL     1       4.875   4.233  25.964  1.00  0.00    -0.003 C 
ATOM     19  C   UNL     1       4.236   3.203  26.890  1.00  0.00     0.004 C 
ENDBRANCH  17  18
ENDBRANCH  16  17
ENDBRANCH  15  16
ENDBRANCH  14  15
ENDBRANCH  13  14
ENDBRANCH  12  13
ENDBRANCH   1  12
TORSDOF 14
ENDMDL
MODEL 2
REMARK VINA RESULT:    -2.978      8.011     12.548
REMARK INTER + INTRA:          -8.089
REMARK INTER:                  -5.642
REMARK INTRA:                  -2.447
REMARK UNBOUND:                -2.674
REMARK SMILES CCCCCCCCCCCCCC[C@@H](C)C(=O)[O-]
REMARK SMILES IDX 9 1 10 2 11 3 12 4 13 5 14 6 15 7 16 8 17 9 18 10 19 11 8 12
REMARK SMILES IDX 7 13 6 14 5 15 4 16 3 17 2 18 1 19
REMARK H PARENT
REMARK Flexibility Score: inf
ROOT
ATOM      1  C   UNL     1      -0.418   5.813  39.455  1.00  0.00     0.000 C 
ENDROOT
BRANCH   1   2
ATOM      2  C   UNL     1      -1.131   4.671  38.714  1.00  0.00     0.000 C 
BRANCH   2   3
ATOM      3  C   UNL     1      -2.489   5.136  38.168  1.00  0.00     0.000 C 
BRANCH   3   4
ATOM      4  C   UNL     1      -2.808   4.543  36.788  1.00  0.00     0.000 C 
BRANCH   4   5
ATOM      5  C   UNL     1      -1.627   4.648  35.808  1.00  0.00     0.001 C 
BRANCH   5   6
ATOM      6  C   UNL     1      -1.327   6.110  35.412  1.00  0.00     0.009 C 
BRANCH   6   7
ATOM      7  C   UNL     1       0.130   6.341  34.953  1.00  0.00     0.032 C 
ATOM      8  C   UNL     1       1.154   5.911  36.011  1.00  0.00     0.014 C 
BRANCH   7   9
ATOM      9  C   UNL     1       0.383   5.593  33.673  1.00  0.00     0.044 C 
ATOM     10  O   UNL     1       1.265   4.694  33.629  1.00  0.00    -0.550 OA
ATOM     11  O   UNL     1      -0.348   5.889  32.529  1.00  0.00    -0.550 OA
ENDBRANCH   7   9
ENDBRANCH   6   7
ENDBRANCH   5   6
ENDBRANCH   4   5
ENDBRANCH   3   4
ENDBRANCH   2   3
ENDBRANCH   1   2
BRANCH   1  12
ATOM     12  C   UNL     1      -0.744   7.199  38.870  1.00  0.00     0.000 C 
BRANCH  12  13
ATOM     13  C   UNL     1      -1.398   8.185  39.860  1.00  0.00    -0.000 C 
BRANCH  13  14
ATOM     14  C   UNL     1      -2.901   8.444  39.631  1.00  0.00    -0.000 C 
BRANCH  14  15
ATOM     15  C   UNL     1      -3.847   7.665  40.563  1.00  0.00    -0.000 C 
BRANCH  15  16
ATOM     16  C   UNL     1      -3.345   7.613  42.015  1.00  0.00    -0.000 C 
BRANCH  16  17
ATOM     17  C   UNL     1      -3.682   6.282  42.708  1.00  0.00    -0.000 C 
BRANCH  17  18
ATOM     18  C   UNL     1      -3.482   5.068  41.789  1.00  0.00    -0.003 C 
ATOM     19  C   UNL     1      -2.282   4.236  42.233  1.00  0.00     0.004 C 
ENDBRANCH  17  18
ENDBRANCH  16  17
ENDBRANCH  15  16
ENDBRANCH  14  15
ENDBRANCH  13  14
ENDBRANCH  12  13
ENDBRANCH   1  12
TORSDOF 14
ENDMDL
MODEL 3
REMARK VINA RESULT:    -2.961      1.187      3.024
REMARK INTER + INTRA:          -8.058
REMARK INTER:                  -5.537
REMARK INTRA:                  -2.521
REMARK UNBOUND:                -2.674
REMARK SMILES CCCCCCCCCCCCCC[C@@H](C)C(=O)[O-]
REMARK SMILES IDX 9 1 10 2 11 3 12 4 13 5 14 6 15 7 16 8 17 9 18 10 19 11 8 12
REMARK SMILES IDX 7 13 6 14 5 15 4 16 3 17 2 18 1 19
REMARK H PARENT
REMARK Flexibility Score: inf
ROOT
ATOM      1  C   UNL     1       1.310   8.033  24.549  1.00  0.00     0.000 C 
ENDROOT
BRANCH   1   2
ATOM      2  C   UNL     1       1.417   8.933  25.789  1.00  0.00     0.000 C 
BRANCH   2   3
ATOM      3  C   UNL     1       2.839   8.898  26.369  1.00  0.00     0.000 C 
BRANCH   3   4
ATOM      4  C   UNL     1       2.855   8.633  27.882  1.00  0.00     0.000 C 
BRANCH   4   5
ATOM      5  C   UNL     1       1.522   8.068  28.400  1.00  0.00     0.001 C 
BRANCH   5   6
ATOM      6  C   UNL     1       1.726   6.870  29.353  1.00  0.00     0.009 C 
BRANCH   6   7
ATOM      7  C   UNL     1       0.631   6.745  30.435  1.00  0.00     0.032 C 
ATOM      8  C   UNL     1       0.009   5.343  30.481  1.00  0.00     0.014 C 
BRANCH   7   9
ATOM      9  C   UNL     1       1.206   7.086  31.782  1.00  0.00     0.044 C 
ATOM     10  O   UNL     1       0.777   8.084  32.419  1.00  0.00    -0.550 OA
ATOM     11  O   UNL     1       2.218   6.307  32.332  1.00  0.00    -0.550 OA
ENDBRANCH   7   9
ENDBRANCH   6   7
ENDBRANCH   5   6
ENDBRANCH   4   5
ENDBRANCH   3   4
ENDBRANCH   2   3
ENDBRANCH   1   2
BRANCH   1  12
ATOM     12  C   UNL     1      -0.068   7.358  24.418  1.00  0.00     0.000 C 
BRANCH  12  13
ATOM     13  C   UNL     1      -0.627   6.764  25.728  1.00  0.00    -0.000 C 
BRANCH  13  14
ATOM     14  C   UNL     1      -0.735   5.226  25.757  1.00  0.00    -0.000 C 
BRANCH  14  15
ATOM     15  C   UNL     1      -0.009   4.543  26.931  1.00  0.00    -0.000 C 
BRANCH  15  16
ATOM     16  C   UNL     1       1.224   3.741  26.483  1.00  0.00    -0.000 C 
BRANCH  16  17
ATOM     17  C   UNL     1       2.529   4.274  27.098  1.00  0.00    -0.000 C 
BRANCH  17  18
ATOM     18  C   UNL     1       3.238   5.292  26.192  1.00  0.00    -0.003 C 
ATOM     19  C   UNL     1       4.674   5.530  26.653  1.00  0.00     0.004 C 
ENDBRANCH  17  18
ENDBRANCH  16  17
ENDBRANCH  15  16
ENDBRANCH  14  15
ENDBRANCH  13  14
ENDBRANCH  12  13
ENDBRANCH   1  12
TORSDOF 14
ENDMDL
MODEL 4
REMARK VINA RESULT:    -2.930      7.892     12.410
REMARK INTER + INTRA:          -8.001
REMARK INTER:                  -5.470
REMARK INTRA:                  -2.531
REMARK UNBOUND:                -2.674
REMARK SMILES CCCCCCCCCCCCCC[C@@H](C)C(=O)[O-]
REMARK SMILES IDX 9 1 10 2 11 3 12 4 13 5 14 6 15 7 16 8 17 9 18 10 19 11 8 12
REMARK SMILES IDX 7 13 6 14 5 15 4 16 3 17 2 18 1 19
REMARK H PARENT
REMARK Flexibility Score: inf
ROOT
ATOM      1  C   UNL     1      -3.419   8.302  40.040  1.00  0.00     0.000 C 
ENDROOT
BRANCH   1   2
ATOM      2  C   UNL     1      -2.598   9.045  38.975  1.00  0.00     0.000 C 
BRANCH   2   3
ATOM      3  C   UNL     1      -1.985   8.059  37.971  1.00  0.00     0.000 C 
BRANCH   3   4
ATOM      4  C   UNL     1      -1.006   8.735  36.998  1.00  0.00     0.000 C 
BRANCH   4   5
ATOM      5  C   UNL     1      -0.164   7.722  36.203  1.00  0.00     0.001 C 
BRANCH   5   6
ATOM      6  C   UNL     1      -0.452   6.265  36.627  1.00  0.00     0.009 C 
BRANCH   6   7
ATOM      7  C   UNL     1      -0.113   5.225  35.536  1.00  0.00     0.032 C 
ATOM      8  C   UNL     1      -0.932   5.429  34.255  1.00  0.00     0.014 C 
BRANCH   7   9
ATOM      9  C   UNL     1       1.354   5.289  35.212  1.00  0.00     0.044 C 
ATOM     10  O   UNL     1       1.733   5.467  34.024  1.00  0.00    -0.550 OA
ATOM     11  O   UNL     1       2.304   5.147  36.218  1.00  0.00    -0.550 OA
ENDBRANCH   7   9
ENDBRANCH   6   7
ENDBRANCH   5   6
ENDBRANCH   4   5
ENDBRANCH   3   4
ENDBRANCH   2   3
ENDBRANCH   1   2
BRANCH   1  12
ATOM     12  C   UNL     1      -3.113   6.794  40.086  1.00  0.00     0.000 C 
BRANCH  12  13
ATOM     13  C   UNL     1      -2.669   6.263  41.464  1.00  0.00    -0.000 C 
BRANCH  13  14
ATOM     14  C   UNL     1      -2.147   7.334  42.444  1.00  0.00    -0.000 C 
BRANCH  14  15
ATOM     15  C   UNL     1      -0.614   7.475  42.500  1.00  0.00    -0.000 C 
BRANCH  15  16
ATOM     16  C   UNL     1      -0.107   8.750  41.806  1.00  0.00    -0.000 C 
BRANCH  16  17
ATOM     17  C   UNL     1       0.624   8.452  40.487  1.00  0.00    -0.000 C 
BRANCH  17  18
ATOM     18  C   UNL     1       0.783   6.947  40.225  1.00  0.00    -0.003 C 
ATOM     19  C   UNL     1       2.001   6.668  39.348  1.00  0.00     0.004 C 
ENDBRANCH  17  18
ENDBRANCH  16  17
ENDBRANCH  15  16
ENDBRANCH  14  15
ENDBRANCH  13  14
ENDBRANCH  12  13
ENDBRANCH   1  12
TORSDOF 14
ENDMDL
MODEL 5
REMARK VINA RESULT:    -2.880      9.672     12.034
REMARK INTER + INTRA:          -7.911
REMARK INTER:                  -5.581
REMARK INTRA:                  -2.331
REMARK UNBOUND:                -2.674
REMARK SMILES CCCCCCCCCCCCCC[C@@H](C)C(=O)[O-]
REMARK SMILES IDX 9 1 10 2 11 3 12 4 13 5 14 6 15 7 16 8 17 9 18 10 19 11 8 12
REMARK SMILES IDX 7 13 6 14 5 15 4 16 3 17 2 18 1 19
REMARK H PARENT
REMARK Flexibility Score: inf
ROOT
ATOM      1  C   UNL     1       0.619   5.896  38.605  1.00  0.00     0.000 C 
ENDROOT
BRANCH   1   2
ATOM      2  C   UNL     1       0.265   6.898  39.715  1.00  0.00     0.000 C 
BRANCH   2   3
ATOM      3  C   UNL     1       0.338   8.340  39.193  1.00  0.00     0.000 C 
BRANCH   3   4
ATOM      4  C   UNL     1      -1.029   9.042  39.195  1.00  0.00     0.000 C 
BRANCH   4   5
ATOM      5  C   UNL     1      -2.203   8.056  39.061  1.00  0.00     0.001 C 
BRANCH   5   6
ATOM      6  C   UNL     1      -3.309   8.321  40.104  1.00  0.00     0.009 C 
BRANCH   6   7
ATOM      7  C   UNL     1      -3.938   7.034  40.682  1.00  0.00     0.032 C 
ATOM      8  C   UNL     1      -3.295   5.761  40.117  1.00  0.00     0.014 C 
BRANCH   7   9
ATOM      9  C   UNL     1      -3.814   7.038  42.181  1.00  0.00     0.044 C 
ATOM     10  O   UNL     1      -4.346   7.958  42.857  1.00  0.00    -0.550 OA
ATOM     11  O   UNL     1      -3.110   6.032  42.832  1.00  0.00    -0.550 OA
ENDBRANCH   7   9
ENDBRANCH   6   7
ENDBRANCH   5   6
ENDBRANCH   4   5
ENDBRANCH   3   4
ENDBRANCH   2   3
ENDBRANCH   1   2
BRANCH   1  12
ATOM     12  C   UNL     1       1.304   6.560  37.397  1.00  0.00     0.000 C 
BRANCH  12  13
ATOM     13  C   UNL     1       0.570   6.377  36.053  1.00  0.00    -0.000 C 
BRANCH  13  14
ATOM     14  C   UNL     1      -0.836   7.007  35.981  1.00  0.00    -0.000 C 
BRANCH  14  15
ATOM     15  C   UNL     1      -1.966   6.039  35.586  1.00  0.00    -0.000 C 
BRANCH  15  16
ATOM     16  C   UNL     1      -2.188   4.926  36.623  1.00  0.00    -0.000 C 
BRANCH  16  17
ATOM     17  C   UNL     1      -2.285   3.532  35.981  1.00  0.00    -0.000 C 
BRANCH  17  18
ATOM     18  C   UNL     1      -0.928   3.014  35.482  1.00  0.00    -0.003 C 
ATOM     19  C   UNL     1       0.028   2.770  36.646  1.00  0.00     0.004 C 
ENDBRANCH  17  18
ENDBRANCH  16  17
ENDBRANCH  15  16
ENDBRANCH  14  15
ENDBRANCH  13  14
ENDBRANCH  12  13
ENDBRANCH   1  12
TORSDOF 14
ENDMDL
MODEL 6
REMARK VINA RESULT:    -2.879      8.237     12.917
REMARK INTER + INTRA:          -7.908
REMARK INTER:                  -5.460
REMARK INTRA:                  -2.448
REMARK UNBOUND:                -2.674
REMARK SMILES CCCCCCCCCCCCCC[C@@H](C)C(=O)[O-]
REMARK SMILES IDX 9 1 10 2 11 3 12 4 13 5 14 6 15 7 16 8 17 9 18 10 19 11 8 12
REMARK SMILES IDX 7 13 6 14 5 15 4 16 3 17 2 18 1 19
REMARK H PARENT
REMARK Flexibility Score: inf
ROOT
ATOM      1  C   UNL     1       0.311   7.049  39.674  1.00  0.00     0.000 C 
ENDROOT
BRANCH   1   2
ATOM      2  C   UNL     1       0.945   8.126  38.780  1.00  0.00     0.000 C 
BRANCH   2   3
ATOM      3  C   UNL     1      -0.135   8.916  38.025  1.00  0.00     0.000 C 
BRANCH   3   4
ATOM      4  C   UNL     1      -1.450   8.134  37.883  1.00  0.00     0.000 C 
BRANCH   4   5
ATOM      5  C   UNL     1      -1.634   7.534  36.479  1.00  0.00     0.001 C 
BRANCH   5   6
ATOM      6  C   UNL     1      -1.961   6.026  36.528  1.00  0.00     0.009 C 
BRANCH   6   7
ATOM      7  C   UNL     1      -0.970   5.151  35.729  1.00  0.00     0.032 C 
ATOM      8  C   UNL     1      -0.751   5.665  34.300  1.00  0.00     0.014 C 
BRANCH   7   9
ATOM      9  C   UNL     1       0.349   5.090  36.450  1.00  0.00     0.044 C 
ATOM     10  O   UNL     1       0.497   4.318  37.433  1.00  0.00    -0.550 OA
ATOM     11  O   UNL     1       1.411   5.888  36.041  1.00  0.00    -0.550 OA
ENDBRANCH   7   9
ENDBRANCH   6   7
ENDBRANCH   5   6
ENDBRANCH   4   5
ENDBRANCH   3   4
ENDBRANCH   2   3
ENDBRANCH   1   2
BRANCH   1  12
ATOM     12  C   UNL     1       0.319   7.430  41.165  1.00  0.00     0.000 C 
BRANCH  12  13
ATOM     13  C   UNL     1      -0.765   8.446  41.582  1.00  0.00    -0.000 C 
BRANCH  13  14
ATOM     14  C   UNL     1      -1.591   8.052  42.823  1.00  0.00    -0.000 C 
BRANCH  14  15
ATOM     15  C   UNL     1      -3.079   7.765  42.553  1.00  0.00    -0.000 C 
BRANCH  15  16
ATOM     16  C   UNL     1      -3.418   7.735  41.053  1.00  0.00    -0.000 C 
BRANCH  16  17
ATOM     17  C   UNL     1      -4.002   6.385  40.607  1.00  0.00    -0.000 C 
BRANCH  17  18
ATOM     18  C   UNL     1      -2.945   5.454  39.996  1.00  0.00    -0.003 C 
ATOM     19  C   UNL     1      -2.177   4.707  41.083  1.00  0.00     0.004 C 
ENDBRANCH  17  18
ENDBRANCH  16  17
ENDBRANCH  15  16
ENDBRANCH  14  15
ENDBRANCH  13  14
ENDBRANCH  12  13
ENDBRANCH   1  12
TORSDOF 14
ENDMDL
MODEL 7
REMARK VINA RESULT:    -2.866     10.151     12.589
REMARK INTER + INTRA:          -7.885
REMARK INTER:                  -5.294
REMARK INTRA:                  -2.591
REMARK UNBOUND:                -2.674
REMARK SMILES CCCCCCCCCCCCCC[C@@H](C)C(=O)[O-]
REMARK SMILES IDX 9 1 10 2 11 3 12 4 13 5 14 6 15 7 16 8 17 9 18 10 19 11 8 12
REMARK SMILES IDX 7 13 6 14 5 15 4 16 3 17 2 18 1 19
REMARK H PARENT
REMARK Flexibility Score: inf
ROOT
ATOM      1  C   UNL     1      -0.793   8.115  36.701  1.00  0.00     0.000 C 
ENDROOT
BRANCH   1   2
ATOM      2  C   UNL     1      -1.613   6.867  36.340  1.00  0.00     0.000 C 
BRANCH   2   3
ATOM      3  C   UNL     1      -0.783   5.590  36.542  1.00  0.00     0.000 C 
BRANCH   3   4
ATOM      4  C   UNL     1      -1.223   4.787  37.776  1.00  0.00     0.000 C 
BRANCH   4   5
ATOM      5  C   UNL     1      -2.547   5.293  38.373  1.00  0.00     0.001 C 
BRANCH   5   6
ATOM      6  C   UNL     1      -2.487   5.411  39.911  1.00  0.00     0.009 C 
BRANCH   6   7
ATOM      7  C   UNL     1      -3.849   5.740  40.562  1.00  0.00     0.032 C 
ATOM      8  C   UNL     1      -4.201   4.779  41.705  1.00  0.00     0.014 C 
BRANCH   7   9
ATOM      9  C   UNL     1      -3.838   7.153  41.076  1.00  0.00     0.044 C 
ATOM     10  O   UNL     1      -3.840   7.375  42.316  1.00  0.00    -0.550 OA
ATOM     11  O   UNL     1      -3.831   8.224  40.190  1.00  0.00    -0.550 OA
ENDBRANCH   7   9
ENDBRANCH   6   7
ENDBRANCH   5   6
ENDBRANCH   4   5
ENDBRANCH   3   4
ENDBRANCH   2   3
ENDBRANCH   1   2
BRANCH   1  12
ATOM     12  C   UNL     1      -1.210   8.735  38.047  1.00  0.00     0.000 C 
BRANCH  12  13
ATOM     13  C   UNL     1      -0.344   8.314  39.252  1.00  0.00    -0.000 C 
BRANCH  13  14
ATOM     14  C   UNL     1       1.167   8.195  38.965  1.00  0.00    -0.000 C 
BRANCH  14  15
ATOM     15  C   UNL     1       1.764   6.793  39.182  1.00  0.00    -0.000 C 
BRANCH  15  16
ATOM     16  C   UNL     1       1.054   6.008  40.297  1.00  0.00    -0.000 C 
BRANCH  16  17
ATOM     17  C   UNL     1       1.540   4.552  40.396  1.00  0.00    -0.000 C 
BRANCH  17  18
ATOM     18  C   UNL     1       0.521   3.632  41.084  1.00  0.00    -0.003 C 
ATOM     19  C   UNL     1       0.028   4.242  42.393  1.00  0.00     0.004 C 
ENDBRANCH  17  18
ENDBRANCH  16  17
ENDBRANCH  15  16
ENDBRANCH  14  15
ENDBRANCH  13  14
ENDBRANCH  12  13
ENDBRANCH   1  12
TORSDOF 14
ENDMDL
MODEL 8
REMARK VINA RESULT:    -2.865      7.232     11.851
REMARK INTER + INTRA:          -7.885
REMARK INTER:                  -5.506
REMARK INTRA:                  -2.378
REMARK UNBOUND:                -2.674
REMARK SMILES CCCCCCCCCCCCCC[C@@H](C)C(=O)[O-]
REMARK SMILES IDX 9 1 10 2 11 3 12 4 13 5 14 6 15 7 16 8 17 9 18 10 19 11 8 12
REMARK SMILES IDX 7 13 6 14 5 15 4 16 3 17 2 18 1 19
REMARK H PARENT
REMARK Flexibility Score: inf
ROOT
ATOM      1  C   UNL     1      -1.710   8.799  39.795  1.00  0.00     0.000 C 
ENDROOT
BRANCH   1   2
ATOM      2  C   UNL     1      -0.986   9.027  38.459  1.00  0.00     0.000 C 
BRANCH   2   3
ATOM      3  C   UNL     1      -1.921   8.741  37.275  1.00  0.00     0.000 C 
BRANCH   3   4
ATOM      4  C   UNL     1      -1.421   7.589  36.390  1.00  0.00     0.000 C 
BRANCH   4   5
ATOM      5  C   UNL     1       0.075   7.708  36.049  1.00  0.00     0.001 C 
BRANCH   5   6
ATOM      6  C   UNL     1       0.799   6.346  36.118  1.00  0.00     0.009 C 
BRANCH   6   7
ATOM      7  C   UNL     1       0.766   5.559  34.789  1.00  0.00     0.032 C 
ATOM      8  C   UNL     1       0.662   6.478  33.565  1.00  0.00     0.014 C 
BRANCH   7   9
ATOM      9  C   UNL     1       1.999   4.705  34.675  1.00  0.00     0.044 C 
ATOM     10  O   UNL     1       2.884   4.982  33.822  1.00  0.00    -0.550 OA
ATOM     11  O   UNL     1       2.170   3.603  35.504  1.00  0.00    -0.550 OA
ENDBRANCH   7   9
ENDBRANCH   6   7
ENDBRANCH   5   6
ENDBRANCH   4   5
ENDBRANCH   3   4
ENDBRANCH   2   3
ENDBRANCH   1   2
BRANCH   1  12
ATOM     12  C   UNL     1      -3.136   8.248  39.615  1.00  0.00     0.000 C 
BRANCH  12  13
ATOM     13  C   UNL     1      -3.601   7.275  40.718  1.00  0.00    -0.000 C 
BRANCH  13  14
ATOM     14  C   UNL     1      -3.452   5.778  40.377  1.00  0.00    -0.000 C 
BRANCH  14  15
ATOM     15  C   UNL     1      -2.835   5.480  38.998  1.00  0.00    -0.000 C 
BRANCH  15  16
ATOM     16  C   UNL     1      -1.377   5.001  39.088  1.00  0.00    -0.000 C 
BRANCH  16  17
ATOM     17  C   UNL     1      -0.895   4.848  40.540  1.00  0.00    -0.000 C 
BRANCH  17  18
ATOM     18  C   UNL     1       0.114   5.932  40.947  1.00  0.00    -0.003 C 
ATOM     19  C   UNL     1       1.093   6.223  39.814  1.00  0.00     0.004 C 
ENDBRANCH  17  18
ENDBRANCH  16  17
ENDBRANCH  15  16
ENDBRANCH  14  15
ENDBRANCH  13  14
ENDBRANCH  12  13
ENDBRANCH   1  12
TORSDOF 14
ENDMDL
MODEL 9
REMARK VINA RESULT:    -2.823      7.779     11.550
REMARK INTER + INTRA:          -7.807
REMARK INTER:                  -5.018
REMARK INTRA:                  -2.790
REMARK UNBOUND:                -2.674
REMARK SMILES CCCCCCCCCCCCCC[C@@H](C)C(=O)[O-]
REMARK SMILES IDX 9 1 10 2 11 3 12 4 13 5 14 6 15 7 16 8 17 9 18 10 19 11 8 12
REMARK SMILES IDX 7 13 6 14 5 15 4 16 3 17 2 18 1 19
REMARK H PARENT
REMARK Flexibility Score: inf
ROOT
ATOM      1  C   UNL     1      -1.071   8.218  36.911  1.00  0.00     0.000 C 
ENDROOT
BRANCH   1   2
ATOM      2  C   UNL     1       0.462   8.192  36.998  1.00  0.00     0.000 C 
BRANCH   2   3
ATOM      3  C   UNL     1       0.937   8.594  38.402  1.00  0.00     0.000 C 
BRANCH   3   4
ATOM      4  C   UNL     1       1.323   7.383  39.266  1.00  0.00     0.000 C 
BRANCH   4   5
ATOM      5  C   UNL     1       0.692   7.429  40.669  1.00  0.00     0.001 C 
BRANCH   5   6
ATOM      6  C   UNL     1      -0.769   7.928  40.634  1.00  0.00     0.009 C 
BRANCH   6   7
ATOM      7  C   UNL     1      -1.784   6.910  41.201  1.00  0.00     0.032 C 
ATOM      8  C   UNL     1      -1.329   6.308  42.537  1.00  0.00     0.014 C 
BRANCH   7   9
ATOM      9  C   UNL     1      -3.123   7.573  41.377  1.00  0.00     0.044 C 
ATOM     10  O   UNL     1      -3.847   7.812  40.374  1.00  0.00    -0.550 OA
ATOM     11  O   UNL     1      -3.569   7.931  42.643  1.00  0.00    -0.550 OA
ENDBRANCH   7   9
ENDBRANCH   6   7
ENDBRANCH   5   6
ENDBRANCH   4   5
ENDBRANCH   3   4
ENDBRANCH   2   3
ENDBRANCH   1   2
BRANCH   1  12
ATOM     12  C   UNL     1      -1.672   6.848  36.549  1.00  0.00     0.000 C 
BRANCH  12  13
ATOM     13  C   UNL     1      -1.997   5.942  37.755  1.00  0.00    -0.000 C 
BRANCH  13  14
ATOM     14  C   UNL     1      -0.990   4.802  38.011  1.00  0.00    -0.000 C 
BRANCH  14  15
ATOM     15  C   UNL     1      -0.249   4.293  36.760  1.00  0.00    -0.000 C 
BRANCH  15  16
ATOM     16  C   UNL     1       1.264   4.561  36.814  1.00  0.00    -0.000 C 
BRANCH  16  17
ATOM     17  C   UNL     1       1.801   5.172  35.509  1.00  0.00    -0.000 C 
BRANCH  17  18
ATOM     18  C   UNL     1       0.794   5.081  34.353  1.00  0.00    -0.003 C 
ATOM     19  C   UNL     1       0.640   6.428  33.652  1.00  0.00     0.004 C 
ENDBRANCH  17  18
ENDBRANCH  16  17
ENDBRANCH  15  16
ENDBRANCH  14  15
ENDBRANCH  13  14
ENDBRANCH  12  13
ENDBRANCH   1  12
TORSDOF 14
ENDMDL
