MODEL 1
REMARK VINA RESULT:    -5.113      0.000      0.000
REMARK INTER + INTRA:          -6.803
REMARK INTER:                  -7.205
REMARK INTRA:                   0.402
REMARK UNBOUND:                 0.402
REMARK SMILES CC1=CCC(=C(C)C)C(=O)CC(C)=CCC1
REMARK SMILES IDX 12 1 14 2 13 3 15 4 16 5 2 6 1 7 3 8 11 10 9 11 10 12 5 13
REMARK SMILES IDX 6 14 7 15 8 16 4 17
REMARK H PARENT
REMARK Flexibility Score: 60.00
ROOT
ATOM      1  C   UNL     1       8.888  41.781  22.249  1.00  0.00    -0.070 C 
ATOM      2  C   UNL     1       9.250  40.481  22.148  1.00  0.00    -0.027 C 
ATOM      3  C   UNL     1       7.521  42.182  21.756  1.00  0.00     0.039 C 
ENDROOT
BRANCH   2   4
ATOM      4  C   UNL     1      10.519  39.877  22.699  1.00  0.00     0.032 C 
BRANCH   4   5
ATOM      5  C   UNL     1      11.818  40.378  22.050  1.00  0.00     0.034 C 
BRANCH   5   6
ATOM      6  C   UNL     1      11.749  40.490  20.539  1.00  0.00    -0.077 C 
ATOM      7  C   UNL     1      11.615  39.215  19.744  1.00  0.00     0.039 C 
ATOM      8  C   UNL     1      11.872  41.650  19.844  1.00  0.00    -0.023 CG0
ATOM      9  G   UNL     1      11.878  43.071  20.374  1.00  0.00     0.000 G0
ENDBRANCH   5   6
ENDBRANCH   4   5
ENDBRANCH   2   4
BRANCH   1  10
ATOM     10  C   UNL     1       9.815  42.867  22.750  1.00  0.00     0.111 C 
BRANCH  10  11
ATOM     11  C   UNL     1       9.934  43.985  21.746  1.00  0.00     0.163 C 
ATOM     12  O   UNL     1       9.503  45.130  22.055  1.00  0.00    -0.294 OA
BRANCH  11  13
ATOM     13  C   UNL     1      10.534  43.783  20.401  1.00  0.00    -0.002 C 
ATOM     14  C   UNL     1       9.827  44.089  19.279  1.00  0.00    -0.069 C 
ATOM     15  C   UNL     1       8.488  44.783  19.379  1.00  0.00     0.039 C 
ATOM     16  C   UNL     1      10.357  43.773  17.900  1.00  0.00     0.039 C 
BRANCH  13  17
ATOM     17  C   UNL     1      11.872  43.069  20.348  1.00  0.00     0.066 CG0
ATOM     18  G   UNL     1      11.874  41.637  19.846  1.00  0.00     0.000 G0
ENDBRANCH  13  17
ENDBRANCH  11  13
ENDBRANCH  10  11
ENDBRANCH   1  10
TORSDOF 0
ENDMDL
MODEL 2
REMARK VINA RESULT:    -4.836     11.744     13.964
REMARK INTER + INTRA:          -6.413
REMARK INTER:                  -6.372
REMARK INTRA:                  -0.041
REMARK UNBOUND:                 0.402
REMARK SMILES CC1=CCC(=C(C)C)C(=O)CC(C)=CCC1
REMARK SMILES IDX 12 1 14 2 13 3 15 4 16 5 2 6 1 7 3 8 11 10 9 11 10 12 5 13
REMARK SMILES IDX 6 14 7 15 8 16 4 17
REMARK H PARENT
REMARK Flexibility Score: 60.00
ROOT
ATOM      1  C   UNL     1       2.344  33.331  28.897  1.00  0.00    -0.070 C 
ATOM      2  C   UNL     1       2.014  34.443  28.200  1.00  0.00    -0.027 C 
ATOM      3  C   UNL     1       1.316  32.235  29.022  1.00  0.00     0.039 C 
ENDROOT
BRANCH   2   4
ATOM      4  C   UNL     1       2.949  35.580  27.866  1.00  0.00     0.032 C 
BRANCH   4   5
ATOM      5  C   UNL     1       2.717  36.874  28.661  1.00  0.00     0.034 C 
BRANCH   5   6
ATOM      6  C   UNL     1       3.994  37.585  29.067  1.00  0.00    -0.077 C 
ATOM      7  C   UNL     1       4.535  38.644  28.138  1.00  0.00     0.039 C 
ATOM      8  C   UNL     1       4.728  37.287  30.170  1.00  0.00    -0.023 CG0
ATOM      9  G   UNL     1       4.360  36.382  31.330  1.00  0.00     0.000 G0
ENDBRANCH   5   6
ENDBRANCH   4   5
ENDBRANCH   2   4
BRANCH   1  10
ATOM     10  C   UNL     1       3.658  33.167  29.630  1.00  0.00     0.111 C 
BRANCH  10  11
ATOM     11  C   UNL     1       3.665  33.951  30.917  1.00  0.00     0.163 C 
ATOM     12  O   UNL     1       2.714  33.794  31.731  1.00  0.00    -0.294 OA
BRANCH  11  13
ATOM     13  C   UNL     1       4.748  34.911  31.255  1.00  0.00    -0.002 C 
ATOM     14  C   UNL     1       5.979  34.459  31.619  1.00  0.00    -0.069 C 
ATOM     15  C   UNL     1       6.314  32.987  31.534  1.00  0.00     0.039 C 
ATOM     16  C   UNL     1       7.060  35.402  32.095  1.00  0.00     0.039 C 
BRANCH  13  17
ATOM     17  C   UNL     1       4.363  36.377  31.344  1.00  0.00     0.066 CG0
ATOM     18  G   UNL     1       4.731  37.263  30.170  1.00  0.00     0.000 G0
ENDBRANCH  13  17
ENDBRANCH  11  13
ENDBRANCH  10  11
ENDBRANCH   1  10
TORSDOF 0
ENDMDL
MODEL 3
REMARK VINA RESULT:    -4.770      9.644     11.683
REMARK INTER + INTRA:          -6.320
REMARK INTER:                  -6.220
REMARK INTRA:                  -0.101
REMARK UNBOUND:                 0.402
REMARK SMILES CC1=CCC(=C(C)C)C(=O)CC(C)=CCC1
REMARK SMILES IDX 12 1 14 2 13 3 15 4 16 5 2 6 1 7 3 8 11 10 9 11 10 12 5 13
REMARK SMILES IDX 6 14 7 15 8 16 4 17
REMARK H PARENT
REMARK Flexibility Score: 60.00
ROOT
ATOM      1  C   UNL     1       3.145  36.393  30.794  1.00  0.00    -0.070 C 
ATOM      2  C   UNL     1       2.569  36.842  29.655  1.00  0.00    -0.027 C 
ATOM      3  C   UNL     1       2.374  36.520  32.083  1.00  0.00     0.039 C 
ENDROOT
BRANCH   2   4
ATOM      4  C   UNL     1       3.133  36.686  28.263  1.00  0.00     0.032 C 
BRANCH   4   5
ATOM      5  C   UNL     1       3.620  37.985  27.603  1.00  0.00     0.034 C 
BRANCH   5   6
ATOM      6  C   UNL     1       4.974  37.862  26.929  1.00  0.00    -0.077 C 
ATOM      7  C   UNL     1       4.998  37.593  25.444  1.00  0.00     0.039 C 
ATOM      8  C   UNL     1       6.166  37.905  27.576  1.00  0.00    -0.023 CG0
ATOM      9  G   UNL     1       6.444  38.293  29.016  1.00  0.00     0.000 G0
ENDBRANCH   5   6
ENDBRANCH   4   5
ENDBRANCH   2   4
BRANCH   1  10
ATOM     10  C   UNL     1       4.556  35.848  30.854  1.00  0.00     0.111 C 
BRANCH  10  11
ATOM     11  C   UNL     1       5.562  36.960  31.004  1.00  0.00     0.163 C 
ATOM     12  O   UNL     1       5.467  37.739  31.992  1.00  0.00    -0.294 OA
BRANCH  11  13
ATOM     13  C   UNL     1       6.656  37.177  30.021  1.00  0.00    -0.002 C 
ATOM     14  C   UNL     1       7.833  36.505  30.144  1.00  0.00    -0.069 C 
ATOM     15  C   UNL     1       7.994  35.416  31.179  1.00  0.00     0.039 C 
ATOM     16  C   UNL     1       9.009  36.800  29.241  1.00  0.00     0.039 C 
BRANCH  13  17
ATOM     17  C   UNL     1       6.459  38.291  29.010  1.00  0.00     0.066 CG0
ATOM     18  G   UNL     1       6.168  37.884  27.578  1.00  0.00     0.000 G0
ENDBRANCH  13  17
ENDBRANCH  11  13
ENDBRANCH  10  11
ENDBRANCH   1  10
TORSDOF 0
ENDMDL
MODEL 4
REMARK VINA RESULT:    -4.732      2.484      4.637
REMARK INTER + INTRA:          -6.267
REMARK INTER:                  -6.391
REMARK INTRA:                   0.124
REMARK UNBOUND:                 0.402
REMARK SMILES CC1=CCC(=C(C)C)C(=O)CC(C)=CCC1
REMARK SMILES IDX 12 1 14 2 13 3 15 4 16 5 2 6 1 7 3 8 11 10 9 11 10 12 5 13
REMARK SMILES IDX 6 14 7 15 8 16 4 17
REMARK H PARENT
REMARK Flexibility Score: 60.00
ROOT
ATOM      1  C   UNL     1       8.839  43.657  21.086  1.00  0.00    -0.070 C 
ATOM      2  C   UNL     1       7.748  42.856  21.108  1.00  0.00    -0.027 C 
ATOM      3  C   UNL     1       9.052  44.541  19.884  1.00  0.00     0.039 C 
ENDROOT
BRANCH   2   4
ATOM      4  C   UNL     1       7.308  42.002  22.272  1.00  0.00     0.032 C 
BRANCH   4   5
ATOM      5  C   UNL     1       7.511  40.490  22.090  1.00  0.00     0.034 C 
BRANCH   5   6
ATOM      6  C   UNL     1       7.938  39.769  23.355  1.00  0.00    -0.077 C 
ATOM      7  C   UNL     1       6.859  39.173  24.224  1.00  0.00     0.039 C 
ATOM      8  C   UNL     1       9.218  39.684  23.800  1.00  0.00    -0.023 CG0
ATOM      9  G   UNL     1      10.496  40.062  23.076  1.00  0.00     0.000 G0
ENDBRANCH   5   6
ENDBRANCH   4   5
ENDBRANCH   2   4
BRANCH   1  10
ATOM     10  C   UNL     1       9.901  43.648  22.165  1.00  0.00     0.111 C 
BRANCH  10  11
ATOM     11  C   UNL     1      10.754  42.408  22.077  1.00  0.00     0.163 C 
ATOM     12  O   UNL     1      11.303  42.124  20.978  1.00  0.00    -0.294 OA
BRANCH  11  13
ATOM     13  C   UNL     1      10.963  41.505  23.239  1.00  0.00    -0.002 C 
ATOM     14  C   UNL     1      11.671  41.929  24.321  1.00  0.00    -0.069 C 
ATOM     15  C   UNL     1      12.121  43.368  24.431  1.00  0.00     0.039 C 
ATOM     16  C   UNL     1      12.013  40.994  25.458  1.00  0.00     0.039 C 
BRANCH  13  17
ATOM     17  C   UNL     1      10.510  40.065  23.078  1.00  0.00     0.066 CG0
ATOM     18  G   UNL     1       9.232  39.658  23.786  1.00  0.00     0.000 G0
ENDBRANCH  13  17
ENDBRANCH  11  13
ENDBRANCH  10  11
ENDBRANCH   1  10
TORSDOF 0
ENDMDL
MODEL 5
REMARK VINA RESULT:    -4.697      2.108      4.212
REMARK INTER + INTRA:          -6.217
REMARK INTER:                  -6.720
REMARK INTRA:                   0.503
REMARK UNBOUND:                 0.402
REMARK SMILES CC1=CCC(=C(C)C)C(=O)CC(C)=CCC1
REMARK SMILES IDX 12 1 14 2 13 3 15 4 16 5 2 6 1 7 3 8 11 10 9 11 10 12 5 13
REMARK SMILES IDX 6 14 7 15 8 16 4 17
REMARK H PARENT
REMARK Flexibility Score: 60.00
ROOT
ATOM      1  C   UNL     1       7.466  39.654  22.770  1.00  0.00    -0.070 C 
ATOM      2  C   UNL     1       6.945  40.899  22.668  1.00  0.00    -0.027 C 
ATOM      3  C   UNL     1       7.012  38.781  23.911  1.00  0.00     0.039 C 
ENDROOT
BRANCH   2   4
ATOM      4  C   UNL     1       7.184  41.861  21.530  1.00  0.00     0.032 C 
BRANCH   4   5
ATOM      5  C   UNL     1       7.510  43.303  21.948  1.00  0.00     0.034 C 
BRANCH   5   6
ATOM      6  C   UNL     1       8.756  43.868  21.292  1.00  0.00    -0.077 C 
ATOM      7  C   UNL     1       8.607  45.116  20.457  1.00  0.00     0.039 C 
ATOM      8  C   UNL     1       9.984  43.291  21.342  1.00  0.00    -0.023 CG0
ATOM      9  G   UNL     1      10.448  42.132  22.203  1.00  0.00     0.000 G0
ENDBRANCH   5   6
ENDBRANCH   4   5
ENDBRANCH   2   4
BRANCH   1  10
ATOM     10  C   UNL     1       8.544  39.125  21.848  1.00  0.00     0.111 C 
BRANCH  10  11
ATOM     11  C   UNL     1       9.902  39.645  22.245  1.00  0.00     0.163 C 
ATOM     12  O   UNL     1      10.500  39.108  23.217  1.00  0.00    -0.294 OA
BRANCH  11  13
ATOM     13  C   UNL     1      10.557  40.775  21.536  1.00  0.00    -0.002 C 
ATOM     14  C   UNL     1      11.326  40.545  20.437  1.00  0.00    -0.069 C 
ATOM     15  C   UNL     1      11.401  39.164  19.826  1.00  0.00     0.039 C 
ATOM     16  C   UNL     1      12.109  41.654  19.773  1.00  0.00     0.039 C 
BRANCH  13  17
ATOM     17  C   UNL     1      10.469  42.141  22.193  1.00  0.00     0.066 CG0
ATOM     18  G   UNL     1       9.997  43.296  21.331  1.00  0.00     0.000 G0
ENDBRANCH  13  17
ENDBRANCH  11  13
ENDBRANCH  10  11
ENDBRANCH   1  10
TORSDOF 0
ENDMDL
MODEL 6
REMARK VINA RESULT:    -4.640      1.961      4.406
REMARK INTER + INTRA:          -6.138
REMARK INTER:                  -6.582
REMARK INTRA:                   0.445
REMARK UNBOUND:                 0.402
REMARK SMILES CC1=CCC(=C(C)C)C(=O)CC(C)=CCC1
REMARK SMILES IDX 12 1 14 2 13 3 15 4 16 5 2 6 1 7 3 8 11 10 9 11 10 12 5 13
REMARK SMILES IDX 6 14 7 15 8 16 4 17
REMARK H PARENT
REMARK Flexibility Score: 60.00
ROOT
ATOM      1  C   UNL     1      11.608  41.318  20.733  1.00  0.00    -0.070 C 
ATOM      2  C   UNL     1      11.674  42.230  19.735  1.00  0.00    -0.027 C 
ATOM      3  C   UNL     1      11.261  39.894  20.378  1.00  0.00     0.039 C 
ENDROOT
BRANCH   2   4
ATOM      4  C   UNL     1      12.125  43.663  19.883  1.00  0.00     0.032 C 
BRANCH   4   5
ATOM      5  C   UNL     1      11.041  44.647  20.348  1.00  0.00     0.034 C 
BRANCH   5   6
ATOM      6  C   UNL     1       9.625  44.191  20.047  1.00  0.00    -0.077 C 
ATOM      7  C   UNL     1       9.109  44.380  18.642  1.00  0.00     0.039 C 
ATOM      8  C   UNL     1       8.762  43.692  20.969  1.00  0.00    -0.023 CG0
ATOM      9  G   UNL     1       9.048  43.271  22.397  1.00  0.00     0.000 G0
ENDBRANCH   5   6
ENDBRANCH   4   5
ENDBRANCH   2   4
BRANCH   1  10
ATOM     10  C   UNL     1      11.780  41.669  22.195  1.00  0.00     0.111 C 
BRANCH  10  11
ATOM     11  C   UNL     1      10.563  41.279  22.995  1.00  0.00     0.163 C 
ATOM     12  O   UNL     1      10.703  40.501  23.977  1.00  0.00    -0.294 OA
BRANCH  11  13
ATOM     13  C   UNL     1       9.201  41.772  22.659  1.00  0.00    -0.002 C 
ATOM     14  C   UNL     1       8.186  40.892  22.439  1.00  0.00    -0.069 C 
ATOM     15  C   UNL     1       8.382  39.414  22.686  1.00  0.00     0.039 C 
ATOM     16  C   UNL     1       6.827  41.356  21.968  1.00  0.00     0.039 C 
BRANCH  13  17
ATOM     17  C   UNL     1       9.054  43.261  22.404  1.00  0.00     0.066 CG0
ATOM     18  G   UNL     1       8.769  43.696  20.979  1.00  0.00     0.000 G0
ENDBRANCH  13  17
ENDBRANCH  11  13
ENDBRANCH  10  11
ENDBRANCH   1  10
TORSDOF 0
ENDMDL
MODEL 7
REMARK VINA RESULT:    -4.633      1.758      3.444
REMARK INTER + INTRA:          -6.127
REMARK INTER:                  -6.969
REMARK INTRA:                   0.842
REMARK UNBOUND:                 0.402
REMARK SMILES CC1=CCC(=C(C)C)C(=O)CC(C)=CCC1
REMARK SMILES IDX 12 1 14 2 13 3 15 4 16 5 2 6 1 7 3 8 11 10 9 11 10 12 5 13
REMARK SMILES IDX 6 14 7 15 8 16 4 17
REMARK H PARENT
REMARK Flexibility Score: 60.00
ROOT
ATOM      1  C   UNL     1       8.812  43.597  21.593  1.00  0.00    -0.070 C 
ATOM      2  C   UNL     1       7.737  42.853  21.243  1.00  0.00    -0.027 C 
ATOM      3  C   UNL     1       9.191  44.762  20.714  1.00  0.00     0.039 C 
ENDROOT
BRANCH   2   4
ATOM      4  C   UNL     1       7.139  41.734  22.061  1.00  0.00     0.032 C 
BRANCH   4   5
ATOM      5  C   UNL     1       8.105  41.047  23.038  1.00  0.00     0.034 C 
BRANCH   5   6
ATOM      6  C   UNL     1       8.648  39.722  22.538  1.00  0.00    -0.077 C 
ATOM      7  C   UNL     1       7.653  38.658  22.143  1.00  0.00     0.039 C 
ATOM      8  C   UNL     1       9.965  39.395  22.487  1.00  0.00    -0.023 CG0
ATOM      9  G   UNL     1      11.168  40.297  22.686  1.00  0.00     0.000 G0
ENDBRANCH   5   6
ENDBRANCH   4   5
ENDBRANCH   2   4
BRANCH   1  10
ATOM     10  C   UNL     1       9.704  43.270  22.771  1.00  0.00     0.111 C 
BRANCH  10  11
ATOM     11  C   UNL     1      11.070  42.828  22.312  1.00  0.00     0.163 C 
ATOM     12  O   UNL     1      12.037  43.632  22.415  1.00  0.00    -0.294 OA
BRANCH  11  13
ATOM     13  C   UNL     1      11.316  41.481  21.733  1.00  0.00    -0.002 C 
ATOM     14  C   UNL     1      11.497  41.331  20.392  1.00  0.00    -0.069 C 
ATOM     15  C   UNL     1      11.610  42.539  19.491  1.00  0.00     0.039 C 
ATOM     16  C   UNL     1      11.617  39.964  19.759  1.00  0.00     0.039 C 
BRANCH  13  17
ATOM     17  C   UNL     1      11.177  40.296  22.671  1.00  0.00     0.066 CG0
ATOM     18  G   UNL     1       9.963  39.406  22.487  1.00  0.00     0.000 G0
ENDBRANCH  13  17
ENDBRANCH  11  13
ENDBRANCH  10  11
ENDBRANCH   1  10
TORSDOF 0
ENDMDL
MODEL 8
REMARK VINA RESULT:    -4.631      4.341      6.844
REMARK INTER + INTRA:          -6.124
REMARK INTER:                  -5.983
REMARK INTRA:                  -0.141
REMARK UNBOUND:                 0.402
REMARK SMILES CC1=CCC(=C(C)C)C(=O)CC(C)=CCC1
REMARK SMILES IDX 12 1 14 2 13 3 15 4 16 5 2 6 1 7 3 8 11 10 9 11 10 12 5 13
REMARK SMILES IDX 6 14 7 15 8 16 4 17
REMARK H PARENT
REMARK Flexibility Score: 60.00
ROOT
ATOM      1  C   UNL     1       9.602  40.511  22.123  1.00  0.00    -0.070 C 
ATOM      2  C   UNL     1       8.293  40.282  21.869  1.00  0.00    -0.027 C 
ATOM      3  C   UNL     1      10.574  40.449  20.973  1.00  0.00     0.039 C 
ENDROOT
BRANCH   2   4
ATOM      4  C   UNL     1       7.166  40.423  22.864  1.00  0.00     0.032 C 
BRANCH   4   5
ATOM      5  C   UNL     1       6.767  39.130  23.591  1.00  0.00     0.034 C 
BRANCH   5   6
ATOM      6  C   UNL     1       6.544  39.305  25.082  1.00  0.00    -0.077 C 
ATOM      7  C   UNL     1       5.226  39.885  25.532  1.00  0.00     0.039 C 
ATOM      8  C   UNL     1       7.472  39.046  26.038  1.00  0.00    -0.023 CG0
ATOM      9  G   UNL     1       8.806  38.340  25.890  1.00  0.00     0.000 G0
ENDBRANCH   5   6
ENDBRANCH   4   5
ENDBRANCH   2   4
BRANCH   1  10
ATOM     10  C   UNL     1      10.153  40.740  23.515  1.00  0.00     0.111 C 
BRANCH  10  11
ATOM     11  C   UNL     1      10.419  39.433  24.216  1.00  0.00     0.163 C 
ATOM     12  O   UNL     1      10.979  38.502  23.577  1.00  0.00    -0.294 OA
BRANCH  11  13
ATOM     13  C   UNL     1      10.035  39.201  25.633  1.00  0.00    -0.002 C 
ATOM     14  C   UNL     1      10.847  39.616  26.643  1.00  0.00    -0.069 C 
ATOM     15  C   UNL     1      12.070  40.456  26.351  1.00  0.00     0.039 C 
ATOM     16  C   UNL     1      10.550  39.280  28.086  1.00  0.00     0.039 C 
BRANCH  13  17
ATOM     17  C   UNL     1       8.809  38.340  25.880  1.00  0.00     0.066 CG0
ATOM     18  G   UNL     1       7.481  39.054  26.039  1.00  0.00     0.000 G0
ENDBRANCH  13  17
ENDBRANCH  11  13
ENDBRANCH  10  11
ENDBRANCH   1  10
TORSDOF 0
ENDMDL
MODEL 9
REMARK VINA RESULT:    -4.449      9.935     12.096
REMARK INTER + INTRA:          -5.868
REMARK INTER:                  -5.871
REMARK INTRA:                   0.003
REMARK UNBOUND:                 0.402
REMARK SMILES CC1=CCC(=C(C)C)C(=O)CC(C)=CCC1
REMARK SMILES IDX 12 1 14 2 13 3 15 4 16 5 2 6 1 7 3 8 11 10 9 11 10 12 5 13
REMARK SMILES IDX 6 14 7 15 8 16 4 17
REMARK H PARENT
REMARK Flexibility Score: 60.00
ROOT
ATOM      1  C   UNL     1       5.596  37.605  26.416  1.00  0.00    -0.070 C 
ATOM      2  C   UNL     1       6.731  37.789  27.130  1.00  0.00    -0.027 C 
ATOM      3  C   UNL     1       5.287  38.574  25.304  1.00  0.00     0.039 C 
ENDROOT
BRANCH   2   4
ATOM      4  C   UNL     1       7.264  36.854  28.189  1.00  0.00     0.032 C 
BRANCH   4   5
ATOM      5  C   UNL     1       7.086  37.335  29.637  1.00  0.00     0.034 C 
BRANCH   5   6
ATOM      6  C   UNL     1       6.738  36.229  30.616  1.00  0.00    -0.077 C 
ATOM      7  C   UNL     1       7.875  35.517  31.306  1.00  0.00     0.039 C 
ATOM      8  C   UNL     1       5.479  35.783  30.861  1.00  0.00    -0.023 CG0
ATOM      9  G   UNL     1       4.161  36.391  30.424  1.00  0.00     0.000 G0
ENDBRANCH   5   6
ENDBRANCH   4   5
ENDBRANCH   2   4
BRANCH   1  10
ATOM     10  C   UNL     1       4.579  36.528  26.730  1.00  0.00     0.111 C 
BRANCH  10  11
ATOM     11  C   UNL     1       3.761  36.891  27.943  1.00  0.00     0.163 C 
ATOM     12  O   UNL     1       3.217  38.027  27.993  1.00  0.00    -0.294 OA
BRANCH  11  13
ATOM     13  C   UNL     1       3.582  35.958  29.086  1.00  0.00    -0.002 C 
ATOM     14  C   UNL     1       2.804  34.848  28.953  1.00  0.00    -0.069 C 
ATOM     15  C   UNL     1       2.241  34.461  27.605  1.00  0.00     0.039 C 
ATOM     16  C   UNL     1       2.496  33.953  30.131  1.00  0.00     0.039 C 
BRANCH  13  17
ATOM     17  C   UNL     1       4.151  36.394  30.424  1.00  0.00     0.066 CG0
ATOM     18  G   UNL     1       5.473  35.784  30.847  1.00  0.00     0.000 G0
ENDBRANCH  13  17
ENDBRANCH  11  13
ENDBRANCH  10  11
ENDBRANCH   1  10
TORSDOF 0
ENDMDL
