MODEL 1
REMARK VINA RESULT:    -5.323      0.000      0.000
REMARK INTER + INTRA:         -10.781
REMARK INTER:                  -9.680
REMARK INTRA:                  -1.100
REMARK UNBOUND:                -1.100
REMARK SMILES CCCCCCCCCCCCCCCC(=O)[O-]
REMARK SMILES IDX 9 1 10 2 11 3 12 4 13 5 14 6 15 7 16 8 17 9 18 10 8 11 7 12
REMARK SMILES IDX 6 13 5 14 4 15 3 16 2 17 1 18
REMARK H PARENT
REMARK Flexibility Score: inf
ROOT
ATOM      1  C   UNL     1      45.282  -5.359  26.612  1.00  0.00     0.000 C 
ENDROOT
BRANCH   1   2
ATOM      2  C   UNL     1      44.718  -4.627  27.839  1.00  0.00     0.000 C 
BRANCH   2   3
ATOM      3  C   UNL     1      43.288  -5.089  28.144  1.00  0.00     0.000 C 
BRANCH   3   4
ATOM      4  C   UNL     1      42.472  -5.244  26.853  1.00  0.00     0.000 C 
BRANCH   4   5
ATOM      5  C   UNL     1      41.114  -4.523  26.911  1.00  0.00     0.000 C 
BRANCH   5   6
ATOM      6  C   UNL     1      39.886  -5.449  27.020  1.00  0.00     0.006 C 
BRANCH   6   7
ATOM      7  C   UNL     1      38.854  -5.277  25.894  1.00  0.00     0.053 C 
BRANCH   7   8
ATOM      8  C   UNL     1      38.330  -6.594  25.410  1.00  0.00     0.041 C 
ATOM      9  O   UNL     1      37.493  -6.637  24.471  1.00  0.00    -0.550 OA
ATOM     10  O   UNL     1      38.740  -7.772  26.022  1.00  0.00    -0.550 OA
ENDBRANCH   7   8
ENDBRANCH   6   7
ENDBRANCH   5   6
ENDBRANCH   4   5
ENDBRANCH   3   4
ENDBRANCH   2   3
ENDBRANCH   1   2
BRANCH   1  11
ATOM     11  C   UNL     1      45.817  -6.763  26.946  1.00  0.00     0.000 C 
BRANCH  11  12
ATOM     12  C   UNL     1      45.785  -7.769  25.777  1.00  0.00    -0.000 C 
BRANCH  12  13
ATOM     13  C   UNL     1      45.633  -7.139  24.379  1.00  0.00    -0.000 C 
BRANCH  13  14
ATOM     14  C   UNL     1      46.469  -7.809  23.271  1.00  0.00    -0.000 C 
BRANCH  14  15
ATOM     15  C   UNL     1      47.690  -6.998  22.793  1.00  0.00    -0.000 C 
BRANCH  15  16
ATOM     16  C   UNL     1      48.429  -6.222  23.898  1.00  0.00    -0.000 C 
BRANCH  16  17
ATOM     17  C   UNL     1      49.453  -7.085  24.650  1.00  0.00    -0.003 C 
ATOM     18  C   UNL     1      50.235  -6.253  25.662  1.00  0.00     0.004 C 
ENDBRANCH  16  17
ENDBRANCH  15  16
ENDBRANCH  14  15
ENDBRANCH  13  14
ENDBRANCH  12  13
ENDBRANCH  11  12
ENDBRANCH   1  11
TORSDOF 14
ENDMDL
MODEL 2
REMARK VINA RESULT:    -5.225      1.149      1.803
REMARK INTER + INTRA:         -10.603
REMARK INTER:                  -9.776
REMARK INTRA:                  -0.827
REMARK UNBOUND:                -1.100
REMARK SMILES CCCCCCCCCCCCCCCC(=O)[O-]
REMARK SMILES IDX 9 1 10 2 11 3 12 4 13 5 14 6 15 7 16 8 17 9 18 10 8 11 7 12
REMARK SMILES IDX 6 13 5 14 4 15 3 16 2 17 1 18
REMARK H PARENT
REMARK Flexibility Score: inf
ROOT
ATOM      1  C   UNL     1      44.468  -4.333  28.167  1.00  0.00     0.000 C 
ENDROOT
BRANCH   1   2
ATOM      2  C   UNL     1      43.220  -5.047  28.705  1.00  0.00     0.000 C 
BRANCH   2   3
ATOM      3  C   UNL     1      41.940  -4.377  28.192  1.00  0.00     0.000 C 
BRANCH   3   4
ATOM      4  C   UNL     1      41.590  -4.869  26.780  1.00  0.00     0.000 C 
BRANCH   4   5
ATOM      5  C   UNL     1      40.141  -4.544  26.374  1.00  0.00     0.000 C 
BRANCH   5   6
ATOM      6  C   UNL     1      39.166  -5.738  26.421  1.00  0.00     0.006 C 
BRANCH   6   7
ATOM      7  C   UNL     1      38.440  -6.022  25.097  1.00  0.00     0.053 C 
BRANCH   7   8
ATOM      8  C   UNL     1      37.427  -7.116  25.238  1.00  0.00     0.041 C 
ATOM      9  O   UNL     1      36.478  -7.213  24.415  1.00  0.00    -0.550 OA
ATOM     10  O   UNL     1      37.510  -8.008  26.300  1.00  0.00    -0.550 OA
ENDBRANCH   7   8
ENDBRANCH   6   7
ENDBRANCH   5   6
ENDBRANCH   4   5
ENDBRANCH   3   4
ENDBRANCH   2   3
ENDBRANCH   1   2
BRANCH   1  11
ATOM     11  C   UNL     1      45.410  -5.275  27.396  1.00  0.00     0.000 C 
BRANCH  11  12
ATOM     12  C   UNL     1      44.847  -6.685  27.126  1.00  0.00    -0.000 C 
BRANCH  12  13
ATOM     13  C   UNL     1      45.703  -7.561  26.190  1.00  0.00    -0.000 C 
BRANCH  13  14
ATOM     14  C   UNL     1      45.249  -7.573  24.717  1.00  0.00    -0.000 C 
BRANCH  14  15
ATOM     15  C   UNL     1      46.390  -7.535  23.681  1.00  0.00    -0.000 C 
BRANCH  15  16
ATOM     16  C   UNL     1      47.766  -7.136  24.243  1.00  0.00    -0.000 C 
BRANCH  16  17
ATOM     17  C   UNL     1      48.900  -7.306  23.220  1.00  0.00    -0.003 C 
ATOM     18  C   UNL     1      48.352  -7.728  21.860  1.00  0.00     0.004 C 
ENDBRANCH  16  17
ENDBRANCH  15  16
ENDBRANCH  14  15
ENDBRANCH  13  14
ENDBRANCH  12  13
ENDBRANCH  11  12
ENDBRANCH   1  11
TORSDOF 14
ENDMDL
MODEL 3
REMARK VINA RESULT:    -5.175      1.184      2.639
REMARK INTER + INTRA:         -10.510
REMARK INTER:                  -9.409
REMARK INTRA:                  -1.101
REMARK UNBOUND:                -1.100
REMARK SMILES CCCCCCCCCCCCCCCC(=O)[O-]
REMARK SMILES IDX 9 1 10 2 11 3 12 4 13 5 14 6 15 7 16 8 17 9 18 10 8 11 7 12
REMARK SMILES IDX 6 13 5 14 4 15 3 16 2 17 1 18
REMARK H PARENT
REMARK Flexibility Score: inf
ROOT
ATOM      1  C   UNL     1      46.296  -4.079  26.905  1.00  0.00     0.000 C 
ENDROOT
BRANCH   1   2
ATOM      2  C   UNL     1      45.590  -5.341  27.421  1.00  0.00     0.000 C 
BRANCH   2   3
ATOM      3  C   UNL     1      44.312  -5.622  26.621  1.00  0.00     0.000 C 
BRANCH   3   4
ATOM      4  C   UNL     1      43.064  -5.435  27.496  1.00  0.00     0.000 C 
BRANCH   4   5
ATOM      5  C   UNL     1      41.829  -4.992  26.692  1.00  0.00     0.000 C 
BRANCH   5   6
ATOM      6  C   UNL     1      40.505  -4.976  27.482  1.00  0.00     0.006 C 
BRANCH   6   7
ATOM      7  C   UNL     1      39.241  -4.896  26.610  1.00  0.00     0.053 C 
BRANCH   7   8
ATOM      8  C   UNL     1      38.858  -6.234  26.057  1.00  0.00     0.041 C 
ATOM      9  O   UNL     1      38.969  -7.269  26.765  1.00  0.00    -0.550 OA
ATOM     10  O   UNL     1      38.411  -6.341  24.746  1.00  0.00    -0.550 OA
ENDBRANCH   7   8
ENDBRANCH   6   7
ENDBRANCH   5   6
ENDBRANCH   4   5
ENDBRANCH   3   4
ENDBRANCH   2   3
ENDBRANCH   1   2
BRANCH   1  11
ATOM     11  C   UNL     1      47.368  -4.383  25.844  1.00  0.00     0.000 C 
BRANCH  11  12
ATOM     12  C   UNL     1      48.667  -5.012  26.390  1.00  0.00    -0.000 C 
BRANCH  12  13
ATOM     13  C   UNL     1      49.752  -5.287  25.331  1.00  0.00    -0.000 C 
BRANCH  13  14
ATOM     14  C   UNL     1      50.016  -6.779  25.046  1.00  0.00    -0.000 C 
BRANCH  14  15
ATOM     15  C   UNL     1      48.771  -7.600  24.654  1.00  0.00    -0.000 C 
BRANCH  15  16
ATOM     16  C   UNL     1      48.516  -7.713  23.140  1.00  0.00    -0.000 C 
BRANCH  16  17
ATOM     17  C   UNL     1      47.085  -7.319  22.745  1.00  0.00    -0.003 C 
ATOM     18  C   UNL     1      46.139  -7.425  23.937  1.00  0.00     0.004 C 
ENDBRANCH  16  17
ENDBRANCH  15  16
ENDBRANCH  14  15
ENDBRANCH  13  14
ENDBRANCH  12  13
ENDBRANCH  11  12
ENDBRANCH   1  11
TORSDOF 14
ENDMDL
MODEL 4
REMARK VINA RESULT:    -5.115      3.727      8.671
REMARK INTER + INTRA:         -10.402
REMARK INTER:                  -9.490
REMARK INTRA:                  -0.912
REMARK UNBOUND:                -1.100
REMARK SMILES CCCCCCCCCCCCCCCC(=O)[O-]
REMARK SMILES IDX 9 1 10 2 11 3 12 4 13 5 14 6 15 7 16 8 17 9 18 10 8 11 7 12
REMARK SMILES IDX 6 13 5 14 4 15 3 16 2 17 1 18
REMARK H PARENT
REMARK Flexibility Score: inf
ROOT
ATOM      1  C   UNL     1      42.103  -5.508  27.971  1.00  0.00     0.000 C 
ENDROOT
BRANCH   1   2
ATOM      2  C   UNL     1      43.625  -5.700  27.923  1.00  0.00     0.000 C 
BRANCH   2   3
ATOM      3  C   UNL     1      44.115  -5.852  26.478  1.00  0.00     0.000 C 
BRANCH   3   4
ATOM      4  C   UNL     1      45.099  -7.023  26.351  1.00  0.00     0.000 C 
BRANCH   4   5
ATOM      5  C   UNL     1      45.214  -7.556  24.912  1.00  0.00     0.000 C 
BRANCH   5   6
ATOM      6  C   UNL     1      46.572  -7.302  24.227  1.00  0.00     0.006 C 
BRANCH   6   7
ATOM      7  C   UNL     1      47.780  -7.325  25.177  1.00  0.00     0.053 C 
BRANCH   7   8
ATOM      8  C   UNL     1      48.470  -5.997  25.237  1.00  0.00     0.041 C 
ATOM      9  O   UNL     1      49.721  -5.925  25.112  1.00  0.00    -0.550 OA
ATOM     10  O   UNL     1      47.734  -4.841  25.466  1.00  0.00    -0.550 OA
ENDBRANCH   7   8
ENDBRANCH   6   7
ENDBRANCH   5   6
ENDBRANCH   4   5
ENDBRANCH   3   4
ENDBRANCH   2   3
ENDBRANCH   1   2
BRANCH   1  11
ATOM     11  C   UNL     1      41.554  -4.763  26.741  1.00  0.00     0.000 C 
BRANCH  11  12
ATOM     12  C   UNL     1      40.031  -4.888  26.528  1.00  0.00    -0.000 C 
BRANCH  12  13
ATOM     13  C   UNL     1      39.308  -5.816  27.523  1.00  0.00    -0.000 C 
BRANCH  13  14
ATOM     14  C   UNL     1      38.762  -7.122  26.913  1.00  0.00    -0.000 C 
BRANCH  14  15
ATOM     15  C   UNL     1      38.724  -7.158  25.372  1.00  0.00    -0.000 C 
BRANCH  15  16
ATOM     16  C   UNL     1      37.402  -6.683  24.743  1.00  0.00    -0.000 C 
BRANCH  16  17
ATOM     17  C   UNL     1      36.183  -7.462  25.258  1.00  0.00    -0.003 C 
ATOM     18  C   UNL     1      34.973  -7.250  24.353  1.00  0.00     0.004 C 
ENDBRANCH  16  17
ENDBRANCH  15  16
ENDBRANCH  14  15
ENDBRANCH  13  14
ENDBRANCH  12  13
ENDBRANCH  11  12
ENDBRANCH   1  11
TORSDOF 14
ENDMDL
MODEL 5
REMARK VINA RESULT:    -5.087      4.451      5.384
REMARK INTER + INTRA:         -10.351
REMARK INTER:                  -8.929
REMARK INTRA:                  -1.422
REMARK UNBOUND:                -1.100
REMARK SMILES CCCCCCCCCCCCCCCC(=O)[O-]
REMARK SMILES IDX 9 1 10 2 11 3 12 4 13 5 14 6 15 7 16 8 17 9 18 10 8 11 7 12
REMARK SMILES IDX 6 13 5 14 4 15 3 16 2 17 1 18
REMARK H PARENT
REMARK Flexibility Score: inf
ROOT
ATOM      1  C   UNL     1      43.823  -5.710  26.658  1.00  0.00     0.000 C 
ENDROOT
BRANCH   1   2
ATOM      2  C   UNL     1      42.964  -5.071  27.759  1.00  0.00     0.000 C 
BRANCH   2   3
ATOM      3  C   UNL     1      43.806  -4.146  28.645  1.00  0.00     0.000 C 
BRANCH   3   4
ATOM      4  C   UNL     1      43.282  -2.704  28.589  1.00  0.00     0.000 C 
BRANCH   4   5
ATOM      5  C   UNL     1      43.808  -1.829  29.741  1.00  0.00     0.000 C 
BRANCH   5   6
ATOM      6  C   UNL     1      43.112  -2.050  31.100  1.00  0.00     0.006 C 
BRANCH   6   7
ATOM      7  C   UNL     1      42.974  -0.784  31.960  1.00  0.00     0.053 C 
BRANCH   7   8
ATOM      8  C   UNL     1      42.491   0.386  31.160  1.00  0.00     0.041 C 
ATOM      9  O   UNL     1      41.325   0.392  30.685  1.00  0.00    -0.550 OA
ATOM     10  O   UNL     1      43.342   1.455  30.909  1.00  0.00    -0.550 OA
ENDBRANCH   7   8
ENDBRANCH   6   7
ENDBRANCH   5   6
ENDBRANCH   4   5
ENDBRANCH   3   4
ENDBRANCH   2   3
ENDBRANCH   1   2
BRANCH   1  11
ATOM     11  C   UNL     1      44.913  -6.644  27.214  1.00  0.00     0.000 C 
BRANCH  11  12
ATOM     12  C   UNL     1      45.422  -7.714  26.227  1.00  0.00    -0.000 C 
BRANCH  12  13
ATOM     13  C   UNL     1      45.416  -7.289  24.746  1.00  0.00    -0.000 C 
BRANCH  13  14
ATOM     14  C   UNL     1      46.780  -7.394  24.035  1.00  0.00    -0.000 C 
BRANCH  14  15
ATOM     15  C   UNL     1      47.980  -6.856  24.841  1.00  0.00    -0.000 C 
BRANCH  15  16
ATOM     16  C   UNL     1      48.096  -5.322  24.889  1.00  0.00    -0.000 C 
BRANCH  16  17
ATOM     17  C   UNL     1      47.922  -4.757  26.307  1.00  0.00    -0.003 C 
ATOM     18  C   UNL     1      46.856  -3.666  26.336  1.00  0.00     0.004 C 
ENDBRANCH  16  17
ENDBRANCH  15  16
ENDBRANCH  14  15
ENDBRANCH  13  14
ENDBRANCH  12  13
ENDBRANCH  11  12
ENDBRANCH   1  11
TORSDOF 14
ENDMDL
MODEL 6
REMARK VINA RESULT:    -5.018      3.780      4.860
REMARK INTER + INTRA:         -10.225
REMARK INTER:                  -9.171
REMARK INTRA:                  -1.053
REMARK UNBOUND:                -1.100
REMARK SMILES CCCCCCCCCCCCCCCC(=O)[O-]
REMARK SMILES IDX 9 1 10 2 11 3 12 4 13 5 14 6 15 7 16 8 17 9 18 10 8 11 7 12
REMARK SMILES IDX 6 13 5 14 4 15 3 16 2 17 1 18
REMARK H PARENT
REMARK Flexibility Score: inf
ROOT
ATOM      1  C   UNL     1      43.923  -5.114  27.282  1.00  0.00     0.000 C 
ENDROOT
BRANCH   1   2
ATOM      2  C   UNL     1      42.406  -4.896  27.194  1.00  0.00     0.000 C 
BRANCH   2   3
ATOM      3  C   UNL     1      41.773  -4.864  28.590  1.00  0.00     0.000 C 
BRANCH   3   4
ATOM      4  C   UNL     1      41.295  -3.449  28.945  1.00  0.00     0.000 C 
BRANCH   4   5
ATOM      5  C   UNL     1      42.090  -2.821  30.104  1.00  0.00     0.000 C 
BRANCH   5   6
ATOM      6  C   UNL     1      43.571  -2.524  29.795  1.00  0.00     0.006 C 
BRANCH   6   7
ATOM      7  C   UNL     1      43.801  -1.337  28.847  1.00  0.00     0.053 C 
BRANCH   7   8
ATOM      8  C   UNL     1      45.225  -1.253  28.391  1.00  0.00     0.041 C 
ATOM      9  O   UNL     1      45.850  -0.162  28.458  1.00  0.00    -0.550 OA
ATOM     10  O   UNL     1      45.851  -2.372  27.858  1.00  0.00    -0.550 OA
ENDBRANCH   7   8
ENDBRANCH   6   7
ENDBRANCH   5   6
ENDBRANCH   4   5
ENDBRANCH   3   4
ENDBRANCH   2   3
ENDBRANCH   1   2
BRANCH   1  11
ATOM     11  C   UNL     1      44.487  -5.893  26.081  1.00  0.00     0.000 C 
BRANCH  11  12
ATOM     12  C   UNL     1      45.996  -6.204  26.154  1.00  0.00    -0.000 C 
BRANCH  12  13
ATOM     13  C   UNL     1      46.422  -7.529  25.494  1.00  0.00    -0.000 C 
BRANCH  13  14
ATOM     14  C   UNL     1      46.907  -7.402  24.036  1.00  0.00    -0.000 C 
BRANCH  14  15
ATOM     15  C   UNL     1      48.372  -6.950  23.872  1.00  0.00    -0.000 C 
BRANCH  15  16
ATOM     16  C   UNL     1      49.339  -7.475  24.948  1.00  0.00    -0.000 C 
BRANCH  16  17
ATOM     17  C   UNL     1      50.413  -6.448  25.336  1.00  0.00    -0.003 C 
ATOM     18  C   UNL     1      49.802  -5.277  26.100  1.00  0.00     0.004 C 
ENDBRANCH  16  17
ENDBRANCH  15  16
ENDBRANCH  14  15
ENDBRANCH  13  14
ENDBRANCH  12  13
ENDBRANCH  11  12
ENDBRANCH   1  11
TORSDOF 14
ENDMDL
MODEL 7
REMARK VINA RESULT:    -4.999      3.981      9.266
REMARK INTER + INTRA:         -10.190
REMARK INTER:                  -9.637
REMARK INTRA:                  -0.553
REMARK UNBOUND:                -1.100
REMARK SMILES CCCCCCCCCCCCCCCC(=O)[O-]
REMARK SMILES IDX 9 1 10 2 11 3 12 4 13 5 14 6 15 7 16 8 17 9 18 10 8 11 7 12
REMARK SMILES IDX 6 13 5 14 4 15 3 16 2 17 1 18
REMARK H PARENT
REMARK Flexibility Score: inf
ROOT
ATOM      1  C   UNL     1      41.731  -5.042  26.743  1.00  0.00     0.000 C 
ENDROOT
BRANCH   1   2
ATOM      2  C   UNL     1      43.011  -5.507  27.453  1.00  0.00     0.000 C 
BRANCH   2   3
ATOM      3  C   UNL     1      44.157  -5.697  26.452  1.00  0.00     0.000 C 
BRANCH   3   4
ATOM      4  C   UNL     1      45.389  -6.308  27.135  1.00  0.00     0.000 C 
BRANCH   4   5
ATOM      5  C   UNL     1      45.919  -7.556  26.409  1.00  0.00     0.000 C 
BRANCH   5   6
ATOM      6  C   UNL     1      46.342  -7.330  24.943  1.00  0.00     0.006 C 
BRANCH   6   7
ATOM      7  C   UNL     1      47.850  -7.472  24.684  1.00  0.00     0.053 C 
BRANCH   7   8
ATOM      8  C   UNL     1      48.600  -6.224  25.038  1.00  0.00     0.041 C 
ATOM      9  O   UNL     1      48.104  -5.094  24.787  1.00  0.00    -0.550 OA
ATOM     10  O   UNL     1      49.862  -6.310  25.612  1.00  0.00    -0.550 OA
ENDBRANCH   7   8
ENDBRANCH   6   7
ENDBRANCH   5   6
ENDBRANCH   4   5
ENDBRANCH   3   4
ENDBRANCH   2   3
ENDBRANCH   1   2
BRANCH   1  11
ATOM     11  C   UNL     1      40.462  -5.280  27.580  1.00  0.00     0.000 C 
BRANCH  11  12
ATOM     12  C   UNL     1      39.140  -5.246  26.785  1.00  0.00    -0.000 C 
BRANCH  12  13
ATOM     13  C   UNL     1      38.754  -6.574  26.106  1.00  0.00    -0.000 C 
BRANCH  13  14
ATOM     14  C   UNL     1      37.909  -6.426  24.825  1.00  0.00    -0.000 C 
BRANCH  14  15
ATOM     15  C   UNL     1      36.616  -7.265  24.794  1.00  0.00    -0.000 C 
BRANCH  15  16
ATOM     16  C   UNL     1      35.622  -6.888  23.681  1.00  0.00    -0.000 C 
BRANCH  16  17
ATOM     17  C   UNL     1      34.157  -6.984  24.132  1.00  0.00    -0.003 C 
ATOM     18  C   UNL     1      34.058  -7.116  25.649  1.00  0.00     0.004 C 
ENDBRANCH  16  17
ENDBRANCH  15  16
ENDBRANCH  14  15
ENDBRANCH  13  14
ENDBRANCH  12  13
ENDBRANCH  11  12
ENDBRANCH   1  11
TORSDOF 14
ENDMDL
MODEL 8
REMARK VINA RESULT:    -4.914      3.164      4.388
REMARK INTER + INTRA:         -10.036
REMARK INTER:                  -8.748
REMARK INTRA:                  -1.289
REMARK UNBOUND:                -1.100
REMARK SMILES CCCCCCCCCCCCCCCC(=O)[O-]
REMARK SMILES IDX 9 1 10 2 11 3 12 4 13 5 14 6 15 7 16 8 17 9 18 10 8 11 7 12
REMARK SMILES IDX 6 13 5 14 4 15 3 16 2 17 1 18
REMARK H PARENT
REMARK Flexibility Score: inf
ROOT
ATOM      1  C   UNL     1      46.280  -4.180  26.987  1.00  0.00     0.000 C 
ENDROOT
BRANCH   1   2
ATOM      2  C   UNL     1      45.685  -5.520  27.445  1.00  0.00     0.000 C 
BRANCH   2   3
ATOM      3  C   UNL     1      44.249  -5.686  26.934  1.00  0.00     0.000 C 
BRANCH   3   4
ATOM      4  C   UNL     1      43.265  -5.846  28.102  1.00  0.00     0.000 C 
BRANCH   4   5
ATOM      5  C   UNL     1      41.876  -5.255  27.801  1.00  0.00     0.000 C 
BRANCH   5   6
ATOM      6  C   UNL     1      41.241  -4.454  28.955  1.00  0.00     0.006 C 
BRANCH   6   7
ATOM      7  C   UNL     1      42.245  -3.918  29.989  1.00  0.00     0.053 C 
BRANCH   7   8
ATOM      8  C   UNL     1      42.613  -2.491  29.724  1.00  0.00     0.041 C 
ATOM      9  O   UNL     1      41.717  -1.636  29.496  1.00  0.00    -0.550 OA
ATOM     10  O   UNL     1      43.949  -2.112  29.694  1.00  0.00    -0.550 OA
ENDBRANCH   7   8
ENDBRANCH   6   7
ENDBRANCH   5   6
ENDBRANCH   4   5
ENDBRANCH   3   4
ENDBRANCH   2   3
ENDBRANCH   1   2
BRANCH   1  11
ATOM     11  C   UNL     1      47.349  -4.343  25.892  1.00  0.00     0.000 C 
BRANCH  11  12
ATOM     12  C   UNL     1      48.728  -4.822  26.391  1.00  0.00    -0.000 C 
BRANCH  12  13
ATOM     13  C   UNL     1      49.658  -5.382  25.298  1.00  0.00    -0.000 C 
BRANCH  13  14
ATOM     14  C   UNL     1      49.754  -6.920  25.254  1.00  0.00    -0.000 C 
BRANCH  14  15
ATOM     15  C   UNL     1      48.470  -7.643  24.798  1.00  0.00    -0.000 C 
BRANCH  15  16
ATOM     16  C   UNL     1      48.206  -7.604  23.282  1.00  0.00    -0.000 C 
BRANCH  16  17
ATOM     17  C   UNL     1      46.718  -7.430  22.941  1.00  0.00    -0.003 C 
ATOM     18  C   UNL     1      45.851  -7.560  24.190  1.00  0.00     0.004 C 
ENDBRANCH  16  17
ENDBRANCH  15  16
ENDBRANCH  14  15
ENDBRANCH  13  14
ENDBRANCH  12  13
ENDBRANCH  11  12
ENDBRANCH   1  11
TORSDOF 14
ENDMDL
MODEL 9
REMARK VINA RESULT:    -4.827      4.230      7.740
REMARK INTER + INTRA:          -9.877
REMARK INTER:                  -8.614
REMARK INTRA:                  -1.264
REMARK UNBOUND:                -1.100
REMARK SMILES CCCCCCCCCCCCCCCC(=O)[O-]
REMARK SMILES IDX 9 1 10 2 11 3 12 4 13 5 14 6 15 7 16 8 17 9 18 10 8 11 7 12
REMARK SMILES IDX 6 13 5 14 4 15 3 16 2 17 1 18
REMARK H PARENT
REMARK Flexibility Score: inf
ROOT
ATOM      1  C   UNL     1      42.382  -5.871  29.447  1.00  0.00     0.000 C 
ENDROOT
BRANCH   1   2
ATOM      2  C   UNL     1      43.567  -5.350  28.620  1.00  0.00     0.000 C 
BRANCH   2   3
ATOM      3  C   UNL     1      43.304  -5.512  27.119  1.00  0.00     0.000 C 
BRANCH   3   4
ATOM      4  C   UNL     1      44.622  -5.567  26.332  1.00  0.00     0.000 C 
BRANCH   4   5
ATOM      5  C   UNL     1      45.351  -6.915  26.479  1.00  0.00     0.000 C 
BRANCH   5   6
ATOM      6  C   UNL     1      46.093  -7.398  25.216  1.00  0.00     0.006 C 
BRANCH   6   7
ATOM      7  C   UNL     1      47.625  -7.346  25.316  1.00  0.00     0.053 C 
BRANCH   7   8
ATOM      8  C   UNL     1      48.162  -5.988  24.983  1.00  0.00     0.041 C 
ATOM      9  O   UNL     1      48.539  -5.725  23.811  1.00  0.00    -0.550 OA
ATOM     10  O   UNL     1      48.280  -5.024  25.977  1.00  0.00    -0.550 OA
ENDBRANCH   7   8
ENDBRANCH   6   7
ENDBRANCH   5   6
ENDBRANCH   4   5
ENDBRANCH   3   4
ENDBRANCH   2   3
ENDBRANCH   1   2
BRANCH   1  11
ATOM     11  C   UNL     1      42.483  -5.503  30.937  1.00  0.00     0.000 C 
BRANCH  11  12
ATOM     12  C   UNL     1      41.815  -4.169  31.327  1.00  0.00    -0.000 C 
BRANCH  12  13
ATOM     13  C   UNL     1      41.002  -3.495  30.205  1.00  0.00    -0.000 C 
BRANCH  13  14
ATOM     14  C   UNL     1      41.459  -2.069  29.838  1.00  0.00    -0.000 C 
BRANCH  14  15
ATOM     15  C   UNL     1      42.659  -1.538  30.649  1.00  0.00    -0.000 C 
BRANCH  15  16
ATOM     16  C   UNL     1      43.776  -0.892  29.810  1.00  0.00    -0.000 C 
BRANCH  16  17
ATOM     17  C   UNL     1      44.435  -1.879  28.835  1.00  0.00    -0.003 C 
ATOM     18  C   UNL     1      45.548  -1.203  28.039  1.00  0.00     0.004 C 
ENDBRANCH  16  17
ENDBRANCH  15  16
ENDBRANCH  14  15
ENDBRANCH  13  14
ENDBRANCH  12  13
ENDBRANCH  11  12
ENDBRANCH   1  11
TORSDOF 14
ENDMDL
