MODEL 1
REMARK VINA RESULT:    -3.313      0.000      0.000
REMARK INTER + INTRA:          -4.232
REMARK INTER:                  -4.088
REMARK INTRA:                  -0.144
REMARK UNBOUND:                -0.144
REMARK SMILES C=CC[C@@H](C)C(=O)CC
REMARK SMILES IDX 4 1 5 2 6 3 7 4 8 5 9 6 3 7 2 8 1 9
REMARK H PARENT
REMARK Flexibility Score: inf
ROOT
ATOM      1  C   UNL     1      -0.023  -3.936  18.308  1.00  0.00     0.057 C 
ATOM      2  C   UNL     1      -1.158  -4.819  17.774  1.00  0.00     0.016 C 
ENDROOT
BRANCH   1   3
ATOM      3  C   UNL     1       0.396  -4.412  19.684  1.00  0.00     0.135 C 
ATOM      4  O   UNL     1       1.477  -4.965  19.831  1.00  0.00    -0.299 OA
BRANCH   3   5
ATOM      5  C   UNL     1      -0.508  -4.238  20.876  1.00  0.00     0.072 C 
ATOM      6  C   UNL     1      -0.023  -5.073  22.057  1.00  0.00     0.012 C 
ENDBRANCH   3   5
ENDBRANCH   1   3
BRANCH   1   7
ATOM      7  C   UNL     1       1.166  -3.935  17.328  1.00  0.00     0.038 C 
BRANCH   7   8
ATOM      8  C   UNL     1       0.726  -3.576  15.932  1.00  0.00    -0.034 C 
ATOM      9  C   UNL     1       1.315  -2.600  15.234  1.00  0.00     0.004 C 
ENDBRANCH   7   8
ENDBRANCH   1   7
TORSDOF 4
ENDMDL
MODEL 2
REMARK VINA RESULT:    -3.297      1.839      2.497
REMARK INTER + INTRA:          -4.212
REMARK INTER:                  -3.818
REMARK INTRA:                  -0.394
REMARK UNBOUND:                -0.144
REMARK SMILES C=CC[C@@H](C)C(=O)CC
REMARK SMILES IDX 4 1 5 2 6 3 7 4 8 5 9 6 3 7 2 8 1 9
REMARK H PARENT
REMARK Flexibility Score: inf
ROOT
ATOM      1  C   UNL     1       0.346  -3.682  17.559  1.00  0.00     0.057 C 
ATOM      2  C   UNL     1      -0.872  -4.577  17.815  1.00  0.00     0.016 C 
ENDROOT
BRANCH   1   3
ATOM      3  C   UNL     1       1.462  -4.047  18.518  1.00  0.00     0.135 C 
ATOM      4  O   UNL     1       1.450  -5.135  19.075  1.00  0.00    -0.299 OA
BRANCH   3   5
ATOM      5  C   UNL     1       2.579  -3.081  18.816  1.00  0.00     0.072 C 
ATOM      6  C   UNL     1       3.895  -3.565  18.213  1.00  0.00     0.012 C 
ENDBRANCH   3   5
ENDBRANCH   1   3
BRANCH   1   7
ATOM      7  C   UNL     1       0.804  -3.799  16.093  1.00  0.00     0.038 C 
BRANCH   7   8
ATOM      8  C   UNL     1       1.069  -2.444  15.491  1.00  0.00    -0.034 C 
ATOM      9  C   UNL     1       2.254  -2.126  14.962  1.00  0.00     0.004 C 
ENDBRANCH   7   8
ENDBRANCH   1   7
TORSDOF 4
ENDMDL
MODEL 3
REMARK VINA RESULT:    -3.284      2.985      5.074
REMARK INTER + INTRA:          -4.196
REMARK INTER:                  -3.902
REMARK INTRA:                  -0.294
REMARK UNBOUND:                -0.144
REMARK SMILES C=CC[C@@H](C)C(=O)CC
REMARK SMILES IDX 4 1 5 2 6 3 7 4 8 5 9 6 3 7 2 8 1 9
REMARK H PARENT
REMARK Flexibility Score: inf
ROOT
ATOM      1  C   UNL     1       1.278  -2.426  15.242  1.00  0.00     0.057 C 
ATOM      2  C   UNL     1       0.739  -1.229  16.034  1.00  0.00     0.016 C 
ENDROOT
BRANCH   1   3
ATOM      3  C   UNL     1       2.778  -2.294  15.069  1.00  0.00     0.135 C 
ATOM      4  O   UNL     1       3.240  -2.043  13.964  1.00  0.00    -0.299 OA
BRANCH   3   5
ATOM      5  C   UNL     1       3.716  -2.488  16.231  1.00  0.00     0.072 C 
ATOM      6  C   UNL     1       4.677  -3.644  15.970  1.00  0.00     0.012 C 
ENDBRANCH   3   5
ENDBRANCH   1   3
BRANCH   1   7
ATOM      7  C   UNL     1       0.908  -3.748  15.943  1.00  0.00     0.038 C 
BRANCH   7   8
ATOM      8  C   UNL     1       0.265  -3.498  17.282  1.00  0.00    -0.034 C 
ATOM      9  C   UNL     1      -0.543  -4.394  17.856  1.00  0.00     0.004 C 
ENDBRANCH   7   8
ENDBRANCH   1   7
TORSDOF 4
ENDMDL
MODEL 4
REMARK VINA RESULT:    -3.282      1.473      2.334
REMARK INTER + INTRA:          -4.194
REMARK INTER:                  -3.949
REMARK INTRA:                  -0.245
REMARK UNBOUND:                -0.144
REMARK SMILES C=CC[C@@H](C)C(=O)CC
REMARK SMILES IDX 4 1 5 2 6 3 7 4 8 5 9 6 3 7 2 8 1 9
REMARK H PARENT
REMARK Flexibility Score: inf
ROOT
ATOM      1  C   UNL     1       1.681  -3.763  17.328  1.00  0.00     0.057 C 
ATOM      2  C   UNL     1       2.149  -2.472  18.009  1.00  0.00     0.016 C 
ENDROOT
BRANCH   1   3
ATOM      3  C   UNL     1       0.844  -4.579  18.293  1.00  0.00     0.135 C 
ATOM      4  O   UNL     1       1.388  -5.169  19.217  1.00  0.00    -0.299 OA
BRANCH   3   5
ATOM      5  C   UNL     1      -0.648  -4.697  18.123  1.00  0.00     0.072 C 
ATOM      6  C   UNL     1      -1.385  -3.910  19.202  1.00  0.00     0.012 C 
ENDBRANCH   3   5
ENDBRANCH   1   3
BRANCH   1   7
ATOM      7  C   UNL     1       0.899  -3.442  16.040  1.00  0.00     0.038 C 
BRANCH   7   8
ATOM      8  C   UNL     1       1.543  -2.315  15.274  1.00  0.00    -0.034 C 
ATOM      9  C   UNL     1       0.856  -1.229  14.905  1.00  0.00     0.004 C 
ENDBRANCH   7   8
ENDBRANCH   1   7
TORSDOF 4
ENDMDL
MODEL 5
REMARK VINA RESULT:    -3.277      8.426      9.218
REMARK INTER + INTRA:          -4.187
REMARK INTER:                  -3.956
REMARK INTRA:                  -0.231
REMARK UNBOUND:                -0.144
REMARK SMILES C=CC[C@@H](C)C(=O)CC
REMARK SMILES IDX 4 1 5 2 6 3 7 4 8 5 9 6 3 7 2 8 1 9
REMARK H PARENT
REMARK Flexibility Score: inf
ROOT
ATOM      1  C   UNL     1       3.076   2.361  23.960  1.00  0.00     0.057 C 
ATOM      2  C   UNL     1       2.164   1.203  23.538  1.00  0.00     0.016 C 
ENDROOT
BRANCH   1   3
ATOM      3  C   UNL     1       4.449   2.184  23.344  1.00  0.00     0.135 C 
ATOM      4  O   UNL     1       4.873   3.022  22.559  1.00  0.00    -0.299 OA
BRANCH   3   5
ATOM      5  C   UNL     1       5.296   0.981  23.663  1.00  0.00     0.072 C 
ATOM      6  C   UNL     1       5.992   1.145  25.012  1.00  0.00     0.012 C 
ENDBRANCH   3   5
ENDBRANCH   1   3
BRANCH   1   7
ATOM      7  C   UNL     1       2.451   3.712  23.561  1.00  0.00     0.038 C 
BRANCH   7   8
ATOM      8  C   UNL     1       1.370   3.533  22.526  1.00  0.00    -0.034 C 
ATOM      9  C   UNL     1       0.363   4.402  22.399  1.00  0.00     0.004 C 
ENDBRANCH   7   8
ENDBRANCH   1   7
TORSDOF 4
ENDMDL
MODEL 6
REMARK VINA RESULT:    -3.256      7.810      8.877
REMARK INTER + INTRA:          -4.161
REMARK INTER:                  -3.679
REMARK INTRA:                  -0.482
REMARK UNBOUND:                -0.144
REMARK SMILES C=CC[C@@H](C)C(=O)CC
REMARK SMILES IDX 4 1 5 2 6 3 7 4 8 5 9 6 3 7 2 8 1 9
REMARK H PARENT
REMARK Flexibility Score: inf
ROOT
ATOM      1  C   UNL     1       1.416   3.308  22.545  1.00  0.00     0.057 C 
ATOM      2  C   UNL     1       0.465   4.508  22.471  1.00  0.00     0.016 C 
ENDROOT
BRANCH   1   3
ATOM      3  C   UNL     1       1.996   3.026  21.173  1.00  0.00     0.135 C 
ATOM      4  O   UNL     1       2.808   3.801  20.688  1.00  0.00    -0.299 OA
BRANCH   3   5
ATOM      5  C   UNL     1       1.571   1.816  20.383  1.00  0.00     0.072 C 
ATOM      6  C   UNL     1       1.009   0.734  21.300  1.00  0.00     0.012 C 
ENDBRANCH   3   5
ENDBRANCH   1   3
BRANCH   1   7
ATOM      7  C   UNL     1       2.526   3.563  23.583  1.00  0.00     0.038 C 
BRANCH   7   8
ATOM      8  C   UNL     1       3.293   2.302  23.887  1.00  0.00    -0.034 C 
ATOM      9  C   UNL     1       2.806   1.357  24.696  1.00  0.00     0.004 C 
ENDBRANCH   7   8
ENDBRANCH   1   7
TORSDOF 4
ENDMDL
MODEL 7
REMARK VINA RESULT:    -3.245      1.544      3.758
REMARK INTER + INTRA:          -4.148
REMARK INTER:                  -3.643
REMARK INTRA:                  -0.505
REMARK UNBOUND:                -0.144
REMARK SMILES C=CC[C@@H](C)C(=O)CC
REMARK SMILES IDX 4 1 5 2 6 3 7 4 8 5 9 6 3 7 2 8 1 9
REMARK H PARENT
REMARK Flexibility Score: inf
ROOT
ATOM      1  C   UNL     1       0.076  -4.423  18.564  1.00  0.00     0.057 C 
ATOM      2  C   UNL     1      -1.210  -4.809  17.823  1.00  0.00     0.016 C 
ENDROOT
BRANCH   1   3
ATOM      3  C   UNL     1       1.131  -3.983  17.569  1.00  0.00     0.135 C 
ATOM      4  O   UNL     1       2.271  -3.761  17.954  1.00  0.00    -0.299 OA
BRANCH   3   5
ATOM      5  C   UNL     1       0.796  -3.790  16.113  1.00  0.00     0.072 C 
ATOM      6  C   UNL     1       1.132  -2.373  15.658  1.00  0.00     0.012 C 
ENDBRANCH   3   5
ENDBRANCH   1   3
BRANCH   1   7
ATOM      7  C   UNL     1      -0.211  -3.323  19.604  1.00  0.00     0.038 C 
BRANCH   7   8
ATOM      8  C   UNL     1      -1.209  -2.322  19.083  1.00  0.00    -0.034 C 
ATOM      9  C   UNL     1      -0.849  -1.088  18.719  1.00  0.00     0.004 C 
ENDBRANCH   7   8
ENDBRANCH   1   7
TORSDOF 4
ENDMDL
MODEL 8
REMARK VINA RESULT:    -3.227      7.992      8.811
REMARK INTER + INTRA:          -4.125
REMARK INTER:                  -3.689
REMARK INTRA:                  -0.436
REMARK UNBOUND:                -0.144
REMARK SMILES C=CC[C@@H](C)C(=O)CC
REMARK SMILES IDX 4 1 5 2 6 3 7 4 8 5 9 6 3 7 2 8 1 9
REMARK H PARENT
REMARK Flexibility Score: inf
ROOT
ATOM      1  C   UNL     1       3.166   2.487  23.107  1.00  0.00     0.057 C 
ATOM      2  C   UNL     1       4.415   2.878  22.307  1.00  0.00     0.016 C 
ENDROOT
BRANCH   1   3
ATOM      3  C   UNL     1       3.563   1.636  24.297  1.00  0.00     0.135 C 
ATOM      4  O   UNL     1       4.732   1.607  24.658  1.00  0.00    -0.299 OA
BRANCH   3   5
ATOM      5  C   UNL     1       2.546   0.803  25.032  1.00  0.00     0.072 C 
ATOM      6  C   UNL     1       1.568   0.150  24.060  1.00  0.00     0.012 C 
ENDBRANCH   3   5
ENDBRANCH   1   3
BRANCH   1   7
ATOM      7  C   UNL     1       2.392   3.744  23.548  1.00  0.00     0.038 C 
BRANCH   7   8
ATOM      8  C   UNL     1       1.292   4.080  22.575  1.00  0.00    -0.034 C 
ATOM      9  C   UNL     1       0.483   3.143  22.072  1.00  0.00     0.004 C 
ENDBRANCH   7   8
ENDBRANCH   1   7
TORSDOF 4
ENDMDL
MODEL 9
REMARK VINA RESULT:    -3.221      2.931      5.121
REMARK INTER + INTRA:          -4.119
REMARK INTER:                  -3.830
REMARK INTRA:                  -0.289
REMARK UNBOUND:                -0.144
REMARK SMILES C=CC[C@@H](C)C(=O)CC
REMARK SMILES IDX 4 1 5 2 6 3 7 4 8 5 9 6 3 7 2 8 1 9
REMARK H PARENT
REMARK Flexibility Score: inf
ROOT
ATOM      1  C   UNL     1       1.848  -2.646  16.327  1.00  0.00     0.057 C 
ATOM      2  C   UNL     1       3.248  -3.240  16.528  1.00  0.00     0.016 C 
ENDROOT
BRANCH   1   3
ATOM      3  C   UNL     1       1.810  -1.843  15.042  1.00  0.00     0.135 C 
ATOM      4  O   UNL     1       2.684  -2.004  14.201  1.00  0.00    -0.299 OA
BRANCH   3   5
ATOM      5  C   UNL     1       0.725  -0.830  14.789  1.00  0.00     0.072 C 
ATOM      6  C   UNL     1       0.321  -0.128  16.083  1.00  0.00     0.012 C 
ENDBRANCH   3   5
ENDBRANCH   1   3
BRANCH   1   7
ATOM      7  C   UNL     1       0.785  -3.762  16.324  1.00  0.00     0.038 C 
BRANCH   7   8
ATOM      8  C   UNL     1      -0.051  -3.726  17.577  1.00  0.00    -0.034 C 
ATOM      9  C   UNL     1      -0.894  -4.713  17.892  1.00  0.00     0.004 C 
ENDBRANCH   7   8
ENDBRANCH   1   7
TORSDOF 4
ENDMDL
