MODEL 1
REMARK VINA RESULT:    -0.999      0.000      0.000
REMARK INTER + INTRA:          -0.999
REMARK INTER:                  -0.999
REMARK INTRA:                   0.000
REMARK UNBOUND:                 0.000
REMARK SMILES c1cc[nH]c1
REMARK SMILES IDX 1 1 5 2 4 3 3 4 2 5
REMARK H PARENT 4 6
REMARK Flexibility Score: inf
ROOT
ATOM      1  C   UNL     1     127.695  29.005 -16.828  1.00  0.00     0.019 A 
ATOM      2  C   UNL     1     127.414  29.498 -18.086  1.00  0.00     0.082 A 
ATOM      3  N   UNL     1     127.657  30.821 -18.125  1.00  0.00    -0.368 N 
ATOM      4  C   UNL     1     128.089  31.180 -16.903  1.00  0.00     0.082 A 
ATOM      5  C   UNL     1     128.125  30.078 -16.073  1.00  0.00     0.019 A 
ATOM      6  H   UNL     1     127.531  31.450 -18.948  1.00  0.00     0.165 HD
ENDROOT
TORSDOF 0
ENDMDL
MODEL 2
REMARK VINA RESULT:    -0.730      1.315      2.207
REMARK INTER + INTRA:          -0.730
REMARK INTER:                  -0.730
REMARK INTRA:                   0.000
REMARK UNBOUND:                 0.000
REMARK SMILES c1cc[nH]c1
REMARK SMILES IDX 1 1 5 2 4 3 3 4 2 5
REMARK H PARENT 4 6
REMARK Flexibility Score: inf
ROOT
ATOM      1  C   UNL     1     128.124  30.815 -16.678  1.00  0.00     0.019 A 
ATOM      2  C   UNL     1     128.079  29.605 -16.017  1.00  0.00     0.082 A 
ATOM      3  N   UNL     1     127.931  28.603 -16.902  1.00  0.00    -0.368 N 
ATOM      4  C   UNL     1     127.879  29.160 -18.125  1.00  0.00     0.082 A 
ATOM      5  C   UNL     1     127.996  30.531 -18.023  1.00  0.00     0.019 A 
ATOM      6  H   UNL     1     127.868  27.585 -16.681  1.00  0.00     0.165 HD
ENDROOT
TORSDOF 0
ENDMDL
MODEL 3
REMARK VINA RESULT:     0.377     26.728     27.083
REMARK INTER + INTRA:           0.377
REMARK INTER:                   0.377
REMARK INTRA:                   0.000
REMARK UNBOUND:                 0.000
REMARK SMILES c1cc[nH]c1
REMARK SMILES IDX 1 1 5 2 4 3 3 4 2 5
REMARK H PARENT 4 6
REMARK Flexibility Score: inf
ROOT
ATOM      1  C   UNL     1     107.965  28.724   2.125  1.00  0.00     0.019 A 
ATOM      2  C   UNL     1     109.293  29.039   1.923  1.00  0.00     0.082 A 
ATOM      3  N   UNL     1     110.010  27.914   1.751  1.00  0.00    -0.368 N 
ATOM      4  C   UNL     1     109.154  26.881   1.842  1.00  0.00     0.082 A 
ATOM      5  C   UNL     1     107.876  27.347   2.074  1.00  0.00     0.019 A 
ATOM      6  H   UNL     1     111.038  27.854   1.580  1.00  0.00     0.165 HD
ENDROOT
TORSDOF 0
ENDMDL
MODEL 4
REMARK VINA RESULT:     0.432     13.104     13.342
REMARK INTER + INTRA:           0.432
REMARK INTER:                   0.432
REMARK INTRA:                   0.000
REMARK UNBOUND:                 0.000
REMARK SMILES c1cc[nH]c1
REMARK SMILES IDX 1 1 5 2 4 3 3 4 2 5
REMARK H PARENT 4 6
REMARK Flexibility Score: inf
ROOT
ATOM      1  C   UNL     1     117.538  33.080 -10.651  1.00  0.00     0.019 A 
ATOM      2  C   UNL     1     116.325  32.891 -10.020  1.00  0.00     0.082 A 
ATOM      3  N   UNL     1     116.524  32.560  -8.732  1.00  0.00    -0.368 N 
ATOM      4  C   UNL     1     117.853  32.532  -8.531  1.00  0.00     0.082 A 
ATOM      5  C   UNL     1     118.513  32.850  -9.701  1.00  0.00     0.019 A 
ATOM      6  H   UNL     1     115.785  32.360  -8.022  1.00  0.00     0.165 HD
ENDROOT
TORSDOF 0
ENDMDL
MODEL 5
REMARK VINA RESULT:     0.474     12.973     13.253
REMARK INTER + INTRA:           0.474
REMARK INTER:                   0.474
REMARK INTRA:                   0.000
REMARK UNBOUND:                 0.000
REMARK SMILES c1cc[nH]c1
REMARK SMILES IDX 1 1 5 2 4 3 3 4 2 5
REMARK H PARENT 4 6
REMARK Flexibility Score: inf
ROOT
ATOM      1  C   UNL     1     118.626  32.686  -9.725  1.00  0.00     0.019 A 
ATOM      2  C   UNL     1     117.890  32.474  -8.576  1.00  0.00     0.082 A 
ATOM      3  N   UNL     1     116.581  32.648  -8.831  1.00  0.00    -0.368 N 
ATOM      4  C   UNL     1     116.470  32.971 -10.132  1.00  0.00     0.082 A 
ATOM      5  C   UNL     1     117.719  33.003 -10.717  1.00  0.00     0.019 A 
ATOM      6  H   UNL     1     115.798  32.552  -8.147  1.00  0.00     0.165 HD
ENDROOT
TORSDOF 0
ENDMDL
MODEL 6
REMARK VINA RESULT:     0.858     26.693     27.008
REMARK INTER + INTRA:           0.858
REMARK INTER:                   0.858
REMARK INTRA:                   0.000
REMARK UNBOUND:                 0.000
REMARK SMILES c1cc[nH]c1
REMARK SMILES IDX 1 1 5 2 4 3 3 4 2 5
REMARK H PARENT 4 6
REMARK Flexibility Score: inf
ROOT
ATOM      1  C   UNL     1     109.109  26.825   2.028  1.00  0.00     0.019 A 
ATOM      2  C   UNL     1     107.875  27.435   2.124  1.00  0.00     0.082 A 
ATOM      3  N   UNL     1     108.001  28.760   1.924  1.00  0.00    -0.368 N 
ATOM      4  C   UNL     1     109.305  29.004   1.702  1.00  0.00     0.082 A 
ATOM      5  C   UNL     1     110.021  27.826   1.759  1.00  0.00     0.019 A 
ATOM      6  H   UNL     1     107.232  29.465   1.939  1.00  0.00     0.165 HD
ENDROOT
TORSDOF 0
ENDMDL
MODEL 7
REMARK VINA RESULT:     0.866     13.892     14.234
REMARK INTER + INTRA:           0.866
REMARK INTER:                   0.866
REMARK INTRA:                   0.000
REMARK UNBOUND:                 0.000
REMARK SMILES c1cc[nH]c1
REMARK SMILES IDX 1 1 5 2 4 3 3 4 2 5
REMARK H PARENT 4 6
REMARK Flexibility Score: inf
ROOT
ATOM      1  C   UNL     1     116.944  33.194  -7.345  1.00  0.00     0.019 A 
ATOM      2  C   UNL     1     117.587  32.615  -8.420  1.00  0.00     0.082 A 
ATOM      3  N   UNL     1     118.693  31.974  -8.002  1.00  0.00    -0.368 N 
ATOM      4  C   UNL     1     118.766  32.138  -6.669  1.00  0.00     0.082 A 
ATOM      5  C   UNL     1     117.697  32.890  -6.228  1.00  0.00     0.019 A 
ATOM      6  H   UNL     1     119.369  31.450  -8.600  1.00  0.00     0.165 HD
ENDROOT
TORSDOF 0
ENDMDL
MODEL 8
REMARK VINA RESULT:     1.045     14.032     14.371
REMARK INTER + INTRA:           1.045
REMARK INTER:                   1.045
REMARK INTRA:                   0.000
REMARK UNBOUND:                 0.000
REMARK SMILES c1cc[nH]c1
REMARK SMILES IDX 1 1 5 2 4 3 3 4 2 5
REMARK H PARENT 4 6
REMARK Flexibility Score: inf
ROOT
ATOM      1  C   UNL     1     117.594  32.555  -8.384  1.00  0.00     0.019 A 
ATOM      2  C   UNL     1     118.731  32.051  -7.785  1.00  0.00     0.082 A 
ATOM      3  N   UNL     1     118.705  32.307  -6.465  1.00  0.00    -0.368 N 
ATOM      4  C   UNL     1     117.564  32.971  -6.212  1.00  0.00     0.082 A 
ATOM      5  C   UNL     1     116.850  33.143  -7.380  1.00  0.00     0.019 A 
ATOM      6  H   UNL     1     119.435  32.041  -5.768  1.00  0.00     0.165 HD
ENDROOT
TORSDOF 0
ENDMDL
MODEL 9
REMARK VINA RESULT:     1.091     14.128     14.460
REMARK INTER + INTRA:           1.091
REMARK INTER:                   1.091
REMARK INTRA:                   0.000
REMARK UNBOUND:                 0.000
REMARK SMILES c1cc[nH]c1
REMARK SMILES IDX 1 1 5 2 4 3 3 4 2 5
REMARK H PARENT 4 6
REMARK Flexibility Score: inf
ROOT
ATOM      1  C   UNL     1     118.662  32.265  -6.700  1.00  0.00     0.019 A 
ATOM      2  C   UNL     1     118.347  32.188  -8.041  1.00  0.00     0.082 A 
ATOM      3  N   UNL     1     117.148  32.757  -8.264  1.00  0.00    -0.368 N 
ATOM      4  C   UNL     1     116.691  33.196  -7.078  1.00  0.00     0.082 A 
ATOM      5  C   UNL     1     117.605  32.908  -6.086  1.00  0.00     0.019 A 
ATOM      6  H   UNL     1     116.663  32.840  -9.185  1.00  0.00     0.165 HD
ENDROOT
TORSDOF 0
ENDMDL
