MODEL 1
REMARK VINA RESULT:    -3.679      0.000      0.000
REMARK INTER + INTRA:          -4.357
REMARK INTER:                  -4.324
REMARK INTRA:                  -0.033
REMARK UNBOUND:                -0.033
REMARK SMILES O=C([O-])CCC(=O)[O-]
REMARK SMILES IDX 4 1 2 2 1 3 3 4 5 5 6 6 7 7 8 8
REMARK H PARENT
REMARK Flexibility Score: inf
ROOT
ATOM      1  C   UNL     1      27.561 -12.452  19.869  1.00  0.00     0.059 C 
ENDROOT
BRANCH   1   2
ATOM      2  C   UNL     1      26.814 -13.131  18.762  1.00  0.00     0.042 C 
ATOM      3  O   UNL     1      26.259 -12.449  17.860  1.00  0.00    -0.550 OA
ATOM      4  O   UNL     1      26.698 -14.515  18.748  1.00  0.00    -0.550 OA
ENDBRANCH   1   2
BRANCH   1   5
ATOM      5  C   UNL     1      26.907 -11.123  20.257  1.00  0.00     0.059 C 
BRANCH   5   6
ATOM      6  C   UNL     1      27.832 -10.270  21.070  1.00  0.00     0.042 C 
ATOM      7  O   UNL     1      28.392  -9.267  20.553  1.00  0.00    -0.550 OA
ATOM      8  O   UNL     1      28.108 -10.607  22.390  1.00  0.00    -0.550 OA
ENDBRANCH   5   6
ENDBRANCH   1   5
TORSDOF 3
ENDMDL
MODEL 2
REMARK VINA RESULT:    -3.663      1.662      3.992
REMARK INTER + INTRA:          -4.338
REMARK INTER:                  -4.267
REMARK INTRA:                  -0.071
REMARK UNBOUND:                -0.033
REMARK SMILES O=C([O-])CCC(=O)[O-]
REMARK SMILES IDX 4 1 2 2 1 3 3 4 5 5 6 6 7 7 8 8
REMARK H PARENT
REMARK Flexibility Score: inf
ROOT
ATOM      1  C   UNL     1      26.285 -11.032  20.321  1.00  0.00     0.059 C 
ENDROOT
BRANCH   1   2
ATOM      2  C   UNL     1      26.659  -9.617  20.005  1.00  0.00     0.042 C 
ATOM      3  O   UNL     1      27.346  -8.945  20.821  1.00  0.00    -0.550 OA
ATOM      4  O   UNL     1      26.217  -9.026  18.828  1.00  0.00    -0.550 OA
ENDBRANCH   1   2
BRANCH   1   5
ATOM      5  C   UNL     1      26.294 -11.911  19.066  1.00  0.00     0.059 C 
BRANCH   5   6
ATOM      6  C   UNL     1      27.375 -12.946  19.125  1.00  0.00     0.042 C 
ATOM      7  O   UNL     1      28.147 -13.003  20.118  1.00  0.00    -0.550 OA
ATOM      8  O   UNL     1      27.555 -13.824  18.063  1.00  0.00    -0.550 OA
ENDBRANCH   5   6
ENDBRANCH   1   5
TORSDOF 3
ENDMDL
MODEL 3
REMARK VINA RESULT:    -3.634      1.036      1.277
REMARK INTER + INTRA:          -4.304
REMARK INTER:                  -4.239
REMARK INTRA:                  -0.066
REMARK UNBOUND:                -0.033
REMARK SMILES O=C([O-])CCC(=O)[O-]
REMARK SMILES IDX 4 1 2 2 1 3 3 4 5 5 6 6 7 7 8 8
REMARK H PARENT
REMARK Flexibility Score: inf
ROOT
ATOM      1  C   UNL     1      27.274 -12.184  19.816  1.00  0.00     0.059 C 
ENDROOT
BRANCH   1   2
ATOM      2  C   UNL     1      26.739 -12.999  18.679  1.00  0.00     0.042 C 
ATOM      3  O   UNL     1      26.202 -12.432  17.690  1.00  0.00    -0.550 OA
ATOM      4  O   UNL     1      26.799 -14.386  18.728  1.00  0.00    -0.550 OA
ENDBRANCH   1   2
BRANCH   1   5
ATOM      5  C   UNL     1      26.266 -11.126  20.274  1.00  0.00     0.059 C 
BRANCH   5   6
ATOM      6  C   UNL     1      26.841  -9.745  20.195  1.00  0.00     0.042 C 
ATOM      7  O   UNL     1      26.150  -8.794  19.746  1.00  0.00    -0.550 OA
ATOM      8  O   UNL     1      28.157  -9.518  20.581  1.00  0.00    -0.550 OA
ENDBRANCH   5   6
ENDBRANCH   1   5
TORSDOF 3
ENDMDL
MODEL 4
REMARK VINA RESULT:    -3.608      0.570      4.147
REMARK INTER + INTRA:          -4.274
REMARK INTER:                  -4.235
REMARK INTRA:                  -0.039
REMARK UNBOUND:                -0.033
REMARK SMILES O=C([O-])CCC(=O)[O-]
REMARK SMILES IDX 4 1 2 2 1 3 3 4 5 5 6 6 7 7 8 8
REMARK H PARENT
REMARK Flexibility Score: inf
ROOT
ATOM      1  C   UNL     1      26.791 -11.163  20.103  1.00  0.00     0.059 C 
ENDROOT
BRANCH   1   2
ATOM      2  C   UNL     1      27.741 -10.267  20.835  1.00  0.00     0.042 C 
ATOM      3  O   UNL     1      28.035  -9.135  20.365  1.00  0.00    -0.550 OA
ATOM      4  O   UNL     1      28.333 -10.696  22.016  1.00  0.00    -0.550 OA
ENDBRANCH   1   2
BRANCH   1   5
ATOM      5  C   UNL     1      27.430 -12.516  19.777  1.00  0.00     0.059 C 
BRANCH   5   6
ATOM      6  C   UNL     1      27.025 -13.005  18.420  1.00  0.00     0.042 C 
ATOM      7  O   UNL     1      26.087 -12.443  17.797  1.00  0.00    -0.550 OA
ATOM      8  O   UNL     1      27.659 -14.108  17.861  1.00  0.00    -0.550 OA
ENDBRANCH   5   6
ENDBRANCH   1   5
TORSDOF 3
ENDMDL
MODEL 5
REMARK VINA RESULT:    -3.493      9.779     11.031
REMARK INTER + INTRA:          -4.139
REMARK INTER:                  -4.076
REMARK INTRA:                  -0.063
REMARK UNBOUND:                -0.033
REMARK SMILES O=C([O-])CCC(=O)[O-]
REMARK SMILES IDX 4 1 2 2 1 3 3 4 5 5 6 6 7 7 8 8
REMARK H PARENT
REMARK Flexibility Score: inf
ROOT
ATOM      1  C   UNL     1      36.703 -10.732  20.929  1.00  0.00     0.059 C 
ENDROOT
BRANCH   1   2
ATOM      2  C   UNL     1      36.279  -9.374  21.398  1.00  0.00     0.042 C 
ATOM      3  O   UNL     1      35.157  -8.910  21.065  1.00  0.00    -0.550 OA
ATOM      4  O   UNL     1      37.140  -8.605  22.171  1.00  0.00    -0.550 OA
ENDBRANCH   1   2
BRANCH   1   5
ATOM      5  C   UNL     1      37.832 -11.300  21.793  1.00  0.00     0.059 C 
BRANCH   5   6
ATOM      6  C   UNL     1      38.909 -11.920  20.956  1.00  0.00     0.042 C 
ATOM      7  O   UNL     1      39.164 -13.149  21.057  1.00  0.00    -0.550 OA
ATOM      8  O   UNL     1      39.660 -11.131  20.092  1.00  0.00    -0.550 OA
ENDBRANCH   5   6
ENDBRANCH   1   5
TORSDOF 3
ENDMDL
MODEL 6
REMARK VINA RESULT:    -3.486      9.734     10.925
REMARK INTER + INTRA:          -4.130
REMARK INTER:                  -4.056
REMARK INTRA:                  -0.074
REMARK UNBOUND:                -0.033
REMARK SMILES O=C([O-])CCC(=O)[O-]
REMARK SMILES IDX 4 1 2 2 1 3 3 4 5 5 6 6 7 7 8 8
REMARK H PARENT
REMARK Flexibility Score: inf
ROOT
ATOM      1  C   UNL     1      36.689 -10.759  20.870  1.00  0.00     0.059 C 
ENDROOT
BRANCH   1   2
ATOM      2  C   UNL     1      36.209  -9.414  21.322  1.00  0.00     0.042 C 
ATOM      3  O   UNL     1      36.940  -8.693  22.052  1.00  0.00    -0.550 OA
ATOM      4  O   UNL     1      34.940  -8.973  20.970  1.00  0.00    -0.550 OA
ENDBRANCH   1   2
BRANCH   1   5
ATOM      5  C   UNL     1      37.827 -11.278  21.753  1.00  0.00     0.059 C 
BRANCH   5   6
ATOM      6  C   UNL     1      38.954 -11.829  20.934  1.00  0.00     0.042 C 
ATOM      7  O   UNL     1      39.598 -11.079  20.154  1.00  0.00    -0.550 OA
ATOM      8  O   UNL     1      39.267 -13.181  21.002  1.00  0.00    -0.550 OA
ENDBRANCH   5   6
ENDBRANCH   1   5
TORSDOF 3
ENDMDL
MODEL 7
REMARK VINA RESULT:    -3.470     10.309     11.146
REMARK INTER + INTRA:          -4.111
REMARK INTER:                  -4.064
REMARK INTRA:                  -0.047
REMARK UNBOUND:                -0.033
REMARK SMILES O=C([O-])CCC(=O)[O-]
REMARK SMILES IDX 4 1 2 2 1 3 3 4 5 5 6 6 7 7 8 8
REMARK H PARENT
REMARK Flexibility Score: inf
ROOT
ATOM      1  C   UNL     1      38.246 -11.863  21.729  1.00  0.00     0.059 C 
ENDROOT
BRANCH   1   2
ATOM      2  C   UNL     1      39.324 -12.600  20.996  1.00  0.00     0.042 C 
ATOM      3  O   UNL     1      39.377 -13.858  21.044  1.00  0.00    -0.550 OA
ATOM      4  O   UNL     1      40.293 -11.896  20.293  1.00  0.00    -0.550 OA
ENDBRANCH   1   2
BRANCH   1   5
ATOM      5  C   UNL     1      37.308 -11.131  20.765  1.00  0.00     0.059 C 
BRANCH   5   6
ATOM      6  C   UNL     1      36.821  -9.838  21.344  1.00  0.00     0.042 C 
ATOM      7  O   UNL     1      35.704  -9.369  21.001  1.00  0.00    -0.550 OA
ATOM      8  O   UNL     1      37.620  -9.130  22.234  1.00  0.00    -0.550 OA
ENDBRANCH   5   6
ENDBRANCH   1   5
TORSDOF 3
ENDMDL
MODEL 8
REMARK VINA RESULT:    -3.456     10.286     11.094
REMARK INTER + INTRA:          -4.095
REMARK INTER:                  -4.037
REMARK INTRA:                  -0.058
REMARK UNBOUND:                -0.033
REMARK SMILES O=C([O-])CCC(=O)[O-]
REMARK SMILES IDX 4 1 2 2 1 3 3 4 5 5 6 6 7 7 8 8
REMARK H PARENT
REMARK Flexibility Score: inf
ROOT
ATOM      1  C   UNL     1      38.267 -11.804  21.766  1.00  0.00     0.059 C 
ENDROOT
BRANCH   1   2
ATOM      2  C   UNL     1      39.336 -12.537  21.015  1.00  0.00     0.042 C 
ATOM      3  O   UNL     1      40.172 -11.900  20.319  1.00  0.00    -0.550 OA
ATOM      4  O   UNL     1      39.386 -13.924  21.051  1.00  0.00    -0.550 OA
ENDBRANCH   1   2
BRANCH   1   5
ATOM      5  C   UNL     1      37.292 -11.102  20.817  1.00  0.00     0.059 C 
BRANCH   5   6
ATOM      6  C   UNL     1      36.854  -9.775  21.359  1.00  0.00     0.042 C 
ATOM      7  O   UNL     1      37.593  -9.139  22.155  1.00  0.00    -0.550 OA
ATOM      8  O   UNL     1      35.610  -9.260  21.015  1.00  0.00    -0.550 OA
ENDBRANCH   5   6
ENDBRANCH   1   5
TORSDOF 3
ENDMDL
MODEL 9
REMARK VINA RESULT:    -3.403      7.394      8.497
REMARK INTER + INTRA:          -4.033
REMARK INTER:                  -3.997
REMARK INTRA:                  -0.036
REMARK UNBOUND:                -0.033
REMARK SMILES O=C([O-])CCC(=O)[O-]
REMARK SMILES IDX 4 1 2 2 1 3 3 4 5 5 6 6 7 7 8 8
REMARK H PARENT
REMARK Flexibility Score: inf
ROOT
ATOM      1  C   UNL     1      34.671  -9.280  20.821  1.00  0.00     0.059 C 
ENDROOT
BRANCH   1   2
ATOM      2  C   UNL     1      33.366  -9.322  20.086  1.00  0.00     0.042 C 
ATOM      3  O   UNL     1      33.330  -9.669  18.876  1.00  0.00    -0.550 OA
ATOM      4  O   UNL     1      32.194  -8.941  20.728  1.00  0.00    -0.550 OA
ENDBRANCH   1   2
BRANCH   1   5
ATOM      5  C   UNL     1      35.603 -10.411  20.378  1.00  0.00     0.059 C 
BRANCH   5   6
ATOM      6  C   UNL     1      36.889 -10.399  21.146  1.00  0.00     0.042 C 
ATOM      7  O   UNL     1      37.233  -9.375  21.793  1.00  0.00    -0.550 OA
ATOM      8  O   UNL     1      37.729 -11.506  21.114  1.00  0.00    -0.550 OA
ENDBRANCH   5   6
ENDBRANCH   1   5
TORSDOF 3
ENDMDL
