MODEL 1
REMARK VINA RESULT:    -5.259      0.000      0.000
REMARK INTER + INTRA:          -5.413
REMARK INTER:                  -5.413
REMARK INTRA:                   0.000
REMARK UNBOUND:                 0.000
REMARK SMILES Cc1cccc(O)c1C
REMARK SMILES IDX 1 1 2 2 8 3 6 4 5 5 4 6 3 7 9 8 7 9
REMARK H PARENT 7 10
REMARK Flexibility Score: inf
ROOT
ATOM      1  C   UNL     1      37.370   2.301 101.892  1.00  0.00     0.045 C 
ATOM      2  C   UNL     1      38.114   2.308 103.204  1.00  0.00    -0.045 A 
ATOM      3  C   UNL     1      38.697   3.492 103.736  1.00  0.00    -0.006 A 
ATOM      4  C   UNL     1      39.382   3.424 104.976  1.00  0.00     0.118 A 
ATOM      5  C   UNL     1      39.477   2.208 105.658  1.00  0.00     0.046 A 
ATOM      6  C   UNL     1      38.903   1.054 105.132  1.00  0.00     0.004 A 
ATOM      7  C   UNL     1      38.227   1.101 103.916  1.00  0.00     0.004 A 
ATOM      8  C   UNL     1      38.607   4.818 103.014  1.00  0.00     0.048 C 
ENDROOT
BRANCH   4   9
ATOM      9  O   UNL     1      39.979   4.544 105.558  1.00  0.00    -0.508 OA
ATOM     10  H   UNL     1      40.593   4.496 106.361  1.00  0.00     0.293 HD
ENDBRANCH   4   9
TORSDOF 1
ENDMDL
MODEL 2
REMARK VINA RESULT:    -5.241      0.828      2.594
REMARK INTER + INTRA:          -5.394
REMARK INTER:                  -5.394
REMARK INTRA:                   0.000
REMARK UNBOUND:                 0.000
REMARK SMILES Cc1cccc(O)c1C
REMARK SMILES IDX 1 1 2 2 8 3 6 4 5 5 4 6 3 7 9 8 7 9
REMARK H PARENT 7 10
REMARK Flexibility Score: inf
ROOT
ATOM      1  C   UNL     1      37.672   0.880 102.863  1.00  0.00     0.045 C 
ATOM      2  C   UNL     1      38.139   2.274 103.201  1.00  0.00    -0.045 A 
ATOM      3  C   UNL     1      38.931   2.547 104.351  1.00  0.00    -0.006 A 
ATOM      4  C   UNL     1      39.334   3.883 104.607  1.00  0.00     0.118 A 
ATOM      5  C   UNL     1      38.955   4.907 103.737  1.00  0.00     0.046 A 
ATOM      6  C   UNL     1      38.180   4.632 102.613  1.00  0.00     0.004 A 
ATOM      7  C   UNL     1      37.775   3.327 102.345  1.00  0.00     0.004 A 
ATOM      8  C   UNL     1      39.352   1.453 105.307  1.00  0.00     0.048 C 
ENDROOT
BRANCH   4   9
ATOM      9  O   UNL     1      40.111   4.225 105.716  1.00  0.00    -0.508 OA
ATOM     10  H   UNL     1      39.749   4.721 106.521  1.00  0.00     0.293 HD
ENDBRANCH   4   9
TORSDOF 1
ENDMDL
MODEL 3
REMARK VINA RESULT:    -5.144      9.106     10.406
REMARK INTER + INTRA:          -5.295
REMARK INTER:                  -5.295
REMARK INTRA:                   0.000
REMARK UNBOUND:                 0.000
REMARK SMILES Cc1cccc(O)c1C
REMARK SMILES IDX 1 1 2 2 8 3 6 4 5 5 4 6 3 7 9 8 7 9
REMARK H PARENT 7 10
REMARK Flexibility Score: inf
ROOT
ATOM      1  C   UNL     1      36.621  -4.656 103.727  1.00  0.00     0.045 C 
ATOM      2  C   UNL     1      37.126  -6.066 103.906  1.00  0.00    -0.045 A 
ATOM      3  C   UNL     1      37.400  -6.917 102.799  1.00  0.00    -0.006 A 
ATOM      4  C   UNL     1      37.873  -8.232 103.043  1.00  0.00     0.118 A 
ATOM      5  C   UNL     1      38.064  -8.675 104.354  1.00  0.00     0.046 A 
ATOM      6  C   UNL     1      37.795  -7.837 105.432  1.00  0.00     0.004 A 
ATOM      7  C   UNL     1      37.330  -6.543 105.213  1.00  0.00     0.004 A 
ATOM      8  C   UNL     1      37.199  -6.458 101.372  1.00  0.00     0.048 C 
ENDROOT
BRANCH   4   9
ATOM      9  O   UNL     1      38.162  -9.122 102.006  1.00  0.00    -0.508 OA
ATOM     10  H   UNL     1      38.879  -9.834 102.065  1.00  0.00     0.293 HD
ENDBRANCH   4   9
TORSDOF 1
ENDMDL
MODEL 4
REMARK VINA RESULT:    -5.122      3.583      5.272
REMARK INTER + INTRA:          -5.272
REMARK INTER:                  -5.272
REMARK INTRA:                   0.000
REMARK UNBOUND:                 0.000
REMARK SMILES Cc1cccc(O)c1C
REMARK SMILES IDX 1 1 2 2 8 3 6 4 5 5 4 6 3 7 9 8 7 9
REMARK H PARENT 7 10
REMARK Flexibility Score: inf
ROOT
ATOM      1  C   UNL     1      37.048  -1.027 108.625  1.00  0.00     0.045 C 
ATOM      2  C   UNL     1      37.868   0.187 108.265  1.00  0.00    -0.045 A 
ATOM      3  C   UNL     1      38.394   1.064 109.255  1.00  0.00    -0.006 A 
ATOM      4  C   UNL     1      39.157   2.187 108.844  1.00  0.00     0.118 A 
ATOM      5  C   UNL     1      39.382   2.420 107.485  1.00  0.00     0.046 A 
ATOM      6  C   UNL     1      38.864   1.558 106.522  1.00  0.00     0.004 A 
ATOM      7  C   UNL     1      38.114   0.451 106.907  1.00  0.00     0.004 A 
ATOM      8  C   UNL     1      38.162   0.830 110.731  1.00  0.00     0.048 C 
ENDROOT
BRANCH   4   9
ATOM      9  O   UNL     1      39.704   3.089 109.759  1.00  0.00    -0.508 OA
ATOM     10  H   UNL     1      39.350   4.027 109.898  1.00  0.00     0.293 HD
ENDBRANCH   4   9
TORSDOF 1
ENDMDL
MODEL 5
REMARK VINA RESULT:    -5.117      1.420      3.247
REMARK INTER + INTRA:          -5.267
REMARK INTER:                  -5.267
REMARK INTRA:                   0.000
REMARK UNBOUND:                 0.000
REMARK SMILES Cc1cccc(O)c1C
REMARK SMILES IDX 1 1 2 2 8 3 6 4 5 5 4 6 3 7 9 8 7 9
REMARK H PARENT 7 10
REMARK Flexibility Score: inf
ROOT
ATOM      1  C   UNL     1      38.086   0.019 107.369  1.00  0.00     0.045 C 
ATOM      2  C   UNL     1      38.525   1.014 106.324  1.00  0.00    -0.045 A 
ATOM      3  C   UNL     1      39.149   2.246 106.668  1.00  0.00    -0.006 A 
ATOM      4  C   UNL     1      39.535   3.134 105.632  1.00  0.00     0.118 A 
ATOM      5  C   UNL     1      39.304   2.795 104.297  1.00  0.00     0.046 A 
ATOM      6  C   UNL     1      38.693   1.588 103.967  1.00  0.00     0.004 A 
ATOM      7  C   UNL     1      38.307   0.704 104.970  1.00  0.00     0.004 A 
ATOM      8  C   UNL     1      39.408   2.632 108.107  1.00  0.00     0.048 C 
ENDROOT
BRANCH   4   9
ATOM      9  O   UNL     1      40.152   4.360 105.895  1.00  0.00    -0.508 OA
ATOM     10  H   UNL     1      39.641   5.212 106.089  1.00  0.00     0.293 HD
ENDBRANCH   4   9
TORSDOF 1
ENDMDL
MODEL 6
REMARK VINA RESULT:    -5.003      9.252     10.771
REMARK INTER + INTRA:          -5.149
REMARK INTER:                  -5.149
REMARK INTRA:                   0.000
REMARK UNBOUND:                 0.000
REMARK SMILES Cc1cccc(O)c1C
REMARK SMILES IDX 1 1 2 2 8 3 6 4 5 5 4 6 3 7 9 8 7 9
REMARK H PARENT 7 10
REMARK Flexibility Score: inf
ROOT
ATOM      1  C   UNL     1      37.332  -6.374 106.417  1.00  0.00     0.045 C 
ATOM      2  C   UNL     1      37.361  -6.589 104.925  1.00  0.00    -0.045 A 
ATOM      3  C   UNL     1      37.694  -7.847 104.349  1.00  0.00    -0.006 A 
ATOM      4  C   UNL     1      37.702  -7.977 102.937  1.00  0.00     0.118 A 
ATOM      5  C   UNL     1      37.385  -6.880 102.131  1.00  0.00     0.046 A 
ATOM      6  C   UNL     1      37.059  -5.653 102.701  1.00  0.00     0.004 A 
ATOM      7  C   UNL     1      37.046  -5.506 104.086  1.00  0.00     0.004 A 
ATOM      8  C   UNL     1      38.042  -9.046 105.203  1.00  0.00     0.048 C 
ENDROOT
BRANCH   4   9
ATOM      9  O   UNL     1      38.020  -9.180 102.303  1.00  0.00    -0.508 OA
ATOM     10  H   UNL     1      37.985 -10.081 102.763  1.00  0.00     0.293 HD
ENDBRANCH   4   9
TORSDOF 1
ENDMDL
MODEL 7
REMARK VINA RESULT:    -4.978      8.402      9.960
REMARK INTER + INTRA:          -5.123
REMARK INTER:                  -5.123
REMARK INTRA:                   0.000
REMARK UNBOUND:                 0.000
REMARK SMILES Cc1cccc(O)c1C
REMARK SMILES IDX 1 1 2 2 8 3 6 4 5 5 4 6 3 7 9 8 7 9
REMARK H PARENT 7 10
REMARK Flexibility Score: inf
ROOT
ATOM      1  C   UNL     1      37.312  -6.566 105.029  1.00  0.00     0.045 C 
ATOM      2  C   UNL     1      37.265  -6.103 103.594  1.00  0.00    -0.045 A 
ATOM      3  C   UNL     1      37.688  -6.933 102.518  1.00  0.00    -0.006 A 
ATOM      4  C   UNL     1      37.617  -6.432 101.193  1.00  0.00     0.118 A 
ATOM      5  C   UNL     1      37.136  -5.141 100.958  1.00  0.00     0.046 A 
ATOM      6  C   UNL     1      36.723  -4.335 102.015  1.00  0.00     0.004 A 
ATOM      7  C   UNL     1      36.787  -4.810 103.323  1.00  0.00     0.004 A 
ATOM      8  C   UNL     1      38.213  -8.333 102.750  1.00  0.00     0.048 C 
ENDROOT
BRANCH   4   9
ATOM      9  O   UNL     1      38.015  -7.189 100.089  1.00  0.00    -0.508 OA
ATOM     10  H   UNL     1      38.550  -6.813  99.317  1.00  0.00     0.293 HD
ENDBRANCH   4   9
TORSDOF 1
ENDMDL
MODEL 8
REMARK VINA RESULT:    -4.978      4.516      5.726
REMARK INTER + INTRA:          -5.123
REMARK INTER:                  -5.123
REMARK INTRA:                   0.000
REMARK UNBOUND:                 0.000
REMARK SMILES Cc1cccc(O)c1C
REMARK SMILES IDX 1 1 2 2 8 3 6 4 5 5 4 6 3 7 9 8 7 9
REMARK H PARENT 7 10
REMARK Flexibility Score: inf
ROOT
ATOM      1  C   UNL     1      38.501   1.123 106.575  1.00  0.00     0.045 C 
ATOM      2  C   UNL     1      38.157   0.590 107.943  1.00  0.00    -0.045 A 
ATOM      3  C   UNL     1      38.606   1.223 109.136  1.00  0.00    -0.006 A 
ATOM      4  C   UNL     1      38.244   0.665 110.389  1.00  0.00     0.118 A 
ATOM      5  C   UNL     1      37.457  -0.488 110.441  1.00  0.00     0.046 A 
ATOM      6  C   UNL     1      37.020  -1.101 109.270  1.00  0.00     0.004 A 
ATOM      7  C   UNL     1      37.365  -0.568 108.031  1.00  0.00     0.004 A 
ATOM      8  C   UNL     1      39.460   2.471 109.103  1.00  0.00     0.048 C 
ENDROOT
BRANCH   4   9
ATOM      9  O   UNL     1      38.649   1.232 111.600  1.00  0.00    -0.508 OA
ATOM     10  H   UNL     1      38.550   2.215 111.818  1.00  0.00     0.293 HD
ENDBRANCH   4   9
TORSDOF 1
ENDMDL
MODEL 9
REMARK VINA RESULT:    -4.851      8.486      9.791
REMARK INTER + INTRA:          -4.993
REMARK INTER:                  -4.993
REMARK INTRA:                   0.000
REMARK UNBOUND:                 0.000
REMARK SMILES Cc1cccc(O)c1C
REMARK SMILES IDX 1 1 2 2 8 3 6 4 5 5 4 6 3 7 9 8 7 9
REMARK H PARENT 7 10
REMARK Flexibility Score: inf
ROOT
ATOM      1  C   UNL     1      36.474  -4.503 104.455  1.00  0.00     0.045 C 
ATOM      2  C   UNL     1      37.008  -5.736 103.771  1.00  0.00    -0.045 A 
ATOM      3  C   UNL     1      37.142  -5.818 102.357  1.00  0.00    -0.006 A 
ATOM      4  C   UNL     1      37.652  -7.010 101.781  1.00  0.00     0.118 A 
ATOM      5  C   UNL     1      38.014  -8.083 102.600  1.00  0.00     0.046 A 
ATOM      6  C   UNL     1      37.880  -7.996 103.983  1.00  0.00     0.004 A 
ATOM      7  C   UNL     1      37.382  -6.834 104.566  1.00  0.00     0.004 A 
ATOM      8  C   UNL     1      36.755  -4.668 101.453  1.00  0.00     0.048 C 
ENDROOT
BRANCH   4   9
ATOM      9  O   UNL     1      37.811  -7.161 100.402  1.00  0.00    -0.508 OA
ATOM     10  H   UNL     1      38.659  -7.505  99.972  1.00  0.00     0.293 HD
ENDBRANCH   4   9
TORSDOF 1
ENDMDL
