MODEL 1
REMARK VINA RESULT:    -4.266      0.000      0.000
REMARK INTER + INTRA:          -5.939
REMARK INTER:                  -5.762
REMARK INTRA:                  -0.177
REMARK UNBOUND:                -0.177
REMARK SMILES [NH3+]CCCC[C@H]([NH3+])C(=O)[O-]
REMARK SMILES IDX 4 1 3 2 2 3 1 4 5 8 6 9 7 10 8 14 9 15 10 16
REMARK H PARENT 1 5 1 6 1 7 7 11 7 12 7 13
REMARK Flexibility Score: inf
ROOT
ATOM      1  C   UNL     1      20.269   7.277   7.219  1.00  0.00     0.012 C 
ENDROOT
BRANCH   1   2
ATOM      2  C   UNL     1      20.707   8.677   7.683  1.00  0.00     0.061 C 
BRANCH   2   3
ATOM      3  C   UNL     1      20.258   9.788   6.721  1.00  0.00     0.258 C 
BRANCH   3   4
ATOM      4  N   UNL     1      18.849   9.629   6.362  1.00  0.00    -0.358 N 
ATOM      5  H   UNL     1      18.385  10.566   6.368  1.00  0.00     0.344 HD
ATOM      6  H   UNL     1      18.766   9.217   5.404  1.00  0.00     0.344 HD
ATOM      7  H   UNL     1      18.368   9.010   7.056  1.00  0.00     0.344 HD
ENDBRANCH   3   4
ENDBRANCH   2   3
ENDBRANCH   1   2
BRANCH   1   8
ATOM      8  C   UNL     1      21.075   6.781   6.002  1.00  0.00     0.072 C 
BRANCH   8   9
ATOM      9  C   UNL     1      22.551   6.440   6.314  1.00  0.00     0.227 C 
BRANCH   9  10
ATOM     10  N   UNL     1      23.485   7.370   5.662  1.00  0.00    -0.350 N 
ATOM     11  H   UNL     1      24.123   7.792   6.374  1.00  0.00     0.345 HD
ATOM     12  H   UNL     1      22.979   8.133   5.158  1.00  0.00     0.345 HD
ATOM     13  H   UNL     1      24.069   6.846   4.970  1.00  0.00     0.345 HD
ENDBRANCH   9  10
BRANCH   9  14
ATOM     14  C   UNL     1      22.872   5.005   5.980  1.00  0.00     0.099 C 
ATOM     15  O   UNL     1      23.398   4.699   4.877  1.00  0.00    -0.544 OA
ATOM     16  O   UNL     1      22.538   3.999   6.878  1.00  0.00    -0.544 OA
ENDBRANCH   9  14
ENDBRANCH   8   9
ENDBRANCH   1   8
TORSDOF 7
ENDMDL
MODEL 2
REMARK VINA RESULT:    -4.208      3.414      4.994
REMARK INTER + INTRA:          -5.861
REMARK INTER:                  -5.709
REMARK INTRA:                  -0.152
REMARK UNBOUND:                -0.177
REMARK SMILES [NH3+]CCCC[C@H]([NH3+])C(=O)[O-]
REMARK SMILES IDX 4 1 3 2 2 3 1 4 5 8 6 9 7 10 8 14 9 15 10 16
REMARK H PARENT 1 5 1 6 1 7 7 11 7 12 7 13
REMARK Flexibility Score: inf
ROOT
ATOM      1  C   UNL     1      22.751   6.649   5.674  1.00  0.00     0.012 C 
ENDROOT
BRANCH   1   2
ATOM      2  C   UNL     1      23.144   5.163   5.649  1.00  0.00     0.061 C 
BRANCH   2   3
ATOM      3  C   UNL     1      22.502   4.360   6.792  1.00  0.00     0.258 C 
BRANCH   3   4
ATOM      4  N   UNL     1      22.450   2.936   6.461  1.00  0.00    -0.358 N 
ATOM      5  H   UNL     1      23.403   2.615   6.175  1.00  0.00     0.344 HD
ATOM      6  H   UNL     1      22.145   2.385   7.296  1.00  0.00     0.344 HD
ATOM      7  H   UNL     1      21.787   2.774   5.668  1.00  0.00     0.344 HD
ENDBRANCH   3   4
ENDBRANCH   2   3
ENDBRANCH   1   2
BRANCH   1   8
ATOM      8  C   UNL     1      21.261   6.859   6.012  1.00  0.00     0.072 C 
BRANCH   8   9
ATOM      9  C   UNL     1      21.009   7.799   7.214  1.00  0.00     0.227 C 
BRANCH   9  10
ATOM     10  N   UNL     1      20.395   7.095   8.350  1.00  0.00    -0.350 N 
ATOM     11  H   UNL     1      20.001   6.181   8.032  1.00  0.00     0.345 HD
ATOM     12  H   UNL     1      19.636   7.664   8.788  1.00  0.00     0.345 HD
ATOM     13  H   UNL     1      21.125   6.902   9.073  1.00  0.00     0.345 HD
ENDBRANCH   9  10
BRANCH   9  14
ATOM     14  C   UNL     1      20.207   9.011   6.812  1.00  0.00     0.099 C 
ATOM     15  O   UNL     1      19.182   8.898   6.087  1.00  0.00    -0.544 OA
ATOM     16  O   UNL     1      20.629  10.276   7.202  1.00  0.00    -0.544 OA
ENDBRANCH   9  14
ENDBRANCH   8   9
ENDBRANCH   1   8
TORSDOF 7
ENDMDL
MODEL 3
REMARK VINA RESULT:    -4.009      2.728      4.734
REMARK INTER + INTRA:          -5.592
REMARK INTER:                  -5.436
REMARK INTRA:                  -0.155
REMARK UNBOUND:                -0.177
REMARK SMILES [NH3+]CCCC[C@H]([NH3+])C(=O)[O-]
REMARK SMILES IDX 4 1 3 2 2 3 1 4 5 8 6 9 7 10 8 14 9 15 10 16
REMARK H PARENT 1 5 1 6 1 7 7 11 7 12 7 13
REMARK Flexibility Score: inf
ROOT
ATOM      1  C   UNL     1      22.779   6.257   6.238  1.00  0.00     0.012 C 
ENDROOT
BRANCH   1   2
ATOM      2  C   UNL     1      22.844   4.752   5.927  1.00  0.00     0.061 C 
BRANCH   2   3
ATOM      3  C   UNL     1      22.556   3.878   7.159  1.00  0.00     0.258 C 
BRANCH   3   4
ATOM      4  N   UNL     1      22.324   2.488   6.767  1.00  0.00    -0.358 N 
ATOM      5  H   UNL     1      23.013   2.221   6.028  1.00  0.00     0.344 HD
ATOM      6  H   UNL     1      22.452   1.857   7.592  1.00  0.00     0.344 HD
ATOM      7  H   UNL     1      21.357   2.378   6.384  1.00  0.00     0.344 HD
ENDBRANCH   3   4
ENDBRANCH   2   3
ENDBRANCH   1   2
BRANCH   1   8
ATOM      8  C   UNL     1      21.637   6.966   5.482  1.00  0.00     0.072 C 
BRANCH   8   9
ATOM      9  C   UNL     1      20.394   7.271   6.351  1.00  0.00     0.227 C 
BRANCH   9  10
ATOM     10  N   UNL     1      19.569   8.347   5.781  1.00  0.00    -0.350 N 
ATOM     11  H   UNL     1      19.628   8.327   4.737  1.00  0.00     0.345 HD
ATOM     12  H   UNL     1      19.872   9.286   6.125  1.00  0.00     0.345 HD
ATOM     13  H   UNL     1      18.570   8.199   6.054  1.00  0.00     0.345 HD
ENDBRANCH   9  10
BRANCH   9  14
ATOM     14  C   UNL     1      20.774   7.561   7.781  1.00  0.00     0.099 C 
ATOM     15  O   UNL     1      20.525   6.732   8.697  1.00  0.00    -0.544 OA
ATOM     16  O   UNL     1      21.360   8.779   8.104  1.00  0.00    -0.544 OA
ENDBRANCH   9  14
ENDBRANCH   8   9
ENDBRANCH   1   8
TORSDOF 7
ENDMDL
MODEL 4
REMARK VINA RESULT:    -3.746     12.933     13.637
REMARK INTER + INTRA:          -5.237
REMARK INTER:                  -5.168
REMARK INTRA:                  -0.070
REMARK UNBOUND:                -0.177
REMARK SMILES [NH3+]CCCC[C@H]([NH3+])C(=O)[O-]
REMARK SMILES IDX 4 1 3 2 2 3 1 4 5 8 6 9 7 10 8 14 9 15 10 16
REMARK H PARENT 1 5 1 6 1 7 7 11 7 12 7 13
REMARK Flexibility Score: inf
ROOT
ATOM      1  C   UNL     1      18.988   4.001  19.946  1.00  0.00     0.012 C 
ENDROOT
BRANCH   1   2
ATOM      2  C   UNL     1      17.691   3.268  19.569  1.00  0.00     0.061 C 
BRANCH   2   3
ATOM      3  C   UNL     1      17.142   2.404  20.716  1.00  0.00     0.258 C 
BRANCH   3   4
ATOM      4  N   UNL     1      16.875   1.041  20.259  1.00  0.00    -0.358 N 
ATOM      5  H   UNL     1      16.552   1.069  19.265  1.00  0.00     0.344 HD
ATOM      6  H   UNL     1      17.748   0.466  20.314  1.00  0.00     0.344 HD
ATOM      7  H   UNL     1      16.126   0.604  20.845  1.00  0.00     0.344 HD
ENDBRANCH   3   4
ENDBRANCH   2   3
ENDBRANCH   1   2
BRANCH   1   8
ATOM      8  C   UNL     1      19.921   4.209  18.736  1.00  0.00     0.072 C 
BRANCH   8   9
ATOM      9  C   UNL     1      21.178   5.057  19.041  1.00  0.00     0.227 C 
BRANCH   9  10
ATOM     10  N   UNL     1      21.000   5.907  20.228  1.00  0.00    -0.350 N 
ATOM     11  H   UNL     1      20.000   5.889  20.532  1.00  0.00     0.345 HD
ATOM     12  H   UNL     1      21.286   6.894  20.039  1.00  0.00     0.345 HD
ATOM     13  H   UNL     1      21.586   5.535  21.011  1.00  0.00     0.345 HD
ENDBRANCH   9  10
BRANCH   9  14
ATOM     14  C   UNL     1      21.609   5.862  17.841  1.00  0.00     0.099 C 
ATOM     15  O   UNL     1      22.132   7.000  17.979  1.00  0.00    -0.544 OA
ATOM     16  O   UNL     1      21.382   5.366  16.563  1.00  0.00    -0.544 OA
ENDBRANCH   9  14
ENDBRANCH   8   9
ENDBRANCH   1   8
TORSDOF 7
ENDMDL
MODEL 5
REMARK VINA RESULT:    -3.701      3.259      4.733
REMARK INTER + INTRA:          -5.177
REMARK INTER:                  -5.029
REMARK INTRA:                  -0.147
REMARK UNBOUND:                -0.177
REMARK SMILES [NH3+]CCCC[C@H]([NH3+])C(=O)[O-]
REMARK SMILES IDX 4 1 3 2 2 3 1 4 5 8 6 9 7 10 8 14 9 15 10 16
REMARK H PARENT 1 5 1 6 1 7 7 11 7 12 7 13
REMARK Flexibility Score: inf
ROOT
ATOM      1  C   UNL     1      21.997   6.126   5.459  1.00  0.00     0.012 C 
ENDROOT
BRANCH   1   2
ATOM      2  C   UNL     1      23.229   6.930   5.903  1.00  0.00     0.061 C 
BRANCH   2   3
ATOM      3  C   UNL     1      24.373   6.881   4.876  1.00  0.00     0.258 C 
BRANCH   3   4
ATOM      4  N   UNL     1      25.429   7.828   5.228  1.00  0.00    -0.358 N 
ATOM      5  H   UNL     1      26.255   7.301   5.594  1.00  0.00     0.344 HD
ATOM      6  H   UNL     1      25.723   8.370   4.382  1.00  0.00     0.344 HD
ATOM      7  H   UNL     1      25.093   8.485   5.970  1.00  0.00     0.344 HD
ENDBRANCH   3   4
ENDBRANCH   2   3
ENDBRANCH   1   2
BRANCH   1   8
ATOM      8  C   UNL     1      20.683   6.697   6.028  1.00  0.00     0.072 C 
BRANCH   8   9
ATOM      9  C   UNL     1      20.880   7.750   7.144  1.00  0.00     0.227 C 
BRANCH   9  10
ATOM     10  N   UNL     1      20.490   7.238   8.466  1.00  0.00    -0.350 N 
ATOM     11  H   UNL     1      20.300   6.212   8.409  1.00  0.00     0.345 HD
ATOM     12  H   UNL     1      19.641   7.726   8.832  1.00  0.00     0.345 HD
ATOM     13  H   UNL     1      21.276   7.387   9.141  1.00  0.00     0.345 HD
ENDBRANCH   9  10
BRANCH   9  14
ATOM     14  C   UNL     1      20.174   9.042   6.818  1.00  0.00     0.099 C 
ATOM     15  O   UNL     1      19.168   9.057   6.059  1.00  0.00    -0.544 OA
ATOM     16  O   UNL     1      20.667  10.240   7.320  1.00  0.00    -0.544 OA
ENDBRANCH   9  14
ENDBRANCH   8   9
ENDBRANCH   1   8
TORSDOF 7
ENDMDL
MODEL 6
REMARK VINA RESULT:    -3.687     13.857     14.554
REMARK INTER + INTRA:          -5.157
REMARK INTER:                  -5.082
REMARK INTRA:                  -0.075
REMARK UNBOUND:                -0.177
REMARK SMILES [NH3+]CCCC[C@H]([NH3+])C(=O)[O-]
REMARK SMILES IDX 4 1 3 2 2 3 1 4 5 8 6 9 7 10 8 14 9 15 10 16
REMARK H PARENT 1 5 1 6 1 7 7 11 7 12 7 13
REMARK Flexibility Score: inf
ROOT
ATOM      1  C   UNL     1      18.644   3.558  19.412  1.00  0.00     0.012 C 
ENDROOT
BRANCH   1   2
ATOM      2  C   UNL     1      17.182   3.384  19.857  1.00  0.00     0.061 C 
BRANCH   2   3
ATOM      3  C   UNL     1      16.982   2.171  20.781  1.00  0.00     0.258 C 
BRANCH   3   4
ATOM      4  N   UNL     1      17.103   0.921  20.032  1.00  0.00    -0.358 N 
ATOM      5  H   UNL     1      16.413   0.230  20.404  1.00  0.00     0.344 HD
ATOM      6  H   UNL     1      16.900   1.088  19.019  1.00  0.00     0.344 HD
ATOM      7  H   UNL     1      18.066   0.527  20.140  1.00  0.00     0.344 HD
ENDBRANCH   3   4
ENDBRANCH   2   3
ENDBRANCH   1   2
BRANCH   1   8
ATOM      8  C   UNL     1      19.432   4.506  20.338  1.00  0.00     0.072 C 
BRANCH   8   9
ATOM      9  C   UNL     1      20.938   4.613  20.003  1.00  0.00     0.227 C 
BRANCH   9  10
ATOM     10  N   UNL     1      21.787   4.129  21.102  1.00  0.00    -0.350 N 
ATOM     11  H   UNL     1      21.534   4.618  21.990  1.00  0.00     0.345 HD
ATOM     12  H   UNL     1      22.801   4.284  20.901  1.00  0.00     0.345 HD
ATOM     13  H   UNL     1      21.628   3.104  21.237  1.00  0.00     0.345 HD
ENDBRANCH   9  10
BRANCH   9  14
ATOM     14  C   UNL     1      21.316   6.010  19.583  1.00  0.00     0.099 C 
ATOM     15  O   UNL     1      22.000   6.212  18.544  1.00  0.00    -0.544 OA
ATOM     16  O   UNL     1      20.950   7.090  20.378  1.00  0.00    -0.544 OA
ENDBRANCH   9  14
ENDBRANCH   8   9
ENDBRANCH   1   8
TORSDOF 7
ENDMDL
MODEL 7
REMARK VINA RESULT:    -3.596      2.865      4.509
REMARK INTER + INTRA:          -5.034
REMARK INTER:                  -4.998
REMARK INTRA:                  -0.036
REMARK UNBOUND:                -0.177
REMARK SMILES [NH3+]CCCC[C@H]([NH3+])C(=O)[O-]
REMARK SMILES IDX 4 1 3 2 2 3 1 4 5 8 6 9 7 10 8 14 9 15 10 16
REMARK H PARENT 1 5 1 6 1 7 7 11 7 12 7 13
REMARK Flexibility Score: inf
ROOT
ATOM      1  C   UNL     1      21.790   4.962   6.964  1.00  0.00     0.012 C 
ENDROOT
BRANCH   1   2
ATOM      2  C   UNL     1      22.859   4.100   6.273  1.00  0.00     0.061 C 
BRANCH   2   3
ATOM      3  C   UNL     1      23.230   4.622   4.875  1.00  0.00     0.258 C 
BRANCH   3   4
ATOM      4  N   UNL     1      24.431   5.454   4.932  1.00  0.00    -0.358 N 
ATOM      5  H   UNL     1      25.209   4.969   4.430  1.00  0.00     0.344 HD
ATOM      6  H   UNL     1      24.252   6.375   4.469  1.00  0.00     0.344 HD
ATOM      7  H   UNL     1      24.717   5.607   5.927  1.00  0.00     0.344 HD
ENDBRANCH   3   4
ENDBRANCH   2   3
ENDBRANCH   1   2
BRANCH   1   8
ATOM      8  C   UNL     1      21.094   5.933   5.989  1.00  0.00     0.072 C 
BRANCH   8   9
ATOM      9  C   UNL     1      21.430   7.423   6.229  1.00  0.00     0.227 C 
BRANCH   9  10
ATOM     10  N   UNL     1      22.791   7.609   6.754  1.00  0.00    -0.350 N 
ATOM     11  H   UNL     1      23.085   8.605   6.640  1.00  0.00     0.345 HD
ATOM     12  H   UNL     1      23.477   6.989   6.268  1.00  0.00     0.345 HD
ATOM     13  H   UNL     1      22.802   7.381   7.775  1.00  0.00     0.345 HD
ENDBRANCH   9  10
BRANCH   9  14
ATOM     14  C   UNL     1      20.400   8.090   7.105  1.00  0.00     0.099 C 
ATOM     15  O   UNL     1      19.739   9.079   6.690  1.00  0.00    -0.544 OA
ATOM     16  O   UNL     1      20.212   7.643   8.407  1.00  0.00    -0.544 OA
ENDBRANCH   9  14
ENDBRANCH   8   9
ENDBRANCH   1   8
TORSDOF 7
ENDMDL
MODEL 8
REMARK VINA RESULT:    -3.469     12.322     13.081
REMARK INTER + INTRA:          -4.863
REMARK INTER:                  -4.655
REMARK INTRA:                  -0.208
REMARK UNBOUND:                -0.177
REMARK SMILES [NH3+]CCCC[C@H]([NH3+])C(=O)[O-]
REMARK SMILES IDX 4 1 3 2 2 3 1 4 5 8 6 9 7 10 8 14 9 15 10 16
REMARK H PARENT 1 5 1 6 1 7 7 11 7 12 7 13
REMARK Flexibility Score: inf
ROOT
ATOM      1  C   UNL     1      22.189   6.018  18.829  1.00  0.00     0.012 C 
ENDROOT
BRANCH   1   2
ATOM      2  C   UNL     1      22.068   6.896  17.572  1.00  0.00     0.061 C 
BRANCH   2   3
ATOM      3  C   UNL     1      21.135   6.290  16.511  1.00  0.00     0.258 C 
BRANCH   3   4
ATOM      4  N   UNL     1      21.477   4.891  16.256  1.00  0.00    -0.358 N 
ATOM      5  H   UNL     1      21.138   4.623  15.305  1.00  0.00     0.344 HD
ATOM      6  H   UNL     1      22.515   4.762  16.294  1.00  0.00     0.344 HD
ATOM      7  H   UNL     1      21.018   4.272  16.965  1.00  0.00     0.344 HD
ENDBRANCH   3   4
ENDBRANCH   2   3
ENDBRANCH   1   2
BRANCH   1   8
ATOM      8  C   UNL     1      21.007   6.210  19.799  1.00  0.00     0.072 C 
BRANCH   8   9
ATOM      9  C   UNL     1      20.536   4.910  20.492  1.00  0.00     0.227 C 
BRANCH   9  10
ATOM     10  N   UNL     1      21.664   4.092  20.962  1.00  0.00    -0.350 N 
ATOM     11  H   UNL     1      22.375   4.700  21.428  1.00  0.00     0.345 HD
ATOM     12  H   UNL     1      22.115   3.573  20.176  1.00  0.00     0.345 HD
ATOM     13  H   UNL     1      21.319   3.398  21.665  1.00  0.00     0.345 HD
ENDBRANCH   9  10
BRANCH   9  14
ATOM     14  C   UNL     1      19.604   4.117  19.611  1.00  0.00     0.099 C 
ATOM     15  O   UNL     1      19.904   3.864  18.413  1.00  0.00    -0.544 OA
ATOM     16  O   UNL     1      18.375   3.703  20.107  1.00  0.00    -0.544 OA
ENDBRANCH   9  14
ENDBRANCH   8   9
ENDBRANCH   1   8
TORSDOF 7
ENDMDL
MODEL 9
REMARK VINA RESULT:    -1.422      1.903      2.132
REMARK INTER + INTRA:          -2.098
REMARK INTER:                  -1.862
REMARK INTRA:                  -0.236
REMARK UNBOUND:                -0.177
REMARK SMILES [NH3+]CCCC[C@H]([NH3+])C(=O)[O-]
REMARK SMILES IDX 4 1 3 2 2 3 1 4 5 8 6 9 7 10 8 14 9 15 10 16
REMARK H PARENT 1 5 1 6 1 7 7 11 7 12 7 13
REMARK Flexibility Score: inf
ROOT
ATOM      1  C   UNL     1      20.991   6.139   7.126  1.00  0.00     0.012 C 
ENDROOT
BRANCH   1   2
ATOM      2  C   UNL     1      20.620   7.551   7.610  1.00  0.00     0.061 C 
BRANCH   2   3
ATOM      3  C   UNL     1      20.328   8.519   6.452  1.00  0.00     0.258 C 
BRANCH   3   4
ATOM      4  N   UNL     1      19.094   9.264   6.695  1.00  0.00    -0.358 N 
ATOM      5  H   UNL     1      18.734   9.636   5.787  1.00  0.00     0.344 HD
ATOM      6  H   UNL     1      18.370   8.634   7.112  1.00  0.00     0.344 HD
ATOM      7  H   UNL     1      19.277  10.067   7.340  1.00  0.00     0.344 HD
ENDBRANCH   3   4
ENDBRANCH   2   3
ENDBRANCH   1   2
BRANCH   1   8
ATOM      8  C   UNL     1      21.477   6.127   5.663  1.00  0.00     0.072 C 
BRANCH   8   9
ATOM      9  C   UNL     1      22.876   5.500   5.464  1.00  0.00     0.227 C 
BRANCH   9  10
ATOM     10  N   UNL     1      23.267   4.644   6.594  1.00  0.00    -0.350 N 
ATOM     11  H   UNL     1      23.502   5.234   7.424  1.00  0.00     0.345 HD
ATOM     12  H   UNL     1      24.088   4.043   6.354  1.00  0.00     0.345 HD
ATOM     13  H   UNL     1      22.465   4.024   6.852  1.00  0.00     0.345 HD
ENDBRANCH   9  10
BRANCH   9  14
ATOM     14  C   UNL     1      23.919   6.549   5.175  1.00  0.00     0.099 C 
ATOM     15  O   UNL     1      23.619   7.773   5.157  1.00  0.00    -0.544 OA
ATOM     16  O   UNL     1      25.220   6.162   4.875  1.00  0.00    -0.544 OA
ENDBRANCH   9  14
ENDBRANCH   8   9
ENDBRANCH   1   8
TORSDOF 7
ENDMDL
