MODEL 1
REMARK VINA RESULT:    -4.030      0.000      0.000
REMARK INTER + INTRA:          -5.388
REMARK INTER:                  -5.208
REMARK INTRA:                  -0.180
REMARK UNBOUND:                -0.180
REMARK SMILES CCCCCCC(=O)[O-]
REMARK SMILES IDX 5 1 6 2 7 3 8 4 9 5 4 6 3 7 2 8 1 9
REMARK H PARENT
REMARK Flexibility Score: inf
ROOT
ATOM      1  C   UNL     1       2.870 -37.881  18.735  1.00  0.00     0.006 C 
ENDROOT
BRANCH   1   2
ATOM      2  C   UNL     1       4.221 -37.957  19.461  1.00  0.00     0.053 C 
BRANCH   2   3
ATOM      3  C   UNL     1       4.660 -36.593  19.890  1.00  0.00     0.041 C 
ATOM      4  O   UNL     1       4.693 -36.294  21.113  1.00  0.00    -0.550 OA
ATOM      5  O   UNL     1       4.985 -35.635  18.938  1.00  0.00    -0.550 OA
ENDBRANCH   2   3
ENDBRANCH   1   2
BRANCH   1   6
ATOM      6  C   UNL     1       3.010 -38.122  17.221  1.00  0.00     0.000 C 
BRANCH   6   7
ATOM      7  C   UNL     1       2.769 -36.852  16.376  1.00  0.00    -0.000 C 
BRANCH   7   8
ATOM      8  C   UNL     1       2.452 -37.148  14.901  1.00  0.00    -0.003 C 
ATOM      9  C   UNL     1       3.555 -37.943  14.204  1.00  0.00     0.004 C 
ENDBRANCH   7   8
ENDBRANCH   6   7
ENDBRANCH   1   6
TORSDOF 5
ENDMDL
MODEL 2
REMARK VINA RESULT:    -3.896      1.853      2.570
REMARK INTER + INTRA:          -5.215
REMARK INTER:                  -5.084
REMARK INTRA:                  -0.131
REMARK UNBOUND:                -0.180
REMARK SMILES CCCCCCC(=O)[O-]
REMARK SMILES IDX 5 1 6 2 7 3 8 4 9 5 4 6 3 7 2 8 1 9
REMARK H PARENT
REMARK Flexibility Score: inf
ROOT
ATOM      1  C   UNL     1       4.105 -36.613  19.877  1.00  0.00     0.006 C 
ENDROOT
BRANCH   1   2
ATOM      2  C   UNL     1       5.409 -36.586  20.687  1.00  0.00     0.053 C 
BRANCH   2   3
ATOM      3  C   UNL     1       5.125 -36.794  22.141  1.00  0.00     0.041 C 
ATOM      4  O   UNL     1       5.011 -35.805  22.912  1.00  0.00    -0.550 OA
ATOM      5  O   UNL     1       5.037 -38.082  22.655  1.00  0.00    -0.550 OA
ENDBRANCH   2   3
ENDBRANCH   1   2
BRANCH   1   6
ATOM      6  C   UNL     1       3.921 -37.939  19.118  1.00  0.00     0.000 C 
BRANCH   6   7
ATOM      7  C   UNL     1       2.607 -38.001  18.308  1.00  0.00    -0.000 C 
BRANCH   7   8
ATOM      8  C   UNL     1       2.817 -37.881  16.790  1.00  0.00    -0.003 C 
ATOM      9  C   UNL     1       1.699 -37.107  16.094  1.00  0.00     0.004 C 
ENDBRANCH   7   8
ENDBRANCH   6   7
ENDBRANCH   1   6
TORSDOF 5
ENDMDL
MODEL 3
REMARK VINA RESULT:    -3.885      2.785      5.793
REMARK INTER + INTRA:          -5.200
REMARK INTER:                  -5.094
REMARK INTRA:                  -0.106
REMARK UNBOUND:                -0.180
REMARK SMILES CCCCCCC(=O)[O-]
REMARK SMILES IDX 5 1 6 2 7 3 8 4 9 5 4 6 3 7 2 8 1 9
REMARK H PARENT
REMARK Flexibility Score: inf
ROOT
ATOM      1  C   UNL     1       4.215 -36.463  19.873  1.00  0.00     0.006 C 
ENDROOT
BRANCH   1   2
ATOM      2  C   UNL     1       4.001 -37.869  19.294  1.00  0.00     0.053 C 
BRANCH   2   3
ATOM      3  C   UNL     1       2.826 -37.879  18.368  1.00  0.00     0.041 C 
ATOM      4  O   UNL     1       2.923 -37.377  17.217  1.00  0.00    -0.550 OA
ATOM      5  O   UNL     1       1.610 -38.398  18.794  1.00  0.00    -0.550 OA
ENDBRANCH   2   3
ENDBRANCH   1   2
BRANCH   1   6
ATOM      6  C   UNL     1       5.422 -36.405  20.826  1.00  0.00     0.000 C 
BRANCH   6   7
ATOM      7  C   UNL     1       5.077 -36.815  22.274  1.00  0.00    -0.000 C 
BRANCH   7   8
ATOM      8  C   UNL     1       6.125 -36.365  23.305  1.00  0.00    -0.003 C 
ATOM      9  C   UNL     1       6.042 -34.874  23.626  1.00  0.00     0.004 C 
ENDBRANCH   7   8
ENDBRANCH   6   7
ENDBRANCH   1   6
TORSDOF 5
ENDMDL
MODEL 4
REMARK VINA RESULT:    -3.799      2.364      3.904
REMARK INTER + INTRA:          -5.089
REMARK INTER:                  -4.920
REMARK INTRA:                  -0.170
REMARK UNBOUND:                -0.180
REMARK SMILES CCCCCCC(=O)[O-]
REMARK SMILES IDX 5 1 6 2 7 3 8 4 9 5 4 6 3 7 2 8 1 9
REMARK H PARENT
REMARK Flexibility Score: inf
ROOT
ATOM      1  C   UNL     1       5.533 -36.427  21.114  1.00  0.00     0.006 C 
ENDROOT
BRANCH   1   2
ATOM      2  C   UNL     1       4.991 -36.090  22.510  1.00  0.00     0.053 C 
BRANCH   2   3
ATOM      3  C   UNL     1       5.087 -37.281  23.409  1.00  0.00     0.041 C 
ATOM      4  O   UNL     1       5.159 -38.439  22.920  1.00  0.00    -0.550 OA
ATOM      5  O   UNL     1       5.045 -37.117  24.788  1.00  0.00    -0.550 OA
ENDBRANCH   2   3
ENDBRANCH   1   2
BRANCH   1   6
ATOM      6  C   UNL     1       4.419 -36.467  20.053  1.00  0.00     0.000 C 
BRANCH   6   7
ATOM      7  C   UNL     1       4.197 -37.873  19.454  1.00  0.00    -0.000 C 
BRANCH   7   8
ATOM      8  C   UNL     1       2.816 -38.049  18.800  1.00  0.00    -0.003 C 
ATOM      9  C   UNL     1       2.854 -37.895  17.281  1.00  0.00     0.004 C 
ENDBRANCH   7   8
ENDBRANCH   6   7
ENDBRANCH   1   6
TORSDOF 5
ENDMDL
MODEL 5
REMARK VINA RESULT:    -3.799      3.271      4.902
REMARK INTER + INTRA:          -5.089
REMARK INTER:                  -4.947
REMARK INTRA:                  -0.142
REMARK UNBOUND:                -0.180
REMARK SMILES CCCCCCC(=O)[O-]
REMARK SMILES IDX 5 1 6 2 7 3 8 4 9 5 4 6 3 7 2 8 1 9
REMARK H PARENT
REMARK Flexibility Score: inf
ROOT
ATOM      1  C   UNL     1       5.384 -36.165  22.524  1.00  0.00     0.006 C 
ENDROOT
BRANCH   1   2
ATOM      2  C   UNL     1       5.011 -37.473  23.235  1.00  0.00     0.053 C 
BRANCH   2   3
ATOM      3  C   UNL     1       5.266 -37.359  24.705  1.00  0.00     0.041 C 
ATOM      4  O   UNL     1       6.061 -36.487  25.144  1.00  0.00    -0.550 OA
ATOM      5  O   UNL     1       4.665 -38.249  25.586  1.00  0.00    -0.550 OA
ENDBRANCH   2   3
ENDBRANCH   1   2
BRANCH   1   6
ATOM      6  C   UNL     1       5.670 -36.379  21.027  1.00  0.00     0.000 C 
BRANCH   6   7
ATOM      7  C   UNL     1       4.390 -36.538  20.177  1.00  0.00    -0.000 C 
BRANCH   7   8
ATOM      8  C   UNL     1       4.276 -37.911  19.494  1.00  0.00    -0.003 C 
ATOM      9  C   UNL     1       3.251 -37.927  18.361  1.00  0.00     0.004 C 
ENDBRANCH   7   8
ENDBRANCH   6   7
ENDBRANCH   1   6
TORSDOF 5
ENDMDL
MODEL 6
REMARK VINA RESULT:    -3.779      3.508      6.648
REMARK INTER + INTRA:          -5.063
REMARK INTER:                  -4.886
REMARK INTRA:                  -0.178
REMARK UNBOUND:                -0.180
REMARK SMILES CCCCCCC(=O)[O-]
REMARK SMILES IDX 5 1 6 2 7 3 8 4 9 5 4 6 3 7 2 8 1 9
REMARK H PARENT
REMARK Flexibility Score: inf
ROOT
ATOM      1  C   UNL     1       4.958 -36.021  22.321  1.00  0.00     0.006 C 
ENDROOT
BRANCH   1   2
ATOM      2  C   UNL     1       5.704 -36.311  21.011  1.00  0.00     0.053 C 
BRANCH   2   3
ATOM      3  C   UNL     1       4.749 -36.334  19.860  1.00  0.00     0.041 C 
ATOM      4  O   UNL     1       3.810 -37.171  19.832  1.00  0.00    -0.550 OA
ATOM      5  O   UNL     1       4.927 -35.462  18.792  1.00  0.00    -0.550 OA
ENDBRANCH   2   3
ENDBRANCH   1   2
BRANCH   1   6
ATOM      6  C   UNL     1       5.884 -35.431  23.399  1.00  0.00     0.000 C 
BRANCH   6   7
ATOM      7  C   UNL     1       6.031 -36.339  24.640  1.00  0.00    -0.000 C 
BRANCH   7   8
ATOM      8  C   UNL     1       5.436 -37.743  24.447  1.00  0.00    -0.003 C 
ATOM      9  C   UNL     1       4.698 -38.253  25.684  1.00  0.00     0.004 C 
ENDBRANCH   7   8
ENDBRANCH   6   7
ENDBRANCH   1   6
TORSDOF 5
ENDMDL
MODEL 7
REMARK VINA RESULT:    -3.777      2.760      5.269
REMARK INTER + INTRA:          -5.061
REMARK INTER:                  -4.961
REMARK INTRA:                  -0.100
REMARK UNBOUND:                -0.180
REMARK SMILES CCCCCCC(=O)[O-]
REMARK SMILES IDX 5 1 6 2 7 3 8 4 9 5 4 6 3 7 2 8 1 9
REMARK H PARENT
REMARK Flexibility Score: inf
ROOT
ATOM      1  C   UNL     1       3.834 -37.154  18.664  1.00  0.00     0.006 C 
ENDROOT
BRANCH   1   2
ATOM      2  C   UNL     1       2.662 -37.993  18.136  1.00  0.00     0.053 C 
BRANCH   2   3
ATOM      3  C   UNL     1       2.443 -37.726  16.680  1.00  0.00     0.041 C 
ATOM      4  O   UNL     1       1.533 -36.938  16.311  1.00  0.00    -0.550 OA
ATOM      5  O   UNL     1       3.211 -38.386  15.729  1.00  0.00    -0.550 OA
ENDBRANCH   2   3
ENDBRANCH   1   2
BRANCH   1   6
ATOM      6  C   UNL     1       4.453 -37.757  19.937  1.00  0.00     0.000 C 
BRANCH   6   7
ATOM      7  C   UNL     1       5.328 -36.757  20.724  1.00  0.00    -0.000 C 
BRANCH   7   8
ATOM      8  C   UNL     1       5.036 -36.741  22.233  1.00  0.00    -0.003 C 
ATOM      9  C   UNL     1       5.117 -38.128  22.869  1.00  0.00     0.004 C 
ENDBRANCH   7   8
ENDBRANCH   6   7
ENDBRANCH   1   6
TORSDOF 5
ENDMDL
MODEL 8
REMARK VINA RESULT:    -3.627      2.458      3.693
REMARK INTER + INTRA:          -4.867
REMARK INTER:                  -4.761
REMARK INTRA:                  -0.106
REMARK UNBOUND:                -0.180
REMARK SMILES CCCCCCC(=O)[O-]
REMARK SMILES IDX 5 1 6 2 7 3 8 4 9 5 4 6 3 7 2 8 1 9
REMARK H PARENT
REMARK Flexibility Score: inf
ROOT
ATOM      1  C   UNL     1       5.042 -37.787  21.811  1.00  0.00     0.006 C 
ENDROOT
BRANCH   1   2
ATOM      2  C   UNL     1       5.234 -36.274  21.986  1.00  0.00     0.053 C 
BRANCH   2   3
ATOM      3  C   UNL     1       5.426 -35.935  23.431  1.00  0.00     0.041 C 
ATOM      4  O   UNL     1       5.145 -36.780  24.322  1.00  0.00    -0.550 OA
ATOM      5  O   UNL     1       5.868 -34.670  23.796  1.00  0.00    -0.550 OA
ENDBRANCH   2   3
ENDBRANCH   1   2
BRANCH   1   6
ATOM      6  C   UNL     1       4.906 -38.188  20.332  1.00  0.00     0.000 C 
BRANCH   6   7
ATOM      7  C   UNL     1       3.941 -37.278  19.539  1.00  0.00    -0.000 C 
BRANCH   7   8
ATOM      8  C   UNL     1       3.073 -38.042  18.526  1.00  0.00    -0.003 C 
ATOM      9  C   UNL     1       2.969 -37.331  17.177  1.00  0.00     0.004 C 
ENDBRANCH   7   8
ENDBRANCH   6   7
ENDBRANCH   1   6
TORSDOF 5
ENDMDL
