MODEL 1
REMARK VINA RESULT:    -5.322      0.000      0.000
REMARK INTER + INTRA:          -7.202
REMARK INTER:                  -6.722
REMARK INTRA:                  -0.480
REMARK UNBOUND:                -0.480
REMARK SMILES COc1cc(O)c2c(=O)c(OC)c(-c3ccc(O)c(O)c3)oc2c1
REMARK SMILES IDX 3 1 4 2 5 3 7 4 23 5 24 6 22 7 13 8 10 9 8 10 9 11 2 12 1 13
REMARK SMILES IDX 6 14 14 16 21 17 15 18 19 19 16 20 17 21 20 22 18 24 11 26
REMARK SMILES IDX 12 27
REMARK H PARENT 6 15 20 23 18 25
REMARK Flexibility Score: inf
ROOT
ATOM      1  C   UNL     1      38.693  54.116  67.464  1.00  0.00     0.126 A 
ATOM      2  C   UNL     1      37.513  54.753  67.850  1.00  0.00     0.093 A 
ATOM      3  C   UNL     1      36.402  54.026  68.292  1.00  0.00     0.134 A 
ATOM      4  C   UNL     1      36.443  52.600  68.281  1.00  0.00     0.111 A 
ATOM      5  C   UNL     1      37.655  51.965  67.915  1.00  0.00     0.146 A 
ATOM      6  C   UNL     1      38.763  52.717  67.515  1.00  0.00     0.094 A 
ATOM      7  O   UNL     1      37.763  50.645  67.938  1.00  0.00    -0.452 OA
ATOM      8  C   UNL     1      36.770  49.832  68.279  1.00  0.00     0.180 A 
ATOM      9  C   UNL     1      35.500  50.358  68.582  1.00  0.00     0.210 A 
ATOM     10  C   UNL     1      35.336  51.764  68.568  1.00  0.00     0.239 A 
ATOM     11  O   UNL     1      34.198  52.260  68.764  1.00  0.00    -0.285 OA
ENDROOT
BRANCH   1  12
ATOM     12  O   UNL     1      39.772  54.910  67.047  1.00  0.00    -0.496 OA
ATOM     13  C   UNL     1      41.102  54.431  66.869  1.00  0.00     0.278 C 
ENDBRANCH   1  12
BRANCH   3  14
ATOM     14  O   UNL     1      35.313  54.770  68.756  1.00  0.00    -0.507 OA
ATOM     15  H   UNL     1      34.476  54.372  69.155  1.00  0.00     0.293 HD
ENDBRANCH   3  14
BRANCH   8  16
ATOM     16  C   UNL     1      37.041  48.377  68.295  1.00  0.00     0.025 A 
ATOM     17  C   UNL     1      36.853  47.624  67.125  1.00  0.00     0.062 A 
ATOM     18  C   UNL     1      37.543  47.742  69.442  1.00  0.00     0.016 A 
ATOM     19  C   UNL     1      37.124  46.250  67.101  1.00  0.00     0.158 A 
ATOM     20  C   UNL     1      37.814  46.372  69.427  1.00  0.00     0.051 A 
ATOM     21  C   UNL     1      37.607  45.615  68.269  1.00  0.00     0.157 A 
BRANCH  19  22
ATOM     22  O   UNL     1      36.901  45.563  65.906  1.00  0.00    -0.504 OA
ATOM     23  H   UNL     1      36.408  45.953  65.116  1.00  0.00     0.293 HD
ENDBRANCH  19  22
BRANCH  21  24
ATOM     24  O   UNL     1      37.894  44.249  68.322  1.00  0.00    -0.504 OA
ATOM     25  H   UNL     1      37.556  43.575  67.651  1.00  0.00     0.293 HD
ENDBRANCH  21  24
ENDBRANCH   8  16
BRANCH   9  26
ATOM     26  O   UNL     1      34.452  49.454  68.848  1.00  0.00    -0.490 OA
ATOM     27  C   UNL     1      34.046  48.974  70.125  1.00  0.00     0.278 C 
ENDBRANCH   9  26
TORSDOF 6
ENDMDL
MODEL 2
REMARK VINA RESULT:    -5.192      2.203      7.041
REMARK INTER + INTRA:          -7.037
REMARK INTER:                  -6.601
REMARK INTRA:                  -0.436
REMARK UNBOUND:                -0.480
REMARK SMILES COc1cc(O)c2c(=O)c(OC)c(-c3ccc(O)c(O)c3)oc2c1
REMARK SMILES IDX 3 1 4 2 5 3 7 4 23 5 24 6 22 7 13 8 10 9 8 10 9 11 2 12 1 13
REMARK SMILES IDX 6 14 14 16 21 17 15 18 19 19 16 20 17 21 20 22 18 24 11 26
REMARK SMILES IDX 12 27
REMARK H PARENT 6 15 20 23 18 25
REMARK Flexibility Score: inf
ROOT
ATOM      1  C   UNL     1      40.621  45.564  69.690  1.00  0.00     0.126 A 
ATOM      2  C   UNL     1      39.611  44.712  69.241  1.00  0.00     0.093 A 
ATOM      3  C   UNL     1      38.386  45.210  68.784  1.00  0.00     0.134 A 
ATOM      4  C   UNL     1      38.128  46.612  68.845  1.00  0.00     0.111 A 
ATOM      5  C   UNL     1      39.170  47.469  69.274  1.00  0.00     0.146 A 
ATOM      6  C   UNL     1      40.399  46.948  69.687  1.00  0.00     0.094 A 
ATOM      7  O   UNL     1      39.000  48.783  69.299  1.00  0.00    -0.452 OA
ATOM      8  C   UNL     1      37.870  49.384  68.951  1.00  0.00     0.180 A 
ATOM      9  C   UNL     1      36.746  48.619  68.585  1.00  0.00     0.210 A 
ATOM     10  C   UNL     1      36.879  47.211  68.547  1.00  0.00     0.239 A 
ATOM     11  O   UNL     1      35.875  46.497  68.294  1.00  0.00    -0.285 OA
ENDROOT
BRANCH   1  12
ATOM     12  O   UNL     1      41.830  44.995  70.118  1.00  0.00    -0.496 OA
ATOM     13  C   UNL     1      42.154  43.612  70.003  1.00  0.00     0.278 C 
ENDBRANCH   1  12
BRANCH   3  14
ATOM     14  O   UNL     1      37.489  44.275  68.258  1.00  0.00    -0.507 OA
ATOM     15  H   UNL     1      37.237  44.210  67.282  1.00  0.00     0.293 HD
ENDBRANCH   3  14
BRANCH   8  16
ATOM     16  C   UNL     1      37.832  50.864  68.992  1.00  0.00     0.025 A 
ATOM     17  C   UNL     1      38.241  51.599  67.868  1.00  0.00     0.062 A 
ATOM     18  C   UNL     1      37.336  51.550  70.112  1.00  0.00     0.016 A 
ATOM     19  C   UNL     1      38.194  52.999  67.867  1.00  0.00     0.158 A 
ATOM     20  C   UNL     1      37.287  52.945  70.119  1.00  0.00     0.051 A 
ATOM     21  C   UNL     1      37.715  53.681  69.009  1.00  0.00     0.157 A 
BRANCH  19  22
ATOM     22  O   UNL     1      38.630  53.663  66.718  1.00  0.00    -0.504 OA
ATOM     23  H   UNL     1      38.635  54.667  66.616  1.00  0.00     0.293 HD
ENDBRANCH  19  22
BRANCH  21  24
ATOM     24  O   UNL     1      37.643  55.074  69.082  1.00  0.00    -0.504 OA
ATOM     25  H   UNL     1      38.347  55.695  68.711  1.00  0.00     0.293 HD
ENDBRANCH  21  24
ENDBRANCH   8  16
BRANCH   9  26
ATOM     26  O   UNL     1      35.540  49.296  68.313  1.00  0.00    -0.490 OA
ATOM     27  C   UNL     1      34.464  49.514  69.220  1.00  0.00     0.278 C 
ENDBRANCH   9  26
TORSDOF 6
ENDMDL
MODEL 3
REMARK VINA RESULT:    -5.046      1.957      3.915
REMARK INTER + INTRA:          -6.853
REMARK INTER:                  -6.411
REMARK INTRA:                  -0.442
REMARK UNBOUND:                -0.480
REMARK SMILES COc1cc(O)c2c(=O)c(OC)c(-c3ccc(O)c(O)c3)oc2c1
REMARK SMILES IDX 3 1 4 2 5 3 7 4 23 5 24 6 22 7 13 8 10 9 8 10 9 11 2 12 1 13
REMARK SMILES IDX 6 14 14 16 21 17 15 18 19 19 16 20 17 21 20 22 18 24 11 26
REMARK SMILES IDX 12 27
REMARK H PARENT 6 15 20 23 18 25
REMARK Flexibility Score: inf
ROOT
ATOM      1  C   UNL     1      33.204  53.009  69.598  1.00  0.00     0.126 A 
ATOM      2  C   UNL     1      34.148  54.035  69.658  1.00  0.00     0.093 A 
ATOM      3  C   UNL     1      35.514  53.780  69.487  1.00  0.00     0.134 A 
ATOM      4  C   UNL     1      35.965  52.437  69.322  1.00  0.00     0.111 A 
ATOM      5  C   UNL     1      34.996  51.408  69.234  1.00  0.00     0.146 A 
ATOM      6  C   UNL     1      33.635  51.696  69.368  1.00  0.00     0.094 A 
ATOM      7  O   UNL     1      35.359  50.150  69.028  1.00  0.00    -0.452 OA
ATOM      8  C   UNL     1      36.622  49.760  68.908  1.00  0.00     0.180 A 
ATOM      9  C   UNL     1      37.666  50.692  69.061  1.00  0.00     0.210 A 
ATOM     10  C   UNL     1      37.327  52.048  69.285  1.00  0.00     0.239 A 
ATOM     11  O   UNL     1      38.236  52.890  69.496  1.00  0.00    -0.285 OA
ENDROOT
BRANCH   1  12
ATOM     12  O   UNL     1      31.850  53.341  69.762  1.00  0.00    -0.496 OA
ATOM     13  C   UNL     1      30.960  53.639  68.691  1.00  0.00     0.278 C 
ENDBRANCH   1  12
BRANCH   3  14
ATOM     14  O   UNL     1      36.358  54.895  69.459  1.00  0.00    -0.507 OA
ATOM     15  H   UNL     1      36.647  55.372  68.618  1.00  0.00     0.293 HD
ENDBRANCH   3  14
BRANCH   8  16
ATOM     16  C   UNL     1      36.882  48.327  68.644  1.00  0.00     0.025 A 
ATOM     17  C   UNL     1      37.191  47.908  67.340  1.00  0.00     0.062 A 
ATOM     18  C   UNL     1      36.885  47.383  69.683  1.00  0.00     0.016 A 
ATOM     19  C   UNL     1      37.466  46.563  67.062  1.00  0.00     0.158 A 
ATOM     20  C   UNL     1      37.157  46.040  69.414  1.00  0.00     0.051 A 
ATOM     21  C   UNL     1      37.444  45.616  68.112  1.00  0.00     0.157 A 
BRANCH  19  22
ATOM     22  O   UNL     1      37.754  46.218  65.739  1.00  0.00    -0.504 OA
ATOM     23  H   UNL     1      37.096  46.306  64.979  1.00  0.00     0.293 HD
ENDBRANCH  19  22
BRANCH  21  24
ATOM     24  O   UNL     1      37.703  44.258  67.910  1.00  0.00    -0.504 OA
ATOM     25  H   UNL     1      37.763  43.579  68.654  1.00  0.00     0.293 HD
ENDBRANCH  21  24
ENDBRANCH   8  16
BRANCH   9  26
ATOM     26  O   UNL     1      38.993  50.217  69.019  1.00  0.00    -0.490 OA
ATOM     27  C   UNL     1      39.775  49.781  70.125  1.00  0.00     0.278 C 
ENDBRANCH   9  26
TORSDOF 6
ENDMDL
MODEL 4
REMARK VINA RESULT:    -4.789      2.249      6.818
REMARK INTER + INTRA:          -6.528
REMARK INTER:                  -6.200
REMARK INTRA:                  -0.329
REMARK UNBOUND:                -0.480
REMARK SMILES COc1cc(O)c2c(=O)c(OC)c(-c3ccc(O)c(O)c3)oc2c1
REMARK SMILES IDX 3 1 4 2 5 3 7 4 23 5 24 6 22 7 13 8 10 9 8 10 9 11 2 12 1 13
REMARK SMILES IDX 6 14 14 16 21 17 15 18 19 19 16 20 17 21 20 22 18 24 11 26
REMARK SMILES IDX 12 27
REMARK H PARENT 6 15 20 23 18 25
REMARK Flexibility Score: inf
ROOT
ATOM      1  C   UNL     1      38.136  47.140  67.737  1.00  0.00     0.126 A 
ATOM      2  C   UNL     1      39.367  47.459  68.310  1.00  0.00     0.093 A 
ATOM      3  C   UNL     1      39.565  48.666  68.991  1.00  0.00     0.134 A 
ATOM      4  C   UNL     1      38.512  49.628  69.040  1.00  0.00     0.111 A 
ATOM      5  C   UNL     1      37.259  49.281  68.480  1.00  0.00     0.146 A 
ATOM      6  C   UNL     1      37.077  48.052  67.841  1.00  0.00     0.094 A 
ATOM      7  O   UNL     1      36.232  50.117  68.545  1.00  0.00    -0.452 OA
ATOM      8  C   UNL     1      36.298  51.318  69.107  1.00  0.00     0.180 A 
ATOM      9  C   UNL     1      37.519  51.791  69.622  1.00  0.00     0.210 A 
ATOM     10  C   UNL     1      38.644  50.934  69.572  1.00  0.00     0.239 A 
ATOM     11  O   UNL     1      39.765  51.354  69.958  1.00  0.00    -0.285 OA
ENDROOT
BRANCH   1  12
ATOM     12  O   UNL     1      38.006  45.904  67.084  1.00  0.00    -0.496 OA
ATOM     13  C   UNL     1      37.614  45.751  65.723  1.00  0.00     0.278 C 
ENDBRANCH   1  12
BRANCH   3  14
ATOM     14  O   UNL     1      40.803  48.834  69.617  1.00  0.00    -0.507 OA
ATOM     15  H   UNL     1      41.453  48.086  69.809  1.00  0.00     0.293 HD
ENDBRANCH   3  14
BRANCH   8  16
ATOM     16  C   UNL     1      35.063  52.134  69.141  1.00  0.00     0.025 A 
ATOM     17  C   UNL     1      34.910  53.197  68.236  1.00  0.00     0.062 A 
ATOM     18  C   UNL     1      34.011  51.830  70.019  1.00  0.00     0.016 A 
ATOM     19  C   UNL     1      33.744  53.972  68.226  1.00  0.00     0.158 A 
ATOM     20  C   UNL     1      32.846  52.599  70.017  1.00  0.00     0.051 A 
ATOM     21  C   UNL     1      32.700  53.673  69.131  1.00  0.00     0.157 A 
BRANCH  19  22
ATOM     22  O   UNL     1      33.668  55.021  67.306  1.00  0.00    -0.504 OA
ATOM     23  H   UNL     1      32.919  55.133  66.639  1.00  0.00     0.293 HD
ENDBRANCH  19  22
BRANCH  21  24
ATOM     24  O   UNL     1      31.511  54.404  69.183  1.00  0.00    -0.504 OA
ATOM     25  H   UNL     1      31.306  55.098  69.886  1.00  0.00     0.293 HD
ENDBRANCH  21  24
ENDBRANCH   8  16
BRANCH   9  26
ATOM     26  O   UNL     1      37.564  53.107  70.125  1.00  0.00    -0.490 OA
ATOM     27  C   UNL     1      38.112  54.249  69.474  1.00  0.00     0.278 C 
ENDBRANCH   9  26
TORSDOF 6
ENDMDL
MODEL 5
REMARK VINA RESULT:    -4.567      2.155      6.907
REMARK INTER + INTRA:          -6.248
REMARK INTER:                  -6.035
REMARK INTRA:                  -0.213
REMARK UNBOUND:                -0.480
REMARK SMILES COc1cc(O)c2c(=O)c(OC)c(-c3ccc(O)c(O)c3)oc2c1
REMARK SMILES IDX 3 1 4 2 5 3 7 4 23 5 24 6 22 7 13 8 10 9 8 10 9 11 2 12 1 13
REMARK SMILES IDX 6 14 14 16 21 17 15 18 19 19 16 20 17 21 20 22 18 24 11 26
REMARK SMILES IDX 12 27
REMARK H PARENT 6 15 20 23 18 25
REMARK Flexibility Score: inf
ROOT
ATOM      1  C   UNL     1      37.849  46.881  67.278  1.00  0.00     0.126 A 
ATOM      2  C   UNL     1      39.015  46.983  68.036  1.00  0.00     0.093 A 
ATOM      3  C   UNL     1      39.262  48.097  68.848  1.00  0.00     0.134 A 
ATOM      4  C   UNL     1      38.342  49.187  68.849  1.00  0.00     0.111 A 
ATOM      5  C   UNL     1      37.148  49.059  68.098  1.00  0.00     0.146 A 
ATOM      6  C   UNL     1      36.907  47.918  67.327  1.00  0.00     0.094 A 
ATOM      7  O   UNL     1      36.235  50.020  68.106  1.00  0.00    -0.452 OA
ATOM      8  C   UNL     1      36.368  51.153  68.783  1.00  0.00     0.180 A 
ATOM      9  C   UNL     1      37.553  51.415  69.497  1.00  0.00     0.210 A 
ATOM     10  C   UNL     1      38.558  50.418  69.515  1.00  0.00     0.239 A 
ATOM     11  O   UNL     1      39.655  50.650  70.084  1.00  0.00    -0.285 OA
ENDROOT
BRANCH   1  12
ATOM     12  O   UNL     1      37.661  45.728  66.500  1.00  0.00    -0.496 OA
ATOM     13  C   UNL     1      37.132  45.728  65.176  1.00  0.00     0.278 C 
ENDBRANCH   1  12
BRANCH   3  14
ATOM     14  O   UNL     1      40.409  48.045  69.646  1.00  0.00    -0.507 OA
ATOM     15  H   UNL     1      41.252  47.545  69.403  1.00  0.00     0.293 HD
ENDBRANCH   3  14
BRANCH   8  16
ATOM     16  C   UNL     1      35.253  52.125  68.731  1.00  0.00     0.025 A 
ATOM     17  C   UNL     1      34.057  51.844  69.410  1.00  0.00     0.062 A 
ATOM     18  C   UNL     1      35.387  53.354  68.066  1.00  0.00     0.016 A 
ATOM     19  C   UNL     1      32.992  52.753  69.401  1.00  0.00     0.158 A 
ATOM     20  C   UNL     1      34.330  54.266  68.051  1.00  0.00     0.051 A 
ATOM     21  C   UNL     1      33.128  53.979  68.709  1.00  0.00     0.157 A 
BRANCH  19  22
ATOM     22  O   UNL     1      31.828  52.400  70.088  1.00  0.00    -0.504 OA
ATOM     23  H   UNL     1      31.334  51.531  69.949  1.00  0.00     0.293 HD
ENDBRANCH  19  22
BRANCH  21  24
ATOM     24  O   UNL     1      32.109  54.932  68.652  1.00  0.00    -0.504 OA
ATOM     25  H   UNL     1      31.209  54.823  69.096  1.00  0.00     0.293 HD
ENDBRANCH  21  24
ENDBRANCH   8  16
BRANCH   9  26
ATOM     26  O   UNL     1      37.689  52.670  70.124  1.00  0.00    -0.490 OA
ATOM     27  C   UNL     1      38.640  53.680  69.807  1.00  0.00     0.278 C 
ENDBRANCH   9  26
TORSDOF 6
ENDMDL
MODEL 6
REMARK VINA RESULT:    -4.433      1.856      3.521
REMARK INTER + INTRA:          -6.079
REMARK INTER:                  -6.527
REMARK INTRA:                   0.448
REMARK UNBOUND:                -0.480
REMARK SMILES COc1cc(O)c2c(=O)c(OC)c(-c3ccc(O)c(O)c3)oc2c1
REMARK SMILES IDX 3 1 4 2 5 3 7 4 23 5 24 6 22 7 13 8 10 9 8 10 9 11 2 12 1 13
REMARK SMILES IDX 6 14 14 16 21 17 15 18 19 19 16 20 17 21 20 22 18 24 11 26
REMARK SMILES IDX 12 27
REMARK H PARENT 6 15 20 23 18 25
REMARK Flexibility Score: inf
ROOT
ATOM      1  C   UNL     1      34.927  53.666  68.376  1.00  0.00     0.126 A 
ATOM      2  C   UNL     1      36.007  54.446  68.790  1.00  0.00     0.093 A 
ATOM      3  C   UNL     1      37.236  53.868  69.129  1.00  0.00     0.134 A 
ATOM      4  C   UNL     1      37.373  52.449  69.125  1.00  0.00     0.111 A 
ATOM      5  C   UNL     1      36.280  51.669  68.676  1.00  0.00     0.146 A 
ATOM      6  C   UNL     1      35.076  52.274  68.305  1.00  0.00     0.094 A 
ATOM      7  O   UNL     1      36.373  50.349  68.603  1.00  0.00    -0.452 OA
ATOM      8  C   UNL     1      37.458  49.669  68.951  1.00  0.00     0.180 A 
ATOM      9  C   UNL     1      38.572  50.342  69.486  1.00  0.00     0.210 A 
ATOM     10  C   UNL     1      38.518  51.753  69.586  1.00  0.00     0.239 A 
ATOM     11  O   UNL     1      39.467  52.375  70.125  1.00  0.00    -0.285 OA
ENDROOT
BRANCH   1  12
ATOM     12  O   UNL     1      33.730  54.314  68.036  1.00  0.00    -0.496 OA
ATOM     13  C   UNL     1      32.477  54.077  68.672  1.00  0.00     0.278 C 
ENDBRANCH   1  12
BRANCH   3  14
ATOM     14  O   UNL     1      38.280  54.751  69.425  1.00  0.00    -0.507 OA
ATOM     15  H   UNL     1      38.401  55.216  70.313  1.00  0.00     0.293 HD
ENDBRANCH   3  14
BRANCH   8  16
ATOM     16  C   UNL     1      37.435  48.198  68.784  1.00  0.00     0.025 A 
ATOM     17  C   UNL     1      37.095  47.648  67.537  1.00  0.00     0.062 A 
ATOM     18  C   UNL     1      37.807  47.339  69.830  1.00  0.00     0.016 A 
ATOM     19  C   UNL     1      37.089  46.261  67.340  1.00  0.00     0.158 A 
ATOM     20  C   UNL     1      37.802  45.956  69.642  1.00  0.00     0.051 A 
ATOM     21  C   UNL     1      37.442  45.403  68.407  1.00  0.00     0.157 A 
BRANCH  19  22
ATOM     22  O   UNL     1      36.727  45.785  66.077  1.00  0.00    -0.504 OA
ATOM     23  H   UNL     1      36.750  44.811  65.815  1.00  0.00     0.293 HD
ENDBRANCH  19  22
BRANCH  21  24
ATOM     24  O   UNL     1      37.454  44.012  68.287  1.00  0.00    -0.504 OA
ATOM     25  H   UNL     1      37.190  43.379  69.028  1.00  0.00     0.293 HD
ENDBRANCH  21  24
ENDBRANCH   8  16
BRANCH   9  26
ATOM     26  O   UNL     1      39.666  49.570  69.928  1.00  0.00    -0.490 OA
ATOM     27  C   UNL     1      41.009  50.014  70.092  1.00  0.00     0.278 C 
ENDBRANCH   9  26
TORSDOF 6
ENDMDL
MODEL 7
REMARK VINA RESULT:    -3.531      1.985      7.103
REMARK INTER + INTRA:          -4.940
REMARK INTER:                  -4.841
REMARK INTRA:                  -0.099
REMARK UNBOUND:                -0.480
REMARK SMILES COc1cc(O)c2c(=O)c(OC)c(-c3ccc(O)c(O)c3)oc2c1
REMARK SMILES IDX 3 1 4 2 5 3 7 4 23 5 24 6 22 7 13 8 10 9 8 10 9 11 2 12 1 13
REMARK SMILES IDX 6 14 14 16 21 17 15 18 19 19 16 20 17 21 20 22 18 24 11 26
REMARK SMILES IDX 12 27
REMARK H PARENT 6 15 20 23 18 25
REMARK Flexibility Score: inf
ROOT
ATOM      1  C   UNL     1      37.567  46.024  66.360  1.00  0.00     0.126 A 
ATOM      2  C   UNL     1      38.676  45.734  67.155  1.00  0.00     0.093 A 
ATOM      3  C   UNL     1      39.114  46.619  68.147  1.00  0.00     0.134 A 
ATOM      4  C   UNL     1      38.464  47.879  68.305  1.00  0.00     0.111 A 
ATOM      5  C   UNL     1      37.322  48.150  67.512  1.00  0.00     0.146 A 
ATOM      6  C   UNL     1      36.882  47.231  66.556  1.00  0.00     0.094 A 
ATOM      7  O   UNL     1      36.650  49.283  67.656  1.00  0.00    -0.452 OA
ATOM      8  C   UNL     1      36.991  50.235  68.515  1.00  0.00     0.180 A 
ATOM      9  C   UNL     1      38.156  50.100  69.294  1.00  0.00     0.210 A 
ATOM     10  C   UNL     1      38.908  48.907  69.173  1.00  0.00     0.239 A 
ATOM     11  O   UNL     1      39.990  48.786  69.800  1.00  0.00    -0.285 OA
ENDROOT
BRANCH   1  12
ATOM     12  O   UNL     1      37.175  45.083  65.395  1.00  0.00    -0.496 OA
ATOM     13  C   UNL     1      36.940  45.386  64.023  1.00  0.00     0.278 C 
ENDBRANCH   1  12
BRANCH   3  14
ATOM     14  O   UNL     1      40.167  46.179  68.955  1.00  0.00    -0.507 OA
ATOM     15  H   UNL     1      40.682  45.324  68.807  1.00  0.00     0.293 HD
ENDBRANCH   3  14
BRANCH   8  16
ATOM     16  C   UNL     1      36.128  51.435  68.596  1.00  0.00     0.025 A 
ATOM     17  C   UNL     1      36.639  52.683  68.205  1.00  0.00     0.062 A 
ATOM     18  C   UNL     1      34.787  51.344  68.999  1.00  0.00     0.016 A 
ATOM     19  C   UNL     1      35.841  53.834  68.247  1.00  0.00     0.158 A 
ATOM     20  C   UNL     1      33.984  52.485  69.044  1.00  0.00     0.051 A 
ATOM     21  C   UNL     1      34.497  53.734  68.676  1.00  0.00     0.157 A 
BRANCH  19  22
ATOM     22  O   UNL     1      36.421  55.042  67.855  1.00  0.00    -0.504 OA
ATOM     23  H   UNL     1      36.046  55.639  67.133  1.00  0.00     0.293 HD
ENDBRANCH  19  22
BRANCH  21  24
ATOM     24  O   UNL     1      33.643  54.837  68.748  1.00  0.00    -0.504 OA
ATOM     25  H   UNL     1      33.942  55.766  69.009  1.00  0.00     0.293 HD
ENDBRANCH  21  24
ENDBRANCH   8  16
BRANCH   9  26
ATOM     26  O   UNL     1      38.529  51.175  70.125  1.00  0.00    -0.490 OA
ATOM     27  C   UNL     1      39.557  52.128  69.872  1.00  0.00     0.278 C 
ENDBRANCH   9  26
TORSDOF 6
ENDMDL
MODEL 8
REMARK VINA RESULT:    -3.367      2.372      3.232
REMARK INTER + INTRA:          -4.732
REMARK INTER:                  -5.272
REMARK INTRA:                   0.539
REMARK UNBOUND:                -0.480
REMARK SMILES COc1cc(O)c2c(=O)c(OC)c(-c3ccc(O)c(O)c3)oc2c1
REMARK SMILES IDX 3 1 4 2 5 3 7 4 23 5 24 6 22 7 13 8 10 9 8 10 9 11 2 12 1 13
REMARK SMILES IDX 6 14 14 16 21 17 15 18 19 19 16 20 17 21 20 22 18 24 11 26
REMARK SMILES IDX 12 27
REMARK H PARENT 6 15 20 23 18 25
REMARK Flexibility Score: inf
ROOT
ATOM      1  C   UNL     1      38.477  53.247  69.796  1.00  0.00     0.126 A 
ATOM      2  C   UNL     1      37.120  53.254  69.473  1.00  0.00     0.093 A 
ATOM      3  C   UNL     1      36.418  52.065  69.244  1.00  0.00     0.134 A 
ATOM      4  C   UNL     1      37.114  50.820  69.265  1.00  0.00     0.111 A 
ATOM      5  C   UNL     1      38.484  50.823  69.622  1.00  0.00     0.146 A 
ATOM      6  C   UNL     1      39.152  52.022  69.886  1.00  0.00     0.094 A 
ATOM      7  O   UNL     1      39.165  49.689  69.708  1.00  0.00    -0.452 OA
ATOM      8  C   UNL     1      38.639  48.496  69.458  1.00  0.00     0.180 A 
ATOM      9  C   UNL     1      37.306  48.390  69.018  1.00  0.00     0.210 A 
ATOM     10  C   UNL     1      36.541  49.575  68.908  1.00  0.00     0.239 A 
ATOM     11  O   UNL     1      35.371  49.521  68.450  1.00  0.00    -0.285 OA
ENDROOT
BRANCH   1  12
ATOM     12  O   UNL     1      39.112  54.476  70.029  1.00  0.00    -0.496 OA
ATOM     13  C   UNL     1      40.435  54.792  69.604  1.00  0.00     0.278 C 
ENDBRANCH   1  12
BRANCH   3  14
ATOM     14  O   UNL     1      35.040  52.184  69.035  1.00  0.00    -0.507 OA
ATOM     15  H   UNL     1      34.352  51.528  69.374  1.00  0.00     0.293 HD
ENDBRANCH   3  14
BRANCH   8  16
ATOM     16  C   UNL     1      39.506  47.308  69.628  1.00  0.00     0.025 A 
ATOM     17  C   UNL     1      38.922  46.044  69.803  1.00  0.00     0.062 A 
ATOM     18  C   UNL     1      40.904  47.409  69.558  1.00  0.00     0.016 A 
ATOM     19  C   UNL     1      39.714  44.897  69.942  1.00  0.00     0.158 A 
ATOM     20  C   UNL     1      41.702  46.272  69.697  1.00  0.00     0.051 A 
ATOM     21  C   UNL     1      41.123  45.013  69.893  1.00  0.00     0.157 A 
BRANCH  19  22
ATOM     22  O   UNL     1      39.063  43.674  70.125  1.00  0.00    -0.504 OA
ATOM     23  H   UNL     1      38.060  43.566  70.135  1.00  0.00     0.293 HD
ENDBRANCH  19  22
BRANCH  21  24
ATOM     24  O   UNL     1      41.976  43.916  70.029  1.00  0.00    -0.504 OA
ATOM     25  H   UNL     1      42.180  43.264  69.285  1.00  0.00     0.293 HD
ENDBRANCH  21  24
ENDBRANCH   8  16
BRANCH   9  26
ATOM     26  O   UNL     1      36.819  47.112  68.675  1.00  0.00    -0.490 OA
ATOM     27  C   UNL     1      36.753  46.549  67.369  1.00  0.00     0.278 C 
ENDBRANCH   9  26
TORSDOF 6
ENDMDL
