MODEL 1
REMARK VINA RESULT:    -6.618      0.000      0.000
REMARK INTER + INTRA:         -10.020
REMARK INTER:                  -9.326
REMARK INTRA:                  -0.694
REMARK UNBOUND:                -0.694
REMARK SMILES COc1ccc(-c2cc(=O)c3c(OC)c(OC)c(OC)c(OC)c3o2)cc1OC
REMARK SMILES IDX 7 1 8 2 9 3 10 4 11 5 24 6 25 7 21 8 18 9 15 10 12 11 6 12
REMARK SMILES IDX 3 13 27 14 4 15 26 16 5 17 2 18 1 19 28 20 29 21 22 22 23 23
REMARK SMILES IDX 13 24 14 25 19 26 20 27 16 28 17 29
REMARK H PARENT
REMARK Flexibility Score: inf
ROOT
ATOM      1  C   UNL     1      -1.548   2.240  -3.603  1.00  0.00     0.138 A 
ATOM      2  C   UNL     1      -1.546   3.616  -3.367  1.00  0.00     0.100 A 
ATOM      3  C   UNL     1      -0.360   4.242  -2.998  1.00  0.00     0.197 A 
ATOM      4  O   UNL     1      -0.380   5.486  -2.792  1.00  0.00    -0.289 OA
ATOM      5  C   UNL     1       0.828   3.481  -2.862  1.00  0.00     0.115 A 
ATOM      6  C   UNL     1       0.751   2.094  -3.131  1.00  0.00     0.188 A 
ATOM      7  O   UNL     1      -0.414   1.556  -3.486  1.00  0.00    -0.452 OA
ATOM      8  C   UNL     1       1.898   1.277  -3.015  1.00  0.00     0.209 A 
ATOM      9  C   UNL     1       3.135   1.856  -2.633  1.00  0.00     0.211 A 
ATOM     10  C   UNL     1       3.207   3.240  -2.327  1.00  0.00     0.208 A 
ATOM     11  C   UNL     1       2.057   4.059  -2.465  1.00  0.00     0.179 A 
ENDROOT
BRANCH   1  12
ATOM     12  C   UNL     1      -2.786   1.524  -3.988  1.00  0.00     0.021 A 
ATOM     13  C   UNL     1      -5.127   0.157  -4.772  1.00  0.00     0.160 A 
ATOM     14  C   UNL     1      -4.472  -0.202  -3.584  1.00  0.00     0.161 A 
ATOM     15  C   UNL     1      -4.605   1.194  -5.566  1.00  0.00     0.051 A 
ATOM     16  C   UNL     1      -3.304   0.483  -3.198  1.00  0.00     0.062 A 
ATOM     17  C   UNL     1      -3.443   1.864  -5.179  1.00  0.00     0.016 A 
BRANCH  13  18
ATOM     18  O   UNL     1      -6.290  -0.543  -5.131  1.00  0.00    -0.493 OA
ATOM     19  C   UNL     1      -7.393   0.029  -5.827  1.00  0.00     0.278 C 
ENDBRANCH  13  18
BRANCH  14  20
ATOM     20  O   UNL     1      -5.011  -1.249  -2.819  1.00  0.00    -0.493 OA
ATOM     21  C   UNL     1      -5.833  -1.068  -1.670  1.00  0.00     0.278 C 
ENDBRANCH  14  20
ENDBRANCH   1  12
BRANCH   8  22
ATOM     22  O   UNL     1       1.857  -0.113  -3.245  1.00  0.00    -0.490 OA
ATOM     23  C   UNL     1       2.034  -0.794  -4.483  1.00  0.00     0.278 C 
ENDBRANCH   8  22
BRANCH  11  24
ATOM     24  O   UNL     1       2.076   5.449  -2.210  1.00  0.00    -0.492 OA
ATOM     25  C   UNL     1       2.172   6.106  -0.951  1.00  0.00     0.278 C 
ENDBRANCH  11  24
BRANCH   9  26
ATOM     26  O   UNL     1       4.324   1.103  -2.552  1.00  0.00    -0.490 OA
ATOM     27  C   UNL     1       5.378   1.026  -3.506  1.00  0.00     0.279 C 
ENDBRANCH   9  26
BRANCH  10  28
ATOM     28  O   UNL     1       4.399   3.848  -1.888  1.00  0.00    -0.490 OA
ATOM     29  C   UNL     1       4.993   3.772  -0.596  1.00  0.00     0.278 C 
ENDBRANCH  10  28
TORSDOF 7
ENDMDL
MODEL 2
REMARK VINA RESULT:    -6.614      2.579      3.648
REMARK INTER + INTRA:         -10.015
REMARK INTER:                  -9.301
REMARK INTRA:                  -0.713
REMARK UNBOUND:                -0.694
REMARK SMILES COc1ccc(-c2cc(=O)c3c(OC)c(OC)c(OC)c(OC)c3o2)cc1OC
REMARK SMILES IDX 7 1 8 2 9 3 10 4 11 5 24 6 25 7 21 8 18 9 15 10 12 11 6 12
REMARK SMILES IDX 3 13 27 14 4 15 26 16 5 17 2 18 1 19 28 20 29 21 22 22 23 23
REMARK SMILES IDX 13 24 14 25 19 26 20 27 16 28 17 29
REMARK H PARENT
REMARK Flexibility Score: inf
ROOT
ATOM      1  C   UNL     1      -0.539   0.198  -3.518  1.00  0.00     0.138 A 
ATOM      2  C   UNL     1      -1.538   1.167  -3.641  1.00  0.00     0.100 A 
ATOM      3  C   UNL     1      -1.220   2.503  -3.420  1.00  0.00     0.197 A 
ATOM      4  O   UNL     1      -2.135   3.362  -3.539  1.00  0.00    -0.289 OA
ATOM      5  C   UNL     1       0.105   2.867  -3.072  1.00  0.00     0.115 A 
ATOM      6  C   UNL     1       1.065   1.831  -2.980  1.00  0.00     0.188 A 
ATOM      7  O   UNL     1       0.698   0.572  -3.209  1.00  0.00    -0.452 OA
ATOM      8  C   UNL     1       2.405   2.124  -2.637  1.00  0.00     0.209 A 
ATOM      9  C   UNL     1       2.787   3.468  -2.392  1.00  0.00     0.211 A 
ATOM     10  C   UNL     1       1.818   4.504  -2.448  1.00  0.00     0.208 A 
ATOM     11  C   UNL     1       0.480   4.206  -2.812  1.00  0.00     0.179 A 
ENDROOT
BRANCH   1  12
ATOM     12  C   UNL     1      -0.828  -1.239  -3.732  1.00  0.00     0.021 A 
ATOM     13  C   UNL     1      -1.325  -3.987  -4.136  1.00  0.00     0.160 A 
ATOM     14  C   UNL     1      -2.105  -3.262  -3.223  1.00  0.00     0.161 A 
ATOM     15  C   UNL     1      -0.295  -3.336  -4.838  1.00  0.00     0.051 A 
ATOM     16  C   UNL     1      -1.852  -1.890  -3.024  1.00  0.00     0.062 A 
ATOM     17  C   UNL     1      -0.048  -1.978  -4.632  1.00  0.00     0.016 A 
BRANCH  13  18
ATOM     18  O   UNL     1      -1.601  -5.352  -4.313  1.00  0.00    -0.493 OA
ATOM     19  C   UNL     1      -2.564  -5.868  -5.226  1.00  0.00     0.278 C 
ENDBRANCH  13  18
BRANCH  14  20
ATOM     20  O   UNL     1      -3.118  -3.942  -2.527  1.00  0.00    -0.493 OA
ATOM     21  C   UNL     1      -3.168  -4.086  -1.111  1.00  0.00     0.278 C 
ENDBRANCH  14  20
ENDBRANCH   1  12
BRANCH   8  22
ATOM     22  O   UNL     1       3.383   1.119  -2.507  1.00  0.00    -0.490 OA
ATOM     23  C   UNL     1       4.355   0.723  -3.469  1.00  0.00     0.278 C 
ENDBRANCH   8  22
BRANCH  11  24
ATOM     24  O   UNL     1      -0.519   5.200  -2.920  1.00  0.00    -0.492 OA
ATOM     25  C   UNL     1      -0.604   6.257  -3.869  1.00  0.00     0.278 C 
ENDBRANCH  11  24
BRANCH   9  26
ATOM     26  O   UNL     1       4.118   3.828  -2.099  1.00  0.00    -0.490 OA
ATOM     27  C   UNL     1       4.768   3.825  -0.832  1.00  0.00     0.279 C 
ENDBRANCH   9  26
BRANCH  10  28
ATOM     28  O   UNL     1       2.139   5.844  -2.155  1.00  0.00    -0.490 OA
ATOM     29  C   UNL     1       2.096   6.495  -0.890  1.00  0.00     0.278 C 
ENDBRANCH  10  28
TORSDOF 7
ENDMDL
MODEL 3
REMARK VINA RESULT:    -6.559      2.218      8.466
REMARK INTER + INTRA:          -9.937
REMARK INTER:                  -9.231
REMARK INTRA:                  -0.706
REMARK UNBOUND:                -0.694
REMARK SMILES COc1ccc(-c2cc(=O)c3c(OC)c(OC)c(OC)c(OC)c3o2)cc1OC
REMARK SMILES IDX 7 1 8 2 9 3 10 4 11 5 24 6 25 7 21 8 18 9 15 10 12 11 6 12
REMARK SMILES IDX 3 13 27 14 4 15 26 16 5 17 2 18 1 19 28 20 29 21 22 22 23 23
REMARK SMILES IDX 13 24 14 25 19 26 20 27 16 28 17 29
REMARK H PARENT
REMARK Flexibility Score: inf
ROOT
ATOM      1  C   UNL     1       3.368   3.327  -1.942  1.00  0.00     0.138 A 
ATOM      2  C   UNL     1       2.831   4.617  -1.931  1.00  0.00     0.100 A 
ATOM      3  C   UNL     1       1.512   4.808  -2.329  1.00  0.00     0.197 A 
ATOM      4  O   UNL     1       1.046   5.979  -2.310  1.00  0.00    -0.289 OA
ATOM      5  C   UNL     1       0.731   3.699  -2.742  1.00  0.00     0.115 A 
ATOM      6  C   UNL     1       1.340   2.422  -2.714  1.00  0.00     0.188 A 
ATOM      7  O   UNL     1       2.605   2.306  -2.317  1.00  0.00    -0.452 OA
ATOM      8  C   UNL     1       0.617   1.275  -3.112  1.00  0.00     0.209 A 
ATOM      9  C   UNL     1      -0.729   1.407  -3.537  1.00  0.00     0.211 A 
ATOM     10  C   UNL     1      -1.331   2.692  -3.601  1.00  0.00     0.208 A 
ATOM     11  C   UNL     1      -0.607   3.837  -3.180  1.00  0.00     0.179 A 
ENDROOT
BRANCH   1  12
ATOM     12  C   UNL     1       4.770   3.072  -1.539  1.00  0.00     0.021 A 
ATOM     13  C   UNL     1       7.426   2.583  -0.718  1.00  0.00     0.160 A 
ATOM     14  C   UNL     1       6.891   1.884  -1.810  1.00  0.00     0.161 A 
ATOM     15  C   UNL     1       6.628   3.520  -0.037  1.00  0.00     0.051 A 
ATOM     16  C   UNL     1       5.565   2.131  -2.216  1.00  0.00     0.062 A 
ATOM     17  C   UNL     1       5.313   3.755  -0.441  1.00  0.00     0.016 A 
BRANCH  13  18
ATOM     18  O   UNL     1       8.750   2.316  -0.338  1.00  0.00    -0.493 OA
ATOM     19  C   UNL     1       9.123   1.579   0.822  1.00  0.00     0.278 C 
ENDBRANCH  13  18
BRANCH  14  20
ATOM     20  O   UNL     1       7.708   0.946  -2.463  1.00  0.00    -0.493 OA
ATOM     21  C   UNL     1       8.370   1.177  -3.702  1.00  0.00     0.278 C 
ENDBRANCH  14  20
ENDBRANCH   1  12
BRANCH   8  22
ATOM     22  O   UNL     1       1.196  -0.009  -3.126  1.00  0.00    -0.490 OA
ATOM     23  C   UNL     1       1.769  -0.692  -4.236  1.00  0.00     0.278 C 
ENDBRANCH   8  22
BRANCH  11  24
ATOM     24  O   UNL     1      -1.165   5.135  -3.188  1.00  0.00    -0.492 OA
ATOM     25  C   UNL     1      -1.360   5.998  -4.304  1.00  0.00     0.278 C 
ENDBRANCH  11  24
BRANCH   9  26
ATOM     26  O   UNL     1      -1.517   0.295  -3.895  1.00  0.00    -0.490 OA
ATOM     27  C   UNL     1      -2.295  -0.539  -3.042  1.00  0.00     0.279 C 
ENDBRANCH   9  26
BRANCH  10  28
ATOM     28  O   UNL     1      -2.646   2.879  -4.071  1.00  0.00    -0.490 OA
ATOM     29  C   UNL     1      -3.082   2.991  -5.422  1.00  0.00     0.278 C 
ENDBRANCH  10  28
TORSDOF 7
ENDMDL
MODEL 4
REMARK VINA RESULT:    -6.555      2.139      3.280
REMARK INTER + INTRA:          -9.931
REMARK INTER:                  -9.205
REMARK INTRA:                  -0.726
REMARK UNBOUND:                -0.694
REMARK SMILES COc1ccc(-c2cc(=O)c3c(OC)c(OC)c(OC)c(OC)c3o2)cc1OC
REMARK SMILES IDX 7 1 8 2 9 3 10 4 11 5 24 6 25 7 21 8 18 9 15 10 12 11 6 12
REMARK SMILES IDX 3 13 27 14 4 15 26 16 5 17 2 18 1 19 28 20 29 21 22 22 23 23
REMARK SMILES IDX 13 24 14 25 19 26 20 27 16 28 17 29
REMARK H PARENT
REMARK Flexibility Score: inf
ROOT
ATOM      1  C   UNL     1       1.213   3.566  -2.718  1.00  0.00     0.138 A 
ATOM      2  C   UNL     1       1.483   4.687  -1.930  1.00  0.00     0.100 A 
ATOM      3  C   UNL     1       2.764   4.865  -1.415  1.00  0.00     0.197 A 
ATOM      4  O   UNL     1       2.987   5.885  -0.709  1.00  0.00    -0.289 OA
ATOM      5  C   UNL     1       3.775   3.911  -1.691  1.00  0.00     0.115 A 
ATOM      6  C   UNL     1       3.430   2.809  -2.508  1.00  0.00     0.188 A 
ATOM      7  O   UNL     1       2.187   2.699  -2.975  1.00  0.00    -0.452 OA
ATOM      8  C   UNL     1       4.390   1.821  -2.823  1.00  0.00     0.209 A 
ATOM      9  C   UNL     1       5.710   1.942  -2.319  1.00  0.00     0.211 A 
ATOM     10  C   UNL     1       6.050   3.028  -1.470  1.00  0.00     0.208 A 
ATOM     11  C   UNL     1       5.087   4.027  -1.175  1.00  0.00     0.179 A 
ENDROOT
BRANCH   1  12
ATOM     12  C   UNL     1      -0.136   3.325  -3.281  1.00  0.00     0.021 A 
ATOM     13  C   UNL     1      -2.688   2.882  -4.401  1.00  0.00     0.160 A 
ATOM     14  C   UNL     1      -2.117   1.917  -3.558  1.00  0.00     0.161 A 
ATOM     15  C   UNL     1      -1.976   4.062  -4.686  1.00  0.00     0.051 A 
ATOM     16  C   UNL     1      -0.842   2.142  -3.001  1.00  0.00     0.062 A 
ATOM     17  C   UNL     1      -0.712   4.275  -4.135  1.00  0.00     0.016 A 
BRANCH  13  18
ATOM     18  O   UNL     1      -3.959   2.629  -4.939  1.00  0.00    -0.493 OA
ATOM     19  C   UNL     1      -4.201   2.238  -6.287  1.00  0.00     0.278 C 
ENDBRANCH  13  18
BRANCH  14  20
ATOM     20  O   UNL     1      -2.845   0.744  -3.301  1.00  0.00    -0.493 OA
ATOM     21  C   UNL     1      -2.404  -0.310  -2.451  1.00  0.00     0.278 C 
ENDBRANCH  14  20
ENDBRANCH   1  12
BRANCH   8  22
ATOM     22  O   UNL     1       4.078   0.693  -3.608  1.00  0.00    -0.490 OA
ATOM     23  C   UNL     1       4.159   0.572  -5.024  1.00  0.00     0.278 C 
ENDBRANCH   8  22
BRANCH  11  24
ATOM     24  O   UNL     1       5.376   5.148  -0.365  1.00  0.00    -0.492 OA
ATOM     25  C   UNL     1       5.576   5.182   1.044  1.00  0.00     0.278 C 
ENDBRANCH  11  24
BRANCH   9  26
ATOM     26  O   UNL     1       6.725   1.019  -2.642  1.00  0.00    -0.490 OA
ATOM     27  C   UNL     1       7.650   1.076  -3.723  1.00  0.00     0.279 C 
ENDBRANCH   9  26
BRANCH  10  28
ATOM     28  O   UNL     1       7.331   3.159  -0.900  1.00  0.00    -0.490 OA
ATOM     29  C   UNL     1       7.898   2.393   0.158  1.00  0.00     0.278 C 
ENDBRANCH  10  28
TORSDOF 7
ENDMDL
MODEL 5
REMARK VINA RESULT:    -6.510      2.608      5.025
REMARK INTER + INTRA:          -9.867
REMARK INTER:                  -9.352
REMARK INTRA:                  -0.515
REMARK UNBOUND:                -0.694
REMARK SMILES COc1ccc(-c2cc(=O)c3c(OC)c(OC)c(OC)c(OC)c3o2)cc1OC
REMARK SMILES IDX 7 1 8 2 9 3 10 4 11 5 24 6 25 7 21 8 18 9 15 10 12 11 6 12
REMARK SMILES IDX 3 13 27 14 4 15 26 16 5 17 2 18 1 19 28 20 29 21 22 22 23 23
REMARK SMILES IDX 13 24 14 25 19 26 20 27 16 28 17 29
REMARK H PARENT
REMARK Flexibility Score: inf
ROOT
ATOM      1  C   UNL     1      -2.951   0.386  -3.094  1.00  0.00     0.138 A 
ATOM      2  C   UNL     1      -3.833   0.833  -4.081  1.00  0.00     0.100 A 
ATOM      3  C   UNL     1      -3.588   2.048  -4.712  1.00  0.00     0.197 A 
ATOM      4  O   UNL     1      -4.394   2.432  -5.601  1.00  0.00    -0.289 OA
ATOM      5  C   UNL     1      -2.454   2.817  -4.349  1.00  0.00     0.115 A 
ATOM      6  C   UNL     1      -1.599   2.292  -3.351  1.00  0.00     0.188 A 
ATOM      7  O   UNL     1      -1.886   1.120  -2.789  1.00  0.00    -0.452 OA
ATOM      8  C   UNL     1      -0.451   3.008  -2.942  1.00  0.00     0.209 A 
ATOM      9  C   UNL     1      -0.153   4.257  -3.543  1.00  0.00     0.211 A 
ATOM     10  C   UNL     1      -1.028   4.803  -4.519  1.00  0.00     0.208 A 
ATOM     11  C   UNL     1      -2.168   4.071  -4.940  1.00  0.00     0.179 A 
ENDROOT
BRANCH   1  12
ATOM     12  C   UNL     1      -3.173  -0.895  -2.384  1.00  0.00     0.021 A 
ATOM     13  C   UNL     1      -3.542  -3.340  -1.023  1.00  0.00     0.160 A 
ATOM     14  C   UNL     1      -4.370  -2.245  -0.732  1.00  0.00     0.161 A 
ATOM     15  C   UNL     1      -2.529  -3.205  -1.990  1.00  0.00     0.051 A 
ATOM     16  C   UNL     1      -4.181  -1.027  -1.414  1.00  0.00     0.062 A 
ATOM     17  C   UNL     1      -2.345  -1.993  -2.657  1.00  0.00     0.016 A 
BRANCH  13  18
ATOM     18  O   UNL     1      -3.755  -4.541  -0.329  1.00  0.00    -0.493 OA
ATOM     19  C   UNL     1      -3.008  -5.736  -0.537  1.00  0.00     0.278 C 
ENDBRANCH  13  18
BRANCH  14  20
ATOM     20  O   UNL     1      -5.365  -2.406   0.246  1.00  0.00    -0.493 OA
ATOM     21  C   UNL     1      -6.757  -2.216   0.019  1.00  0.00     0.278 C 
ENDBRANCH  14  20
ENDBRANCH   1  12
BRANCH   8  22
ATOM     22  O   UNL     1       0.409   2.533  -1.932  1.00  0.00    -0.490 OA
ATOM     23  C   UNL     1       1.774   2.151  -2.062  1.00  0.00     0.278 C 
ENDBRANCH   8  22
BRANCH  11  24
ATOM     24  O   UNL     1      -3.056   4.546  -5.931  1.00  0.00    -0.492 OA
ATOM     25  C   UNL     1      -2.837   4.628  -7.336  1.00  0.00     0.278 C 
ENDBRANCH  11  24
BRANCH   9  26
ATOM     26  O   UNL     1       1.005   4.991  -3.216  1.00  0.00    -0.490 OA
ATOM     27  C   UNL     1       1.176   5.936  -2.165  1.00  0.00     0.279 C 
ENDBRANCH   9  26
BRANCH  10  28
ATOM     28  O   UNL     1      -0.805   6.066  -5.101  1.00  0.00    -0.490 OA
ATOM     29  C   UNL     1       0.132   6.405  -6.118  1.00  0.00     0.278 C 
ENDBRANCH  10  28
TORSDOF 7
ENDMDL
MODEL 6
REMARK VINA RESULT:    -6.487      1.912      3.269
REMARK INTER + INTRA:          -9.836
REMARK INTER:                  -9.113
REMARK INTRA:                  -0.723
REMARK UNBOUND:                -0.694
REMARK SMILES COc1ccc(-c2cc(=O)c3c(OC)c(OC)c(OC)c(OC)c3o2)cc1OC
REMARK SMILES IDX 7 1 8 2 9 3 10 4 11 5 24 6 25 7 21 8 18 9 15 10 12 11 6 12
REMARK SMILES IDX 3 13 27 14 4 15 26 16 5 17 2 18 1 19 28 20 29 21 22 22 23 23
REMARK SMILES IDX 13 24 14 25 19 26 20 27 16 28 17 29
REMARK H PARENT
REMARK Flexibility Score: inf
ROOT
ATOM      1  C   UNL     1       0.827   2.828  -2.829  1.00  0.00     0.138 A 
ATOM      2  C   UNL     1       1.018   3.970  -2.047  1.00  0.00     0.100 A 
ATOM      3  C   UNL     1       2.298   4.281  -1.600  1.00  0.00     0.197 A 
ATOM      4  O   UNL     1       2.450   5.317  -0.898  1.00  0.00    -0.289 OA
ATOM      5  C   UNL     1       3.389   3.441  -1.937  1.00  0.00     0.115 A 
ATOM      6  C   UNL     1       3.118   2.310  -2.743  1.00  0.00     0.188 A 
ATOM      7  O   UNL     1       1.871   2.070  -3.144  1.00  0.00    -0.452 OA
ATOM      8  C   UNL     1       4.160   1.430  -3.116  1.00  0.00     0.209 A 
ATOM      9  C   UNL     1       5.485   1.689  -2.683  1.00  0.00     0.211 A 
ATOM     10  C   UNL     1       5.753   2.803  -1.844  1.00  0.00     0.208 A 
ATOM     11  C   UNL     1       4.707   3.694  -1.490  1.00  0.00     0.179 A 
ENDROOT
BRANCH   1  12
ATOM     12  C   UNL     1      -0.518   2.447  -3.321  1.00  0.00     0.021 A 
ATOM     13  C   UNL     1      -3.088   1.696  -4.211  1.00  0.00     0.160 A 
ATOM     14  C   UNL     1      -2.636   3.010  -4.407  1.00  0.00     0.161 A 
ATOM     15  C   UNL     1      -2.255   0.765  -3.565  1.00  0.00     0.051 A 
ATOM     16  C   UNL     1      -1.352   3.380  -3.960  1.00  0.00     0.062 A 
ATOM     17  C   UNL     1      -0.986   1.141  -3.121  1.00  0.00     0.016 A 
BRANCH  13  18
ATOM     18  O   UNL     1      -4.371   1.357  -4.668  1.00  0.00    -0.493 OA
ATOM     19  C   UNL     1      -4.637   0.664  -5.884  1.00  0.00     0.278 C 
ENDBRANCH  13  18
BRANCH  14  20
ATOM     20  O   UNL     1      -3.495   3.920  -5.044  1.00  0.00    -0.493 OA
ATOM     21  C   UNL     1      -3.425   4.265  -6.424  1.00  0.00     0.278 C 
ENDBRANCH  14  20
ENDBRANCH   1  12
BRANCH   8  22
ATOM     22  O   UNL     1       3.927   0.278  -3.893  1.00  0.00    -0.490 OA
ATOM     23  C   UNL     1       3.959   0.166  -5.312  1.00  0.00     0.278 C 
ENDBRANCH   8  22
BRANCH  11  24
ATOM     24  O   UNL     1       4.919   4.838  -0.688  1.00  0.00    -0.492 OA
ATOM     25  C   UNL     1       5.285   4.887   0.687  1.00  0.00     0.278 C 
ENDBRANCH  11  24
BRANCH   9  26
ATOM     26  O   UNL     1       6.573   0.880  -3.066  1.00  0.00    -0.490 OA
ATOM     27  C   UNL     1       7.471   1.076  -4.154  1.00  0.00     0.279 C 
ENDBRANCH   9  26
BRANCH  10  28
ATOM     28  O   UNL     1       7.042   3.068  -1.342  1.00  0.00    -0.490 OA
ATOM     29  C   UNL     1       7.732   2.382  -0.303  1.00  0.00     0.278 C 
ENDBRANCH  10  28
TORSDOF 7
ENDMDL
MODEL 7
REMARK VINA RESULT:    -6.448      1.903      8.096
REMARK INTER + INTRA:          -9.780
REMARK INTER:                  -8.951
REMARK INTRA:                  -0.829
REMARK UNBOUND:                -0.694
REMARK SMILES COc1ccc(-c2cc(=O)c3c(OC)c(OC)c(OC)c(OC)c3o2)cc1OC
REMARK SMILES IDX 7 1 8 2 9 3 10 4 11 5 24 6 25 7 21 8 18 9 15 10 12 11 6 12
REMARK SMILES IDX 3 13 27 14 4 15 26 16 5 17 2 18 1 19 28 20 29 21 22 22 23 23
REMARK SMILES IDX 13 24 14 25 19 26 20 27 16 28 17 29
REMARK H PARENT
REMARK Flexibility Score: inf
ROOT
ATOM      1  C   UNL     1       1.514   3.787  -2.375  1.00  0.00     0.138 A 
ATOM      2  C   UNL     1       0.623   4.815  -2.689  1.00  0.00     0.100 A 
ATOM      3  C   UNL     1      -0.580   4.505  -3.316  1.00  0.00     0.197 A 
ATOM      4  O   UNL     1      -1.372   5.448  -3.589  1.00  0.00    -0.289 OA
ATOM      5  C   UNL     1      -0.887   3.157  -3.631  1.00  0.00     0.115 A 
ATOM      6  C   UNL     1       0.060   2.170  -3.270  1.00  0.00     0.188 A 
ATOM      7  O   UNL     1       1.191   2.531  -2.666  1.00  0.00    -0.452 OA
ATOM      8  C   UNL     1      -0.183   0.807  -3.554  1.00  0.00     0.209 A 
ATOM      9  C   UNL     1      -1.387   0.430  -4.200  1.00  0.00     0.211 A 
ATOM     10  C   UNL     1      -2.322   1.422  -4.596  1.00  0.00     0.208 A 
ATOM     11  C   UNL     1      -2.082   2.786  -4.289  1.00  0.00     0.179 A 
ENDROOT
BRANCH   1  12
ATOM     12  C   UNL     1       2.812   4.065  -1.718  1.00  0.00     0.021 A 
ATOM     13  C   UNL     1       5.259   4.615  -0.423  1.00  0.00     0.160 A 
ATOM     14  C   UNL     1       5.051   3.364  -1.024  1.00  0.00     0.161 A 
ATOM     15  C   UNL     1       4.239   5.583  -0.467  1.00  0.00     0.051 A 
ATOM     16  C   UNL     1       3.828   3.094  -1.668  1.00  0.00     0.062 A 
ATOM     17  C   UNL     1       3.028   5.305  -1.103  1.00  0.00     0.016 A 
BRANCH  13  18
ATOM     18  O   UNL     1       6.488   4.855   0.210  1.00  0.00    -0.493 OA
ATOM     19  C   UNL     1       7.548   5.622  -0.352  1.00  0.00     0.278 C 
ENDBRANCH  13  18
BRANCH  14  20
ATOM     20  O   UNL     1       6.083   2.414  -0.954  1.00  0.00    -0.493 OA
ATOM     21  C   UNL     1       6.887   2.012  -2.058  1.00  0.00     0.278 C 
ENDBRANCH  14  20
ENDBRANCH   1  12
BRANCH   8  22
ATOM     22  O   UNL     1       0.747  -0.204  -3.237  1.00  0.00    -0.490 OA
ATOM     23  C   UNL     1       1.785  -0.719  -4.064  1.00  0.00     0.278 C 
ENDBRANCH   8  22
BRANCH  11  24
ATOM     24  O   UNL     1      -2.992   3.814  -4.627  1.00  0.00    -0.492 OA
ATOM     25  C   UNL     1      -3.417   4.215  -5.925  1.00  0.00     0.278 C 
ENDBRANCH  11  24
BRANCH   9  26
ATOM     26  O   UNL     1      -1.710  -0.917  -4.461  1.00  0.00    -0.490 OA
ATOM     27  C   UNL     1      -2.277  -1.871  -3.569  1.00  0.00     0.279 C 
ENDBRANCH   9  26
BRANCH  10  28
ATOM     28  O   UNL     1      -3.504   1.101  -5.291  1.00  0.00    -0.490 OA
ATOM     29  C   UNL     1      -4.758   0.707  -4.745  1.00  0.00     0.278 C 
ENDBRANCH  10  28
TORSDOF 7
ENDMDL
MODEL 8
REMARK VINA RESULT:    -6.404      2.091      7.905
REMARK INTER + INTRA:          -9.719
REMARK INTER:                  -8.933
REMARK INTRA:                  -0.787
REMARK UNBOUND:                -0.694
REMARK SMILES COc1ccc(-c2cc(=O)c3c(OC)c(OC)c(OC)c(OC)c3o2)cc1OC
REMARK SMILES IDX 7 1 8 2 9 3 10 4 11 5 24 6 25 7 21 8 18 9 15 10 12 11 6 12
REMARK SMILES IDX 3 13 27 14 4 15 26 16 5 17 2 18 1 19 28 20 29 21 22 22 23 23
REMARK SMILES IDX 13 24 14 25 19 26 20 27 16 28 17 29
REMARK H PARENT
REMARK Flexibility Score: inf
ROOT
ATOM      1  C   UNL     1       0.699   2.629  -2.866  1.00  0.00     0.138 A 
ATOM      2  C   UNL     1      -0.497   3.315  -3.090  1.00  0.00     0.100 A 
ATOM      3  C   UNL     1      -1.565   2.645  -3.678  1.00  0.00     0.197 A 
ATOM      4  O   UNL     1      -2.636   3.282  -3.869  1.00  0.00    -0.289 OA
ATOM      5  C   UNL     1      -1.429   1.283  -4.046  1.00  0.00     0.115 A 
ATOM      6  C   UNL     1      -0.192   0.652  -3.776  1.00  0.00     0.188 A 
ATOM      7  O   UNL     1       0.790   1.347  -3.205  1.00  0.00    -0.452 OA
ATOM      8  C   UNL     1       0.011  -0.704  -4.117  1.00  0.00     0.209 A 
ATOM      9  C   UNL     1      -1.039  -1.437  -4.728  1.00  0.00     0.211 A 
ATOM     10  C   UNL     1      -2.269  -0.797  -5.033  1.00  0.00     0.208 A 
ATOM     11  C   UNL     1      -2.473   0.560  -4.669  1.00  0.00     0.179 A 
ENDROOT
BRANCH   1  12
ATOM     12  C   UNL     1       1.870   3.299  -2.253  1.00  0.00     0.021 A 
ATOM     13  C   UNL     1       4.067   4.594  -1.045  1.00  0.00     0.160 A 
ATOM     14  C   UNL     1       4.188   3.263  -1.473  1.00  0.00     0.161 A 
ATOM     15  C   UNL     1       2.846   5.269  -1.218  1.00  0.00     0.051 A 
ATOM     16  C   UNL     1       3.088   2.621  -2.074  1.00  0.00     0.062 A 
ATOM     17  C   UNL     1       1.759   4.624  -1.811  1.00  0.00     0.016 A 
BRANCH  13  18
ATOM     18  O   UNL     1       5.181   5.208  -0.451  1.00  0.00    -0.493 OA
ATOM     19  C   UNL     1       5.444   5.217   0.949  1.00  0.00     0.278 C 
ENDBRANCH  13  18
BRANCH  14  20
ATOM     20  O   UNL     1       5.416   2.611  -1.276  1.00  0.00    -0.493 OA
ATOM     21  C   UNL     1       6.303   2.227  -2.322  1.00  0.00     0.278 C 
ENDBRANCH  14  20
ENDBRANCH   1  12
BRANCH   8  22
ATOM     22  O   UNL     1       1.237  -1.360  -3.891  1.00  0.00    -0.490 OA
ATOM     23  C   UNL     1       2.353  -1.442  -4.772  1.00  0.00     0.278 C 
ENDBRANCH   8  22
BRANCH  11  24
ATOM     24  O   UNL     1      -3.687   1.239  -4.915  1.00  0.00    -0.492 OA
ATOM     25  C   UNL     1      -4.251   1.597  -6.172  1.00  0.00     0.278 C 
ENDBRANCH  11  24
BRANCH   9  26
ATOM     26  O   UNL     1      -0.915  -2.805  -5.042  1.00  0.00    -0.490 OA
ATOM     27  C   UNL     1      -0.999  -3.918  -4.157  1.00  0.00     0.279 C 
ENDBRANCH   9  26
BRANCH  10  28
ATOM     28  O   UNL     1      -3.318  -1.467  -5.691  1.00  0.00    -0.490 OA
ATOM     29  C   UNL     1      -4.384  -2.206  -5.105  1.00  0.00     0.278 C 
ENDBRANCH  10  28
TORSDOF 7
ENDMDL
MODEL 9
REMARK VINA RESULT:    -6.379      0.912      3.353
REMARK INTER + INTRA:          -9.683
REMARK INTER:                  -8.971
REMARK INTRA:                  -0.712
REMARK UNBOUND:                -0.694
REMARK SMILES COc1ccc(-c2cc(=O)c3c(OC)c(OC)c(OC)c(OC)c3o2)cc1OC
REMARK SMILES IDX 7 1 8 2 9 3 10 4 11 5 24 6 25 7 21 8 18 9 15 10 12 11 6 12
REMARK SMILES IDX 3 13 27 14 4 15 26 16 5 17 2 18 1 19 28 20 29 21 22 22 23 23
REMARK SMILES IDX 13 24 14 25 19 26 20 27 16 28 17 29
REMARK H PARENT
REMARK Flexibility Score: inf
ROOT
ATOM      1  C   UNL     1      -1.433   1.087  -3.798  1.00  0.00     0.138 A 
ATOM      2  C   UNL     1      -0.465   0.081  -3.757  1.00  0.00     0.100 A 
ATOM      3  C   UNL     1       0.834   0.401  -3.375  1.00  0.00     0.197 A 
ATOM      4  O   UNL     1       1.691  -0.523  -3.342  1.00  0.00    -0.289 OA
ATOM      5  C   UNL     1       1.162   1.737  -3.036  1.00  0.00     0.115 A 
ATOM      6  C   UNL     1       0.126   2.699  -3.089  1.00  0.00     0.188 A 
ATOM      7  O   UNL     1      -1.099   2.328  -3.457  1.00  0.00    -0.452 OA
ATOM      8  C   UNL     1       0.385   4.050  -2.764  1.00  0.00     0.209 A 
ATOM      9  C   UNL     1       1.692   4.439  -2.376  1.00  0.00     0.211 A 
ATOM     10  C   UNL     1       2.742   3.483  -2.357  1.00  0.00     0.208 A 
ATOM     11  C   UNL     1       2.471   2.125  -2.665  1.00  0.00     0.179 A 
ENDROOT
BRANCH   1  12
ATOM     12  C   UNL     1      -2.827   0.801  -4.208  1.00  0.00     0.021 A 
ATOM     13  C   UNL     1      -5.467   0.248  -5.039  1.00  0.00     0.160 A 
ATOM     14  C   UNL     1      -4.964  -0.341  -3.870  1.00  0.00     0.161 A 
ATOM     15  C   UNL     1      -4.645   1.107  -5.792  1.00  0.00     0.051 A 
ATOM     16  C   UNL     1      -3.645  -0.063  -3.460  1.00  0.00     0.062 A 
ATOM     17  C   UNL     1      -3.338   1.374  -5.381  1.00  0.00     0.016 A 
BRANCH  13  18
ATOM     18  O   UNL     1      -6.784  -0.048  -5.423  1.00  0.00    -0.493 OA
ATOM     19  C   UNL     1      -7.146  -1.076  -6.339  1.00  0.00     0.278 C 
ENDBRANCH  13  18
BRANCH  14  20
ATOM     20  O   UNL     1      -5.803  -1.204  -3.146  1.00  0.00    -0.493 OA
ATOM     21  C   UNL     1      -6.091  -1.073  -1.758  1.00  0.00     0.278 C 
ENDBRANCH  14  20
ENDBRANCH   1  12
BRANCH   8  22
ATOM     22  O   UNL     1      -0.613   5.043  -2.832  1.00  0.00    -0.490 OA
ATOM     23  C   UNL     1      -0.907   5.904  -3.926  1.00  0.00     0.278 C 
ENDBRANCH   8  22
BRANCH  11  24
ATOM     24  O   UNL     1       3.467   1.123  -2.629  1.00  0.00    -0.492 OA
ATOM     25  C   UNL     1       4.602   0.987  -3.477  1.00  0.00     0.278 C 
ENDBRANCH  11  24
BRANCH   9  26
ATOM     26  O   UNL     1       1.999   5.759  -1.989  1.00  0.00    -0.490 OA
ATOM     27  C   UNL     1       2.016   6.304  -0.673  1.00  0.00     0.279 C 
ENDBRANCH   9  26
BRANCH  10  28
ATOM     28  O   UNL     1       4.067   3.834  -2.035  1.00  0.00    -0.490 OA
ATOM     29  C   UNL     1       4.726   3.697  -0.781  1.00  0.00     0.278 C 
ENDBRANCH  10  28
TORSDOF 7
ENDMDL
