MODEL 1
REMARK VINA RESULT:    -5.650      0.000      0.000
REMARK INTER + INTRA:          -5.815
REMARK INTER:                  -5.815
REMARK INTRA:                   0.000
REMARK UNBOUND:                 0.000
REMARK SMILES O=c1ccc2cc(O)ccc2o1
REMARK SMILES IDX 9 1 10 2 11 3 5 4 4 5 3 6 2 7 1 8 12 9 6 10 7 11 8 12
REMARK H PARENT 8 13
REMARK Flexibility Score: inf
ROOT
ATOM      1  C   UNL     1      -4.123   9.466   0.433  1.00  0.00     0.050 A 
ATOM      2  C   UNL     1      -2.989  10.110   0.939  1.00  0.00     0.052 A 
ATOM      3  C   UNL     1      -1.760   9.444   0.971  1.00  0.00     0.138 A 
ATOM      4  C   UNL     1      -1.668   8.119   0.489  1.00  0.00     0.021 A 
ATOM      5  C   UNL     1      -0.426   7.479   0.533  1.00  0.00     0.019 A 
ATOM      6  C   UNL     1       0.678   8.162   1.046  1.00  0.00     0.094 A 
ATOM      7  C   UNL     1       0.512   9.472   1.504  1.00  0.00     0.336 A 
ATOM      8  O   UNL     1       1.496  10.104   1.970  1.00  0.00    -0.246 OA
ATOM      9  O   UNL     1      -0.682  10.059   1.451  1.00  0.00    -0.423 OA
ATOM     10  C   UNL     1      -2.807   7.478  -0.017  1.00  0.00     0.058 A 
ATOM     11  C   UNL     1      -4.035   8.151  -0.045  1.00  0.00     0.116 A 
ENDROOT
BRANCH  11  12
ATOM     12  O   UNL     1      -5.160   7.503  -0.550  1.00  0.00    -0.508 OA
ATOM     13  H   UNL     1      -6.048   7.982  -0.649  1.00  0.00     0.293 HD
ENDBRANCH  11  12
TORSDOF 1
ENDMDL
MODEL 2
REMARK VINA RESULT:    -5.643      8.668      9.993
REMARK INTER + INTRA:          -5.808
REMARK INTER:                  -5.808
REMARK INTRA:                   0.000
REMARK UNBOUND:                 0.000
REMARK SMILES O=c1ccc2cc(O)ccc2o1
REMARK SMILES IDX 9 1 10 2 11 3 5 4 4 5 3 6 2 7 1 8 12 9 6 10 7 11 8 12
REMARK H PARENT 8 13
REMARK Flexibility Score: inf
ROOT
ATOM      1  C   UNL     1      -0.284   0.882   1.806  1.00  0.00     0.050 A 
ATOM      2  C   UNL     1      -0.008  -0.434   1.418  1.00  0.00     0.052 A 
ATOM      3  C   UNL     1       0.815  -0.681   0.315  1.00  0.00     0.138 A 
ATOM      4  C   UNL     1       1.367   0.402  -0.406  1.00  0.00     0.021 A 
ATOM      5  C   UNL     1       2.186   0.123  -1.503  1.00  0.00     0.019 A 
ATOM      6  C   UNL     1       2.434  -1.205  -1.853  1.00  0.00     0.094 A 
ATOM      7  C   UNL     1       1.854  -2.226  -1.093  1.00  0.00     0.336 A 
ATOM      8  O   UNL     1       2.065  -3.430  -1.393  1.00  0.00    -0.246 OA
ATOM      9  O   UNL     1       1.077  -1.934  -0.052  1.00  0.00    -0.423 OA
ATOM     10  C   UNL     1       1.087   1.718  -0.012  1.00  0.00     0.058 A 
ATOM     11  C   UNL     1       0.262   1.958   1.093  1.00  0.00     0.116 A 
ENDROOT
BRANCH  11  12
ATOM     12  O   UNL     1      -0.009   3.272   1.473  1.00  0.00    -0.508 OA
ATOM     13  H   UNL     1       0.442   4.058   1.020  1.00  0.00     0.293 HD
ENDBRANCH  11  12
TORSDOF 1
ENDMDL
MODEL 3
REMARK VINA RESULT:    -5.583      1.684      2.327
REMARK INTER + INTRA:          -5.746
REMARK INTER:                  -5.746
REMARK INTRA:                   0.000
REMARK UNBOUND:                 0.000
REMARK SMILES O=c1ccc2cc(O)ccc2o1
REMARK SMILES IDX 9 1 10 2 11 3 5 4 4 5 3 6 2 7 1 8 12 9 6 10 7 11 8 12
REMARK H PARENT 8 13
REMARK Flexibility Score: inf
ROOT
ATOM      1  C   UNL     1      -3.902   7.502  -0.137  1.00  0.00     0.050 A 
ATOM      2  C   UNL     1      -2.671   6.838  -0.135  1.00  0.00     0.052 A 
ATOM      3  C   UNL     1      -1.517   7.503   0.291  1.00  0.00     0.138 A 
ATOM      4  C   UNL     1      -1.599   8.847   0.720  1.00  0.00     0.021 A 
ATOM      5  C   UNL     1      -0.429   9.485   1.140  1.00  0.00     0.019 A 
ATOM      6  C   UNL     1       0.776   8.783   1.126  1.00  0.00     0.094 A 
ATOM      7  C   UNL     1       0.782   7.455   0.689  1.00  0.00     0.336 A 
ATOM      8  O   UNL     1       1.860   6.805   0.669  1.00  0.00    -0.246 OA
ATOM      9  O   UNL     1      -0.346   6.869   0.294  1.00  0.00    -0.423 OA
ATOM     10  C   UNL     1      -2.836   9.507   0.715  1.00  0.00     0.058 A 
ATOM     11  C   UNL     1      -3.987   8.835   0.287  1.00  0.00     0.116 A 
ENDROOT
BRANCH  11  12
ATOM     12  O   UNL     1      -5.211   9.503   0.287  1.00  0.00    -0.508 OA
ATOM     13  H   UNL     1      -5.462  10.148  -0.454  1.00  0.00     0.293 HD
ENDBRANCH  11  12
TORSDOF 1
ENDMDL
MODEL 4
REMARK VINA RESULT:    -5.519      1.502      4.286
REMARK INTER + INTRA:          -5.681
REMARK INTER:                  -5.681
REMARK INTRA:                   0.000
REMARK UNBOUND:                 0.000
REMARK SMILES O=c1ccc2cc(O)ccc2o1
REMARK SMILES IDX 9 1 10 2 11 3 5 4 4 5 3 6 2 7 1 8 12 9 6 10 7 11 8 12
REMARK H PARENT 8 13
REMARK Flexibility Score: inf
ROOT
ATOM      1  C   UNL     1       0.145   9.249   1.150  1.00  0.00     0.050 A 
ATOM      2  C   UNL     1      -1.138   9.808   1.138  1.00  0.00     0.052 A 
ATOM      3  C   UNL     1      -2.233   9.039   0.732  1.00  0.00     0.138 A 
ATOM      4  C   UNL     1      -2.040   7.698   0.335  1.00  0.00     0.021 A 
ATOM      5  C   UNL     1      -3.154   6.954  -0.065  1.00  0.00     0.019 A 
ATOM      6  C   UNL     1      -4.414   7.553  -0.060  1.00  0.00     0.094 A 
ATOM      7  C   UNL     1      -4.530   8.886   0.346  1.00  0.00     0.336 A 
ATOM      8  O   UNL     1      -5.658   9.444   0.357  1.00  0.00    -0.246 OA
ATOM      9  O   UNL     1      -3.453   9.572   0.723  1.00  0.00    -0.423 OA
ATOM     10  C   UNL     1      -0.752   7.143   0.349  1.00  0.00     0.058 A 
ATOM     11  C   UNL     1       0.340   7.918   0.756  1.00  0.00     0.116 A 
ENDROOT
BRANCH  11  12
ATOM     12  O   UNL     1       1.615   7.355   0.765  1.00  0.00    -0.508 OA
ATOM     13  H   UNL     1       2.168   7.311   1.613  1.00  0.00     0.293 HD
ENDBRANCH  11  12
TORSDOF 1
ENDMDL
MODEL 5
REMARK VINA RESULT:    -5.398      8.482      9.762
REMARK INTER + INTRA:          -5.556
REMARK INTER:                  -5.556
REMARK INTRA:                   0.000
REMARK UNBOUND:                 0.000
REMARK SMILES O=c1ccc2cc(O)ccc2o1
REMARK SMILES IDX 9 1 10 2 11 3 5 4 4 5 3 6 2 7 1 8 12 9 6 10 7 11 8 12
REMARK H PARENT 8 13
REMARK Flexibility Score: inf
ROOT
ATOM      1  C   UNL     1       2.259  -0.945  -1.874  1.00  0.00     0.050 A 
ATOM      2  C   UNL     1       1.972   0.369  -1.487  1.00  0.00     0.052 A 
ATOM      3  C   UNL     1       1.213   0.610  -0.337  1.00  0.00     0.138 A 
ATOM      4  C   UNL     1       0.740  -0.476   0.432  1.00  0.00     0.021 A 
ATOM      5  C   UNL     1      -0.015  -0.203   1.577  1.00  0.00     0.019 A 
ATOM      6  C   UNL     1      -0.276   1.123   1.924  1.00  0.00     0.094 A 
ATOM      7  C   UNL     1       0.225   2.147   1.115  1.00  0.00     0.336 A 
ATOM      8  O   UNL     1      -0.001   3.349   1.411  1.00  0.00    -0.246 OA
ATOM      9  O   UNL     1       0.941   1.861   0.030  1.00  0.00    -0.423 OA
ATOM     10  C   UNL     1       1.032  -1.790   0.040  1.00  0.00     0.058 A 
ATOM     11  C   UNL     1       1.791  -2.025  -1.112  1.00  0.00     0.116 A 
ENDROOT
BRANCH  11  12
ATOM     12  O   UNL     1       2.074  -3.336  -1.492  1.00  0.00    -0.508 OA
ATOM     13  H   UNL     1       2.606  -3.957  -0.893  1.00  0.00     0.293 HD
ENDBRANCH  11  12
TORSDOF 1
ENDMDL
MODEL 6
REMARK VINA RESULT:    -5.391      8.658     10.090
REMARK INTER + INTRA:          -5.548
REMARK INTER:                  -5.548
REMARK INTRA:                   0.000
REMARK UNBOUND:                 0.000
REMARK SMILES O=c1ccc2cc(O)ccc2o1
REMARK SMILES IDX 9 1 10 2 11 3 5 4 4 5 3 6 2 7 1 8 12 9 6 10 7 11 8 12
REMARK H PARENT 8 13
REMARK Flexibility Score: inf
ROOT
ATOM      1  C   UNL     1       2.258  -1.523  -1.719  1.00  0.00     0.050 A 
ATOM      2  C   UNL     1       1.761  -1.746  -0.431  1.00  0.00     0.052 A 
ATOM      3  C   UNL     1       1.160  -0.701   0.279  1.00  0.00     0.138 A 
ATOM      4  C   UNL     1       1.056   0.579  -0.310  1.00  0.00     0.021 A 
ATOM      5  C   UNL     1       0.450   1.603   0.423  1.00  0.00     0.019 A 
ATOM      6  C   UNL     1      -0.033   1.334   1.704  1.00  0.00     0.094 A 
ATOM      7  C   UNL     1       0.104   0.043   2.223  1.00  0.00     0.336 A 
ATOM      8  O   UNL     1      -0.324  -0.219   3.377  1.00  0.00    -0.246 OA
ATOM      9  O   UNL     1       0.686  -0.915   1.504  1.00  0.00    -0.423 OA
ATOM     10  C   UNL     1       1.557   0.797  -1.602  1.00  0.00     0.058 A 
ATOM     11  C   UNL     1       2.158  -0.253  -2.306  1.00  0.00     0.116 A 
ENDROOT
BRANCH  11  12
ATOM     12  O   UNL     1       2.651  -0.024  -3.589  1.00  0.00    -0.508 OA
ATOM     13  H   UNL     1       2.250   0.684  -4.192  1.00  0.00     0.293 HD
ENDBRANCH  11  12
TORSDOF 1
ENDMDL
MODEL 7
REMARK VINA RESULT:    -5.083      0.883      4.761
REMARK INTER + INTRA:          -5.231
REMARK INTER:                  -5.231
REMARK INTRA:                   0.000
REMARK UNBOUND:                 0.000
REMARK SMILES O=c1ccc2cc(O)ccc2o1
REMARK SMILES IDX 9 1 10 2 11 3 5 4 4 5 3 6 2 7 1 8 12 9 6 10 7 11 8 12
REMARK H PARENT 8 13
REMARK Flexibility Score: inf
ROOT
ATOM      1  C   UNL     1       0.447   7.671   0.833  1.00  0.00     0.050 A 
ATOM      2  C   UNL     1      -0.787   7.172   0.403  1.00  0.00     0.052 A 
ATOM      3  C   UNL     1      -1.920   7.993   0.423  1.00  0.00     0.138 A 
ATOM      4  C   UNL     1      -1.812   9.326   0.878  1.00  0.00     0.021 A 
ATOM      5  C   UNL     1      -2.961  10.122   0.886  1.00  0.00     0.019 A 
ATOM      6  C   UNL     1      -4.171   9.582   0.447  1.00  0.00     0.094 A 
ATOM      7  C   UNL     1      -4.202   8.254   0.010  1.00  0.00     0.336 A 
ATOM      8  O   UNL     1      -5.284   7.749  -0.389  1.00  0.00    -0.246 OA
ATOM      9  O   UNL     1      -3.093   7.517   0.013  1.00  0.00    -0.423 OA
ATOM     10  C   UNL     1      -0.572   9.820   1.307  1.00  0.00     0.058 A 
ATOM     11  C   UNL     1       0.557   8.993   1.285  1.00  0.00     0.116 A 
ENDROOT
BRANCH  11  12
ATOM     12  O   UNL     1       1.783   9.496   1.715  1.00  0.00    -0.508 OA
ATOM     13  H   UNL     1       1.849  10.372   2.220  1.00  0.00     0.293 HD
ENDBRANCH  11  12
TORSDOF 1
ENDMDL
MODEL 8
REMARK VINA RESULT:    -4.794     12.648     13.824
REMARK INTER + INTRA:          -4.934
REMARK INTER:                  -4.934
REMARK INTRA:                   0.000
REMARK UNBOUND:                 0.000
REMARK SMILES O=c1ccc2cc(O)ccc2o1
REMARK SMILES IDX 9 1 10 2 11 3 5 4 4 5 3 6 2 7 1 8 12 9 6 10 7 11 8 12
REMARK H PARENT 8 13
REMARK Flexibility Score: inf
ROOT
ATOM      1  C   UNL     1      -2.214  -1.251  -9.292  1.00  0.00     0.050 A 
ATOM      2  C   UNL     1      -3.493  -1.513  -8.790  1.00  0.00     0.052 A 
ATOM      3  C   UNL     1      -4.405  -0.466  -8.616  1.00  0.00     0.138 A 
ATOM      4  C   UNL     1      -4.029   0.854  -8.949  1.00  0.00     0.021 A 
ATOM      5  C   UNL     1      -4.962   1.879  -8.765  1.00  0.00     0.019 A 
ATOM      6  C   UNL     1      -6.226   1.571  -8.262  1.00  0.00     0.094 A 
ATOM      7  C   UNL     1      -6.528   0.241  -7.953  1.00  0.00     0.336 A 
ATOM      8  O   UNL     1      -7.663  -0.057  -7.498  1.00  0.00    -0.246 OA
ATOM      9  O   UNL     1      -5.622  -0.717  -8.139  1.00  0.00    -0.423 OA
ATOM     10  C   UNL     1      -2.746   1.110  -9.453  1.00  0.00     0.058 A 
ATOM     11  C   UNL     1      -1.838   0.058  -9.624  1.00  0.00     0.116 A 
ENDROOT
BRANCH  11  12
ATOM     12  O   UNL     1      -0.565   0.326 -10.125  1.00  0.00    -0.508 OA
ATOM     13  H   UNL     1      -0.364   0.270 -11.117  1.00  0.00     0.293 HD
ENDBRANCH  11  12
TORSDOF 1
ENDMDL
MODEL 9
REMARK VINA RESULT:    -4.756      8.411      9.533
REMARK INTER + INTRA:          -4.895
REMARK INTER:                  -4.895
REMARK INTRA:                   0.000
REMARK UNBOUND:                 0.000
REMARK SMILES O=c1ccc2cc(O)ccc2o1
REMARK SMILES IDX 9 1 10 2 11 3 5 4 4 5 3 6 2 7 1 8 12 9 6 10 7 11 8 12
REMARK H PARENT 8 13
REMARK Flexibility Score: inf
ROOT
ATOM      1  C   UNL     1       0.133   1.969   1.412  1.00  0.00     0.050 A 
ATOM      2  C   UNL     1       0.782   1.994   0.173  1.00  0.00     0.052 A 
ATOM      3  C   UNL     1       1.240   0.804  -0.402  1.00  0.00     0.138 A 
ATOM      4  C   UNL     1       1.045  -0.422   0.272  1.00  0.00     0.021 A 
ATOM      5  C   UNL     1       1.514  -1.594  -0.328  1.00  0.00     0.019 A 
ATOM      6  C   UNL     1       2.154  -1.520  -1.565  1.00  0.00     0.094 A 
ATOM      7  C   UNL     1       2.312  -0.272  -2.175  1.00  0.00     0.336 A 
ATOM      8  O   UNL     1       2.887  -0.185  -3.290  1.00  0.00    -0.246 OA
ATOM      9  O   UNL     1       1.856   0.830  -1.582  1.00  0.00    -0.423 OA
ATOM     10  C   UNL     1       0.394  -0.441   1.514  1.00  0.00     0.058 A 
ATOM     11  C   UNL     1      -0.062   0.754   2.084  1.00  0.00     0.116 A 
ENDROOT
BRANCH  11  12
ATOM     12  O   UNL     1      -0.707   0.721   3.319  1.00  0.00    -0.508 OA
ATOM     13  H   UNL     1      -0.802   1.554   3.888  1.00  0.00     0.293 HD
ENDBRANCH  11  12
TORSDOF 1
ENDMDL
