MODEL 1
REMARK VINA RESULT:    -5.952      0.000      0.000
REMARK INTER + INTRA:          -9.470
REMARK INTER:                  -9.084
REMARK INTRA:                  -0.386
REMARK UNBOUND:                -0.386
REMARK SMILES CC1=CCC[C@@H](C)C(=O)C[C@@H](C(C)C)C(=O)C1
REMARK SMILES IDX 8 1 9 2 6 3 7 4 5 5 4 6 3 7 2 8 1 9 10 11 11 12 15 13 16 14
REMARK SMILES IDX 17 15 12 17 13 18 14 19
REMARK H PARENT
REMARK Flexibility Score: 70.00
ROOT
ATOM      1  C   UNL     1      26.645  55.750 139.516  1.00  0.00     0.136 C 
ATOM      2  O   UNL     1      26.451  54.678 138.968  1.00  0.00    -0.299 OA
ENDROOT
BRANCH   1   3
ATOM      3  C   UNL     1      25.765  56.941 139.166  1.00  0.00     0.053 C 
ATOM      4  C   UNL     1      24.281  56.596 139.360  1.00  0.00     0.016 C 
BRANCH   3   5
ATOM      5  C   UNL     1      26.032  57.422 137.725  1.00  0.00     0.015 C 
BRANCH   5   6
ATOM      6  C   UNL     1      27.436  58.042 137.582  1.00  0.00     0.028 C 
BRANCH   6   7
ATOM      7  C   UNL     1      27.563  59.366 138.285  1.00  0.00    -0.028 C 
ATOM      8  C   UNL     1      28.433  59.624 139.289  1.00  0.00    -0.070 CG0
ATOM      9  C   UNL     1      28.359  60.983 139.942  1.00  0.00     0.039 C 
ATOM     10  G   UNL     1      29.491  58.633 139.759  1.00  0.00     0.000 G0
ENDBRANCH   6   7
ENDBRANCH   5   6
ENDBRANCH   3   5
ENDBRANCH   1   3
BRANCH   1  11
ATOM     11  C   UNL     1      27.683  55.852 140.608  1.00  0.00     0.087 C 
BRANCH  11  12
ATOM     12  C   UNL     1      27.832  57.228 141.334  1.00  0.00     0.066 C 
BRANCH  12  13
ATOM     13  C   UNL     1      29.159  57.949 141.075  1.00  0.00     0.140 C 
ATOM     14  O   UNL     1      30.022  57.904 141.942  1.00  0.00    -0.299 OA
BRANCH  13  15
ATOM     15  C   UNL     1      29.495  58.639 139.770  1.00  0.00     0.106 CG0
ATOM     16  G   UNL     1      28.423  59.618 139.302  1.00  0.00     0.000 G0
ENDBRANCH  13  15
ENDBRANCH  12  13
BRANCH  12  17
ATOM     17  C   UNL     1      27.303  57.345 142.811  1.00  0.00    -0.006 C 
ATOM     18  C   UNL     1      26.060  56.511 143.164  1.00  0.00     0.008 C 
ATOM     19  C   UNL     1      27.106  58.802 143.260  1.00  0.00     0.008 C 
ENDBRANCH  12  17
ENDBRANCH  11  12
ENDBRANCH   1  11
TORSDOF 1
ENDMDL
MODEL 2
REMARK VINA RESULT:    -5.405      1.859      4.005
REMARK INTER + INTRA:          -8.635
REMARK INTER:                  -8.225
REMARK INTRA:                  -0.410
REMARK UNBOUND:                -0.386
REMARK SMILES CC1=CCC[C@@H](C)C(=O)C[C@@H](C(C)C)C(=O)C1
REMARK SMILES IDX 8 1 9 2 6 3 7 4 5 5 4 6 3 7 2 8 1 9 10 11 11 12 15 13 16 14
REMARK SMILES IDX 17 15 12 17 13 18 14 19
REMARK H PARENT
REMARK Flexibility Score: 70.00
ROOT
ATOM      1  C   UNL     1      26.382  57.236 142.478  1.00  0.00     0.136 C 
ATOM      2  O   UNL     1      25.935  56.249 143.039  1.00  0.00    -0.299 OA
ENDROOT
BRANCH   1   3
ATOM      3  C   UNL     1      27.317  58.169 143.234  1.00  0.00     0.053 C 
ATOM      4  C   UNL     1      27.178  59.610 142.720  1.00  0.00     0.016 C 
BRANCH   3   5
ATOM      5  C   UNL     1      28.779  57.690 143.132  1.00  0.00     0.015 C 
BRANCH   5   6
ATOM      6  C   UNL     1      29.685  58.757 142.485  1.00  0.00     0.028 C 
BRANCH   6   7
ATOM      7  C   UNL     1      30.513  58.210 141.355  1.00  0.00    -0.028 C 
ATOM      8  C   UNL     1      30.091  58.097 140.075  1.00  0.00    -0.070 CG0
ATOM      9  C   UNL     1      31.024  57.438 139.088  1.00  0.00     0.039 C 
ATOM     10  G   UNL     1      28.749  58.630 139.584  1.00  0.00     0.000 G0
ENDBRANCH   6   7
ENDBRANCH   5   6
ENDBRANCH   3   5
ENDBRANCH   1   3
BRANCH   1  11
ATOM     11  C   UNL     1      26.086  57.458 141.014  1.00  0.00     0.087 C 
BRANCH  11  12
ATOM     12  C   UNL     1      26.959  56.679 139.978  1.00  0.00     0.066 C 
BRANCH  12  13
ATOM     13  C   UNL     1      27.802  57.566 139.055  1.00  0.00     0.140 C 
ATOM     14  O   UNL     1      27.657  57.449 137.846  1.00  0.00    -0.299 OA
BRANCH  13  15
ATOM     15  C   UNL     1      28.743  58.641 139.559  1.00  0.00     0.106 CG0
ATOM     16  G   UNL     1      30.077  58.099 140.062  1.00  0.00     0.000 G0
ENDBRANCH  13  15
ENDBRANCH  12  13
BRANCH  12  17
ATOM     17  C   UNL     1      26.324  55.423 139.274  1.00  0.00    -0.006 C 
ATOM     18  C   UNL     1      24.930  54.995 139.761  1.00  0.00     0.008 C 
ATOM     19  C   UNL     1      27.271  54.212 139.250  1.00  0.00     0.008 C 
ENDBRANCH  12  17
ENDBRANCH  11  12
ENDBRANCH   1  11
TORSDOF 1
ENDMDL
MODEL 3
REMARK VINA RESULT:    -5.237      1.986      5.012
REMARK INTER + INTRA:          -8.379
REMARK INTER:                  -8.175
REMARK INTRA:                  -0.204
REMARK UNBOUND:                -0.386
REMARK SMILES CC1=CCC[C@@H](C)C(=O)C[C@@H](C(C)C)C(=O)C1
REMARK SMILES IDX 8 1 9 2 6 3 7 4 5 5 4 6 3 7 2 8 1 9 10 11 11 12 15 13 16 14
REMARK SMILES IDX 17 15 12 17 13 18 14 19
REMARK H PARENT
REMARK Flexibility Score: 70.00
ROOT
ATOM      1  C   UNL     1      29.488  57.615 140.272  1.00  0.00     0.136 C 
ATOM      2  O   UNL     1      30.521  56.976 140.388  1.00  0.00    -0.299 OA
ENDROOT
BRANCH   1   3
ATOM      3  C   UNL     1      28.898  58.315 141.487  1.00  0.00     0.053 C 
ATOM      4  C   UNL     1      30.011  58.871 142.387  1.00  0.00     0.016 C 
BRANCH   3   5
ATOM      5  C   UNL     1      27.977  57.365 142.280  1.00  0.00     0.015 C 
BRANCH   5   6
ATOM      6  C   UNL     1      26.502  57.516 141.855  1.00  0.00     0.028 C 
BRANCH   6   7
ATOM      7  C   UNL     1      25.920  56.242 141.308  1.00  0.00    -0.028 C 
ATOM      8  C   UNL     1      25.242  56.144 140.141  1.00  0.00    -0.070 CG0
ATOM      9  C   UNL     1      24.647  54.802 139.791  1.00  0.00     0.039 C 
ATOM     10  G   UNL     1      25.085  57.302 139.162  1.00  0.00     0.000 G0
ENDBRANCH   6   7
ENDBRANCH   5   6
ENDBRANCH   3   5
ENDBRANCH   1   3
BRANCH   1  11
ATOM     11  C   UNL     1      28.870  57.789 138.905  1.00  0.00     0.087 C 
BRANCH  11  12
ATOM     12  C   UNL     1      27.475  58.490 138.830  1.00  0.00     0.066 C 
BRANCH  12  13
ATOM     13  C   UNL     1      26.336  57.598 138.324  1.00  0.00     0.140 C 
ATOM     14  O   UNL     1      26.471  57.044 137.241  1.00  0.00    -0.299 OA
BRANCH  13  15
ATOM     15  C   UNL     1      25.090  57.295 139.130  1.00  0.00     0.106 CG0
ATOM     16  G   UNL     1      25.267  56.151 140.121  1.00  0.00     0.000 G0
ENDBRANCH  13  15
ENDBRANCH  12  13
BRANCH  12  17
ATOM     17  C   UNL     1      27.422  59.974 138.312  1.00  0.00    -0.006 C 
ATOM     18  C   UNL     1      28.277  60.301 137.076  1.00  0.00     0.008 C 
ATOM     19  C   UNL     1      27.683  61.004 139.423  1.00  0.00     0.008 C 
ENDBRANCH  12  17
ENDBRANCH  11  12
ENDBRANCH   1  11
TORSDOF 1
ENDMDL
MODEL 4
REMARK VINA RESULT:    -5.088      2.133      4.133
REMARK INTER + INTRA:          -8.151
REMARK INTER:                  -7.785
REMARK INTRA:                  -0.366
REMARK UNBOUND:                -0.386
REMARK SMILES CC1=CCC[C@@H](C)C(=O)C[C@@H](C(C)C)C(=O)C1
REMARK SMILES IDX 8 1 9 2 6 3 7 4 5 5 4 6 3 7 2 8 1 9 10 11 11 12 15 13 16 14
REMARK SMILES IDX 17 15 12 17 13 18 14 19
REMARK H PARENT
REMARK Flexibility Score: 70.00
ROOT
ATOM      1  C   UNL     1      27.622  59.908 139.107  1.00  0.00     0.136 C 
ATOM      2  O   UNL     1      26.683  60.683 139.178  1.00  0.00    -0.299 OA
ENDROOT
BRANCH   1   3
ATOM      3  C   UNL     1      28.119  59.455 137.742  1.00  0.00     0.053 C 
ATOM      4  C   UNL     1      28.613  60.653 136.918  1.00  0.00     0.016 C 
BRANCH   3   5
ATOM      5  C   UNL     1      27.022  58.682 136.982  1.00  0.00     0.015 C 
BRANCH   5   6
ATOM      6  C   UNL     1      27.012  57.187 137.360  1.00  0.00     0.028 C 
BRANCH   6   7
ATOM      7  C   UNL     1      25.895  56.832 138.302  1.00  0.00    -0.028 C 
ATOM      8  C   UNL     1      26.059  56.201 139.487  1.00  0.00    -0.070 CG0
ATOM      9  C   UNL     1      24.815  55.840 140.263  1.00  0.00     0.039 C 
ATOM     10  G   UNL     1      27.424  55.873 140.082  1.00  0.00     0.000 G0
ENDBRANCH   6   7
ENDBRANCH   5   6
ENDBRANCH   3   5
ENDBRANCH   1   3
BRANCH   1  11
ATOM     11  C   UNL     1      28.343  59.494 140.368  1.00  0.00     0.087 C 
BRANCH  11  12
ATOM     12  C   UNL     1      28.952  58.055 140.409  1.00  0.00     0.066 C 
BRANCH  12  13
ATOM     13  C   UNL     1      28.009  56.976 140.951  1.00  0.00     0.140 C 
ATOM     14  O   UNL     1      27.650  57.051 142.118  1.00  0.00    -0.299 OA
BRANCH  13  15
ATOM     15  C   UNL     1      27.427  55.869 140.096  1.00  0.00     0.106 CG0
ATOM     16  G   UNL     1      26.063  56.208 139.503  1.00  0.00     0.000 G0
ENDBRANCH  13  15
ENDBRANCH  12  13
BRANCH  12  17
ATOM     17  C   UNL     1      30.450  57.901 140.863  1.00  0.00    -0.006 C 
ATOM     18  C   UNL     1      30.987  58.966 141.833  1.00  0.00     0.008 C 
ATOM     19  C   UNL     1      31.417  57.728 139.680  1.00  0.00     0.008 C 
ENDBRANCH  12  17
ENDBRANCH  11  12
ENDBRANCH   1  11
TORSDOF 1
ENDMDL
MODEL 5
REMARK VINA RESULT:    -5.039      1.501      3.695
REMARK INTER + INTRA:          -8.076
REMARK INTER:                  -8.541
REMARK INTRA:                   0.464
REMARK UNBOUND:                -0.386
REMARK SMILES CC1=CCC[C@@H](C)C(=O)C[C@@H](C(C)C)C(=O)C1
REMARK SMILES IDX 8 1 9 2 6 3 7 4 5 5 4 6 3 7 2 8 1 9 10 11 11 12 15 13 16 14
REMARK SMILES IDX 17 15 12 17 13 18 14 19
REMARK H PARENT
REMARK Flexibility Score: 70.00
ROOT
ATOM      1  C   UNL     1      26.128  56.512 139.043  1.00  0.00     0.136 C 
ATOM      2  O   UNL     1      26.632  55.714 138.268  1.00  0.00    -0.299 OA
ENDROOT
BRANCH   1   3
ATOM      3  C   UNL     1      25.167  56.013 140.112  1.00  0.00     0.053 C 
ATOM      4  C   UNL     1      23.724  56.015 139.588  1.00  0.00     0.016 C 
BRANCH   3   5
ATOM      5  C   UNL     1      25.284  56.856 141.398  1.00  0.00     0.015 C 
BRANCH   5   6
ATOM      6  C   UNL     1      26.365  56.301 142.347  1.00  0.00     0.028 C 
BRANCH   6   7
ATOM      7  C   UNL     1      27.461  57.292 142.626  1.00  0.00    -0.028 C 
ATOM      8  C   UNL     1      28.574  57.442 141.871  1.00  0.00    -0.070 CG0
ATOM      9  C   UNL     1      29.615  58.423 142.352  1.00  0.00     0.039 C 
ATOM     10  G   UNL     1      28.804  56.701 140.558  1.00  0.00     0.000 G0
ENDBRANCH   6   7
ENDBRANCH   5   6
ENDBRANCH   3   5
ENDBRANCH   1   3
BRANCH   1  11
ATOM     11  C   UNL     1      26.547  57.962 138.995  1.00  0.00     0.087 C 
BRANCH  11  12
ATOM     12  C   UNL     1      28.007  58.274 138.531  1.00  0.00     0.066 C 
BRANCH  12  13
ATOM     13  C   UNL     1      29.103  57.607 139.369  1.00  0.00     0.140 C 
ATOM     14  O   UNL     1      30.270  57.874 139.116  1.00  0.00    -0.299 OA
BRANCH  13  15
ATOM     15  C   UNL     1      28.818  56.703 140.551  1.00  0.00     0.106 CG0
ATOM     16  G   UNL     1      28.587  57.458 141.855  1.00  0.00     0.000 G0
ENDBRANCH  13  15
ENDBRANCH  12  13
BRANCH  12  17
ATOM     17  C   UNL     1      28.337  59.742 138.074  1.00  0.00    -0.006 C 
ATOM     18  C   UNL     1      27.890  60.872 139.016  1.00  0.00     0.008 C 
ATOM     19  C   UNL     1      27.875  60.038 136.637  1.00  0.00     0.008 C 
ENDBRANCH  12  17
ENDBRANCH  11  12
ENDBRANCH   1  11
TORSDOF 1
ENDMDL
MODEL 6
REMARK VINA RESULT:    -5.003      1.799      4.039
REMARK INTER + INTRA:          -8.022
REMARK INTER:                  -7.904
REMARK INTRA:                  -0.118
REMARK UNBOUND:                -0.386
REMARK SMILES CC1=CCC[C@@H](C)C(=O)C[C@@H](C(C)C)C(=O)C1
REMARK SMILES IDX 8 1 9 2 6 3 7 4 5 5 4 6 3 7 2 8 1 9 10 11 11 12 15 13 16 14
REMARK SMILES IDX 17 15 12 17 13 18 14 19
REMARK H PARENT
REMARK Flexibility Score: 70.00
ROOT
ATOM      1  C   UNL     1      25.533  57.324 139.610  1.00  0.00     0.136 C 
ATOM      2  O   UNL     1      24.395  56.996 139.317  1.00  0.00    -0.299 OA
ENDROOT
BRANCH   1   3
ATOM      3  C   UNL     1      26.468  56.303 140.242  1.00  0.00     0.053 C 
ATOM      4  C   UNL     1      26.384  54.959 139.502  1.00  0.00     0.016 C 
BRANCH   3   5
ATOM      5  C   UNL     1      26.159  56.122 141.742  1.00  0.00     0.015 C 
BRANCH   5   6
ATOM      6  C   UNL     1      26.509  57.387 142.552  1.00  0.00     0.028 C 
BRANCH   6   7
ATOM      7  C   UNL     1      27.991  57.595 142.697  1.00  0.00    -0.028 C 
ATOM      8  C   UNL     1      28.671  58.657 142.209  1.00  0.00    -0.070 CG0
ATOM      9  C   UNL     1      30.173  58.656 142.367  1.00  0.00     0.039 C 
ATOM     10  G   UNL     1      27.997  59.854 141.549  1.00  0.00     0.000 G0
ENDBRANCH   6   7
ENDBRANCH   5   6
ENDBRANCH   3   5
ENDBRANCH   1   3
BRANCH   1  11
ATOM     11  C   UNL     1      26.028  58.703 139.246  1.00  0.00     0.087 C 
BRANCH  11  12
ATOM     12  C   UNL     1      27.570  58.890 139.068  1.00  0.00     0.066 C 
BRANCH  12  13
ATOM     13  C   UNL     1      28.209  59.897 140.030  1.00  0.00     0.140 C 
ATOM     14  O   UNL     1      28.868  60.813 139.558  1.00  0.00    -0.299 OA
BRANCH  13  15
ATOM     15  C   UNL     1      27.997  59.870 141.530  1.00  0.00     0.106 CG0
ATOM     16  G   UNL     1      28.655  58.679 142.219  1.00  0.00     0.000 G0
ENDBRANCH  13  15
ENDBRANCH  12  13
BRANCH  12  17
ATOM     17  C   UNL     1      28.144  58.932 137.604  1.00  0.00    -0.006 C 
ATOM     18  C   UNL     1      27.856  60.204 136.790  1.00  0.00     0.008 C 
ATOM     19  C   UNL     1      27.777  57.685 136.783  1.00  0.00     0.008 C 
ENDBRANCH  12  17
ENDBRANCH  11  12
ENDBRANCH   1  11
TORSDOF 1
ENDMDL
MODEL 7
REMARK VINA RESULT:    -4.987      1.922      3.642
REMARK INTER + INTRA:          -7.998
REMARK INTER:                  -8.088
REMARK INTRA:                   0.090
REMARK UNBOUND:                -0.386
REMARK SMILES CC1=CCC[C@@H](C)C(=O)C[C@@H](C(C)C)C(=O)C1
REMARK SMILES IDX 8 1 9 2 6 3 7 4 5 5 4 6 3 7 2 8 1 9 10 11 11 12 15 13 16 14
REMARK SMILES IDX 17 15 12 17 13 18 14 19
REMARK H PARENT
REMARK Flexibility Score: 70.00
ROOT
ATOM      1  C   UNL     1      27.807  55.929 139.239  1.00  0.00     0.136 C 
ATOM      2  O   UNL     1      28.175  54.879 139.740  1.00  0.00    -0.299 OA
ENDROOT
BRANCH   1   3
ATOM      3  C   UNL     1      26.380  56.055 138.726  1.00  0.00     0.053 C 
ATOM      4  C   UNL     1      26.131  57.458 138.154  1.00  0.00     0.016 C 
BRANCH   3   5
ATOM      5  C   UNL     1      25.361  55.728 139.836  1.00  0.00     0.015 C 
BRANCH   5   6
ATOM      6  C   UNL     1      25.246  56.875 140.861  1.00  0.00     0.028 C 
BRANCH   6   7
ATOM      7  C   UNL     1      26.003  56.600 142.130  1.00  0.00    -0.028 C 
ATOM      8  C   UNL     1      26.884  57.453 142.702  1.00  0.00    -0.070 CG0
ATOM      9  C   UNL     1      27.624  56.974 143.927  1.00  0.00     0.039 C 
ATOM     10  G   UNL     1      27.133  58.868 142.192  1.00  0.00     0.000 G0
ENDBRANCH   6   7
ENDBRANCH   5   6
ENDBRANCH   3   5
ENDBRANCH   1   3
BRANCH   1  11
ATOM     11  C   UNL     1      28.739  57.117 139.230  1.00  0.00     0.087 C 
BRANCH  11  12
ATOM     12  C   UNL     1      29.026  57.815 140.599  1.00  0.00     0.066 C 
BRANCH  12  13
ATOM     13  C   UNL     1      28.037  58.924 140.973  1.00  0.00     0.140 C 
ATOM     14  O   UNL     1      27.903  59.866 140.203  1.00  0.00    -0.299 OA
BRANCH  13  15
ATOM     15  C   UNL     1      27.151  58.875 142.200  1.00  0.00     0.106 CG0
ATOM     16  G   UNL     1      26.878  57.461 142.701  1.00  0.00     0.000 G0
ENDBRANCH  13  15
ENDBRANCH  12  13
BRANCH  12  17
ATOM     17  C   UNL     1      30.524  58.124 140.970  1.00  0.00    -0.006 C 
ATOM     18  C   UNL     1      30.763  59.285 141.949  1.00  0.00     0.008 C 
ATOM     19  C   UNL     1      31.424  58.281 139.733  1.00  0.00     0.008 C 
ENDBRANCH  12  17
ENDBRANCH  11  12
ENDBRANCH   1  11
TORSDOF 1
ENDMDL
MODEL 8
REMARK VINA RESULT:    -4.964      1.674      3.993
REMARK INTER + INTRA:          -7.963
REMARK INTER:                  -8.381
REMARK INTRA:                   0.418
REMARK UNBOUND:                -0.386
REMARK SMILES CC1=CCC[C@@H](C)C(=O)C[C@@H](C(C)C)C(=O)C1
REMARK SMILES IDX 8 1 9 2 6 3 7 4 5 5 4 6 3 7 2 8 1 9 10 11 11 12 15 13 16 14
REMARK SMILES IDX 17 15 12 17 13 18 14 19
REMARK H PARENT
REMARK Flexibility Score: 70.00
ROOT
ATOM      1  C   UNL     1      26.178  57.118 140.739  1.00  0.00     0.136 C 
ATOM      2  O   UNL     1      25.815  56.093 140.187  1.00  0.00    -0.299 OA
ENDROOT
BRANCH   1   3
ATOM      3  C   UNL     1      26.779  57.045 142.135  1.00  0.00     0.053 C 
ATOM      4  C   UNL     1      25.820  56.337 143.103  1.00  0.00     0.016 C 
BRANCH   3   5
ATOM      5  C   UNL     1      27.143  58.450 142.656  1.00  0.00     0.015 C 
BRANCH   5   6
ATOM      6  C   UNL     1      28.667  58.617 142.827  1.00  0.00     0.028 C 
BRANCH   6   7
ATOM      7  C   UNL     1      29.457  57.779 141.861  1.00  0.00    -0.028 C 
ATOM      8  C   UNL     1      29.859  58.189 140.636  1.00  0.00    -0.070 CG0
ATOM      9  C   UNL     1      30.565  57.182 139.760  1.00  0.00     0.039 C 
ATOM     10  G   UNL     1      29.664  59.611 140.121  1.00  0.00     0.000 G0
ENDBRANCH   6   7
ENDBRANCH   5   6
ENDBRANCH   3   5
ENDBRANCH   1   3
BRANCH   1  11
ATOM     11  C   UNL     1      26.123  58.428 139.989  1.00  0.00     0.087 C 
BRANCH  11  12
ATOM     12  C   UNL     1      27.329  58.775 139.059  1.00  0.00     0.066 C 
BRANCH  12  13
ATOM     13  C   UNL     1      28.258  59.871 139.594  1.00  0.00     0.140 C 
ATOM     14  O   UNL     1      27.817  61.008 139.691  1.00  0.00    -0.299 OA
BRANCH  13  15
ATOM     15  C   UNL     1      29.663  59.606 140.093  1.00  0.00     0.106 CG0
ATOM     16  G   UNL     1      29.864  58.194 140.632  1.00  0.00     0.000 G0
ENDBRANCH  13  15
ENDBRANCH  12  13
BRANCH  12  17
ATOM     17  C   UNL     1      27.071  58.840 137.508  1.00  0.00    -0.006 C 
ATOM     18  C   UNL     1      27.160  57.510 136.741  1.00  0.00     0.008 C 
ATOM     19  C   UNL     1      27.920  59.912 136.806  1.00  0.00     0.008 C 
ENDBRANCH  12  17
ENDBRANCH  11  12
ENDBRANCH   1  11
TORSDOF 1
ENDMDL
MODEL 9
REMARK VINA RESULT:    -4.884      1.896      4.143
REMARK INTER + INTRA:          -7.840
REMARK INTER:                  -7.671
REMARK INTRA:                  -0.169
REMARK UNBOUND:                -0.386
REMARK SMILES CC1=CCC[C@@H](C)C(=O)C[C@@H](C(C)C)C(=O)C1
REMARK SMILES IDX 8 1 9 2 6 3 7 4 5 5 4 6 3 7 2 8 1 9 10 11 11 12 15 13 16 14
REMARK SMILES IDX 17 15 12 17 13 18 14 19
REMARK H PARENT
REMARK Flexibility Score: 70.00
ROOT
ATOM      1  C   UNL     1      28.673  59.784 141.435  1.00  0.00     0.136 C 
ATOM      2  O   UNL     1      28.882  60.969 141.636  1.00  0.00    -0.299 OA
ENDROOT
BRANCH   1   3
ATOM      3  C   UNL     1      29.824  58.794 141.530  1.00  0.00     0.053 C 
ATOM      4  C   UNL     1      30.797  59.197 142.648  1.00  0.00     0.016 C 
BRANCH   3   5
ATOM      5  C   UNL     1      30.561  58.668 140.181  1.00  0.00     0.015 C 
BRANCH   5   6
ATOM      6  C   UNL     1      30.078  57.443 139.379  1.00  0.00     0.028 C 
BRANCH   6   7
ATOM      7  C   UNL     1      28.972  57.777 138.416  1.00  0.00    -0.028 C 
ATOM      8  C   UNL     1      27.739  57.223 138.438  1.00  0.00    -0.070 CG0
ATOM      9  C   UNL     1      26.782  57.608 137.335  1.00  0.00     0.039 C 
ATOM     10  G   UNL     1      27.266  56.268 139.529  1.00  0.00     0.000 G0
ENDBRANCH   6   7
ENDBRANCH   5   6
ENDBRANCH   3   5
ENDBRANCH   1   3
BRANCH   1  11
ATOM     11  C   UNL     1      27.260  59.306 141.198  1.00  0.00     0.087 C 
BRANCH  11  12
ATOM     12  C   UNL     1      26.902  57.860 141.670  1.00  0.00     0.066 C 
BRANCH  12  13
ATOM     13  C   UNL     1      26.371  56.939 140.567  1.00  0.00     0.140 C 
ATOM     14  O   UNL     1      25.160  56.788 140.470  1.00  0.00    -0.299 OA
BRANCH  13  15
ATOM     15  C   UNL     1      27.257  56.275 139.534  1.00  0.00     0.106 CG0
ATOM     16  G   UNL     1      27.727  57.219 138.433  1.00  0.00     0.000 G0
ENDBRANCH  13  15
ENDBRANCH  12  13
BRANCH  12  17
ATOM     17  C   UNL     1      26.184  57.694 143.060  1.00  0.00    -0.006 C 
ATOM     18  C   UNL     1      26.718  58.556 144.216  1.00  0.00     0.008 C 
ATOM     19  C   UNL     1      26.074  56.226 143.503  1.00  0.00     0.008 C 
ENDBRANCH  12  17
ENDBRANCH  11  12
ENDBRANCH   1  11
TORSDOF 1
ENDMDL
