MODEL 1
REMARK VINA RESULT:    -7.036      0.000      0.000
REMARK INTER + INTRA:          -8.545
REMARK INTER:                  -8.269
REMARK INTRA:                  -0.276
REMARK UNBOUND:                -0.276
REMARK SMILES O=c1c(O)c(-c2ccc(O)c(O)c2)oc2cc(O)ccc12
REMARK SMILES IDX 5 1 3 2 2 3 1 4 21 5 15 6 14 7 16 8 17 9 19 10 20 11 6 12
REMARK SMILES IDX 7 13 8 14 9 15 13 16 11 17 10 18 12 20 4 22 18 24
REMARK H PARENT 10 19 12 21 4 23 18 25
REMARK Flexibility Score: inf
ROOT
ATOM      1  C   UNL     1     107.180 121.227 120.475  1.00  0.00     0.180 A 
ATOM      2  C   UNL     1     106.144 120.664 121.250  1.00  0.00     0.208 A 
ATOM      3  C   UNL     1     104.842 121.163 121.103  1.00  0.00     0.235 A 
ATOM      4  O   UNL     1     103.896 120.669 121.778  1.00  0.00    -0.285 OA
ATOM      5  C   UNL     1     104.603 122.218 120.208  1.00  0.00     0.069 A 
ATOM      6  C   UNL     1     105.696 122.743 119.487  1.00  0.00     0.142 A 
ATOM      7  O   UNL     1     106.914 122.236 119.649  1.00  0.00    -0.452 OA
ATOM      8  C   UNL     1     105.501 123.802 118.592  1.00  0.00     0.094 A 
ATOM      9  C   UNL     1     104.225 124.344 118.408  1.00  0.00     0.119 A 
ATOM     10  C   UNL     1     103.136 123.824 119.122  1.00  0.00     0.047 A 
ATOM     11  C   UNL     1     103.321 122.767 120.019  1.00  0.00     0.020 A 
ENDROOT
BRANCH   1  12
ATOM     12  C   UNL     1     108.576 120.743 120.558  1.00  0.00     0.025 A 
ATOM     13  C   UNL     1     109.386 121.155 121.628  1.00  0.00     0.016 A 
ATOM     14  C   UNL     1     110.713 120.728 121.717  1.00  0.00     0.051 A 
ATOM     15  C   UNL     1     111.255 119.896 120.728  1.00  0.00     0.157 A 
ATOM     16  C   UNL     1     109.130 119.925 119.558  1.00  0.00     0.062 A 
ATOM     17  C   UNL     1     110.459 119.496 119.642  1.00  0.00     0.158 A 
BRANCH  15  18
ATOM     18  O   UNL     1     112.579 119.469 120.820  1.00  0.00    -0.504 OA
ATOM     19  H   UNL     1     112.942 119.043 121.666  1.00  0.00     0.293 HD
ENDBRANCH  15  18
BRANCH  17  20
ATOM     20  O   UNL     1     110.973 118.681 118.635  1.00  0.00    -0.504 OA
ATOM     21  H   UNL     1     111.777 118.950 118.081  1.00  0.00     0.293 HD
ENDBRANCH  17  20
ENDBRANCH   1  12
BRANCH   2  22
ATOM     22  O   UNL     1     106.421 119.648 122.168  1.00  0.00    -0.502 OA
ATOM     23  H   UNL     1     106.282 119.766 123.165  1.00  0.00     0.293 HD
ENDBRANCH   2  22
BRANCH   9  24
ATOM     24  O   UNL     1     104.049 125.397 117.513  1.00  0.00    -0.508 OA
ATOM     25  H   UNL     1     104.111 126.363 117.813  1.00  0.00     0.293 HD
ENDBRANCH   9  24
TORSDOF 5
ENDMDL
MODEL 2
REMARK VINA RESULT:    -6.688      0.867      1.556
REMARK INTER + INTRA:          -8.136
REMARK INTER:                  -7.819
REMARK INTRA:                  -0.318
REMARK UNBOUND:                -0.276
REMARK SMILES O=c1c(O)c(-c2ccc(O)c(O)c2)oc2cc(O)ccc12
REMARK SMILES IDX 5 1 3 2 2 3 1 4 21 5 15 6 14 7 16 8 17 9 19 10 20 11 6 12
REMARK SMILES IDX 7 13 8 14 9 15 13 16 11 17 10 18 12 20 4 22 18 24
REMARK H PARENT 10 19 12 21 4 23 18 25
REMARK Flexibility Score: inf
ROOT
ATOM      1  C   UNL     1     106.718 121.317 119.996  1.00  0.00     0.180 A 
ATOM      2  C   UNL     1     105.660 120.724 120.717  1.00  0.00     0.208 A 
ATOM      3  C   UNL     1     104.372 121.264 120.594  1.00  0.00     0.235 A 
ATOM      4  O   UNL     1     103.407 120.744 121.221  1.00  0.00    -0.285 OA
ATOM      5  C   UNL     1     104.169 122.386 119.776  1.00  0.00     0.069 A 
ATOM      6  C   UNL     1     105.282 122.936 119.106  1.00  0.00     0.142 A 
ATOM      7  O   UNL     1     106.486 122.389 119.243  1.00  0.00    -0.452 OA
ATOM      8  C   UNL     1     105.123 124.061 118.290  1.00  0.00     0.094 A 
ATOM      9  C   UNL     1     103.862 124.646 118.132  1.00  0.00     0.119 A 
ATOM     10  C   UNL     1     102.753 124.101 118.794  1.00  0.00     0.047 A 
ATOM     11  C   UNL     1     102.902 122.978 119.613  1.00  0.00     0.020 A 
ENDROOT
BRANCH   1  12
ATOM     12  C   UNL     1     108.102 120.795 120.059  1.00  0.00     0.025 A 
ATOM     13  C   UNL     1     108.501 119.788 119.166  1.00  0.00     0.016 A 
ATOM     14  C   UNL     1     109.795 119.266 119.219  1.00  0.00     0.051 A 
ATOM     15  C   UNL     1     110.705 119.731 120.178  1.00  0.00     0.157 A 
ATOM     16  C   UNL     1     109.012 121.245 121.031  1.00  0.00     0.062 A 
ATOM     17  C   UNL     1     110.309 120.723 121.091  1.00  0.00     0.158 A 
BRANCH  15  18
ATOM     18  O   UNL     1     111.997 119.210 120.228  1.00  0.00    -0.504 OA
ATOM     19  H   UNL     1     112.790 119.781 120.499  1.00  0.00     0.293 HD
ENDBRANCH  15  18
BRANCH  17  20
ATOM     20  O   UNL     1     111.187 121.197 122.065  1.00  0.00    -0.504 OA
ATOM     21  H   UNL     1     110.896 121.352 123.022  1.00  0.00     0.293 HD
ENDBRANCH  17  20
ENDBRANCH   1  12
BRANCH   2  22
ATOM     22  O   UNL     1     105.902 119.637 121.561  1.00  0.00    -0.502 OA
ATOM     23  H   UNL     1     106.525 119.698 122.358  1.00  0.00     0.293 HD
ENDBRANCH   2  22
BRANCH   9  24
ATOM     24  O   UNL     1     103.721 125.765 117.315  1.00  0.00    -0.508 OA
ATOM     25  H   UNL     1     104.118 126.661 117.571  1.00  0.00     0.293 HD
ENDBRANCH   9  24
TORSDOF 5
ENDMDL
MODEL 3
REMARK VINA RESULT:    -6.581      1.382      2.874
REMARK INTER + INTRA:          -8.011
REMARK INTER:                  -7.694
REMARK INTRA:                  -0.317
REMARK UNBOUND:                -0.276
REMARK SMILES O=c1c(O)c(-c2ccc(O)c(O)c2)oc2cc(O)ccc12
REMARK SMILES IDX 5 1 3 2 2 3 1 4 21 5 15 6 14 7 16 8 17 9 19 10 20 11 6 12
REMARK SMILES IDX 7 13 8 14 9 15 13 16 11 17 10 18 12 20 4 22 18 24
REMARK H PARENT 10 19 12 21 4 23 18 25
REMARK Flexibility Score: inf
ROOT
ATOM      1  C   UNL     1     107.668 122.127 119.437  1.00  0.00     0.180 A 
ATOM      2  C   UNL     1     107.772 123.211 118.540  1.00  0.00     0.208 A 
ATOM      3  C   UNL     1     106.621 123.955 118.243  1.00  0.00     0.235 A 
ATOM      4  O   UNL     1     106.691 124.936 117.451  1.00  0.00    -0.285 OA
ATOM      5  C   UNL     1     105.396 123.596 118.826  1.00  0.00     0.069 A 
ATOM      6  C   UNL     1     105.370 122.485 119.695  1.00  0.00     0.142 A 
ATOM      7  O   UNL     1     106.484 121.810 119.957  1.00  0.00    -0.452 OA
ATOM      8  C   UNL     1     104.166 122.088 120.289  1.00  0.00     0.094 A 
ATOM      9  C   UNL     1     102.985 122.790 120.027  1.00  0.00     0.119 A 
ATOM     10  C   UNL     1     103.007 123.896 119.165  1.00  0.00     0.047 A 
ATOM     11  C   UNL     1     104.205 124.299 118.566  1.00  0.00     0.020 A 
ENDROOT
BRANCH   1  12
ATOM     12  C   UNL     1     108.839 121.305 119.816  1.00  0.00     0.025 A 
ATOM     13  C   UNL     1     109.641 121.703 120.897  1.00  0.00     0.016 A 
ATOM     14  C   UNL     1     110.763 120.953 121.260  1.00  0.00     0.051 A 
ATOM     15  C   UNL     1     111.109 119.804 120.536  1.00  0.00     0.157 A 
ATOM     16  C   UNL     1     109.201 120.162 119.080  1.00  0.00     0.062 A 
ATOM     17  C   UNL     1     110.326 119.411 119.438  1.00  0.00     0.158 A 
BRANCH  15  18
ATOM     18  O   UNL     1     112.228 119.057 120.902  1.00  0.00    -0.504 OA
ATOM     19  H   UNL     1     113.167 119.428 120.810  1.00  0.00     0.293 HD
ENDBRANCH  15  18
BRANCH  17  20
ATOM     20  O   UNL     1     110.652 118.281 118.690  1.00  0.00    -0.504 OA
ATOM     21  H   UNL     1     110.080 117.962 117.918  1.00  0.00     0.293 HD
ENDBRANCH  17  20
ENDBRANCH   1  12
BRANCH   2  22
ATOM     22  O   UNL     1     108.995 123.515 117.937  1.00  0.00    -0.502 OA
ATOM     23  H   UNL     1     109.844 123.004 118.147  1.00  0.00     0.293 HD
ENDBRANCH   2  22
BRANCH   9  24
ATOM     24  O   UNL     1     101.797 122.382 120.627  1.00  0.00    -0.508 OA
ATOM     25  H   UNL     1     101.762 121.575 121.239  1.00  0.00     0.293 HD
ENDBRANCH   9  24
TORSDOF 5
ENDMDL
MODEL 4
REMARK VINA RESULT:    -6.520      1.353      6.485
REMARK INTER + INTRA:          -7.940
REMARK INTER:                  -7.684
REMARK INTRA:                  -0.255
REMARK UNBOUND:                -0.276
REMARK SMILES O=c1c(O)c(-c2ccc(O)c(O)c2)oc2cc(O)ccc12
REMARK SMILES IDX 5 1 3 2 2 3 1 4 21 5 15 6 14 7 16 8 17 9 19 10 20 11 6 12
REMARK SMILES IDX 7 13 8 14 9 15 13 16 11 17 10 18 12 20 4 22 18 24
REMARK H PARENT 10 19 12 21 4 23 18 25
REMARK Flexibility Score: inf
ROOT
ATOM      1  C   UNL     1     106.302 121.499 120.078  1.00  0.00     0.180 A 
ATOM      2  C   UNL     1     105.774 120.909 121.245  1.00  0.00     0.208 A 
ATOM      3  C   UNL     1     106.659 120.354 122.181  1.00  0.00     0.235 A 
ATOM      4  O   UNL     1     106.211 119.829 123.239  1.00  0.00    -0.285 OA
ATOM      5  C   UNL     1     108.039 120.380 121.927  1.00  0.00     0.069 A 
ATOM      6  C   UNL     1     108.487 120.968 120.725  1.00  0.00     0.142 A 
ATOM      7  O   UNL     1     107.616 121.490 119.868  1.00  0.00    -0.452 OA
ATOM      8  C   UNL     1     109.854 121.005 120.431  1.00  0.00     0.094 A 
ATOM      9  C   UNL     1     110.784 120.463 121.324  1.00  0.00     0.119 A 
ATOM     10  C   UNL     1     110.343 119.880 122.521  1.00  0.00     0.047 A 
ATOM     11  C   UNL     1     108.978 119.836 122.823  1.00  0.00     0.020 A 
ENDROOT
BRANCH   1  12
ATOM     12  C   UNL     1     105.435 122.123 119.052  1.00  0.00     0.025 A 
ATOM     13  C   UNL     1     104.722 121.305 118.162  1.00  0.00     0.016 A 
ATOM     14  C   UNL     1     103.914 121.871 117.173  1.00  0.00     0.051 A 
ATOM     15  C   UNL     1     103.821 123.263 117.048  1.00  0.00     0.157 A 
ATOM     16  C   UNL     1     105.355 123.519 118.911  1.00  0.00     0.062 A 
ATOM     17  C   UNL     1     104.549 124.091 117.919  1.00  0.00     0.158 A 
BRANCH  15  18
ATOM     18  O   UNL     1     103.013 123.826 116.061  1.00  0.00    -0.504 OA
ATOM     19  H   UNL     1     102.113 123.426 115.821  1.00  0.00     0.293 HD
ENDBRANCH  15  18
BRANCH  17  20
ATOM     20  O   UNL     1     104.489 125.479 117.812  1.00  0.00    -0.504 OA
ATOM     21  H   UNL     1     104.783 126.091 118.563  1.00  0.00     0.293 HD
ENDBRANCH  17  20
ENDBRANCH   1  12
BRANCH   2  22
ATOM     22  O   UNL     1     104.393 120.854 121.448  1.00  0.00    -0.502 OA
ATOM     23  H   UNL     1     103.862 119.998 121.336  1.00  0.00     0.293 HD
ENDBRANCH   2  22
BRANCH   9  24
ATOM     24  O   UNL     1     112.141 120.509 121.016  1.00  0.00    -0.508 OA
ATOM     25  H   UNL     1     112.466 120.787 120.097  1.00  0.00     0.293 HD
ENDBRANCH   9  24
TORSDOF 5
ENDMDL
MODEL 5
REMARK VINA RESULT:    -6.406      1.524      6.373
REMARK INTER + INTRA:          -7.806
REMARK INTER:                  -7.495
REMARK INTRA:                  -0.310
REMARK UNBOUND:                -0.276
REMARK SMILES O=c1c(O)c(-c2ccc(O)c(O)c2)oc2cc(O)ccc12
REMARK SMILES IDX 5 1 3 2 2 3 1 4 21 5 15 6 14 7 16 8 17 9 19 10 20 11 6 12
REMARK SMILES IDX 7 13 8 14 9 15 13 16 11 17 10 18 12 20 4 22 18 24
REMARK H PARENT 10 19 12 21 4 23 18 25
REMARK Flexibility Score: inf
ROOT
ATOM      1  C   UNL     1     106.212 121.717 120.139  1.00  0.00     0.180 A 
ATOM      2  C   UNL     1     105.670 121.063 121.265  1.00  0.00     0.208 A 
ATOM      3  C   UNL     1     106.544 120.455 122.179  1.00  0.00     0.235 A 
ATOM      4  O   UNL     1     106.083 119.873 123.201  1.00  0.00    -0.285 OA
ATOM      5  C   UNL     1     107.927 120.494 121.943  1.00  0.00     0.069 A 
ATOM      6  C   UNL     1     108.389 121.147 120.782  1.00  0.00     0.142 A 
ATOM      7  O   UNL     1     107.529 121.718 119.945  1.00  0.00    -0.452 OA
ATOM      8  C   UNL     1     109.760 121.199 120.505  1.00  0.00     0.094 A 
ATOM      9  C   UNL     1     110.678 120.606 121.379  1.00  0.00     0.119 A 
ATOM     10  C   UNL     1     110.223 119.958 122.536  1.00  0.00     0.047 A 
ATOM     11  C   UNL     1     108.855 119.900 122.819  1.00  0.00     0.020 A 
ENDROOT
BRANCH   1  12
ATOM     12  C   UNL     1     105.359 122.397 119.139  1.00  0.00     0.025 A 
ATOM     13  C   UNL     1     105.078 123.765 119.288  1.00  0.00     0.016 A 
ATOM     14  C   UNL     1     104.259 124.424 118.368  1.00  0.00     0.051 A 
ATOM     15  C   UNL     1     103.695 123.722 117.294  1.00  0.00     0.157 A 
ATOM     16  C   UNL     1     104.776 121.692 118.071  1.00  0.00     0.062 A 
ATOM     17  C   UNL     1     103.952 122.348 117.149  1.00  0.00     0.158 A 
BRANCH  15  18
ATOM     18  O   UNL     1     102.880 124.382 116.377  1.00  0.00    -0.504 OA
ATOM     19  H   UNL     1     102.072 124.918 116.673  1.00  0.00     0.293 HD
ENDBRANCH  15  18
BRANCH  17  20
ATOM     20  O   UNL     1     103.395 121.619 116.100  1.00  0.00    -0.504 OA
ATOM     21  H   UNL     1     102.800 120.815 116.259  1.00  0.00     0.293 HD
ENDBRANCH  17  20
ENDBRANCH   1  12
BRANCH   2  22
ATOM     22  O   UNL     1     104.287 120.999 121.448  1.00  0.00    -0.502 OA
ATOM     23  H   UNL     1     103.864 120.473 122.203  1.00  0.00     0.293 HD
ENDBRANCH   2  22
BRANCH   9  24
ATOM     24  O   UNL     1     112.039 120.668 121.089  1.00  0.00    -0.508 OA
ATOM     25  H   UNL     1     112.488 121.540 120.836  1.00  0.00     0.293 HD
ENDBRANCH   9  24
TORSDOF 5
ENDMDL
MODEL 6
REMARK VINA RESULT:    -6.049      2.079      4.154
REMARK INTER + INTRA:          -7.386
REMARK INTER:                  -7.069
REMARK INTRA:                  -0.317
REMARK UNBOUND:                -0.276
REMARK SMILES O=c1c(O)c(-c2ccc(O)c(O)c2)oc2cc(O)ccc12
REMARK SMILES IDX 5 1 3 2 2 3 1 4 21 5 15 6 14 7 16 8 17 9 19 10 20 11 6 12
REMARK SMILES IDX 7 13 8 14 9 15 13 16 11 17 10 18 12 20 4 22 18 24
REMARK H PARENT 10 19 12 21 4 23 18 25
REMARK Flexibility Score: inf
ROOT
ATOM      1  C   UNL     1     107.011 120.203 121.427  1.00  0.00     0.180 A 
ATOM      2  C   UNL     1     106.153 121.100 120.755  1.00  0.00     0.208 A 
ATOM      3  C   UNL     1     104.768 120.969 120.931  1.00  0.00     0.235 A 
ATOM      4  O   UNL     1     103.980 121.767 120.349  1.00  0.00    -0.285 OA
ATOM      5  C   UNL     1     104.269 119.944 121.749  1.00  0.00     0.069 A 
ATOM      6  C   UNL     1     105.190 119.073 122.367  1.00  0.00     0.142 A 
ATOM      7  O   UNL     1     106.496 119.235 122.182  1.00  0.00    -0.452 OA
ATOM      8  C   UNL     1     104.732 118.032 123.182  1.00  0.00     0.094 A 
ATOM      9  C   UNL     1     103.361 117.850 123.390  1.00  0.00     0.119 A 
ATOM     10  C   UNL     1     102.442 118.715 122.779  1.00  0.00     0.047 A 
ATOM     11  C   UNL     1     102.890 119.757 121.962  1.00  0.00     0.020 A 
ENDROOT
BRANCH   1  12
ATOM     12  C   UNL     1     108.484 120.286 121.308  1.00  0.00     0.025 A 
ATOM     13  C   UNL     1     109.203 121.096 122.202  1.00  0.00     0.016 A 
ATOM     14  C   UNL     1     110.592 121.206 122.096  1.00  0.00     0.051 A 
ATOM     15  C   UNL     1     111.281 120.521 121.086  1.00  0.00     0.157 A 
ATOM     16  C   UNL     1     109.177 119.616 120.284  1.00  0.00     0.062 A 
ATOM     17  C   UNL     1     110.567 119.726 120.173  1.00  0.00     0.158 A 
BRANCH  15  18
ATOM     18  O   UNL     1     112.666 120.631 120.984  1.00  0.00    -0.504 OA
ATOM     19  H   UNL     1     113.158 121.460 121.299  1.00  0.00     0.293 HD
ENDBRANCH  15  18
BRANCH  17  20
ATOM     20  O   UNL     1     111.222 119.044 119.149  1.00  0.00    -0.504 OA
ATOM     21  H   UNL     1     111.980 119.460 118.623  1.00  0.00     0.293 HD
ENDBRANCH  17  20
ENDBRANCH   1  12
BRANCH   2  22
ATOM     22  O   UNL     1     106.678 122.079 119.909  1.00  0.00    -0.502 OA
ATOM     23  H   UNL     1     106.757 123.051 120.187  1.00  0.00     0.293 HD
ENDBRANCH   2  22
BRANCH   9  24
ATOM     24  O   UNL     1     102.922 116.810 124.205  1.00  0.00    -0.508 OA
ATOM     25  H   UNL     1     102.199 116.168 123.902  1.00  0.00     0.293 HD
ENDBRANCH   9  24
TORSDOF 5
ENDMDL
MODEL 7
REMARK VINA RESULT:    -5.882      2.715      6.632
REMARK INTER + INTRA:          -7.189
REMARK INTER:                  -6.875
REMARK INTRA:                  -0.314
REMARK UNBOUND:                -0.276
REMARK SMILES O=c1c(O)c(-c2ccc(O)c(O)c2)oc2cc(O)ccc12
REMARK SMILES IDX 5 1 3 2 2 3 1 4 21 5 15 6 14 7 16 8 17 9 19 10 20 11 6 12
REMARK SMILES IDX 7 13 8 14 9 15 13 16 11 17 10 18 12 20 4 22 18 24
REMARK H PARENT 10 19 12 21 4 23 18 25
REMARK Flexibility Score: inf
ROOT
ATOM      1  C   UNL     1     105.943 119.904 121.889  1.00  0.00     0.180 A 
ATOM      2  C   UNL     1     105.511 120.696 120.804  1.00  0.00     0.208 A 
ATOM      3  C   UNL     1     106.474 121.311 119.991  1.00  0.00     0.235 A 
ATOM      4  O   UNL     1     106.112 122.016 119.007  1.00  0.00    -0.285 OA
ATOM      5  C   UNL     1     107.836 121.142 120.284  1.00  0.00     0.069 A 
ATOM      6  C   UNL     1     108.187 120.354 121.401  1.00  0.00     0.142 A 
ATOM      7  O   UNL     1     107.244 119.781 122.141  1.00  0.00    -0.452 OA
ATOM      8  C   UNL     1     109.534 120.169 121.732  1.00  0.00     0.094 A 
ATOM      9  C   UNL     1     110.538 120.762 120.960  1.00  0.00     0.119 A 
ATOM     10  C   UNL     1     110.194 121.545 119.849  1.00  0.00     0.047 A 
ATOM     11  C   UNL     1     108.851 121.736 119.510  1.00  0.00     0.020 A 
ENDROOT
BRANCH   1  12
ATOM     12  C   UNL     1     104.990 119.207 122.782  1.00  0.00     0.025 A 
ATOM     13  C   UNL     1     104.507 117.940 122.421  1.00  0.00     0.016 A 
ATOM     14  C   UNL     1     103.592 117.272 123.238  1.00  0.00     0.051 A 
ATOM     15  C   UNL     1     103.133 117.868 124.420  1.00  0.00     0.157 A 
ATOM     16  C   UNL     1     104.513 119.811 123.959  1.00  0.00     0.062 A 
ATOM     17  C   UNL     1     103.594 119.146 124.779  1.00  0.00     0.158 A 
BRANCH  15  18
ATOM     18  O   UNL     1     102.221 117.199 125.235  1.00  0.00    -0.504 OA
ATOM     19  H   UNL     1     102.418 117.014 126.212  1.00  0.00     0.293 HD
ENDBRANCH  15  18
BRANCH  17  20
ATOM     20  O   UNL     1     103.146 119.772 125.941  1.00  0.00    -0.504 OA
ATOM     21  H   UNL     1     103.711 119.818 126.780  1.00  0.00     0.293 HD
ENDBRANCH  17  20
ENDBRANCH   1  12
BRANCH   2  22
ATOM     22  O   UNL     1     104.148 120.886 120.566  1.00  0.00    -0.502 OA
ATOM     23  H   UNL     1     103.683 120.510 119.747  1.00  0.00     0.293 HD
ENDBRANCH   2  22
BRANCH   9  24
ATOM     24  O   UNL     1     111.874 120.568 121.304  1.00  0.00    -0.508 OA
ATOM     25  H   UNL     1     112.200 119.687 121.685  1.00  0.00     0.293 HD
ENDBRANCH   9  24
TORSDOF 5
ENDMDL
MODEL 8
REMARK VINA RESULT:    -5.777     10.236     11.690
REMARK INTER + INTRA:          -7.067
REMARK INTER:                  -6.796
REMARK INTRA:                  -0.271
REMARK UNBOUND:                -0.276
REMARK SMILES O=c1c(O)c(-c2ccc(O)c(O)c2)oc2cc(O)ccc12
REMARK SMILES IDX 5 1 3 2 2 3 1 4 21 5 15 6 14 7 16 8 17 9 19 10 20 11 6 12
REMARK SMILES IDX 7 13 8 14 9 15 13 16 11 17 10 18 12 20 4 22 18 24
REMARK H PARENT 10 19 12 21 4 23 18 25
REMARK Flexibility Score: inf
ROOT
ATOM      1  C   UNL     1     101.973 115.518 113.364  1.00  0.00     0.180 A 
ATOM      2  C   UNL     1     101.022 114.970 112.476  1.00  0.00     0.208 A 
ATOM      3  C   UNL     1     100.548 113.671 112.711  1.00  0.00     0.235 A 
ATOM      4  O   UNL     1      99.689 113.163 111.937  1.00  0.00    -0.285 OA
ATOM      5  C   UNL     1     101.041 112.943 113.804  1.00  0.00     0.069 A 
ATOM      6  C   UNL     1     102.008 113.552 114.632  1.00  0.00     0.142 A 
ATOM      7  O   UNL     1     102.426 114.788 114.380  1.00  0.00    -0.452 OA
ATOM      8  C   UNL     1     102.532 112.855 115.727  1.00  0.00     0.094 A 
ATOM      9  C   UNL     1     102.101 111.554 116.007  1.00  0.00     0.119 A 
ATOM     10  C   UNL     1     101.138 110.946 115.188  1.00  0.00     0.047 A 
ATOM     11  C   UNL     1     100.610 111.634 114.092  1.00  0.00     0.020 A 
ENDROOT
BRANCH   1  12
ATOM     12  C   UNL     1     102.508 116.888 113.195  1.00  0.00     0.025 A 
ATOM     13  C   UNL     1     101.716 117.987 113.562  1.00  0.00     0.016 A 
ATOM     14  C   UNL     1     102.191 119.290 113.394  1.00  0.00     0.051 A 
ATOM     15  C   UNL     1     103.460 119.513 112.841  1.00  0.00     0.157 A 
ATOM     16  C   UNL     1     103.771 117.116 112.623  1.00  0.00     0.062 A 
ATOM     17  C   UNL     1     104.251 118.419 112.450  1.00  0.00     0.158 A 
BRANCH  15  18
ATOM     18  O   UNL     1     103.933 120.814 112.676  1.00  0.00    -0.504 OA
ATOM     19  H   UNL     1     104.437 121.093 111.842  1.00  0.00     0.293 HD
ENDBRANCH  15  18
BRANCH  17  20
ATOM     20  O   UNL     1     105.511 118.609 111.885  1.00  0.00    -0.504 OA
ATOM     21  H   UNL     1     105.894 119.531 111.719  1.00  0.00     0.293 HD
ENDBRANCH  17  20
ENDBRANCH   1  12
BRANCH   2  22
ATOM     22  O   UNL     1     100.586 115.701 111.369  1.00  0.00    -0.502 OA
ATOM     23  H   UNL     1      99.604 115.820 111.150  1.00  0.00     0.293 HD
ENDBRANCH   2  22
BRANCH   9  24
ATOM     24  O   UNL     1     102.632 110.875 117.101  1.00  0.00    -0.508 OA
ATOM     25  H   UNL     1     103.357 110.176 116.990  1.00  0.00     0.293 HD
ENDBRANCH   9  24
TORSDOF 5
ENDMDL
MODEL 9
REMARK VINA RESULT:    -5.721      2.243      7.088
REMARK INTER + INTRA:          -7.000
REMARK INTER:                  -6.745
REMARK INTRA:                  -0.255
REMARK UNBOUND:                -0.276
REMARK SMILES O=c1c(O)c(-c2ccc(O)c(O)c2)oc2cc(O)ccc12
REMARK SMILES IDX 5 1 3 2 2 3 1 4 21 5 15 6 14 7 16 8 17 9 19 10 20 11 6 12
REMARK SMILES IDX 7 13 8 14 9 15 13 16 11 17 10 18 12 20 4 22 18 24
REMARK H PARENT 10 19 12 21 4 23 18 25
REMARK Flexibility Score: inf
ROOT
ATOM      1  C   UNL     1     106.465 122.613 118.927  1.00  0.00     0.180 A 
ATOM      2  C   UNL     1     107.642 123.099 118.320  1.00  0.00     0.208 A 
ATOM      3  C   UNL     1     108.883 122.673 118.815  1.00  0.00     0.235 A 
ATOM      4  O   UNL     1     109.951 123.086 118.281  1.00  0.00    -0.285 OA
ATOM      5  C   UNL     1     108.926 121.794 119.908  1.00  0.00     0.069 A 
ATOM      6  C   UNL     1     107.706 121.371 120.475  1.00  0.00     0.142 A 
ATOM      7  O   UNL     1     106.550 121.791 119.971  1.00  0.00    -0.452 OA
ATOM      8  C   UNL     1     107.706 120.502 121.572  1.00  0.00     0.094 A 
ATOM      9  C   UNL     1     108.915 120.048 122.111  1.00  0.00     0.119 A 
ATOM     10  C   UNL     1     110.130 120.464 121.549  1.00  0.00     0.047 A 
ATOM     11  C   UNL     1     110.139 121.333 120.454  1.00  0.00     0.020 A 
ENDROOT
BRANCH   1  12
ATOM     12  C   UNL     1     105.117 123.000 118.452  1.00  0.00     0.025 A 
ATOM     13  C   UNL     1     104.610 124.268 118.776  1.00  0.00     0.016 A 
ATOM     14  C   UNL     1     103.333 124.647 118.356  1.00  0.00     0.051 A 
ATOM     15  C   UNL     1     102.538 123.759 117.619  1.00  0.00     0.157 A 
ATOM     16  C   UNL     1     104.310 122.104 117.729  1.00  0.00     0.062 A 
ATOM     17  C   UNL     1     103.029 122.480 117.309  1.00  0.00     0.158 A 
BRANCH  15  18
ATOM     18  O   UNL     1     101.265 124.141 117.199  1.00  0.00    -0.504 OA
ATOM     19  H   UNL     1     101.006 125.117 117.110  1.00  0.00     0.293 HD
ENDBRANCH  15  18
BRANCH  17  20
ATOM     20  O   UNL     1     102.257 121.568 116.590  1.00  0.00    -0.504 OA
ATOM     21  H   UNL     1     101.322 121.788 116.269  1.00  0.00     0.293 HD
ENDBRANCH  17  20
ENDBRANCH   1  12
BRANCH   2  22
ATOM     22  O   UNL     1     107.568 124.012 117.265  1.00  0.00    -0.502 OA
ATOM     23  H   UNL     1     108.267 124.731 117.120  1.00  0.00     0.293 HD
ENDBRANCH   2  22
BRANCH   9  24
ATOM     24  O   UNL     1     108.897 119.183 123.202  1.00  0.00    -0.508 OA
ATOM     25  H   UNL     1     108.979 118.180 123.085  1.00  0.00     0.293 HD
ENDBRANCH   9  24
TORSDOF 5
ENDMDL
