MODEL 1
REMARK VINA RESULT:    -1.226      0.000      0.000
REMARK INTER + INTRA:          -2.692
REMARK INTER:                  -2.373
REMARK INTRA:                  -0.319
REMARK UNBOUND:                -0.319
REMARK SMILES CCCCCCCCCCCCCCCCCC(=O)[O-]
REMARK SMILES IDX 10 1 11 2 12 3 13 4 14 5 15 6 16 7 17 8 18 9 19 10 20 11
REMARK SMILES IDX 9 12 8 13 7 14 6 15 5 16 4 17 3 18 2 19 1 20
REMARK H PARENT
REMARK Flexibility Score: inf
ROOT
ATOM      1  C   UNL     1     -32.665 -19.276 -22.568  1.00  0.00     0.000 C 
ENDROOT
BRANCH   1   2
ATOM      2  C   UNL     1     -32.316 -20.398 -21.575  1.00  0.00     0.000 C 
BRANCH   2   3
ATOM      3  C   UNL     1     -31.501 -21.534 -22.218  1.00  0.00     0.000 C 
BRANCH   3   4
ATOM      4  C   UNL     1     -31.419 -22.827 -21.384  1.00  0.00     0.000 C 
BRANCH   4   5
ATOM      5  C   UNL     1     -30.493 -22.749 -20.155  1.00  0.00     0.000 C 
BRANCH   5   6
ATOM      6  C   UNL     1     -29.492 -21.574 -20.207  1.00  0.00     0.000 C 
BRANCH   6   7
ATOM      7  C   UNL     1     -28.446 -21.651 -19.086  1.00  0.00     0.006 C 
BRANCH   7   8
ATOM      8  C   UNL     1     -28.334 -23.077 -18.533  1.00  0.00     0.053 C 
BRANCH   8   9
ATOM      9  C   UNL     1     -28.136 -23.072 -17.047  1.00  0.00     0.041 C 
ATOM     10  O   UNL     1     -29.134 -23.107 -16.281  1.00  0.00    -0.550 OA
ATOM     11  O   UNL     1     -26.860 -22.969 -16.507  1.00  0.00    -0.550 OA
ENDBRANCH   8   9
ENDBRANCH   7   8
ENDBRANCH   6   7
ENDBRANCH   5   6
ENDBRANCH   4   5
ENDBRANCH   3   4
ENDBRANCH   2   3
ENDBRANCH   1   2
BRANCH   1  12
ATOM     12  C   UNL     1     -32.726 -19.776 -24.021  1.00  0.00     0.000 C 
BRANCH  12  13
ATOM     13  C   UNL     1     -31.482 -19.371 -24.833  1.00  0.00    -0.000 C 
BRANCH  13  14
ATOM     14  C   UNL     1     -31.371 -20.131 -26.165  1.00  0.00    -0.000 C 
BRANCH  14  15
ATOM     15  C   UNL     1     -30.682 -21.496 -26.013  1.00  0.00    -0.000 C 
BRANCH  15  16
ATOM     16  C   UNL     1     -29.308 -21.348 -25.343  1.00  0.00    -0.000 C 
BRANCH  16  17
ATOM     17  C   UNL     1     -29.363 -21.555 -23.821  1.00  0.00    -0.000 C 
BRANCH  17  18
ATOM     18  C   UNL     1     -27.965 -21.617 -23.184  1.00  0.00    -0.000 C 
BRANCH  18  19
ATOM     19  C   UNL     1     -27.691 -22.967 -22.500  1.00  0.00    -0.003 C 
ATOM     20  C   UNL     1     -26.237 -23.118 -22.053  1.00  0.00     0.004 C 
ENDBRANCH  18  19
ENDBRANCH  17  18
ENDBRANCH  16  17
ENDBRANCH  15  16
ENDBRANCH  14  15
ENDBRANCH  13  14
ENDBRANCH  12  13
ENDBRANCH   1  12
TORSDOF 16
ENDMDL
MODEL 2
REMARK VINA RESULT:    -0.991      3.576      6.625
REMARK INTER + INTRA:          -2.237
REMARK INTER:                  -2.208
REMARK INTRA:                  -0.029
REMARK UNBOUND:                -0.319
REMARK SMILES CCCCCCCCCCCCCCCCCC(=O)[O-]
REMARK SMILES IDX 10 1 11 2 12 3 13 4 14 5 15 6 16 7 17 8 18 9 19 10 20 11
REMARK SMILES IDX 9 12 8 13 7 14 6 15 5 16 4 17 3 18 2 19 1 20
REMARK H PARENT
REMARK Flexibility Score: inf
ROOT
ATOM      1  C   UNL     1     -29.821 -21.954 -23.013  1.00  0.00     0.000 C 
ENDROOT
BRANCH   1   2
ATOM      2  C   UNL     1     -30.662 -22.783 -22.027  1.00  0.00     0.000 C 
BRANCH   2   3
ATOM      3  C   UNL     1     -31.581 -21.916 -21.147  1.00  0.00     0.000 C 
BRANCH   3   4
ATOM      4  C   UNL     1     -31.671 -20.436 -21.564  1.00  0.00     0.000 C 
BRANCH   4   5
ATOM      5  C   UNL     1     -32.890 -20.081 -22.437  1.00  0.00     0.000 C 
BRANCH   5   6
ATOM      6  C   UNL     1     -32.516 -19.456 -23.798  1.00  0.00     0.000 C 
BRANCH   6   7
ATOM      7  C   UNL     1     -31.253 -20.087 -24.402  1.00  0.00     0.006 C 
BRANCH   7   8
ATOM      8  C   UNL     1     -31.322 -20.103 -25.933  1.00  0.00     0.053 C 
BRANCH   8   9
ATOM      9  C   UNL     1     -31.124 -21.486 -26.474  1.00  0.00     0.041 C 
ATOM     10  O   UNL     1     -30.064 -21.774 -27.088  1.00  0.00    -0.550 OA
ATOM     11  O   UNL     1     -32.128 -22.440 -26.355  1.00  0.00    -0.550 OA
ENDBRANCH   8   9
ENDBRANCH   7   8
ENDBRANCH   6   7
ENDBRANCH   5   6
ENDBRANCH   4   5
ENDBRANCH   3   4
ENDBRANCH   2   3
ENDBRANCH   1   2
BRANCH   1  12
ATOM     12  C   UNL     1     -28.565 -22.704 -23.488  1.00  0.00     0.000 C 
BRANCH  12  13
ATOM     13  C   UNL     1     -27.484 -22.786 -22.396  1.00  0.00    -0.000 C 
BRANCH  13  14
ATOM     14  C   UNL     1     -28.074 -23.006 -20.993  1.00  0.00    -0.000 C 
BRANCH  14  15
ATOM     15  C   UNL     1     -27.727 -21.870 -20.018  1.00  0.00    -0.000 C 
BRANCH  15  16
ATOM     16  C   UNL     1     -28.772 -21.767 -18.898  1.00  0.00    -0.000 C 
BRANCH  16  17
ATOM     17  C   UNL     1     -29.086 -23.125 -18.250  1.00  0.00    -0.000 C 
BRANCH  17  18
ATOM     18  C   UNL     1     -29.470 -22.996 -16.766  1.00  0.00    -0.000 C 
BRANCH  18  19
ATOM     19  C   UNL     1     -28.243 -23.005 -15.840  1.00  0.00    -0.003 C 
ATOM     20  C   UNL     1     -26.924 -23.110 -16.606  1.00  0.00     0.004 C 
ENDBRANCH  18  19
ENDBRANCH  17  18
ENDBRANCH  16  17
ENDBRANCH  15  16
ENDBRANCH  14  15
ENDBRANCH  13  14
ENDBRANCH  12  13
ENDBRANCH   1  12
TORSDOF 16
ENDMDL
MODEL 3
REMARK VINA RESULT:    -0.857      0.989      3.527
REMARK INTER + INTRA:          -1.978
REMARK INTER:                  -0.649
REMARK INTRA:                  -1.329
REMARK UNBOUND:                -0.319
REMARK SMILES CCCCCCCCCCCCCCCCCC(=O)[O-]
REMARK SMILES IDX 10 1 11 2 12 3 13 4 14 5 15 6 16 7 17 8 18 9 19 10 20 11
REMARK SMILES IDX 9 12 8 13 7 14 6 15 5 16 4 17 3 18 2 19 1 20
REMARK H PARENT
REMARK Flexibility Score: inf
ROOT
ATOM      1  C   UNL     1     -27.647 -21.888 -23.075  1.00  0.00     0.000 C 
ENDROOT
BRANCH   1   2
ATOM      2  C   UNL     1     -28.188 -23.099 -22.295  1.00  0.00     0.000 C 
BRANCH   2   3
ATOM      3  C   UNL     1     -29.703 -23.016 -22.034  1.00  0.00     0.000 C 
BRANCH   3   4
ATOM      4  C   UNL     1     -30.094 -22.622 -20.597  1.00  0.00     0.000 C 
BRANCH   4   5
ATOM      5  C   UNL     1     -29.524 -21.273 -20.116  1.00  0.00     0.000 C 
BRANCH   5   6
ATOM      6  C   UNL     1     -28.698 -21.378 -18.816  1.00  0.00     0.000 C 
BRANCH   6   7
ATOM      7  C   UNL     1     -28.101 -22.778 -18.616  1.00  0.00     0.006 C 
BRANCH   7   8
ATOM      8  C   UNL     1     -26.826 -22.719 -17.768  1.00  0.00     0.053 C 
BRANCH   8   9
ATOM      9  C   UNL     1     -27.120 -22.969 -16.321  1.00  0.00     0.041 C 
ATOM     10  O   UNL     1     -26.174 -23.112 -15.503  1.00  0.00    -0.550 OA
ATOM     11  O   UNL     1     -28.432 -23.105 -15.882  1.00  0.00    -0.550 OA
ENDBRANCH   8   9
ENDBRANCH   7   8
ENDBRANCH   6   7
ENDBRANCH   5   6
ENDBRANCH   4   5
ENDBRANCH   3   4
ENDBRANCH   2   3
ENDBRANCH   1   2
BRANCH   1  12
ATOM     12  C   UNL     1     -28.760 -21.115 -23.803  1.00  0.00     0.000 C 
BRANCH  12  13
ATOM     13  C   UNL     1     -29.505 -21.988 -24.829  1.00  0.00    -0.000 C 
BRANCH  13  14
ATOM     14  C   UNL     1     -30.059 -21.173 -26.009  1.00  0.00    -0.000 C 
BRANCH  14  15
ATOM     15  C   UNL     1     -31.545 -20.820 -25.841  1.00  0.00    -0.000 C 
BRANCH  15  16
ATOM     16  C   UNL     1     -31.713 -19.406 -25.266  1.00  0.00    -0.000 C 
BRANCH  16  17
ATOM     17  C   UNL     1     -31.836 -19.398 -23.734  1.00  0.00    -0.000 C 
BRANCH  17  18
ATOM     18  C   UNL     1     -32.381 -20.725 -23.179  1.00  0.00    -0.000 C 
BRANCH  18  19
ATOM     19  C   UNL     1     -32.661 -20.658 -21.668  1.00  0.00    -0.003 C 
ATOM     20  C   UNL     1     -32.553 -19.239 -21.110  1.00  0.00     0.004 C 
ENDBRANCH  18  19
ENDBRANCH  17  18
ENDBRANCH  16  17
ENDBRANCH  15  16
ENDBRANCH  14  15
ENDBRANCH  13  14
ENDBRANCH  12  13
ENDBRANCH   1  12
TORSDOF 16
ENDMDL
MODEL 4
REMARK VINA RESULT:     0.232      2.276      5.339
REMARK INTER + INTRA:           0.131
REMARK INTER:                  -0.444
REMARK INTRA:                   0.575
REMARK UNBOUND:                -0.319
REMARK SMILES CCCCCCCCCCCCCCCCCC(=O)[O-]
REMARK SMILES IDX 10 1 11 2 12 3 13 4 14 5 15 6 16 7 17 8 18 9 19 10 20 11
REMARK SMILES IDX 9 12 8 13 7 14 6 15 5 16 4 17 3 18 2 19 1 20
REMARK H PARENT
REMARK Flexibility Score: inf
ROOT
ATOM      1  C   UNL     1     -32.833 -19.769 -22.194  1.00  0.00     0.000 C 
ENDROOT
BRANCH   1   2
ATOM      2  C   UNL     1     -32.637 -19.079 -23.555  1.00  0.00     0.000 C 
BRANCH   2   3
ATOM      3  C   UNL     1     -31.458 -19.661 -24.357  1.00  0.00     0.000 C 
BRANCH   3   4
ATOM      4  C   UNL     1     -31.632 -19.625 -25.887  1.00  0.00     0.000 C 
BRANCH   4   5
ATOM      5  C   UNL     1     -31.031 -20.830 -26.636  1.00  0.00     0.000 C 
BRANCH   5   6
ATOM      6  C   UNL     1     -29.809 -21.453 -25.929  1.00  0.00     0.000 C 
BRANCH   6   7
ATOM      7  C   UNL     1     -29.842 -21.235 -24.409  1.00  0.00     0.006 C 
BRANCH   7   8
ATOM      8  C   UNL     1     -29.226 -22.426 -23.667  1.00  0.00     0.053 C 
BRANCH   8   9
ATOM      9  C   UNL     1     -27.845 -22.109 -23.178  1.00  0.00     0.041 C 
ATOM     10  O   UNL     1     -27.152 -21.243 -23.773  1.00  0.00    -0.550 OA
ATOM     11  O   UNL     1     -27.300 -22.806 -22.106  1.00  0.00    -0.550 OA
ENDBRANCH   8   9
ENDBRANCH   7   8
ENDBRANCH   6   7
ENDBRANCH   5   6
ENDBRANCH   4   5
ENDBRANCH   3   4
ENDBRANCH   2   3
ENDBRANCH   1   2
BRANCH   1  12
ATOM     12  C   UNL     1     -32.587 -21.286 -22.264  1.00  0.00     0.000 C 
BRANCH  12  13
ATOM     13  C   UNL     1     -31.488 -21.747 -21.290  1.00  0.00    -0.000 C 
BRANCH  13  14
ATOM     14  C   UNL     1     -30.517 -20.615 -20.914  1.00  0.00    -0.000 C 
BRANCH  14  15
ATOM     15  C   UNL     1     -29.387 -21.088 -19.986  1.00  0.00    -0.000 C 
BRANCH  15  16
ATOM     16  C   UNL     1     -29.378 -22.619 -19.863  1.00  0.00    -0.000 C 
BRANCH  16  17
ATOM     17  C   UNL     1     -28.395 -23.125 -18.796  1.00  0.00    -0.000 C 
BRANCH  17  18
ATOM     18  C   UNL     1     -28.831 -22.753 -17.369  1.00  0.00    -0.000 C 
BRANCH  18  19
ATOM     19  C   UNL     1     -27.760 -23.097 -16.320  1.00  0.00    -0.003 C 
ATOM     20  C   UNL     1     -26.413 -22.435 -16.612  1.00  0.00     0.004 C 
ENDBRANCH  18  19
ENDBRANCH  17  18
ENDBRANCH  16  17
ENDBRANCH  15  16
ENDBRANCH  14  15
ENDBRANCH  13  14
ENDBRANCH  12  13
ENDBRANCH   1  12
TORSDOF 16
ENDMDL
MODEL 5
REMARK VINA RESULT:     0.507      2.264      4.982
REMARK INTER + INTRA:           0.662
REMARK INTER:                   1.339
REMARK INTRA:                  -0.677
REMARK UNBOUND:                -0.319
REMARK SMILES CCCCCCCCCCCCCCCCCC(=O)[O-]
REMARK SMILES IDX 10 1 11 2 12 3 13 4 14 5 15 6 16 7 17 8 18 9 19 10 20 11
REMARK SMILES IDX 9 12 8 13 7 14 6 15 5 16 4 17 3 18 2 19 1 20
REMARK H PARENT
REMARK Flexibility Score: inf
ROOT
ATOM      1  C   UNL     1     -29.345 -22.361 -19.738  1.00  0.00     0.000 C 
ENDROOT
BRANCH   1   2
ATOM      2  C   UNL     1     -28.032 -23.121 -19.995  1.00  0.00     0.000 C 
BRANCH   2   3
ATOM      3  C   UNL     1     -26.902 -22.706 -19.034  1.00  0.00     0.000 C 
BRANCH   3   4
ATOM      4  C   UNL     1     -27.375 -22.100 -17.699  1.00  0.00     0.000 C 
BRANCH   4   5
ATOM      5  C   UNL     1     -27.887 -23.124 -16.668  1.00  0.00     0.000 C 
BRANCH   5   6
ATOM      6  C   UNL     1     -29.420 -23.108 -16.488  1.00  0.00     0.000 C 
BRANCH   6   7
ATOM      7  C   UNL     1     -29.840 -22.552 -15.119  1.00  0.00     0.006 C 
BRANCH   7   8
ATOM      8  C   UNL     1     -31.365 -22.434 -15.015  1.00  0.00     0.053 C 
BRANCH   8   9
ATOM      9  C   UNL     1     -31.771 -21.115 -14.433  1.00  0.00     0.041 C 
ATOM     10  O   UNL     1     -30.976 -20.485 -13.689  1.00  0.00    -0.550 OA
ATOM     11  O   UNL     1     -33.045 -20.606 -14.661  1.00  0.00    -0.550 OA
ENDBRANCH   8   9
ENDBRANCH   7   8
ENDBRANCH   6   7
ENDBRANCH   5   6
ENDBRANCH   4   5
ENDBRANCH   3   4
ENDBRANCH   2   3
ENDBRANCH   1   2
BRANCH   1  12
ATOM     12  C   UNL     1     -30.571 -23.106 -20.290  1.00  0.00     0.000 C 
BRANCH  12  13
ATOM     13  C   UNL     1     -31.034 -22.548 -21.648  1.00  0.00    -0.000 C 
BRANCH  13  14
ATOM     14  C   UNL     1     -31.003 -21.012 -21.699  1.00  0.00    -0.000 C 
BRANCH  14  15
ATOM     15  C   UNL     1     -32.373 -20.401 -22.029  1.00  0.00    -0.000 C 
BRANCH  15  16
ATOM     16  C   UNL     1     -32.637 -20.426 -23.542  1.00  0.00    -0.000 C 
BRANCH  16  17
ATOM     17  C   UNL     1     -31.358 -20.648 -24.365  1.00  0.00    -0.000 C 
BRANCH  17  18
ATOM     18  C   UNL     1     -31.257 -19.693 -25.567  1.00  0.00    -0.000 C 
BRANCH  18  19
ATOM     19  C   UNL     1     -31.055 -20.442 -26.895  1.00  0.00    -0.003 C 
ATOM     20  C   UNL     1     -30.839 -21.943 -26.701  1.00  0.00     0.004 C 
ENDBRANCH  18  19
ENDBRANCH  17  18
ENDBRANCH  16  17
ENDBRANCH  15  16
ENDBRANCH  14  15
ENDBRANCH  13  14
ENDBRANCH  12  13
ENDBRANCH   1  12
TORSDOF 16
ENDMDL
MODEL 6
REMARK VINA RESULT:     0.584      3.624      6.913
REMARK INTER + INTRA:           0.811
REMARK INTER:                   0.369
REMARK INTRA:                   0.442
REMARK UNBOUND:                -0.319
REMARK SMILES CCCCCCCCCCCCCCCCCC(=O)[O-]
REMARK SMILES IDX 10 1 11 2 12 3 13 4 14 5 15 6 16 7 17 8 18 9 19 10 20 11
REMARK SMILES IDX 9 12 8 13 7 14 6 15 5 16 4 17 3 18 2 19 1 20
REMARK H PARENT
REMARK Flexibility Score: inf
ROOT
ATOM      1  C   UNL     1     -28.006 -22.240 -18.202  1.00  0.00     0.000 C 
ENDROOT
BRANCH   1   2
ATOM      2  C   UNL     1     -27.211 -23.068 -19.226  1.00  0.00     0.000 C 
BRANCH   2   3
ATOM      3  C   UNL     1     -27.891 -23.125 -20.607  1.00  0.00     0.000 C 
BRANCH   3   4
ATOM      4  C   UNL     1     -26.925 -23.125 -21.807  1.00  0.00     0.000 C 
BRANCH   4   5
ATOM      5  C   UNL     1     -27.303 -22.156 -22.943  1.00  0.00     0.000 C 
BRANCH   5   6
ATOM      6  C   UNL     1     -28.817 -22.112 -23.243  1.00  0.00     0.000 C 
BRANCH   6   7
ATOM      7  C   UNL     1     -29.149 -21.197 -24.431  1.00  0.00     0.006 C 
BRANCH   7   8
ATOM      8  C   UNL     1     -30.664 -21.025 -24.588  1.00  0.00     0.053 C 
BRANCH   8   9
ATOM      9  C   UNL     1     -31.054 -20.917 -26.031  1.00  0.00     0.041 C 
ATOM     10  O   UNL     1     -31.089 -21.949 -26.750  1.00  0.00    -0.550 OA
ATOM     11  O   UNL     1     -31.322 -19.677 -26.598  1.00  0.00    -0.550 OA
ENDBRANCH   8   9
ENDBRANCH   7   8
ENDBRANCH   6   7
ENDBRANCH   5   6
ENDBRANCH   4   5
ENDBRANCH   3   4
ENDBRANCH   2   3
ENDBRANCH   1   2
BRANCH   1  12
ATOM     12  C   UNL     1     -29.015 -23.094 -17.414  1.00  0.00     0.000 C 
BRANCH  12  13
ATOM     13  C   UNL     1     -30.403 -23.124 -18.079  1.00  0.00    -0.000 C 
BRANCH  13  14
ATOM     14  C   UNL     1     -30.324 -23.119 -19.615  1.00  0.00    -0.000 C 
BRANCH  14  15
ATOM     15  C   UNL     1     -31.637 -22.669 -20.274  1.00  0.00    -0.000 C 
BRANCH  15  16
ATOM     16  C   UNL     1     -31.362 -21.795 -21.507  1.00  0.00    -0.000 C 
BRANCH  16  17
ATOM     17  C   UNL     1     -31.024 -20.341 -21.143  1.00  0.00    -0.000 C 
BRANCH  17  18
ATOM     18  C   UNL     1     -32.278 -19.459 -21.012  1.00  0.00    -0.000 C 
BRANCH  18  19
ATOM     19  C   UNL     1     -32.875 -19.081 -22.378  1.00  0.00    -0.003 C 
ATOM     20  C   UNL     1     -33.755 -20.185 -22.964  1.00  0.00     0.004 C 
ENDBRANCH  18  19
ENDBRANCH  17  18
ENDBRANCH  16  17
ENDBRANCH  15  16
ENDBRANCH  14  15
ENDBRANCH  13  14
ENDBRANCH  12  13
ENDBRANCH   1  12
TORSDOF 16
ENDMDL
MODEL 7
REMARK VINA RESULT:     1.062      1.761      4.112
REMARK INTER + INTRA:           1.736
REMARK INTER:                   2.812
REMARK INTRA:                  -1.075
REMARK UNBOUND:                -0.319
REMARK SMILES CCCCCCCCCCCCCCCCCC(=O)[O-]
REMARK SMILES IDX 10 1 11 2 12 3 13 4 14 5 15 6 16 7 17 8 18 9 19 10 20 11
REMARK SMILES IDX 9 12 8 13 7 14 6 15 5 16 4 17 3 18 2 19 1 20
REMARK H PARENT
REMARK Flexibility Score: inf
ROOT
ATOM      1  C   UNL     1     -27.821 -22.193 -21.823  1.00  0.00     0.000 C 
ENDROOT
BRANCH   1   2
ATOM      2  C   UNL     1     -28.827 -21.145 -21.319  1.00  0.00     0.000 C 
BRANCH   2   3
ATOM      3  C   UNL     1     -29.476 -21.534 -19.978  1.00  0.00     0.000 C 
BRANCH   3   4
ATOM      4  C   UNL     1     -28.888 -22.793 -19.314  1.00  0.00     0.000 C 
BRANCH   4   5
ATOM      5  C   UNL     1     -27.646 -22.543 -18.437  1.00  0.00     0.000 C 
BRANCH   5   6
ATOM      6  C   UNL     1     -27.919 -22.670 -16.923  1.00  0.00     0.000 C 
BRANCH   6   7
ATOM      7  C   UNL     1     -29.356 -23.125 -16.627  1.00  0.00     0.006 C 
BRANCH   7   8
ATOM      8  C   UNL     1     -29.734 -22.845 -15.168  1.00  0.00     0.053 C 
BRANCH   8   9
ATOM      9  C   UNL     1     -31.159 -22.396 -15.051  1.00  0.00     0.041 C 
ATOM     10  O   UNL     1     -32.070 -23.037 -15.637  1.00  0.00    -0.550 OA
ATOM     11  O   UNL     1     -31.478 -21.240 -14.347  1.00  0.00    -0.550 OA
ENDBRANCH   8   9
ENDBRANCH   7   8
ENDBRANCH   6   7
ENDBRANCH   5   6
ENDBRANCH   4   5
ENDBRANCH   3   4
ENDBRANCH   2   3
ENDBRANCH   1   2
BRANCH   1  12
ATOM     12  C   UNL     1     -27.840 -22.335 -23.355  1.00  0.00     0.000 C 
BRANCH  12  13
ATOM     13  C   UNL     1     -28.378 -21.074 -24.054  1.00  0.00    -0.000 C 
BRANCH  13  14
ATOM     14  C   UNL     1     -29.574 -21.372 -24.974  1.00  0.00    -0.000 C 
BRANCH  14  15
ATOM     15  C   UNL     1     -30.310 -20.099 -25.420  1.00  0.00    -0.000 C 
BRANCH  15  16
ATOM     16  C   UNL     1     -31.770 -20.112 -24.944  1.00  0.00    -0.000 C 
BRANCH  16  17
ATOM     17  C   UNL     1     -32.120 -21.368 -24.132  1.00  0.00    -0.000 C 
BRANCH  17  18
ATOM     18  C   UNL     1     -31.822 -21.203 -22.632  1.00  0.00    -0.000 C 
BRANCH  18  19
ATOM     19  C   UNL     1     -32.950 -20.470 -21.887  1.00  0.00    -0.003 C 
ATOM     20  C   UNL     1     -32.499 -19.132 -21.301  1.00  0.00     0.004 C 
ENDBRANCH  18  19
ENDBRANCH  17  18
ENDBRANCH  16  17
ENDBRANCH  15  16
ENDBRANCH  14  15
ENDBRANCH  13  14
ENDBRANCH  12  13
ENDBRANCH   1  12
TORSDOF 16
ENDMDL
