MODEL 1
REMARK VINA RESULT:    -3.892      0.000      0.000
REMARK INTER + INTRA:          -6.049
REMARK INTER:                  -5.258
REMARK INTRA:                  -0.791
REMARK UNBOUND:                -0.791
REMARK SMILES C=C[C@@](C)(CCC=C(C)C)OC(C)=O
REMARK SMILES IDX 3 1 4 2 5 3 6 4 7 5 9 6 8 7 10 8 2 9 1 10 11 11 12 12 14 13
REMARK SMILES IDX 13 14
REMARK H PARENT
REMARK Flexibility Score: inf
ROOT
ATOM      1  C   UNL     1     -12.526 -10.240  97.878  1.00  0.00     0.127 C 
ATOM      2  C   UNL     1     -11.000 -10.014  97.852  1.00  0.00     0.061 C 
ENDROOT
BRANCH   1   3
ATOM      3  C   UNL     1     -12.905 -11.478  97.017  1.00  0.00     0.057 C 
BRANCH   3   4
ATOM      4  C   UNL     1     -12.310 -11.510  95.590  1.00  0.00     0.032 C 
BRANCH   4   5
ATOM      5  C   UNL     1     -13.281 -12.049  94.564  1.00  0.00    -0.028 C 
ATOM      6  C   UNL     1     -13.912  -9.748  93.825  1.00  0.00     0.039 C 
ATOM      7  C   UNL     1     -14.015 -11.251  93.757  1.00  0.00    -0.080 C 
ATOM      8  C   UNL     1     -14.961 -11.857  92.754  1.00  0.00     0.039 C 
ENDBRANCH   4   5
ENDBRANCH   3   4
ENDBRANCH   1   3
BRANCH   1   9
ATOM      9  C   UNL     1     -13.003 -10.428  99.311  1.00  0.00     0.013 C 
ATOM     10  C   UNL     1     -13.664 -11.522  99.706  1.00  0.00     0.008 C 
ENDBRANCH   1   9
BRANCH   1  11
ATOM     11  O   UNL     1     -13.177  -9.105  97.283  1.00  0.00    -0.455 OA
BRANCH  11  12
ATOM     12  C   UNL     1     -14.446  -8.614  97.630  1.00  0.00     0.303 C 
ATOM     13  O   UNL     1     -14.574  -7.590  98.354  1.00  0.00    -0.253 OA
ATOM     14  C   UNL     1     -15.661  -9.299  97.106  1.00  0.00     0.139 C 
ENDBRANCH  11  12
ENDBRANCH   1  11
TORSDOF 6
ENDMDL
MODEL 2
REMARK VINA RESULT:    -3.885      7.220      9.189
REMARK INTER + INTRA:          -6.040
REMARK INTER:                  -5.150
REMARK INTRA:                  -0.890
REMARK UNBOUND:                -0.791
REMARK SMILES C=C[C@@](C)(CCC=C(C)C)OC(C)=O
REMARK SMILES IDX 3 1 4 2 5 3 6 4 7 5 9 6 8 7 10 8 2 9 1 10 11 11 12 12 14 13
REMARK SMILES IDX 13 14
REMARK H PARENT
REMARK Flexibility Score: inf
ROOT
ATOM      1  C   UNL     1      -8.779  -8.784  90.673  1.00  0.00     0.127 C 
ATOM      2  C   UNL     1      -7.762  -8.888  89.519  1.00  0.00     0.061 C 
ENDROOT
BRANCH   1   3
ATOM      3  C   UNL     1      -8.044  -8.567  92.026  1.00  0.00     0.057 C 
BRANCH   3   4
ATOM      4  C   UNL     1      -8.023  -7.113  92.552  1.00  0.00     0.032 C 
BRANCH   4   5
ATOM      5  C   UNL     1      -6.765  -6.370  92.164  1.00  0.00    -0.028 C 
ATOM      6  C   UNL     1      -8.067  -4.358  91.458  1.00  0.00     0.039 C 
ATOM      7  C   UNL     1      -6.778  -5.114  91.664  1.00  0.00    -0.080 C 
ATOM      8  C   UNL     1      -5.485  -4.432  91.302  1.00  0.00     0.039 C 
ENDBRANCH   4   5
ENDBRANCH   3   4
ENDBRANCH   1   3
BRANCH   1   9
ATOM      9  C   UNL     1      -9.754  -7.645  90.414  1.00  0.00     0.013 C 
ATOM     10  C   UNL     1      -9.700  -6.899  89.304  1.00  0.00     0.008 C 
ENDBRANCH   1   9
BRANCH   1  11
ATOM     11  O   UNL     1      -9.490 -10.029  90.783  1.00  0.00    -0.455 OA
BRANCH  11  12
ATOM     12  C   UNL     1     -10.731 -10.319  90.192  1.00  0.00     0.303 C 
ATOM     13  O   UNL     1     -11.801 -10.252  90.854  1.00  0.00    -0.253 OA
ATOM     14  C   UNL     1     -10.783 -10.682  88.748  1.00  0.00     0.139 C 
ENDBRANCH  11  12
ENDBRANCH   1  11
TORSDOF 6
ENDMDL
MODEL 3
REMARK VINA RESULT:    -3.879      7.306      9.251
REMARK INTER + INTRA:          -6.031
REMARK INTER:                  -5.478
REMARK INTRA:                  -0.554
REMARK UNBOUND:                -0.791
REMARK SMILES C=C[C@@](C)(CCC=C(C)C)OC(C)=O
REMARK SMILES IDX 3 1 4 2 5 3 6 4 7 5 9 6 8 7 10 8 2 9 1 10 11 11 12 12 14 13
REMARK SMILES IDX 13 14
REMARK H PARENT
REMARK Flexibility Score: inf
ROOT
ATOM      1  C   UNL     1      -9.464  -9.189  90.912  1.00  0.00     0.127 C 
ATOM      2  C   UNL     1      -9.711  -9.810  92.302  1.00  0.00     0.061 C 
ENDROOT
BRANCH   1   3
ATOM      3  C   UNL     1      -8.004  -8.665  90.804  1.00  0.00     0.057 C 
BRANCH   3   4
ATOM      4  C   UNL     1      -7.561  -7.683  91.914  1.00  0.00     0.032 C 
BRANCH   4   5
ATOM      5  C   UNL     1      -7.029  -6.379  91.362  1.00  0.00    -0.028 C 
ATOM      6  C   UNL     1      -5.523  -6.060  93.328  1.00  0.00     0.039 C 
ATOM      7  C   UNL     1      -6.101  -5.635  92.002  1.00  0.00    -0.080 C 
ATOM      8  C   UNL     1      -5.613  -4.348  91.391  1.00  0.00     0.039 C 
ENDBRANCH   4   5
ENDBRANCH   3   4
ENDBRANCH   1   3
BRANCH   1   9
ATOM      9  C   UNL     1      -9.738 -10.217  89.823  1.00  0.00     0.013 C 
ATOM     10  C   UNL     1      -8.759 -10.747  89.080  1.00  0.00     0.008 C 
ENDBRANCH   1   9
BRANCH   1  11
ATOM     11  O   UNL     1     -10.327  -8.052  90.748  1.00  0.00    -0.455 OA
BRANCH  11  12
ATOM     12  C   UNL     1     -10.712  -7.485  89.522  1.00  0.00     0.303 C 
ATOM     13  O   UNL     1     -11.731  -7.896  88.904  1.00  0.00    -0.253 OA
ATOM     14  C   UNL     1      -9.917  -6.358  88.957  1.00  0.00     0.139 C 
ENDBRANCH  11  12
ENDBRANCH   1  11
TORSDOF 6
ENDMDL
MODEL 4
REMARK VINA RESULT:    -3.763      2.700      5.215
REMARK INTER + INTRA:          -5.875
REMARK INTER:                  -4.949
REMARK INTRA:                  -0.926
REMARK UNBOUND:                -0.791
REMARK SMILES C=C[C@@](C)(CCC=C(C)C)OC(C)=O
REMARK SMILES IDX 3 1 4 2 5 3 6 4 7 5 9 6 8 7 10 8 2 9 1 10 11 11 12 12 14 13
REMARK SMILES IDX 13 14
REMARK H PARENT
REMARK Flexibility Score: inf
ROOT
ATOM      1  C   UNL     1     -12.265 -10.613  94.615  1.00  0.00     0.127 C 
ATOM      2  C   UNL     1     -12.564  -9.113  94.420  1.00  0.00     0.061 C 
ENDROOT
BRANCH   1   3
ATOM      3  C   UNL     1     -11.961 -10.916  96.110  1.00  0.00     0.057 C 
BRANCH   3   4
ATOM      4  C   UNL     1     -13.124 -11.536  96.918  1.00  0.00     0.032 C 
BRANCH   4   5
ATOM      5  C   UNL     1     -13.513 -10.698  98.117  1.00  0.00    -0.028 C 
ATOM      6  C   UNL     1     -15.366  -9.597  96.855  1.00  0.00     0.039 C 
ATOM      7  C   UNL     1     -14.533  -9.812  98.093  1.00  0.00    -0.080 C 
ATOM      8  C   UNL     1     -14.868  -9.015  99.326  1.00  0.00     0.039 C 
ENDBRANCH   4   5
ENDBRANCH   3   4
ENDBRANCH   1   3
BRANCH   1   9
ATOM      9  C   UNL     1     -13.443 -11.450  94.136  1.00  0.00     0.013 C 
ATOM     10  C   UNL     1     -14.420 -10.939  93.378  1.00  0.00     0.008 C 
ENDBRANCH   1   9
BRANCH   1  11
ATOM     11  O   UNL     1     -11.082 -10.954  93.874  1.00  0.00    -0.455 OA
BRANCH  11  12
ATOM     12  C   UNL     1     -10.621 -10.301  92.719  1.00  0.00     0.303 C 
ATOM     13  O   UNL     1     -11.248 -10.382  91.629  1.00  0.00    -0.253 OA
ATOM     14  C   UNL     1      -9.384  -9.473  92.793  1.00  0.00     0.139 C 
ENDBRANCH  11  12
ENDBRANCH   1  11
TORSDOF 6
ENDMDL
MODEL 5
REMARK VINA RESULT:    -3.738      7.357      9.306
REMARK INTER + INTRA:          -5.840
REMARK INTER:                  -5.311
REMARK INTRA:                  -0.529
REMARK UNBOUND:                -0.791
REMARK SMILES C=C[C@@](C)(CCC=C(C)C)OC(C)=O
REMARK SMILES IDX 3 1 4 2 5 3 6 4 7 5 9 6 8 7 10 8 2 9 1 10 11 11 12 12 14 13
REMARK SMILES IDX 13 14
REMARK H PARENT
REMARK Flexibility Score: inf
ROOT
ATOM      1  C   UNL     1      -9.314  -8.456  90.796  1.00  0.00     0.127 C 
ATOM      2  C   UNL     1     -10.271  -7.315  91.197  1.00  0.00     0.061 C 
ENDROOT
BRANCH   1   3
ATOM      3  C   UNL     1      -7.869  -7.912  90.611  1.00  0.00     0.057 C 
BRANCH   3   4
ATOM      4  C   UNL     1      -7.608  -6.497  91.176  1.00  0.00     0.032 C 
BRANCH   4   5
ATOM      5  C   UNL     1      -6.528  -6.481  92.235  1.00  0.00    -0.028 C 
ATOM      6  C   UNL     1      -5.596  -4.329  91.377  1.00  0.00     0.039 C 
ATOM      7  C   UNL     1      -5.607  -5.496  92.331  1.00  0.00    -0.080 C 
ATOM      8  C   UNL     1      -4.562  -5.543  93.414  1.00  0.00     0.039 C 
ENDBRANCH   4   5
ENDBRANCH   3   4
ENDBRANCH   1   3
BRANCH   1   9
ATOM      9  C   UNL     1      -9.334  -9.553  91.851  1.00  0.00     0.013 C 
ATOM     10  C   UNL     1      -9.672  -9.313  93.124  1.00  0.00     0.008 C 
ENDBRANCH   1   9
BRANCH   1  11
ATOM     11  O   UNL     1      -9.724  -8.986  89.524  1.00  0.00    -0.455 OA
BRANCH  11  12
ATOM     12  C   UNL     1     -10.175 -10.294  89.288  1.00  0.00     0.303 C 
ATOM     13  O   UNL     1     -11.353 -10.640  89.572  1.00  0.00    -0.253 OA
ATOM     14  C   UNL     1      -9.252 -11.282  88.661  1.00  0.00     0.139 C 
ENDBRANCH  11  12
ENDBRANCH   1  11
TORSDOF 6
ENDMDL
MODEL 6
REMARK VINA RESULT:    -3.733      1.846      2.173
REMARK INTER + INTRA:          -5.833
REMARK INTER:                  -4.944
REMARK INTRA:                  -0.890
REMARK UNBOUND:                -0.791
REMARK SMILES C=C[C@@](C)(CCC=C(C)C)OC(C)=O
REMARK SMILES IDX 3 1 4 2 5 3 6 4 7 5 9 6 8 7 10 8 2 9 1 10 11 11 12 12 14 13
REMARK SMILES IDX 13 14
REMARK H PARENT
REMARK Flexibility Score: inf
ROOT
ATOM      1  C   UNL     1     -12.657 -10.520  97.478  1.00  0.00     0.127 C 
ATOM      2  C   UNL     1     -11.185 -10.258  97.855  1.00  0.00     0.061 C 
ENDROOT
BRANCH   1   3
ATOM      3  C   UNL     1     -12.743 -11.505  96.278  1.00  0.00     0.057 C 
BRANCH   3   4
ATOM      4  C   UNL     1     -11.448 -11.668  95.450  1.00  0.00     0.032 C 
BRANCH   4   5
ATOM      5  C   UNL     1     -11.675 -11.473  93.967  1.00  0.00    -0.028 C 
ATOM      6  C   UNL     1     -10.346  -9.358  93.954  1.00  0.00     0.039 C 
ATOM      7  C   UNL     1     -11.175 -10.422  93.280  1.00  0.00    -0.080 C 
ATOM      8  C   UNL     1     -11.438 -10.293  91.802  1.00  0.00     0.039 C 
ENDBRANCH   4   5
ENDBRANCH   3   4
ENDBRANCH   1   3
BRANCH   1   9
ATOM      9  C   UNL     1     -13.413 -11.079  98.675  1.00  0.00     0.013 C 
ATOM     10  C   UNL     1     -13.906 -10.291  99.639  1.00  0.00     0.008 C 
ENDBRANCH   1   9
BRANCH   1  11
ATOM     11  O   UNL     1     -13.256  -9.287  97.046  1.00  0.00    -0.455 OA
BRANCH  11  12
ATOM     12  C   UNL     1     -14.253  -9.159  96.066  1.00  0.00     0.303 C 
ATOM     13  O   UNL     1     -15.432  -9.552  96.278  1.00  0.00    -0.253 OA
ATOM     14  C   UNL     1     -13.917  -8.518  94.763  1.00  0.00     0.139 C 
ENDBRANCH  11  12
ENDBRANCH   1  11
TORSDOF 6
ENDMDL
MODEL 7
REMARK VINA RESULT:    -3.720      2.122      4.514
REMARK INTER + INTRA:          -5.816
REMARK INTER:                  -4.873
REMARK INTRA:                  -0.943
REMARK UNBOUND:                -0.791
REMARK SMILES C=C[C@@](C)(CCC=C(C)C)OC(C)=O
REMARK SMILES IDX 3 1 4 2 5 3 6 4 7 5 9 6 8 7 10 8 2 9 1 10 11 11 12 12 14 13
REMARK SMILES IDX 13 14
REMARK H PARENT
REMARK Flexibility Score: inf
ROOT
ATOM      1  C   UNL     1     -12.125 -10.307  94.963  1.00  0.00     0.127 C 
ATOM      2  C   UNL     1     -11.349 -11.011  93.831  1.00  0.00     0.061 C 
ENDROOT
BRANCH   1   3
ATOM      3  C   UNL     1     -11.909 -11.049  96.312  1.00  0.00     0.057 C 
BRANCH   3   4
ATOM      4  C   UNL     1     -13.193 -11.527  97.028  1.00  0.00     0.032 C 
BRANCH   4   5
ATOM      5  C   UNL     1     -13.443 -10.797  98.329  1.00  0.00    -0.028 C 
ATOM      6  C   UNL     1     -15.390  -9.564  97.366  1.00  0.00     0.039 C 
ATOM      7  C   UNL     1     -14.442  -9.901  98.489  1.00  0.00    -0.080 C 
ATOM      8  C   UNL     1     -14.634  -9.214  99.815  1.00  0.00     0.039 C 
ENDBRANCH   4   5
ENDBRANCH   3   4
ENDBRANCH   1   3
BRANCH   1   9
ATOM      9  C   UNL     1     -11.680  -8.856  95.080  1.00  0.00     0.013 C 
ATOM     10  C   UNL     1     -12.423  -7.929  95.695  1.00  0.00     0.008 C 
ENDBRANCH   1   9
BRANCH   1  11
ATOM     11  O   UNL     1     -13.532 -10.371  94.675  1.00  0.00    -0.455 OA
BRANCH  11  12
ATOM     12  C   UNL     1     -14.106 -10.422  93.395  1.00  0.00     0.303 C 
ATOM     13  O   UNL     1     -14.051  -9.434  92.614  1.00  0.00    -0.253 OA
ATOM     14  C   UNL     1     -14.765 -11.680  92.940  1.00  0.00     0.139 C 
ENDBRANCH  11  12
ENDBRANCH   1  11
TORSDOF 6
ENDMDL
MODEL 8
REMARK VINA RESULT:    -3.714      1.822      5.011
REMARK INTER + INTRA:          -5.809
REMARK INTER:                  -4.939
REMARK INTRA:                  -0.870
REMARK UNBOUND:                -0.791
REMARK SMILES C=C[C@@](C)(CCC=C(C)C)OC(C)=O
REMARK SMILES IDX 3 1 4 2 5 3 6 4 7 5 9 6 8 7 10 8 2 9 1 10 11 11 12 12 14 13
REMARK SMILES IDX 13 14
REMARK H PARENT
REMARK Flexibility Score: inf
ROOT
ATOM      1  C   UNL     1     -13.821  -9.743  96.036  1.00  0.00     0.127 C 
ATOM      2  C   UNL     1     -13.695  -9.142  94.622  1.00  0.00     0.061 C 
ENDROOT
BRANCH   1   3
ATOM      3  C   UNL     1     -12.826  -9.050  97.010  1.00  0.00     0.057 C 
BRANCH   3   4
ATOM      4  C   UNL     1     -11.947  -9.999  97.858  1.00  0.00     0.032 C 
BRANCH   4   5
ATOM      5  C   UNL     1     -12.157  -9.816  99.345  1.00  0.00    -0.028 C 
ATOM      6  C   UNL     1     -13.710 -11.769  99.455  1.00  0.00     0.039 C 
ATOM      7  C   UNL     1     -12.960 -10.619 100.078  1.00  0.00    -0.080 C 
ATOM      8  C   UNL     1     -13.118 -10.381 101.556  1.00  0.00     0.039 C 
ENDBRANCH   4   5
ENDBRANCH   3   4
ENDBRANCH   1   3
BRANCH   1   9
ATOM      9  C   UNL     1     -15.248  -9.593  96.545  1.00  0.00     0.013 C 
ATOM     10  C   UNL     1     -15.527  -9.058  97.739  1.00  0.00     0.008 C 
ENDBRANCH   1   9
BRANCH   1  11
ATOM     11  O   UNL     1     -13.456 -11.132  95.989  1.00  0.00    -0.455 OA
BRANCH  11  12
ATOM     12  C   UNL     1     -12.953 -11.810  94.867  1.00  0.00     0.303 C 
ATOM     13  O   UNL     1     -13.724 -12.280  93.988  1.00  0.00    -0.253 OA
ATOM     14  C   UNL     1     -11.478 -11.948  94.698  1.00  0.00     0.139 C 
ENDBRANCH  11  12
ENDBRANCH   1  11
TORSDOF 6
ENDMDL
MODEL 9
REMARK VINA RESULT:    -3.643      2.204      5.251
REMARK INTER + INTRA:          -5.713
REMARK INTER:                  -5.199
REMARK INTRA:                  -0.513
REMARK UNBOUND:                -0.791
REMARK SMILES C=C[C@@](C)(CCC=C(C)C)OC(C)=O
REMARK SMILES IDX 3 1 4 2 5 3 6 4 7 5 9 6 8 7 10 8 2 9 1 10 11 11 12 12 14 13
REMARK SMILES IDX 13 14
REMARK H PARENT
REMARK Flexibility Score: inf
ROOT
ATOM      1  C   UNL     1     -12.721 -11.021  95.128  1.00  0.00     0.127 C 
ATOM      2  C   UNL     1     -11.975 -12.138  94.371  1.00  0.00     0.061 C 
ENDROOT
BRANCH   1   3
ATOM      3  C   UNL     1     -12.968 -11.439  96.606  1.00  0.00     0.057 C 
BRANCH   3   4
ATOM      4  C   UNL     1     -13.628 -10.367  97.504  1.00  0.00     0.032 C 
BRANCH   4   5
ATOM      5  C   UNL     1     -13.960 -10.887  98.885  1.00  0.00    -0.028 C 
ATOM      6  C   UNL     1     -11.857  -9.939  99.842  1.00  0.00     0.039 C 
ATOM      7  C   UNL     1     -13.156 -10.696  99.955  1.00  0.00    -0.080 C 
ATOM      8  C   UNL     1     -13.552 -11.238 101.303  1.00  0.00     0.039 C 
ENDBRANCH   4   5
ENDBRANCH   3   4
ENDBRANCH   1   3
BRANCH   1   9
ATOM      9  C   UNL     1     -11.925  -9.726  95.072  1.00  0.00     0.013 C 
ATOM     10  C   UNL     1     -10.887  -9.562  94.242  1.00  0.00     0.008 C 
ENDBRANCH   1   9
BRANCH   1  11
ATOM     11  O   UNL     1     -14.014 -10.834  94.529  1.00  0.00    -0.455 OA
BRANCH  11  12
ATOM     12  C   UNL     1     -14.346 -11.107  93.193  1.00  0.00     0.303 C 
ATOM     13  O   UNL     1     -14.976 -12.152  92.876  1.00  0.00    -0.253 OA
ATOM     14  C   UNL     1     -13.971 -10.128  92.133  1.00  0.00     0.139 C 
ENDBRANCH  11  12
ENDBRANCH   1  11
TORSDOF 6
ENDMDL
