MODEL 1
REMARK VINA RESULT:    -5.448      0.000      0.000
REMARK INTER + INTRA:         -17.353
REMARK INTER:                 -14.365
REMARK INTRA:                  -2.988
REMARK UNBOUND:                -2.988
REMARK SMILES CCCCCCCCCCCCCCCCCCCCCCCCCCCCCC(=O)[O-]
REMARK SMILES IDX 16 1 17 2 18 3 19 4 20 5 21 6 22 7 23 8 24 9 25 10 26 11
REMARK SMILES IDX 27 12 28 13 29 14 30 15 31 16 32 17 15 18 14 19 13 20 12 21
REMARK SMILES IDX 11 22 10 23 9 24 8 25 7 26 6 27 5 28 4 29 3 30 2 31 1 32
REMARK H PARENT
REMARK Flexibility Score: inf
ROOT
ATOM      1  C   UNL     1     -15.899  35.622  16.412  1.00  0.00     0.000 C 
ENDROOT
BRANCH   1   2
ATOM      2  C   UNL     1     -16.320  37.080  16.646  1.00  0.00     0.000 C 
BRANCH   2   3
ATOM      3  C   UNL     1     -16.737  37.364  18.105  1.00  0.00     0.000 C 
BRANCH   3   4
ATOM      4  C   UNL     1     -17.095  38.837  18.385  1.00  0.00     0.000 C 
BRANCH   4   5
ATOM      5  C   UNL     1     -18.022  39.081  19.591  1.00  0.00     0.000 C 
BRANCH   5   6
ATOM      6  C   UNL     1     -19.065  40.198  19.395  1.00  0.00     0.000 C 
BRANCH   6   7
ATOM      7  C   UNL     1     -18.926  41.337  20.420  1.00  0.00     0.000 C 
BRANCH   7   8
ATOM      8  C   UNL     1     -17.660  41.208  21.287  1.00  0.00     0.000 C 
BRANCH   8   9
ATOM      9  C   UNL     1     -16.464  42.067  20.827  1.00  0.00     0.000 C 
BRANCH   9  10
ATOM     10  C   UNL     1     -15.814  42.928  21.923  1.00  0.00     0.000 C 
BRANCH  10  11
ATOM     11  C   UNL     1     -16.633  44.179  22.268  1.00  0.00     0.000 C 
BRANCH  11  12
ATOM     12  C   UNL     1     -16.059  44.887  23.502  1.00  0.00     0.000 C 
BRANCH  12  13
ATOM     13  C   UNL     1     -17.011  45.982  23.998  1.00  0.00     0.006 C 
BRANCH  13  14
ATOM     14  C   UNL     1     -16.315  47.350  24.020  1.00  0.00     0.053 C 
BRANCH  14  15
ATOM     15  C   UNL     1     -16.652  48.169  22.808  1.00  0.00     0.041 C 
ATOM     16  O   UNL     1     -16.231  47.838  21.667  1.00  0.00    -0.550 OA
ATOM     17  O   UNL     1     -17.368  49.353  22.953  1.00  0.00    -0.550 OA
ENDBRANCH  14  15
ENDBRANCH  13  14
ENDBRANCH  12  13
ENDBRANCH  11  12
ENDBRANCH  10  11
ENDBRANCH   9  10
ENDBRANCH   8   9
ENDBRANCH   7   8
ENDBRANCH   6   7
ENDBRANCH   5   6
ENDBRANCH   4   5
ENDBRANCH   3   4
ENDBRANCH   2   3
ENDBRANCH   1   2
BRANCH   1  18
ATOM     18  C   UNL     1     -14.861  35.524  15.282  1.00  0.00     0.000 C 
BRANCH  18  19
ATOM     19  C   UNL     1     -14.146  36.859  15.016  1.00  0.00     0.000 C 
BRANCH  19  20
ATOM     20  C   UNL     1     -14.235  37.284  13.536  1.00  0.00     0.000 C 
BRANCH  20  21
ATOM     21  C   UNL     1     -14.436  38.804  13.368  1.00  0.00     0.000 C 
BRANCH  21  22
ATOM     22  C   UNL     1     -15.651  39.177  12.495  1.00  0.00     0.000 C 
BRANCH  22  23
ATOM     23  C   UNL     1     -16.611  38.000  12.268  1.00  0.00     0.000 C 
BRANCH  23  24
ATOM     24  C   UNL     1     -17.680  37.940  13.370  1.00  0.00    -0.000 C 
BRANCH  24  25
ATOM     25  C   UNL     1     -18.245  36.522  13.575  1.00  0.00    -0.000 C 
BRANCH  25  26
ATOM     26  C   UNL     1     -17.505  35.398  12.817  1.00  0.00    -0.000 C 
BRANCH  26  27
ATOM     27  C   UNL     1     -17.658  33.998  13.452  1.00  0.00    -0.000 C 
BRANCH  27  28
ATOM     28  C   UNL     1     -19.082  33.743  13.978  1.00  0.00    -0.000 C 
BRANCH  28  29
ATOM     29  C   UNL     1     -19.422  32.246  13.958  1.00  0.00    -0.000 C 
BRANCH  29  30
ATOM     30  C   UNL     1     -18.171  31.358  14.075  1.00  0.00    -0.000 C 
BRANCH  30  31
ATOM     31  C   UNL     1     -17.966  30.369  12.911  1.00  0.00    -0.003 C 
ATOM     32  C   UNL     1     -16.676  30.625  12.127  1.00  0.00     0.004 C 
ENDBRANCH  30  31
ENDBRANCH  29  30
ENDBRANCH  28  29
ENDBRANCH  27  28
ENDBRANCH  26  27
ENDBRANCH  25  26
ENDBRANCH  24  25
ENDBRANCH  23  24
ENDBRANCH  22  23
ENDBRANCH  21  22
ENDBRANCH  20  21
ENDBRANCH  19  20
ENDBRANCH  18  19
ENDBRANCH   1  18
TORSDOF 28
ENDMDL
MODEL 2
REMARK VINA RESULT:    -5.390      5.059     12.548
REMARK INTER + INTRA:         -17.199
REMARK INTER:                 -15.633
REMARK INTRA:                  -1.566
REMARK UNBOUND:                -2.988
REMARK SMILES CCCCCCCCCCCCCCCCCCCCCCCCCCCCCC(=O)[O-]
REMARK SMILES IDX 16 1 17 2 18 3 19 4 20 5 21 6 22 7 23 8 24 9 25 10 26 11
REMARK SMILES IDX 27 12 28 13 29 14 30 15 31 16 32 17 15 18 14 19 13 20 12 21
REMARK SMILES IDX 11 22 10 23 9 24 8 25 7 26 6 27 5 28 4 29 3 30 2 31 1 32
REMARK H PARENT
REMARK Flexibility Score: inf
ROOT
ATOM      1  C   UNL     1     -14.394  36.590  14.484  1.00  0.00     0.000 C 
ENDROOT
BRANCH   1   2
ATOM      2  C   UNL     1     -14.342  36.579  12.949  1.00  0.00     0.000 C 
BRANCH   2   3
ATOM      3  C   UNL     1     -15.735  36.691  12.295  1.00  0.00     0.000 C 
BRANCH   3   4
ATOM      4  C   UNL     1     -16.037  35.591  11.257  1.00  0.00     0.000 C 
BRANCH   4   5
ATOM      5  C   UNL     1     -16.964  34.458  11.737  1.00  0.00     0.000 C 
BRANCH   5   6
ATOM      6  C   UNL     1     -17.227  34.430  13.255  1.00  0.00     0.000 C 
BRANCH   6   7
ATOM      7  C   UNL     1     -18.514  33.675  13.628  1.00  0.00     0.000 C 
BRANCH   7   8
ATOM      8  C   UNL     1     -18.295  32.158  13.774  1.00  0.00     0.000 C 
BRANCH   8   9
ATOM      9  C   UNL     1     -19.560  31.346  14.119  1.00  0.00     0.000 C 
BRANCH   9  10
ATOM     10  C   UNL     1     -20.858  32.166  14.229  1.00  0.00     0.000 C 
BRANCH  10  11
ATOM     11  C   UNL     1     -21.810  31.640  15.310  1.00  0.00     0.000 C 
BRANCH  11  12
ATOM     12  C   UNL     1     -23.051  32.533  15.429  1.00  0.00     0.000 C 
BRANCH  12  13
ATOM     13  C   UNL     1     -23.350  32.864  16.896  1.00  0.00     0.006 C 
BRANCH  13  14
ATOM     14  C   UNL     1     -24.852  33.095  17.114  1.00  0.00     0.053 C 
BRANCH  14  15
ATOM     15  C   UNL     1     -25.264  32.797  18.528  1.00  0.00     0.041 C 
ATOM     16  O   UNL     1     -26.440  33.024  18.919  1.00  0.00    -0.550 OA
ATOM     17  O   UNL     1     -24.318  32.343  19.440  1.00  0.00    -0.550 OA
ENDBRANCH  14  15
ENDBRANCH  13  14
ENDBRANCH  12  13
ENDBRANCH  11  12
ENDBRANCH  10  11
ENDBRANCH   9  10
ENDBRANCH   8   9
ENDBRANCH   7   8
ENDBRANCH   6   7
ENDBRANCH   5   6
ENDBRANCH   4   5
ENDBRANCH   3   4
ENDBRANCH   2   3
ENDBRANCH   1   2
BRANCH   1  18
ATOM     18  C   UNL     1     -15.612  37.381  14.988  1.00  0.00     0.000 C 
BRANCH  18  19
ATOM     19  C   UNL     1     -16.092  36.913  16.372  1.00  0.00     0.000 C 
BRANCH  19  20
ATOM     20  C   UNL     1     -16.963  37.974  17.076  1.00  0.00     0.000 C 
BRANCH  20  21
ATOM     21  C   UNL     1     -16.952  37.823  18.611  1.00  0.00     0.000 C 
BRANCH  21  22
ATOM     22  C   UNL     1     -17.818  38.867  19.343  1.00  0.00     0.000 C 
BRANCH  22  23
ATOM     23  C   UNL     1     -17.631  40.291  18.799  1.00  0.00     0.000 C 
BRANCH  23  24
ATOM     24  C   UNL     1     -18.711  41.236  19.347  1.00  0.00    -0.000 C 
BRANCH  24  25
ATOM     25  C   UNL     1     -18.136  42.326  20.271  1.00  0.00    -0.000 C 
BRANCH  25  26
ATOM     26  C   UNL     1     -17.157  41.826  21.356  1.00  0.00    -0.000 C 
BRANCH  26  27
ATOM     27  C   UNL     1     -16.211  42.915  21.907  1.00  0.00    -0.000 C 
BRANCH  27  28
ATOM     28  C   UNL     1     -16.853  44.314  21.894  1.00  0.00    -0.000 C 
BRANCH  28  29
ATOM     29  C   UNL     1     -16.664  45.024  23.242  1.00  0.00    -0.000 C 
BRANCH  29  30
ATOM     30  C   UNL     1     -16.775  46.554  23.120  1.00  0.00    -0.000 C 
BRANCH  30  31
ATOM     31  C   UNL     1     -15.777  47.200  22.139  1.00  0.00    -0.003 C 
ATOM     32  C   UNL     1     -16.424  47.621  20.818  1.00  0.00     0.004 C 
ENDBRANCH  30  31
ENDBRANCH  29  30
ENDBRANCH  28  29
ENDBRANCH  27  28
ENDBRANCH  26  27
ENDBRANCH  25  26
ENDBRANCH  24  25
ENDBRANCH  23  24
ENDBRANCH  22  23
ENDBRANCH  21  22
ENDBRANCH  20  21
ENDBRANCH  19  20
ENDBRANCH  18  19
ENDBRANCH   1  18
TORSDOF 28
ENDMDL
MODEL 3
REMARK VINA RESULT:    -5.293      4.673     10.645
REMARK INTER + INTRA:         -16.946
REMARK INTER:                 -13.298
REMARK INTRA:                  -3.648
REMARK UNBOUND:                -2.988
REMARK SMILES CCCCCCCCCCCCCCCCCCCCCCCCCCCCCC(=O)[O-]
REMARK SMILES IDX 16 1 17 2 18 3 19 4 20 5 21 6 22 7 23 8 24 9 25 10 26 11
REMARK SMILES IDX 27 12 28 13 29 14 30 15 31 16 32 17 15 18 14 19 13 20 12 21
REMARK SMILES IDX 11 22 10 23 9 24 8 25 7 26 6 27 5 28 4 29 3 30 2 31 1 32
REMARK H PARENT
REMARK Flexibility Score: inf
ROOT
ATOM      1  C   UNL     1     -13.772  38.096  13.744  1.00  0.00     0.000 C 
ENDROOT
BRANCH   1   2
ATOM      2  C   UNL     1     -12.984  39.351  13.342  1.00  0.00     0.000 C 
BRANCH   2   3
ATOM      3  C   UNL     1     -13.656  40.152  12.207  1.00  0.00     0.000 C 
BRANCH   3   4
ATOM      4  C   UNL     1     -13.206  41.624  12.120  1.00  0.00     0.000 C 
BRANCH   4   5
ATOM      5  C   UNL     1     -13.170  42.228  10.703  1.00  0.00     0.000 C 
BRANCH   5   6
ATOM      6  C   UNL     1     -13.831  43.613  10.568  1.00  0.00     0.000 C 
BRANCH   6   7
ATOM      7  C   UNL     1     -14.910  43.870  11.634  1.00  0.00     0.000 C 
BRANCH   7   8
ATOM      8  C   UNL     1     -16.310  43.409  11.188  1.00  0.00     0.000 C 
BRANCH   8   9
ATOM      9  C   UNL     1     -16.971  42.355  12.100  1.00  0.00     0.000 C 
BRANCH   9  10
ATOM     10  C   UNL     1     -17.163  40.966  11.467  1.00  0.00     0.000 C 
BRANCH  10  11
ATOM     11  C   UNL     1     -17.313  41.017   9.941  1.00  0.00     0.000 C 
BRANCH  11  12
ATOM     12  C   UNL     1     -16.153  40.287   9.251  1.00  0.00     0.000 C 
BRANCH  12  13
ATOM     13  C   UNL     1     -15.557  41.143   8.127  1.00  0.00     0.006 C 
BRANCH  13  14
ATOM     14  C   UNL     1     -16.552  42.217   7.666  1.00  0.00     0.053 C 
BRANCH  14  15
ATOM     15  C   UNL     1     -15.890  43.554   7.489  1.00  0.00     0.041 C 
ATOM     16  O   UNL     1     -14.670  43.635   7.186  1.00  0.00    -0.550 OA
ATOM     17  O   UNL     1     -16.608  44.717   7.744  1.00  0.00    -0.550 OA
ENDBRANCH  14  15
ENDBRANCH  13  14
ENDBRANCH  12  13
ENDBRANCH  11  12
ENDBRANCH  10  11
ENDBRANCH   9  10
ENDBRANCH   8   9
ENDBRANCH   7   8
ENDBRANCH   6   7
ENDBRANCH   5   6
ENDBRANCH   4   5
ENDBRANCH   3   4
ENDBRANCH   2   3
ENDBRANCH   1   2
BRANCH   1  18
ATOM     18  C   UNL     1     -15.284  38.319  13.577  1.00  0.00     0.000 C 
BRANCH  18  19
ATOM     19  C   UNL     1     -15.910  37.382  12.532  1.00  0.00     0.000 C 
BRANCH  19  20
ATOM     20  C   UNL     1     -16.620  36.176  13.180  1.00  0.00     0.000 C 
BRANCH  20  21
ATOM     21  C   UNL     1     -16.956  36.417  14.667  1.00  0.00     0.000 C 
BRANCH  21  22
ATOM     22  C   UNL     1     -16.130  35.552  15.638  1.00  0.00     0.000 C 
BRANCH  22  23
ATOM     23  C   UNL     1     -16.107  36.109  17.069  1.00  0.00     0.000 C 
BRANCH  23  24
ATOM     24  C   UNL     1     -16.569  37.574  17.097  1.00  0.00    -0.000 C 
BRANCH  24  25
ATOM     25  C   UNL     1     -17.214  37.969  18.440  1.00  0.00    -0.000 C 
BRANCH  25  26
ATOM     26  C   UNL     1     -16.989  39.432  18.878  1.00  0.00    -0.000 C 
BRANCH  26  27
ATOM     27  C   UNL     1     -18.116  40.401  18.457  1.00  0.00    -0.000 C 
BRANCH  27  28
ATOM     28  C   UNL     1     -19.005  40.818  19.641  1.00  0.00    -0.000 C 
BRANCH  28  29
ATOM     29  C   UNL     1     -18.540  42.152  20.243  1.00  0.00    -0.000 C 
BRANCH  29  30
ATOM     30  C   UNL     1     -17.445  41.966  21.307  1.00  0.00    -0.000 C 
BRANCH  30  31
ATOM     31  C   UNL     1     -16.745  43.265  21.751  1.00  0.00    -0.003 C 
ATOM     32  C   UNL     1     -15.254  43.073  22.041  1.00  0.00     0.004 C 
ENDBRANCH  30  31
ENDBRANCH  29  30
ENDBRANCH  28  29
ENDBRANCH  27  28
ENDBRANCH  26  27
ENDBRANCH  25  26
ENDBRANCH  24  25
ENDBRANCH  23  24
ENDBRANCH  22  23
ENDBRANCH  21  22
ENDBRANCH  20  21
ENDBRANCH  19  20
ENDBRANCH  18  19
ENDBRANCH   1  18
TORSDOF 28
ENDMDL
MODEL 4
REMARK VINA RESULT:    -5.200      4.520      8.920
REMARK INTER + INTRA:         -16.700
REMARK INTER:                 -13.633
REMARK INTRA:                  -3.067
REMARK UNBOUND:                -2.988
REMARK SMILES CCCCCCCCCCCCCCCCCCCCCCCCCCCCCC(=O)[O-]
REMARK SMILES IDX 16 1 17 2 18 3 19 4 20 5 21 6 22 7 23 8 24 9 25 10 26 11
REMARK SMILES IDX 27 12 28 13 29 14 30 15 31 16 32 17 15 18 14 19 13 20 12 21
REMARK SMILES IDX 11 22 10 23 9 24 8 25 7 26 6 27 5 28 4 29 3 30 2 31 1 32
REMARK H PARENT
REMARK Flexibility Score: inf
ROOT
ATOM      1  C   UNL     1     -15.965  39.621  12.126  1.00  0.00     0.000 C 
ENDROOT
BRANCH   1   2
ATOM      2  C   UNL     1     -16.750  38.563  12.914  1.00  0.00     0.000 C 
BRANCH   2   3
ATOM      3  C   UNL     1     -16.239  37.127  12.677  1.00  0.00     0.000 C 
BRANCH   3   4
ATOM      4  C   UNL     1     -14.789  36.885  13.143  1.00  0.00     0.000 C 
BRANCH   4   5
ATOM      5  C   UNL     1     -14.623  36.459  14.614  1.00  0.00     0.000 C 
BRANCH   5   6
ATOM      6  C   UNL     1     -15.893  35.887  15.273  1.00  0.00     0.000 C 
BRANCH   6   7
ATOM      7  C   UNL     1     -15.970  36.178  16.782  1.00  0.00     0.000 C 
BRANCH   7   8
ATOM      8  C   UNL     1     -16.649  37.524  17.095  1.00  0.00     0.000 C 
BRANCH   8   9
ATOM      9  C   UNL     1     -16.849  37.820  18.596  1.00  0.00     0.000 C 
BRANCH   9  10
ATOM     10  C   UNL     1     -17.939  38.856  18.921  1.00  0.00     0.000 C 
BRANCH  10  11
ATOM     11  C   UNL     1     -17.394  40.286  19.034  1.00  0.00     0.000 C 
BRANCH  11  12
ATOM     12  C   UNL     1     -18.521  41.279  19.345  1.00  0.00     0.000 C 
BRANCH  12  13
ATOM     13  C   UNL     1     -18.419  41.789  20.788  1.00  0.00     0.006 C 
BRANCH  13  14
ATOM     14  C   UNL     1     -17.013  41.557  21.357  1.00  0.00     0.053 C 
BRANCH  14  15
ATOM     15  C   UNL     1     -16.344  42.847  21.740  1.00  0.00     0.041 C 
ATOM     16  O   UNL     1     -15.174  42.854  22.207  1.00  0.00    -0.550 OA
ATOM     17  O   UNL     1     -17.053  44.041  21.657  1.00  0.00    -0.550 OA
ENDBRANCH  14  15
ENDBRANCH  13  14
ENDBRANCH  12  13
ENDBRANCH  11  12
ENDBRANCH  10  11
ENDBRANCH   9  10
ENDBRANCH   8   9
ENDBRANCH   7   8
ENDBRANCH   6   7
ENDBRANCH   5   6
ENDBRANCH   4   5
ENDBRANCH   3   4
ENDBRANCH   2   3
ENDBRANCH   1   2
BRANCH   1  18
ATOM     18  C   UNL     1     -16.841  40.850  11.830  1.00  0.00     0.000 C 
BRANCH  18  19
ATOM     19  C   UNL     1     -17.420  40.837  10.406  1.00  0.00     0.000 C 
BRANCH  19  20
ATOM     20  C   UNL     1     -17.447  42.244   9.775  1.00  0.00     0.000 C 
BRANCH  20  21
ATOM     21  C   UNL     1     -16.872  42.261   8.344  1.00  0.00     0.000 C 
BRANCH  21  22
ATOM     22  C   UNL     1     -15.734  41.245   8.121  1.00  0.00     0.000 C 
BRANCH  22  23
ATOM     23  C   UNL     1     -14.341  41.891   8.128  1.00  0.00     0.000 C 
BRANCH  23  24
ATOM     24  C   UNL     1     -13.712  41.829   9.528  1.00  0.00    -0.000 C 
BRANCH  24  25
ATOM     25  C   UNL     1     -13.494  43.224  10.145  1.00  0.00    -0.000 C 
BRANCH  25  26
ATOM     26  C   UNL     1     -14.457  43.599  11.292  1.00  0.00    -0.000 C 
BRANCH  26  27
ATOM     27  C   UNL     1     -15.166  44.959  11.106  1.00  0.00    -0.000 C 
BRANCH  27  28
ATOM     28  C   UNL     1     -15.125  45.448   9.647  1.00  0.00    -0.000 C 
BRANCH  28  29
ATOM     29  C   UNL     1     -14.680  46.915   9.565  1.00  0.00    -0.000 C 
BRANCH  29  30
ATOM     30  C   UNL     1     -14.176  47.452  10.916  1.00  0.00    -0.000 C 
BRANCH  30  31
ATOM     31  C   UNL     1     -14.666  48.869  11.274  1.00  0.00    -0.003 C 
ATOM     32  C   UNL     1     -15.380  48.931  12.627  1.00  0.00     0.004 C 
ENDBRANCH  30  31
ENDBRANCH  29  30
ENDBRANCH  28  29
ENDBRANCH  27  28
ENDBRANCH  26  27
ENDBRANCH  25  26
ENDBRANCH  24  25
ENDBRANCH  23  24
ENDBRANCH  22  23
ENDBRANCH  21  22
ENDBRANCH  20  21
ENDBRANCH  19  20
ENDBRANCH  18  19
ENDBRANCH   1  18
TORSDOF 28
ENDMDL
MODEL 5
REMARK VINA RESULT:    -5.150      6.578      9.304
REMARK INTER + INTRA:         -16.567
REMARK INTER:                 -13.709
REMARK INTRA:                  -2.858
REMARK UNBOUND:                -2.988
REMARK SMILES CCCCCCCCCCCCCCCCCCCCCCCCCCCCCC(=O)[O-]
REMARK SMILES IDX 16 1 17 2 18 3 19 4 20 5 21 6 22 7 23 8 24 9 25 10 26 11
REMARK SMILES IDX 27 12 28 13 29 14 30 15 31 16 32 17 15 18 14 19 13 20 12 21
REMARK SMILES IDX 11 22 10 23 9 24 8 25 7 26 6 27 5 28 4 29 3 30 2 31 1 32
REMARK H PARENT
REMARK Flexibility Score: inf
ROOT
ATOM      1  C   UNL     1     -17.353  35.827  12.502  1.00  0.00     0.000 C 
ENDROOT
BRANCH   1   2
ATOM      2  C   UNL     1     -18.068  36.309  13.772  1.00  0.00     0.000 C 
BRANCH   2   3
ATOM      3  C   UNL     1     -17.368  37.510  14.443  1.00  0.00     0.000 C 
BRANCH   3   4
ATOM      4  C   UNL     1     -16.550  37.146  15.698  1.00  0.00     0.000 C 
BRANCH   4   5
ATOM      5  C   UNL     1     -15.555  35.982  15.532  1.00  0.00     0.000 C 
BRANCH   5   6
ATOM      6  C   UNL     1     -14.120  36.401  15.160  1.00  0.00     0.000 C 
BRANCH   6   7
ATOM      7  C   UNL     1     -13.906  36.530  13.642  1.00  0.00     0.000 C 
BRANCH   7   8
ATOM      8  C   UNL     1     -13.246  37.862  13.243  1.00  0.00     0.000 C 
BRANCH   8   9
ATOM      9  C   UNL     1     -14.158  39.102  13.354  1.00  0.00     0.000 C 
BRANCH   9  10
ATOM     10  C   UNL     1     -15.391  39.095  12.434  1.00  0.00     0.000 C 
BRANCH  10  11
ATOM     11  C   UNL     1     -15.776  40.495  11.937  1.00  0.00     0.000 C 
BRANCH  11  12
ATOM     12  C   UNL     1     -16.730  40.408  10.739  1.00  0.00     0.000 C 
BRANCH  12  13
ATOM     13  C   UNL     1     -16.043  40.890   9.455  1.00  0.00     0.006 C 
BRANCH  13  14
ATOM     14  C   UNL     1     -16.889  41.954   8.743  1.00  0.00     0.053 C 
BRANCH  14  15
ATOM     15  C   UNL     1     -16.371  43.341   8.996  1.00  0.00     0.041 C 
ATOM     16  O   UNL     1     -16.903  44.340   8.442  1.00  0.00    -0.550 OA
ATOM     17  O   UNL     1     -15.240  43.522   9.786  1.00  0.00    -0.550 OA
ENDBRANCH  14  15
ENDBRANCH  13  14
ENDBRANCH  12  13
ENDBRANCH  11  12
ENDBRANCH  10  11
ENDBRANCH   9  10
ENDBRANCH   8   9
ENDBRANCH   7   8
ENDBRANCH   6   7
ENDBRANCH   5   6
ENDBRANCH   4   5
ENDBRANCH   3   4
ENDBRANCH   2   3
ENDBRANCH   1   2
BRANCH   1  18
ATOM     18  C   UNL     1     -17.192  34.298  12.509  1.00  0.00     0.000 C 
BRANCH  18  19
ATOM     19  C   UNL     1     -18.014  33.619  13.617  1.00  0.00     0.000 C 
BRANCH  19  20
ATOM     20  C   UNL     1     -18.152  32.099  13.393  1.00  0.00     0.000 C 
BRANCH  20  21
ATOM     21  C   UNL     1     -19.000  31.415  14.486  1.00  0.00     0.000 C 
BRANCH  21  22
ATOM     22  C   UNL     1     -20.167  30.575  13.930  1.00  0.00     0.000 C 
BRANCH  22  23
ATOM     23  C   UNL     1     -21.470  31.376  13.790  1.00  0.00     0.000 C 
BRANCH  23  24
ATOM     24  C   UNL     1     -21.459  32.611  14.704  1.00  0.00    -0.000 C 
BRANCH  24  25
ATOM     25  C   UNL     1     -21.876  32.284  16.150  1.00  0.00    -0.000 C 
BRANCH  25  26
ATOM     26  C   UNL     1     -23.209  32.911  16.614  1.00  0.00    -0.000 C 
BRANCH  26  27
ATOM     27  C   UNL     1     -24.462  32.292  15.958  1.00  0.00    -0.000 C 
BRANCH  27  28
ATOM     28  C   UNL     1     -25.648  33.273  15.912  1.00  0.00    -0.000 C 
BRANCH  28  29
ATOM     29  C   UNL     1     -25.951  33.712  14.473  1.00  0.00    -0.000 C 
BRANCH  29  30
ATOM     30  C   UNL     1     -25.068  32.991  13.440  1.00  0.00    -0.000 C 
BRANCH  30  31
ATOM     31  C   UNL     1     -25.643  32.949  12.011  1.00  0.00    -0.003 C 
ATOM     32  C   UNL     1     -27.107  33.391  11.942  1.00  0.00     0.004 C 
ENDBRANCH  30  31
ENDBRANCH  29  30
ENDBRANCH  28  29
ENDBRANCH  27  28
ENDBRANCH  26  27
ENDBRANCH  25  26
ENDBRANCH  24  25
ENDBRANCH  23  24
ENDBRANCH  22  23
ENDBRANCH  21  22
ENDBRANCH  20  21
ENDBRANCH  19  20
ENDBRANCH  18  19
ENDBRANCH   1  18
TORSDOF 28
ENDMDL
MODEL 6
REMARK VINA RESULT:    -5.132      6.195     11.988
REMARK INTER + INTRA:         -16.520
REMARK INTER:                 -14.966
REMARK INTRA:                  -1.554
REMARK UNBOUND:                -2.988
REMARK SMILES CCCCCCCCCCCCCCCCCCCCCCCCCCCCCC(=O)[O-]
REMARK SMILES IDX 16 1 17 2 18 3 19 4 20 5 21 6 22 7 23 8 24 9 25 10 26 11
REMARK SMILES IDX 27 12 28 13 29 14 30 15 31 16 32 17 15 18 14 19 13 20 12 21
REMARK SMILES IDX 11 22 10 23 9 24 8 25 7 26 6 27 5 28 4 29 3 30 2 31 1 32
REMARK H PARENT
REMARK Flexibility Score: inf
ROOT
ATOM      1  C   UNL     1     -17.342  35.022  12.677  1.00  0.00     0.000 C 
ENDROOT
BRANCH   1   2
ATOM      2  C   UNL     1     -17.918  34.215  13.849  1.00  0.00     0.000 C 
BRANCH   2   3
ATOM      3  C   UNL     1     -17.871  32.690  13.617  1.00  0.00     0.000 C 
BRANCH   3   4
ATOM      4  C   UNL     1     -19.239  31.989  13.738  1.00  0.00     0.000 C 
BRANCH   4   5
ATOM      5  C   UNL     1     -20.404  32.876  14.218  1.00  0.00     0.000 C 
BRANCH   5   6
ATOM      6  C   UNL     1     -21.790  32.203  14.187  1.00  0.00     0.000 C 
BRANCH   6   7
ATOM      7  C   UNL     1     -22.234  31.681  15.564  1.00  0.00     0.000 C 
BRANCH   7   8
ATOM      8  C   UNL     1     -22.253  32.781  16.641  1.00  0.00     0.000 C 
BRANCH   8   9
ATOM      9  C   UNL     1     -23.613  32.990  17.338  1.00  0.00     0.000 C 
BRANCH   9  10
ATOM     10  C   UNL     1     -24.727  33.563  16.444  1.00  0.00     0.000 C 
BRANCH  10  11
ATOM     11  C   UNL     1     -26.131  33.117  16.874  1.00  0.00     0.000 C 
BRANCH  11  12
ATOM     12  C   UNL     1     -26.067  32.251  18.138  1.00  0.00     0.000 C 
BRANCH  12  13
ATOM     13  C   UNL     1     -26.177  33.116  19.400  1.00  0.00     0.006 C 
BRANCH  13  14
ATOM     14  C   UNL     1     -27.620  33.590  19.620  1.00  0.00     0.053 C 
BRANCH  14  15
ATOM     15  C   UNL     1     -27.983  33.622  21.077  1.00  0.00     0.041 C 
ATOM     16  O   UNL     1     -27.099  33.791  21.959  1.00  0.00    -0.550 OA
ATOM     17  O   UNL     1     -29.297  33.380  21.466  1.00  0.00    -0.550 OA
ENDBRANCH  14  15
ENDBRANCH  13  14
ENDBRANCH  12  13
ENDBRANCH  11  12
ENDBRANCH  10  11
ENDBRANCH   9  10
ENDBRANCH   8   9
ENDBRANCH   7   8
ENDBRANCH   6   7
ENDBRANCH   5   6
ENDBRANCH   4   5
ENDBRANCH   3   4
ENDBRANCH   2   3
ENDBRANCH   1   2
BRANCH   1  18
ATOM     18  C   UNL     1     -16.974  36.448  13.119  1.00  0.00     0.000 C 
BRANCH  18  19
ATOM     19  C   UNL     1     -15.456  36.657  13.248  1.00  0.00     0.000 C 
BRANCH  19  20
ATOM     20  C   UNL     1     -15.030  36.962  14.699  1.00  0.00     0.000 C 
BRANCH  20  21
ATOM     21  C   UNL     1     -16.222  37.363  15.593  1.00  0.00     0.000 C 
BRANCH  21  22
ATOM     22  C   UNL     1     -16.401  36.460  16.829  1.00  0.00     0.000 C 
BRANCH  22  23
ATOM     23  C   UNL     1     -16.563  37.253  18.134  1.00  0.00     0.000 C 
BRANCH  23  24
ATOM     24  C   UNL     1     -17.300  38.578  17.886  1.00  0.00    -0.000 C 
BRANCH  24  25
ATOM     25  C   UNL     1     -17.549  39.373  19.182  1.00  0.00    -0.000 C 
BRANCH  25  26
ATOM     26  C   UNL     1     -17.706  40.899  19.004  1.00  0.00    -0.000 C 
BRANCH  26  27
ATOM     27  C   UNL     1     -18.180  41.640  20.273  1.00  0.00    -0.000 C 
BRANCH  27  28
ATOM     28  C   UNL     1     -17.316  41.311  21.503  1.00  0.00    -0.000 C 
BRANCH  28  29
ATOM     29  C   UNL     1     -16.450  42.512  21.912  1.00  0.00    -0.000 C 
BRANCH  29  30
ATOM     30  C   UNL     1     -17.186  43.852  21.739  1.00  0.00    -0.000 C 
BRANCH  30  31
ATOM     31  C   UNL     1     -16.465  45.071  22.346  1.00  0.00    -0.003 C 
ATOM     32  C   UNL     1     -17.024  45.479  23.711  1.00  0.00     0.004 C 
ENDBRANCH  30  31
ENDBRANCH  29  30
ENDBRANCH  28  29
ENDBRANCH  27  28
ENDBRANCH  26  27
ENDBRANCH  25  26
ENDBRANCH  24  25
ENDBRANCH  23  24
ENDBRANCH  22  23
ENDBRANCH  21  22
ENDBRANCH  20  21
ENDBRANCH  19  20
ENDBRANCH  18  19
ENDBRANCH   1  18
TORSDOF 28
ENDMDL
MODEL 7
REMARK VINA RESULT:    -5.130      5.078     11.937
REMARK INTER + INTRA:         -16.514
REMARK INTER:                 -13.825
REMARK INTRA:                  -2.689
REMARK UNBOUND:                -2.988
REMARK SMILES CCCCCCCCCCCCCCCCCCCCCCCCCCCCCC(=O)[O-]
REMARK SMILES IDX 16 1 17 2 18 3 19 4 20 5 21 6 22 7 23 8 24 9 25 10 26 11
REMARK SMILES IDX 27 12 28 13 29 14 30 15 31 16 32 17 15 18 14 19 13 20 12 21
REMARK SMILES IDX 11 22 10 23 9 24 8 25 7 26 6 27 5 28 4 29 3 30 2 31 1 32
REMARK H PARENT
REMARK Flexibility Score: inf
ROOT
ATOM      1  C   UNL     1     -17.380  36.399  12.556  1.00  0.00     0.000 C 
ENDROOT
BRANCH   1   2
ATOM      2  C   UNL     1     -18.252  35.703  13.611  1.00  0.00     0.000 C 
BRANCH   2   3
ATOM      3  C   UNL     1     -17.915  34.207  13.785  1.00  0.00     0.000 C 
BRANCH   3   4
ATOM      4  C   UNL     1     -17.335  33.538  12.523  1.00  0.00     0.000 C 
BRANCH   4   5
ATOM      5  C   UNL     1     -17.331  31.997  12.527  1.00  0.00     0.000 C 
BRANCH   5   6
ATOM      6  C   UNL     1     -18.054  31.347  13.723  1.00  0.00     0.000 C 
BRANCH   6   7
ATOM      7  C   UNL     1     -18.784  30.046  13.348  1.00  0.00     0.000 C 
BRANCH   7   8
ATOM      8  C   UNL     1     -20.231  30.002  13.872  1.00  0.00     0.000 C 
BRANCH   8   9
ATOM      9  C   UNL     1     -20.445  30.649  15.255  1.00  0.00     0.000 C 
BRANCH   9  10
ATOM     10  C   UNL     1     -21.345  31.897  15.265  1.00  0.00     0.000 C 
BRANCH  10  11
ATOM     11  C   UNL     1     -22.031  32.153  13.917  1.00  0.00     0.000 C 
BRANCH  11  12
ATOM     12  C   UNL     1     -23.557  32.137  14.067  1.00  0.00     0.000 C 
BRANCH  12  13
ATOM     13  C   UNL     1     -23.962  31.848  15.518  1.00  0.00     0.006 C 
BRANCH  13  14
ATOM     14  C   UNL     1     -24.560  33.096  16.182  1.00  0.00     0.053 C 
BRANCH  14  15
ATOM     15  C   UNL     1     -25.340  32.752  17.419  1.00  0.00     0.041 C 
ATOM     16  O   UNL     1     -26.558  32.436  17.348  1.00  0.00    -0.550 OA
ATOM     17  O   UNL     1     -24.736  32.863  18.667  1.00  0.00    -0.550 OA
ENDBRANCH  14  15
ENDBRANCH  13  14
ENDBRANCH  12  13
ENDBRANCH  11  12
ENDBRANCH  10  11
ENDBRANCH   9  10
ENDBRANCH   8   9
ENDBRANCH   7   8
ENDBRANCH   6   7
ENDBRANCH   5   6
ENDBRANCH   4   5
ENDBRANCH   3   4
ENDBRANCH   2   3
ENDBRANCH   1   2
BRANCH   1  18
ATOM     18  C   UNL     1     -16.703  37.650  13.140  1.00  0.00     0.000 C 
BRANCH  18  19
ATOM     19  C   UNL     1     -15.171  37.531  13.180  1.00  0.00     0.000 C 
BRANCH  19  20
ATOM     20  C   UNL     1     -14.639  37.320  14.613  1.00  0.00     0.000 C 
BRANCH  20  21
ATOM     21  C   UNL     1     -14.891  35.889  15.132  1.00  0.00     0.000 C 
BRANCH  21  22
ATOM     22  C   UNL     1     -15.749  35.835  16.411  1.00  0.00     0.000 C 
BRANCH  22  23
ATOM     23  C   UNL     1     -16.604  37.095  16.615  1.00  0.00     0.000 C 
BRANCH  23  24
ATOM     24  C   UNL     1     -16.669  37.482  18.100  1.00  0.00    -0.000 C 
BRANCH  24  25
ATOM     25  C   UNL     1     -17.110  38.942  18.316  1.00  0.00    -0.000 C 
BRANCH  25  26
ATOM     26  C   UNL     1     -17.784  39.237  19.674  1.00  0.00    -0.000 C 
BRANCH  26  27
ATOM     27  C   UNL     1     -18.427  40.638  19.772  1.00  0.00    -0.000 C 
BRANCH  27  28
ATOM     28  C   UNL     1     -18.235  41.278  21.159  1.00  0.00    -0.000 C 
BRANCH  28  29
ATOM     29  C   UNL     1     -17.067  40.628  21.914  1.00  0.00    -0.000 C 
BRANCH  29  30
ATOM     30  C   UNL     1     -16.031  41.661  22.393  1.00  0.00    -0.000 C 
BRANCH  30  31
ATOM     31  C   UNL     1     -15.980  42.960  21.566  1.00  0.00    -0.003 C 
ATOM     32  C   UNL     1     -16.438  44.190  22.354  1.00  0.00     0.004 C 
ENDBRANCH  30  31
ENDBRANCH  29  30
ENDBRANCH  28  29
ENDBRANCH  27  28
ENDBRANCH  26  27
ENDBRANCH  25  26
ENDBRANCH  24  25
ENDBRANCH  23  24
ENDBRANCH  22  23
ENDBRANCH  21  22
ENDBRANCH  20  21
ENDBRANCH  19  20
ENDBRANCH  18  19
ENDBRANCH   1  18
TORSDOF 28
ENDMDL
MODEL 8
REMARK VINA RESULT:    -5.108      8.168     11.979
REMARK INTER + INTRA:         -16.456
REMARK INTER:                 -13.866
REMARK INTRA:                  -2.590
REMARK UNBOUND:                -2.988
REMARK SMILES CCCCCCCCCCCCCCCCCCCCCCCCCCCCCC(=O)[O-]
REMARK SMILES IDX 16 1 17 2 18 3 19 4 20 5 21 6 22 7 23 8 24 9 25 10 26 11
REMARK SMILES IDX 27 12 28 13 29 14 30 15 31 16 32 17 15 18 14 19 13 20 12 21
REMARK SMILES IDX 11 22 10 23 9 24 8 25 7 26 6 27 5 28 4 29 3 30 2 31 1 32
REMARK H PARENT
REMARK Flexibility Score: inf
ROOT
ATOM      1  C   UNL     1     -17.373  33.947  12.476  1.00  0.00     0.000 C 
ENDROOT
BRANCH   1   2
ATOM      2  C   UNL     1     -18.106  33.306  13.663  1.00  0.00     0.000 C 
BRANCH   2   3
ATOM      3  C   UNL     1     -18.118  31.764  13.608  1.00  0.00     0.000 C 
BRANCH   3   4
ATOM      4  C   UNL     1     -19.391  31.120  14.193  1.00  0.00     0.000 C 
BRANCH   4   5
ATOM      5  C   UNL     1     -20.657  31.996  14.162  1.00  0.00     0.000 C 
BRANCH   5   6
ATOM      6  C   UNL     1     -21.949  31.260  13.757  1.00  0.00     0.000 C 
BRANCH   6   7
ATOM      7  C   UNL     1     -23.200  31.811  14.462  1.00  0.00     0.000 C 
BRANCH   7   8
ATOM      8  C   UNL     1     -23.232  31.482  15.965  1.00  0.00     0.000 C 
BRANCH   8   9
ATOM      9  C   UNL     1     -23.816  32.592  16.864  1.00  0.00     0.000 C 
BRANCH   9  10
ATOM     10  C   UNL     1     -24.476  33.764  16.116  1.00  0.00     0.000 C 
BRANCH  10  11
ATOM     11  C   UNL     1     -26.008  33.692  16.123  1.00  0.00     0.000 C 
BRANCH  11  12
ATOM     12  C   UNL     1     -26.523  32.848  14.950  1.00  0.00     0.000 C 
BRANCH  12  13
ATOM     13  C   UNL     1     -26.758  33.717  13.709  1.00  0.00     0.006 C 
BRANCH  13  14
ATOM     14  C   UNL     1     -25.618  33.551  12.695  1.00  0.00     0.053 C 
BRANCH  14  15
ATOM     15  C   UNL     1     -25.993  32.617  11.580  1.00  0.00     0.041 C 
ATOM     16  O   UNL     1     -25.948  31.368  11.741  1.00  0.00    -0.550 OA
ATOM     17  O   UNL     1     -26.314  33.133  10.328  1.00  0.00    -0.550 OA
ENDBRANCH  14  15
ENDBRANCH  13  14
ENDBRANCH  12  13
ENDBRANCH  11  12
ENDBRANCH  10  11
ENDBRANCH   9  10
ENDBRANCH   8   9
ENDBRANCH   7   8
ENDBRANCH   6   7
ENDBRANCH   5   6
ENDBRANCH   4   5
ENDBRANCH   3   4
ENDBRANCH   2   3
ENDBRANCH   1   2
BRANCH   1  18
ATOM     18  C   UNL     1     -17.287  35.474  12.641  1.00  0.00     0.000 C 
BRANCH  18  19
ATOM     19  C   UNL     1     -17.897  35.962  13.965  1.00  0.00     0.000 C 
BRANCH  19  20
ATOM     20  C   UNL     1     -16.876  36.735  14.826  1.00  0.00     0.000 C 
BRANCH  20  21
ATOM     21  C   UNL     1     -15.685  35.858  15.262  1.00  0.00     0.000 C 
BRANCH  21  22
ATOM     22  C   UNL     1     -14.312  36.428  14.854  1.00  0.00     0.000 C 
BRANCH  22  23
ATOM     23  C   UNL     1     -14.317  37.063  13.455  1.00  0.00     0.000 C 
BRANCH  23  24
ATOM     24  C   UNL     1     -13.704  38.471  13.488  1.00  0.00    -0.000 C 
BRANCH  24  25
ATOM     25  C   UNL     1     -14.596  39.524  12.804  1.00  0.00    -0.000 C 
BRANCH  25  26
ATOM     26  C   UNL     1     -15.965  39.011  12.305  1.00  0.00    -0.000 C 
BRANCH  26  27
ATOM     27  C   UNL     1     -17.004  40.124  12.047  1.00  0.00    -0.000 C 
BRANCH  27  28
ATOM     28  C   UNL     1     -16.573  41.082  10.923  1.00  0.00    -0.000 C 
BRANCH  28  29
ATOM     29  C   UNL     1     -16.375  40.331   9.598  1.00  0.00    -0.000 C 
BRANCH  29  30
ATOM     30  C   UNL     1     -15.586  41.157   8.567  1.00  0.00    -0.000 C 
BRANCH  30  31
ATOM     31  C   UNL     1     -16.454  41.928   7.554  1.00  0.00    -0.003 C 
ATOM     32  C   UNL     1     -16.647  43.400   7.929  1.00  0.00     0.004 C 
ENDBRANCH  30  31
ENDBRANCH  29  30
ENDBRANCH  28  29
ENDBRANCH  27  28
ENDBRANCH  26  27
ENDBRANCH  25  26
ENDBRANCH  24  25
ENDBRANCH  23  24
ENDBRANCH  22  23
ENDBRANCH  21  22
ENDBRANCH  20  21
ENDBRANCH  19  20
ENDBRANCH  18  19
ENDBRANCH   1  18
TORSDOF 28
ENDMDL
MODEL 9
REMARK VINA RESULT:    -5.060      7.872     12.167
REMARK INTER + INTRA:         -16.331
REMARK INTER:                 -13.817
REMARK INTRA:                  -2.514
REMARK UNBOUND:                -2.988
REMARK SMILES CCCCCCCCCCCCCCCCCCCCCCCCCCCCCC(=O)[O-]
REMARK SMILES IDX 16 1 17 2 18 3 19 4 20 5 21 6 22 7 23 8 24 9 25 10 26 11
REMARK SMILES IDX 27 12 28 13 29 14 30 15 31 16 32 17 15 18 14 19 13 20 12 21
REMARK SMILES IDX 11 22 10 23 9 24 8 25 7 26 6 27 5 28 4 29 3 30 2 31 1 32
REMARK H PARENT
REMARK Flexibility Score: inf
ROOT
ATOM      1  C   UNL     1     -19.067  31.614  14.017  1.00  0.00     0.000 C 
ENDROOT
BRANCH   1   2
ATOM      2  C   UNL     1     -20.447  32.279  14.120  1.00  0.00     0.000 C 
BRANCH   2   3
ATOM      3  C   UNL     1     -21.614  31.275  14.008  1.00  0.00     0.000 C 
BRANCH   3   4
ATOM      4  C   UNL     1     -23.012  31.927  14.010  1.00  0.00     0.000 C 
BRANCH   4   5
ATOM      5  C   UNL     1     -24.202  30.952  13.940  1.00  0.00     0.000 C 
BRANCH   5   6
ATOM      6  C   UNL     1     -24.602  30.513  12.518  1.00  0.00     0.000 C 
BRANCH   6   7
ATOM      7  C   UNL     1     -25.889  31.193  12.019  1.00  0.00     0.000 C 
BRANCH   7   8
ATOM      8  C   UNL     1     -25.731  32.714  11.846  1.00  0.00     0.000 C 
BRANCH   8   9
ATOM      9  C   UNL     1     -26.684  33.571  12.705  1.00  0.00     0.000 C 
BRANCH   9  10
ATOM     10  C   UNL     1     -27.783  32.789  13.445  1.00  0.00     0.000 C 
BRANCH  10  11
ATOM     11  C   UNL     1     -27.540  32.699  14.958  1.00  0.00     0.000 C 
BRANCH  11  12
ATOM     12  C   UNL     1     -26.413  33.646  15.389  1.00  0.00     0.000 C 
BRANCH  12  13
ATOM     13  C   UNL     1     -26.287  33.688  16.917  1.00  0.00     0.006 C 
BRANCH  13  14
ATOM     14  C   UNL     1     -25.785  32.345  17.466  1.00  0.00     0.053 C 
BRANCH  14  15
ATOM     15  C   UNL     1     -24.430  32.472  18.101  1.00  0.00     0.041 C 
ATOM     16  O   UNL     1     -24.263  32.210  19.322  1.00  0.00    -0.550 OA
ATOM     17  O   UNL     1     -23.363  32.963  17.356  1.00  0.00    -0.550 OA
ENDBRANCH  14  15
ENDBRANCH  13  14
ENDBRANCH  12  13
ENDBRANCH  11  12
ENDBRANCH  10  11
ENDBRANCH   9  10
ENDBRANCH   8   9
ENDBRANCH   7   8
ENDBRANCH   6   7
ENDBRANCH   5   6
ENDBRANCH   4   5
ENDBRANCH   3   4
ENDBRANCH   2   3
ENDBRANCH   1   2
BRANCH   1  18
ATOM     18  C   UNL     1     -18.009  32.616  13.525  1.00  0.00     0.000 C 
BRANCH  18  19
ATOM     19  C   UNL     1     -18.442  34.078  13.716  1.00  0.00     0.000 C 
BRANCH  19  20
ATOM     20  C   UNL     1     -17.259  35.059  13.580  1.00  0.00     0.000 C 
BRANCH  20  21
ATOM     21  C   UNL     1     -16.782  35.211  12.121  1.00  0.00     0.000 C 
BRANCH  21  22
ATOM     22  C   UNL     1     -15.652  36.244  11.942  1.00  0.00     0.000 C 
BRANCH  22  23
ATOM     23  C   UNL     1     -15.268  36.948  13.252  1.00  0.00     0.000 C 
BRANCH  23  24
ATOM     24  C   UNL     1     -15.421  38.471  13.125  1.00  0.00    -0.000 C 
BRANCH  24  25
ATOM     25  C   UNL     1     -16.323  38.882  11.945  1.00  0.00    -0.000 C 
BRANCH  25  26
ATOM     26  C   UNL     1     -17.116  40.192  12.141  1.00  0.00    -0.000 C 
BRANCH  26  27
ATOM     27  C   UNL     1     -17.078  41.144  10.926  1.00  0.00    -0.000 C 
BRANCH  27  28
ATOM     28  C   UNL     1     -16.616  40.438   9.639  1.00  0.00    -0.000 C 
BRANCH  28  29
ATOM     29  C   UNL     1     -15.575  41.279   8.887  1.00  0.00    -0.000 C 
BRANCH  29  30
ATOM     30  C   UNL     1     -16.032  41.645   7.464  1.00  0.00    -0.000 C 
BRANCH  30  31
ATOM     31  C   UNL     1     -16.072  43.156   7.165  1.00  0.00    -0.003 C 
ATOM     32  C   UNL     1     -16.993  43.930   8.112  1.00  0.00     0.004 C 
ENDBRANCH  30  31
ENDBRANCH  29  30
ENDBRANCH  28  29
ENDBRANCH  27  28
ENDBRANCH  26  27
ENDBRANCH  25  26
ENDBRANCH  24  25
ENDBRANCH  23  24
ENDBRANCH  22  23
ENDBRANCH  21  22
ENDBRANCH  20  21
ENDBRANCH  19  20
ENDBRANCH  18  19
ENDBRANCH   1  18
TORSDOF 28
ENDMDL
