MODEL 1
REMARK VINA RESULT:    -3.814      0.000      0.000
REMARK INTER + INTRA:          -3.981
REMARK INTER:                  -4.594
REMARK INTRA:                   0.613
REMARK UNBOUND:                 0.613
REMARK SMILES Oc1cc(O)c2c(c1)O[C@H](c1ccc(O)c(O)c1)[C@H](O)C2
REMARK SMILES IDX 21 1 19 2 10 3 9 4 7 5 8 6 2 7 3 8 4 9 6 10 20 11 11 13
REMARK SMILES IDX 18 14 12 15 16 16 13 17 14 18 17 19 15 21 5 23 1 25
REMARK H PARENT 20 12 17 20 15 22 5 24 1 26
REMARK Flexibility Score: inf
ROOT
ATOM      1  C   UNL     1      -8.444 -35.684  11.763  1.00  0.00     0.079 C 
ATOM      2  C   UNL     1      -7.557 -35.806  13.010  1.00  0.00     0.164 C 
ATOM      3  C   UNL     1      -6.382 -34.800  12.962  1.00  0.00     0.232 C 
ATOM      4  O   UNL     1      -6.864 -33.475  12.711  1.00  0.00    -0.482 OA
ATOM      5  C   UNL     1      -8.025 -33.202  11.974  1.00  0.00     0.131 A 
ATOM      6  C   UNL     1      -8.369 -31.873  11.711  1.00  0.00     0.093 A 
ATOM      7  C   UNL     1      -9.516 -31.576  10.964  1.00  0.00     0.122 A 
ATOM      8  C   UNL     1     -10.316 -32.612  10.478  1.00  0.00     0.092 A 
ATOM      9  C   UNL     1      -9.983 -33.950  10.737  1.00  0.00     0.126 A 
ATOM     10  C   UNL     1      -8.843 -34.251  11.505  1.00  0.00     0.039 A 
ENDROOT
BRANCH   2  11
ATOM     11  O   UNL     1      -7.089 -37.125  13.125  1.00  0.00    -0.389 OA
ATOM     12  H   UNL     1      -6.570 -37.317  12.300  1.00  0.00     0.211 HD
ENDBRANCH   2  11
BRANCH   3  13
ATOM     13  C   UNL     1      -5.311 -35.193  11.958  1.00  0.00    -0.001 A 
ATOM     14  C   UNL     1      -4.266 -34.319  11.607  1.00  0.00     0.057 A 
ATOM     15  C   UNL     1      -5.383 -36.446  11.329  1.00  0.00     0.012 A 
ATOM     16  C   UNL     1      -3.304 -34.687  10.659  1.00  0.00     0.157 A 
ATOM     17  C   UNL     1      -4.428 -36.822  10.384  1.00  0.00     0.050 A 
ATOM     18  C   UNL     1      -3.385 -35.957  10.040  1.00  0.00     0.157 A 
BRANCH  16  19
ATOM     19  O   UNL     1      -2.295 -33.768  10.363  1.00  0.00    -0.504 OA
ATOM     20  H   UNL     1      -1.420 -34.011   9.923  1.00  0.00     0.293 HD
ENDBRANCH  16  19
BRANCH  18  21
ATOM     21  O   UNL     1      -2.461 -36.394   9.089  1.00  0.00    -0.504 OA
ATOM     22  H   UNL     1      -1.773 -37.114   9.259  1.00  0.00     0.293 HD
ENDBRANCH  18  21
ENDBRANCH   3  13
BRANCH   9  23
ATOM     23  O   UNL     1     -10.780 -34.976  10.232  1.00  0.00    -0.507 OA
ATOM     24  H   UNL     1     -11.019 -35.028   9.248  1.00  0.00     0.293 HD
ENDBRANCH   9  23
BRANCH   7  25
ATOM     25  O   UNL     1      -9.864 -30.254  10.696  1.00  0.00    -0.508 OA
ATOM     26  H   UNL     1      -9.204 -29.606  10.280  1.00  0.00     0.293 HD
ENDBRANCH   7  25
TORSDOF 6
ENDMDL
MODEL 2
REMARK VINA RESULT:    -0.817      1.513      2.205
REMARK INTER + INTRA:          -0.371
REMARK INTER:                  -0.830
REMARK INTRA:                   0.459
REMARK UNBOUND:                 0.613
REMARK SMILES Oc1cc(O)c2c(c1)O[C@H](c1ccc(O)c(O)c1)[C@H](O)C2
REMARK SMILES IDX 21 1 19 2 10 3 9 4 7 5 8 6 2 7 3 8 4 9 6 10 20 11 11 13
REMARK SMILES IDX 18 14 12 15 16 16 13 17 14 18 17 19 15 21 5 23 1 25
REMARK H PARENT 20 12 17 20 15 22 5 24 1 26
REMARK Flexibility Score: inf
ROOT
ATOM      1  C   UNL     1      -6.851 -36.567  12.193  1.00  0.00     0.079 C 
ATOM      2  C   UNL     1      -5.707 -36.141  13.123  1.00  0.00     0.164 C 
ATOM      3  C   UNL     1      -5.137 -34.761  12.713  1.00  0.00     0.232 C 
ATOM      4  O   UNL     1      -6.189 -33.797  12.596  1.00  0.00    -0.482 OA
ATOM      5  C   UNL     1      -7.502 -34.127  12.232  1.00  0.00     0.131 A 
ATOM      6  C   UNL     1      -8.440 -33.105  12.062  1.00  0.00     0.093 A 
ATOM      7  C   UNL     1      -9.754 -33.408  11.683  1.00  0.00     0.122 A 
ATOM      8  C   UNL     1     -10.126 -34.738  11.472  1.00  0.00     0.092 A 
ATOM      9  C   UNL     1      -9.195 -35.773  11.642  1.00  0.00     0.126 A 
ATOM     10  C   UNL     1      -7.880 -35.473  12.043  1.00  0.00     0.039 A 
ENDROOT
BRANCH   2  11
ATOM     11  O   UNL     1      -4.705 -37.125  13.115  1.00  0.00    -0.389 OA
ATOM     12  H   UNL     1      -3.837 -36.650  13.204  1.00  0.00     0.211 HD
ENDBRANCH   2  11
BRANCH   3  13
ATOM     13  C   UNL     1      -4.304 -34.822  11.444  1.00  0.00    -0.001 A 
ATOM     14  C   UNL     1      -4.340 -35.936  10.586  1.00  0.00     0.057 A 
ATOM     15  C   UNL     1      -3.443 -33.759  11.134  1.00  0.00     0.012 A 
ATOM     16  C   UNL     1      -3.545 -35.988   9.435  1.00  0.00     0.157 A 
ATOM     17  C   UNL     1      -2.647 -33.799   9.988  1.00  0.00     0.050 A 
ATOM     18  C   UNL     1      -2.688 -34.903   9.131  1.00  0.00     0.157 A 
BRANCH  16  19
ATOM     19  O   UNL     1      -3.635 -37.125   8.630  1.00  0.00    -0.504 OA
ATOM     20  H   UNL     1      -4.488 -37.445   8.196  1.00  0.00     0.293 HD
ENDBRANCH  16  19
BRANCH  18  21
ATOM     21  O   UNL     1      -1.869 -34.882   8.000  1.00  0.00    -0.504 OA
ATOM     22  H   UNL     1      -2.078 -35.372   7.142  1.00  0.00     0.293 HD
ENDBRANCH  18  21
ENDBRANCH   3  13
BRANCH   9  23
ATOM     23  O   UNL     1      -9.573 -37.095  11.410  1.00  0.00    -0.507 OA
ATOM     24  H   UNL     1      -9.780 -37.731  12.173  1.00  0.00     0.293 HD
ENDBRANCH   9  23
BRANCH   7  25
ATOM     25  O   UNL     1     -10.694 -32.395  11.510  1.00  0.00    -0.508 OA
ATOM     26  H   UNL     1     -11.436 -32.472  10.824  1.00  0.00     0.293 HD
ENDBRANCH   7  25
TORSDOF 6
ENDMDL
