MODEL 1
REMARK VINA RESULT:    -5.076      0.000      0.000
REMARK INTER + INTRA:          -5.731
REMARK INTER:                  -5.522
REMARK INTRA:                  -0.209
REMARK UNBOUND:                -0.209
REMARK SMILES O=C([O-])c1ccccc1O
REMARK SMILES IDX 4 1 9 2 5 3 8 4 6 5 7 6 2 7 1 8 3 9 10 10
REMARK H PARENT 10 11
REMARK Flexibility Score: inf
ROOT
ATOM      1  C   UNL     1     113.536 115.056 124.290  1.00  0.00     0.039 A 
ATOM      2  C   UNL     1     113.460 115.248 125.694  1.00  0.00     0.124 A 
ATOM      3  C   UNL     1     114.750 114.615 123.729  1.00  0.00     0.014 A 
ATOM      4  C   UNL     1     114.602 115.056 126.482  1.00  0.00     0.047 A 
ATOM      5  C   UNL     1     115.874 114.409 124.532  1.00  0.00     0.001 A 
ATOM      6  C   UNL     1     115.802 114.639 125.906  1.00  0.00     0.004 A 
ENDROOT
BRANCH   1   7
ATOM      7  C   UNL     1     112.403 115.332 123.379  1.00  0.00     0.075 C 
ATOM      8  O   UNL     1     111.288 115.708 123.829  1.00  0.00    -0.545 OA
ATOM      9  O   UNL     1     112.579 115.245 122.003  1.00  0.00    -0.545 OA
ENDBRANCH   1   7
BRANCH   2  10
ATOM     10  O   UNL     1     112.272 115.591 126.345  1.00  0.00    -0.507 OA
ATOM     11  H   UNL     1     111.589 114.915 126.655  1.00  0.00     0.293 HD
ENDBRANCH   2  10
TORSDOF 2
ENDMDL
MODEL 2
REMARK VINA RESULT:    -4.842      0.785      2.448
REMARK INTER + INTRA:          -5.476
REMARK INTER:                  -5.259
REMARK INTRA:                  -0.217
REMARK UNBOUND:                -0.209
REMARK SMILES O=C([O-])c1ccccc1O
REMARK SMILES IDX 4 1 9 2 5 3 8 4 6 5 7 6 2 7 1 8 3 9 10 10
REMARK H PARENT 10 11
REMARK Flexibility Score: inf
ROOT
ATOM      1  C   UNL     1     113.302 115.188 125.331  1.00  0.00     0.039 A 
ATOM      2  C   UNL     1     113.779 114.884 124.030  1.00  0.00     0.124 A 
ATOM      3  C   UNL     1     114.212 115.186 126.406  1.00  0.00     0.014 A 
ATOM      4  C   UNL     1     115.121 114.527 123.849  1.00  0.00     0.047 A 
ATOM      5  C   UNL     1     115.552 114.849 126.204  1.00  0.00     0.001 A 
ATOM      6  C   UNL     1     116.004 114.510 124.929  1.00  0.00     0.004 A 
ENDROOT
BRANCH   1   7
ATOM      7  C   UNL     1     111.880 115.478 125.618  1.00  0.00     0.075 C 
ATOM      8  O   UNL     1     111.450 115.501 126.801  1.00  0.00    -0.545 OA
ATOM      9  O   UNL     1     111.012 115.799 124.580  1.00  0.00    -0.545 OA
ENDBRANCH   1   7
BRANCH   2  10
ATOM     10  O   UNL     1     112.968 114.955 122.894  1.00  0.00    -0.507 OA
ATOM     11  H   UNL     1     113.200 114.520 122.012  1.00  0.00     0.293 HD
ENDBRANCH   2  10
TORSDOF 2
ENDMDL
MODEL 3
REMARK VINA RESULT:    -4.840      1.157      1.866
REMARK INTER + INTRA:          -5.473
REMARK INTER:                  -5.254
REMARK INTRA:                  -0.219
REMARK UNBOUND:                -0.209
REMARK SMILES O=C([O-])c1ccccc1O
REMARK SMILES IDX 4 1 9 2 5 3 8 4 6 5 7 6 2 7 1 8 3 9 10 10
REMARK H PARENT 10 11
REMARK Flexibility Score: inf
ROOT
ATOM      1  C   UNL     1     113.366 115.107 125.343  1.00  0.00     0.039 A 
ATOM      2  C   UNL     1     114.348 115.157 126.366  1.00  0.00     0.124 A 
ATOM      3  C   UNL     1     113.760 114.753 124.039  1.00  0.00     0.014 A 
ATOM      4  C   UNL     1     115.691 114.916 126.050  1.00  0.00     0.047 A 
ATOM      5  C   UNL     1     115.101 114.495 123.745  1.00  0.00     0.001 A 
ATOM      6  C   UNL     1     116.067 114.586 124.747  1.00  0.00     0.004 A 
ENDROOT
BRANCH   1   7
ATOM      7  C   UNL     1     111.944 115.445 125.578  1.00  0.00     0.075 C 
ATOM      8  O   UNL     1     111.478 115.504 126.746  1.00  0.00    -0.545 OA
ATOM      9  O   UNL     1     111.120 115.770 124.506  1.00  0.00    -0.545 OA
ENDBRANCH   1   7
BRANCH   2  10
ATOM     10  O   UNL     1     114.031 115.406 127.704  1.00  0.00    -0.507 OA
ATOM     11  H   UNL     1     113.708 116.300 128.045  1.00  0.00     0.293 HD
ENDBRANCH   2  10
TORSDOF 2
ENDMDL
MODEL 4
REMARK VINA RESULT:    -4.764      6.067      7.073
REMARK INTER + INTRA:          -5.391
REMARK INTER:                  -5.140
REMARK INTRA:                  -0.251
REMARK UNBOUND:                -0.209
REMARK SMILES O=C([O-])c1ccccc1O
REMARK SMILES IDX 4 1 9 2 5 3 8 4 6 5 7 6 2 7 1 8 3 9 10 10
REMARK H PARENT 10 11
REMARK Flexibility Score: inf
ROOT
ATOM      1  C   UNL     1     108.082 118.623 124.384  1.00  0.00     0.039 A 
ATOM      2  C   UNL     1     108.732 118.055 125.511  1.00  0.00     0.124 A 
ATOM      3  C   UNL     1     106.717 118.351 124.178  1.00  0.00     0.014 A 
ATOM      4  C   UNL     1     108.024 117.189 126.355  1.00  0.00     0.047 A 
ATOM      5  C   UNL     1     106.020 117.502 125.041  1.00  0.00     0.001 A 
ATOM      6  C   UNL     1     106.676 116.914 126.123  1.00  0.00     0.004 A 
ENDROOT
BRANCH   1   7
ATOM      7  C   UNL     1     108.786 119.468 123.394  1.00  0.00     0.075 C 
ATOM      8  O   UNL     1     108.578 119.327 122.160  1.00  0.00    -0.545 OA
ATOM      9  O   UNL     1     109.638 120.480 123.822  1.00  0.00    -0.545 OA
ENDBRANCH   1   7
BRANCH   2  10
ATOM     10  O   UNL     1     110.056 118.348 125.845  1.00  0.00    -0.507 OA
ATOM     11  H   UNL     1     110.453 118.179 126.759  1.00  0.00     0.293 HD
ENDBRANCH   2  10
TORSDOF 2
ENDMDL
MODEL 5
REMARK VINA RESULT:    -4.504      5.956      7.057
REMARK INTER + INTRA:          -5.108
REMARK INTER:                  -4.859
REMARK INTRA:                  -0.249
REMARK UNBOUND:                -0.209
REMARK SMILES O=C([O-])c1ccccc1O
REMARK SMILES IDX 4 1 9 2 5 3 8 4 6 5 7 6 2 7 1 8 3 9 10 10
REMARK H PARENT 10 11
REMARK Flexibility Score: inf
ROOT
ATOM      1  C   UNL     1     108.251 118.153 125.168  1.00  0.00     0.039 A 
ATOM      2  C   UNL     1     107.522 118.580 124.028  1.00  0.00     0.124 A 
ATOM      3  C   UNL     1     109.478 118.776 125.463  1.00  0.00     0.014 A 
ATOM      4  C   UNL     1     108.063 119.561 123.187  1.00  0.00     0.047 A 
ATOM      5  C   UNL     1     109.993 119.769 124.626  1.00  0.00     0.001 A 
ATOM      6  C   UNL     1     109.291 120.153 123.484  1.00  0.00     0.004 A 
ENDROOT
BRANCH   1   7
ATOM      7  C   UNL     1     107.793 117.055 126.049  1.00  0.00     0.075 C 
ATOM      8  O   UNL     1     106.583 116.956 126.384  1.00  0.00    -0.545 OA
ATOM      9  O   UNL     1     108.689 116.075 126.461  1.00  0.00    -0.545 OA
ENDBRANCH   1   7
BRANCH   2  10
ATOM     10  O   UNL     1     106.254 118.084 123.714  1.00  0.00    -0.507 OA
ATOM     11  H   UNL     1     106.043 117.100 123.631  1.00  0.00     0.293 HD
ENDBRANCH   2  10
TORSDOF 2
ENDMDL
MODEL 6
REMARK VINA RESULT:    -4.500     13.002     13.391
REMARK INTER + INTRA:          -5.103
REMARK INTER:                  -4.859
REMARK INTRA:                  -0.244
REMARK UNBOUND:                -0.209
REMARK SMILES O=C([O-])c1ccccc1O
REMARK SMILES IDX 4 1 9 2 5 3 8 4 6 5 7 6 2 7 1 8 3 9 10 10
REMARK H PARENT 10 11
REMARK Flexibility Score: inf
ROOT
ATOM      1  C   UNL     1     125.777 117.716 119.855  1.00  0.00     0.039 A 
ATOM      2  C   UNL     1     125.996 117.205 121.161  1.00  0.00     0.124 A 
ATOM      3  C   UNL     1     125.758 119.110 119.665  1.00  0.00     0.014 A 
ATOM      4  C   UNL     1     126.125 118.090 122.238  1.00  0.00     0.047 A 
ATOM      5  C   UNL     1     125.909 119.980 120.748  1.00  0.00     0.001 A 
ATOM      6  C   UNL     1     126.082 119.469 122.035  1.00  0.00     0.004 A 
ENDROOT
BRANCH   1   7
ATOM      7  C   UNL     1     125.535 116.846 118.683  1.00  0.00     0.075 C 
ATOM      8  O   UNL     1     124.998 115.714 118.816  1.00  0.00    -0.545 OA
ATOM      9  O   UNL     1     125.837 117.301 117.404  1.00  0.00    -0.545 OA
ENDBRANCH   1   7
BRANCH   2  10
ATOM     10  O   UNL     1     126.125 115.839 121.424  1.00  0.00    -0.507 OA
ATOM     11  H   UNL     1     125.599 115.124 120.941  1.00  0.00     0.293 HD
ENDBRANCH   2  10
TORSDOF 2
ENDMDL
MODEL 7
REMARK VINA RESULT:    -4.359      5.809      7.199
REMARK INTER + INTRA:          -4.951
REMARK INTER:                  -4.702
REMARK INTRA:                  -0.249
REMARK UNBOUND:                -0.209
REMARK SMILES O=C([O-])c1ccccc1O
REMARK SMILES IDX 4 1 9 2 5 3 8 4 6 5 7 6 2 7 1 8 3 9 10 10
REMARK H PARENT 10 11
REMARK Flexibility Score: inf
ROOT
ATOM      1  C   UNL     1     107.706 117.627 125.330  1.00  0.00     0.039 A 
ATOM      2  C   UNL     1     109.030 118.117 125.179  1.00  0.00     0.124 A 
ATOM      3  C   UNL     1     106.726 118.019 124.400  1.00  0.00     0.014 A 
ATOM      4  C   UNL     1     109.319 119.024 124.152  1.00  0.00     0.047 A 
ATOM      5  C   UNL     1     107.037 118.909 123.368  1.00  0.00     0.001 A 
ATOM      6  C   UNL     1     108.330 119.418 123.251  1.00  0.00     0.004 A 
ENDROOT
BRANCH   1   7
ATOM      7  C   UNL     1     107.300 116.744 126.446  1.00  0.00     0.075 C 
ATOM      8  O   UNL     1     108.038 115.795 126.822  1.00  0.00    -0.545 OA
ATOM      9  O   UNL     1     106.122 116.997 127.140  1.00  0.00    -0.545 OA
ENDBRANCH   1   7
BRANCH   2  10
ATOM     10  O   UNL     1     110.085 117.705 125.998  1.00  0.00    -0.507 OA
ATOM     11  H   UNL     1     111.039 118.013 125.877  1.00  0.00     0.293 HD
ENDBRANCH   2  10
TORSDOF 2
ENDMDL
MODEL 8
REMARK VINA RESULT:    -4.339     13.578     14.365
REMARK INTER + INTRA:          -4.929
REMARK INTER:                  -4.712
REMARK INTRA:                  -0.217
REMARK UNBOUND:                -0.209
REMARK SMILES O=C([O-])c1ccccc1O
REMARK SMILES IDX 4 1 9 2 5 3 8 4 6 5 7 6 2 7 1 8 3 9 10 10
REMARK H PARENT 10 11
REMARK Flexibility Score: inf
ROOT
ATOM      1  C   UNL     1     123.608 124.225 120.603  1.00  0.00     0.039 A 
ATOM      2  C   UNL     1     124.632 123.247 120.696  1.00  0.00     0.124 A 
ATOM      3  C   UNL     1     123.859 125.521 121.091  1.00  0.00     0.014 A 
ATOM      4  C   UNL     1     125.842 123.569 121.323  1.00  0.00     0.047 A 
ATOM      5  C   UNL     1     125.080 125.831 121.695  1.00  0.00     0.001 A 
ATOM      6  C   UNL     1     126.067 124.853 121.820  1.00  0.00     0.004 A 
ENDROOT
BRANCH   1   7
ATOM      7  C   UNL     1     122.269 123.935 120.044  1.00  0.00     0.075 C 
ATOM      8  O   UNL     1     122.063 122.894 119.366  1.00  0.00    -0.545 OA
ATOM      9  O   UNL     1     121.201 124.781 120.321  1.00  0.00    -0.545 OA
ENDBRANCH   1   7
BRANCH   2  10
ATOM     10  O   UNL     1     124.503 121.966 120.153  1.00  0.00    -0.507 OA
ATOM     11  H   UNL     1     123.724 121.353 120.346  1.00  0.00     0.293 HD
ENDBRANCH   2  10
TORSDOF 2
ENDMDL
MODEL 9
REMARK VINA RESULT:    -4.330      5.944      6.945
REMARK INTER + INTRA:          -4.919
REMARK INTER:                  -4.667
REMARK INTRA:                  -0.252
REMARK UNBOUND:                -0.209
REMARK SMILES O=C([O-])c1ccccc1O
REMARK SMILES IDX 4 1 9 2 5 3 8 4 6 5 7 6 2 7 1 8 3 9 10 10
REMARK H PARENT 10 11
REMARK Flexibility Score: inf
ROOT
ATOM      1  C   UNL     1     108.334 118.353 124.644  1.00  0.00     0.039 A 
ATOM      2  C   UNL     1     106.954 118.019 124.612  1.00  0.00     0.124 A 
ATOM      3  C   UNL     1     109.163 117.724 125.591  1.00  0.00     0.014 A 
ATOM      4  C   UNL     1     106.436 117.125 125.557  1.00  0.00     0.047 A 
ATOM      5  C   UNL     1     108.633 116.817 126.513  1.00  0.00     0.001 A 
ATOM      6  C   UNL     1     107.269 116.526 126.502  1.00  0.00     0.004 A 
ENDROOT
BRANCH   1   7
ATOM      7  C   UNL     1     108.937 119.361 123.744  1.00  0.00     0.075 C 
ATOM      8  O   UNL     1     109.825 120.151 124.160  1.00  0.00    -0.545 OA
ATOM      9  O   UNL     1     108.575 119.400 122.402  1.00  0.00    -0.545 OA
ENDBRANCH   1   7
BRANCH   2  10
ATOM     10  O   UNL     1     106.079 118.523 123.646  1.00  0.00    -0.507 OA
ATOM     11  H   UNL     1     105.531 117.939 123.030  1.00  0.00     0.293 HD
ENDBRANCH   2  10
TORSDOF 2
ENDMDL
