MODEL 1
REMARK VINA RESULT:    -5.060      0.000      0.000
REMARK INTER + INTRA:          -5.879
REMARK INTER:                  -5.799
REMARK INTRA:                  -0.079
REMARK UNBOUND:                -0.079
REMARK SMILES COc1cc(C(=O)[O-])ccc1O
REMARK SMILES IDX 5 1 9 2 4 3 10 4 3 5 11 6 6 7 7 8 8 9 2 10 1 11 12 12
REMARK H PARENT 12 13
REMARK Flexibility Score: inf
ROOT
ATOM      1  C   UNL     1      13.935 -53.025  21.924  1.00  0.00     0.001 A 
ATOM      2  C   UNL     1      13.602 -52.777  20.583  1.00  0.00     0.014 A 
ATOM      3  C   UNL     1      15.286 -53.219  22.268  1.00  0.00     0.060 A 
ATOM      4  C   UNL     1      14.597 -52.723  19.605  1.00  0.00     0.051 A 
ATOM      5  C   UNL     1      16.295 -53.167  21.284  1.00  0.00     0.161 A 
ATOM      6  C   UNL     1      15.938 -52.916  19.947  1.00  0.00     0.157 A 
ENDROOT
BRANCH   1   7
ATOM      7  C   UNL     1      12.877 -53.081  22.957  1.00  0.00     0.072 C 
ATOM      8  O   UNL     1      12.351 -54.180  23.278  1.00  0.00    -0.545 OA
ATOM      9  O   UNL     1      12.447 -51.919  23.588  1.00  0.00    -0.545 OA
ENDBRANCH   1   7
BRANCH   5  10
ATOM     10  O   UNL     1      17.650 -53.356  21.598  1.00  0.00    -0.493 OA
ATOM     11  C   UNL     1      18.305 -52.793  22.731  1.00  0.00     0.278 C 
ENDBRANCH   5  10
BRANCH   6  12
ATOM     12  O   UNL     1      16.904 -52.856  18.943  1.00  0.00    -0.504 OA
ATOM     13  H   UNL     1      16.785 -53.319  18.050  1.00  0.00     0.293 HD
ENDBRANCH   6  12
TORSDOF 3
ENDMDL
MODEL 2
REMARK VINA RESULT:    -4.950      1.480      4.755
REMARK INTER + INTRA:          -5.752
REMARK INTER:                  -5.682
REMARK INTRA:                  -0.071
REMARK UNBOUND:                -0.079
REMARK SMILES COc1cc(C(=O)[O-])ccc1O
REMARK SMILES IDX 5 1 9 2 4 3 10 4 3 5 11 6 6 7 7 8 8 9 2 10 1 11 12 12
REMARK H PARENT 12 13
REMARK Flexibility Score: inf
ROOT
ATOM      1  C   UNL     1      16.512 -53.312  21.180  1.00  0.00     0.001 A 
ATOM      2  C   UNL     1      16.936 -54.515  21.765  1.00  0.00     0.014 A 
ATOM      3  C   UNL     1      15.175 -52.906  21.343  1.00  0.00     0.060 A 
ATOM      4  C   UNL     1      16.042 -55.297  22.499  1.00  0.00     0.051 A 
ATOM      5  C   UNL     1      14.268 -53.692  22.083  1.00  0.00     0.161 A 
ATOM      6  C   UNL     1      14.714 -54.894  22.661  1.00  0.00     0.157 A 
ENDROOT
BRANCH   1   7
ATOM      7  C   UNL     1      17.464 -52.486  20.403  1.00  0.00     0.072 C 
ATOM      8  O   UNL     1      17.188 -52.122  19.230  1.00  0.00    -0.545 OA
ATOM      9  O   UNL     1      18.678 -52.099  20.960  1.00  0.00    -0.545 OA
ENDBRANCH   1   7
BRANCH   5  10
ATOM     10  O   UNL     1      12.928 -53.312  22.262  1.00  0.00    -0.493 OA
ATOM     11  C   UNL     1      12.438 -52.577  23.379  1.00  0.00     0.278 C 
ENDBRANCH   5  10
BRANCH   6  12
ATOM     12  O   UNL     1      13.850 -55.702  23.399  1.00  0.00    -0.504 OA
ATOM     13  H   UNL     1      14.030 -55.943  24.367  1.00  0.00     0.293 HD
ENDBRANCH   6  12
TORSDOF 3
ENDMDL
MODEL 3
REMARK VINA RESULT:    -4.900      1.575      4.492
REMARK INTER + INTRA:          -5.695
REMARK INTER:                  -5.621
REMARK INTRA:                  -0.074
REMARK UNBOUND:                -0.079
REMARK SMILES COc1cc(C(=O)[O-])ccc1O
REMARK SMILES IDX 5 1 9 2 4 3 10 4 3 5 11 6 6 7 7 8 8 9 2 10 1 11 12 12
REMARK H PARENT 12 13
REMARK Flexibility Score: inf
ROOT
ATOM      1  C   UNL     1      15.296 -53.584  21.086  1.00  0.00     0.001 A 
ATOM      2  C   UNL     1      15.026 -54.750  20.354  1.00  0.00     0.014 A 
ATOM      3  C   UNL     1      14.312 -53.079  21.954  1.00  0.00     0.060 A 
ATOM      4  C   UNL     1      13.797 -55.400  20.486  1.00  0.00     0.051 A 
ATOM      5  C   UNL     1      13.068 -53.730  22.092  1.00  0.00     0.161 A 
ATOM      6  C   UNL     1      12.820 -54.898  21.349  1.00  0.00     0.157 A 
ENDROOT
BRANCH   1   7
ATOM      7  C   UNL     1      16.601 -52.900  20.942  1.00  0.00     0.072 C 
ATOM      8  O   UNL     1      16.931 -52.370  19.848  1.00  0.00    -0.545 OA
ATOM      9  O   UNL     1      17.483 -52.831  22.015  1.00  0.00    -0.545 OA
ENDBRANCH   1   7
BRANCH   5  10
ATOM     10  O   UNL     1      12.068 -53.249  22.951  1.00  0.00    -0.493 OA
ATOM     11  C   UNL     1      12.163 -52.049  23.713  1.00  0.00     0.278 C 
ENDBRANCH   5  10
BRANCH   6  12
ATOM     12  O   UNL     1      11.604 -55.573  21.454  1.00  0.00    -0.504 OA
ATOM     13  H   UNL     1      11.190 -55.805  22.348  1.00  0.00     0.293 HD
ENDBRANCH   6  12
TORSDOF 3
ENDMDL
MODEL 4
REMARK VINA RESULT:    -4.894      2.377      3.234
REMARK INTER + INTRA:          -5.688
REMARK INTER:                  -5.588
REMARK INTRA:                  -0.100
REMARK UNBOUND:                -0.079
REMARK SMILES COc1cc(C(=O)[O-])ccc1O
REMARK SMILES IDX 5 1 9 2 4 3 10 4 3 5 11 6 6 7 7 8 8 9 2 10 1 11 12 12
REMARK H PARENT 12 13
REMARK Flexibility Score: inf
ROOT
ATOM      1  C   UNL     1      13.827 -54.148  20.840  1.00  0.00     0.001 A 
ATOM      2  C   UNL     1      13.613 -55.354  21.525  1.00  0.00     0.014 A 
ATOM      3  C   UNL     1      14.931 -53.349  21.191  1.00  0.00     0.060 A 
ATOM      4  C   UNL     1      14.483 -55.755  22.540  1.00  0.00     0.051 A 
ATOM      5  C   UNL     1      15.813 -53.749  22.217  1.00  0.00     0.161 A 
ATOM      6  C   UNL     1      15.578 -54.961  22.889  1.00  0.00     0.157 A 
ENDROOT
BRANCH   1   7
ATOM      7  C   UNL     1      12.902 -53.728  19.764  1.00  0.00     0.072 C 
ATOM      8  O   UNL     1      11.744 -54.217  19.686  1.00  0.00    -0.545 OA
ATOM      9  O   UNL     1      13.299 -52.785  18.821  1.00  0.00    -0.545 OA
ENDBRANCH   1   7
BRANCH   5  10
ATOM     10  O   UNL     1      16.922 -52.972  22.588  1.00  0.00    -0.493 OA
ATOM     11  C   UNL     1      18.083 -52.783  21.785  1.00  0.00     0.278 C 
ENDBRANCH   5  10
BRANCH   6  12
ATOM     12  O   UNL     1      16.425 -55.394  23.910  1.00  0.00    -0.504 OA
ATOM     13  H   UNL     1      16.077 -55.857  24.741  1.00  0.00     0.293 HD
ENDBRANCH   6  12
TORSDOF 3
ENDMDL
MODEL 5
REMARK VINA RESULT:    -4.885      3.168      4.769
REMARK INTER + INTRA:          -5.678
REMARK INTER:                  -5.581
REMARK INTRA:                  -0.097
REMARK UNBOUND:                -0.079
REMARK SMILES COc1cc(C(=O)[O-])ccc1O
REMARK SMILES IDX 5 1 9 2 4 3 10 4 3 5 11 6 6 7 7 8 8 9 2 10 1 11 12 12
REMARK H PARENT 12 13
REMARK Flexibility Score: inf
ROOT
ATOM      1  C   UNL     1      12.479 -55.195  19.932  1.00  0.00     0.001 A 
ATOM      2  C   UNL     1      13.721 -55.848  19.976  1.00  0.00     0.014 A 
ATOM      3  C   UNL     1      12.035 -54.493  21.068  1.00  0.00     0.060 A 
ATOM      4  C   UNL     1      14.504 -55.802  21.131  1.00  0.00     0.051 A 
ATOM      5  C   UNL     1      12.822 -54.444  22.238  1.00  0.00     0.161 A 
ATOM      6  C   UNL     1      14.062 -55.105  22.259  1.00  0.00     0.157 A 
ENDROOT
BRANCH   1   7
ATOM      7  C   UNL     1      11.654 -55.247  18.705  1.00  0.00     0.072 C 
ATOM      8  O   UNL     1      11.284 -54.186  18.136  1.00  0.00    -0.545 OA
ATOM      9  O   UNL     1      11.275 -56.469  18.161  1.00  0.00    -0.545 OA
ENDBRANCH   1   7
BRANCH   5  10
ATOM     10  O   UNL     1      12.404 -53.752  23.386  1.00  0.00    -0.493 OA
ATOM     11  C   UNL     1      12.419 -52.334  23.527  1.00  0.00     0.278 C 
ENDBRANCH   5  10
BRANCH   6  12
ATOM     12  O   UNL     1      14.871 -55.083  23.395  1.00  0.00    -0.504 OA
ATOM     13  H   UNL     1      15.015 -54.241  23.939  1.00  0.00     0.293 HD
ENDBRANCH   6  12
TORSDOF 3
ENDMDL
MODEL 6
REMARK VINA RESULT:    -4.866      1.682      4.885
REMARK INTER + INTRA:          -5.657
REMARK INTER:                  -5.570
REMARK INTRA:                  -0.087
REMARK UNBOUND:                -0.079
REMARK SMILES COc1cc(C(=O)[O-])ccc1O
REMARK SMILES IDX 5 1 9 2 4 3 10 4 3 5 11 6 6 7 7 8 8 9 2 10 1 11 12 12
REMARK H PARENT 12 13
REMARK Flexibility Score: inf
ROOT
ATOM      1  C   UNL     1      16.754 -53.272  21.269  1.00  0.00     0.001 A 
ATOM      2  C   UNL     1      17.147 -54.265  22.180  1.00  0.00     0.014 A 
ATOM      3  C   UNL     1      15.382 -53.043  21.058  1.00  0.00     0.060 A 
ATOM      4  C   UNL     1      16.190 -55.015  22.866  1.00  0.00     0.051 A 
ATOM      5  C   UNL     1      14.410 -53.798  21.748  1.00  0.00     0.161 A 
ATOM      6  C   UNL     1      14.828 -54.787  22.656  1.00  0.00     0.157 A 
ENDROOT
BRANCH   1   7
ATOM      7  C   UNL     1      17.773 -52.480  20.545  1.00  0.00     0.072 C 
ATOM      8  O   UNL     1      17.778 -52.439  19.286  1.00  0.00    -0.545 OA
ATOM      9  O   UNL     1      18.741 -51.768  21.245  1.00  0.00    -0.545 OA
ENDBRANCH   1   7
BRANCH   5  10
ATOM     10  O   UNL     1      13.035 -53.591  21.558  1.00  0.00    -0.493 OA
ATOM     11  C   UNL     1      12.245 -54.253  20.575  1.00  0.00     0.278 C 
ENDBRANCH   5  10
BRANCH   6  12
ATOM     12  O   UNL     1      13.901 -55.557  23.359  1.00  0.00    -0.504 OA
ATOM     13  H   UNL     1      13.012 -55.183  23.669  1.00  0.00     0.293 HD
ENDBRANCH   6  12
TORSDOF 3
ENDMDL
MODEL 7
REMARK VINA RESULT:    -4.821      3.074      4.697
REMARK INTER + INTRA:          -5.604
REMARK INTER:                  -5.523
REMARK INTRA:                  -0.081
REMARK UNBOUND:                -0.079
REMARK SMILES COc1cc(C(=O)[O-])ccc1O
REMARK SMILES IDX 5 1 9 2 4 3 10 4 3 5 11 6 6 7 7 8 8 9 2 10 1 11 12 12
REMARK H PARENT 12 13
REMARK Flexibility Score: inf
ROOT
ATOM      1  C   UNL     1      13.994 -55.681  20.000  1.00  0.00     0.001 A 
ATOM      2  C   UNL     1      15.285 -56.171  20.246  1.00  0.00     0.014 A 
ATOM      3  C   UNL     1      13.294 -55.045  21.042  1.00  0.00     0.060 A 
ATOM      4  C   UNL     1      15.867 -56.030  21.507  1.00  0.00     0.051 A 
ATOM      5  C   UNL     1      13.877 -54.900  22.319  1.00  0.00     0.161 A 
ATOM      6  C   UNL     1      15.172 -55.399  22.542  1.00  0.00     0.157 A 
ENDROOT
BRANCH   1   7
ATOM      7  C   UNL     1      13.382 -55.833  18.661  1.00  0.00     0.072 C 
ATOM      8  O   UNL     1      12.521 -56.727  18.447  1.00  0.00    -0.545 OA
ATOM      9  O   UNL     1      13.748 -54.988  17.619  1.00  0.00    -0.545 OA
ENDBRANCH   1   7
BRANCH   5  10
ATOM     10  O   UNL     1      13.202 -54.271  23.377  1.00  0.00    -0.493 OA
ATOM     11  C   UNL     1      12.510 -53.030  23.272  1.00  0.00     0.278 C 
ENDBRANCH   5  10
BRANCH   6  12
ATOM     12  O   UNL     1      15.786 -55.278  23.789  1.00  0.00    -0.504 OA
ATOM     13  H   UNL     1      15.404 -54.696  24.525  1.00  0.00     0.293 HD
ENDBRANCH   6  12
TORSDOF 3
ENDMDL
MODEL 8
REMARK VINA RESULT:    -4.729      1.635      2.379
REMARK INTER + INTRA:          -5.499
REMARK INTER:                  -5.488
REMARK INTRA:                  -0.011
REMARK UNBOUND:                -0.079
REMARK SMILES COc1cc(C(=O)[O-])ccc1O
REMARK SMILES IDX 5 1 9 2 4 3 10 4 3 5 11 6 6 7 7 8 8 9 2 10 1 11 12 12
REMARK H PARENT 12 13
REMARK Flexibility Score: inf
ROOT
ATOM      1  C   UNL     1      13.458 -53.747  22.446  1.00  0.00     0.001 A 
ATOM      2  C   UNL     1      14.007 -54.957  22.899  1.00  0.00     0.014 A 
ATOM      3  C   UNL     1      14.031 -53.113  21.328  1.00  0.00     0.060 A 
ATOM      4  C   UNL     1      15.105 -55.523  22.249  1.00  0.00     0.051 A 
ATOM      5  C   UNL     1      15.141 -53.680  20.668  1.00  0.00     0.161 A 
ATOM      6  C   UNL     1      15.674 -54.893  21.139  1.00  0.00     0.157 A 
ENDROOT
BRANCH   1   7
ATOM      7  C   UNL     1      12.293 -53.152  23.139  1.00  0.00     0.072 C 
ATOM      8  O   UNL     1      11.145 -53.653  23.009  1.00  0.00    -0.545 OA
ATOM      9  O   UNL     1      12.450 -52.029  23.944  1.00  0.00    -0.545 OA
ENDBRANCH   1   7
BRANCH   5  10
ATOM     10  O   UNL     1      15.732 -53.070  19.550  1.00  0.00    -0.493 OA
ATOM     11  C   UNL     1      16.948 -52.328  19.582  1.00  0.00     0.278 C 
ENDBRANCH   5  10
BRANCH   6  12
ATOM     12  O   UNL     1      16.771 -55.488  20.517  1.00  0.00    -0.504 OA
ATOM     13  H   UNL     1      17.712 -55.401  20.880  1.00  0.00     0.293 HD
ENDBRANCH   6  12
TORSDOF 3
ENDMDL
MODEL 9
REMARK VINA RESULT:    -4.710      1.811      4.941
REMARK INTER + INTRA:          -5.477
REMARK INTER:                  -5.379
REMARK INTRA:                  -0.098
REMARK UNBOUND:                -0.079
REMARK SMILES COc1cc(C(=O)[O-])ccc1O
REMARK SMILES IDX 5 1 9 2 4 3 10 4 3 5 11 6 6 7 7 8 8 9 2 10 1 11 12 12
REMARK H PARENT 12 13
REMARK Flexibility Score: inf
ROOT
ATOM      1  C   UNL     1      15.231 -53.213  20.930  1.00  0.00     0.001 A 
ATOM      2  C   UNL     1      15.042 -53.617  22.260  1.00  0.00     0.014 A 
ATOM      3  C   UNL     1      14.161 -53.326  20.023  1.00  0.00     0.060 A 
ATOM      4  C   UNL     1      13.811 -54.124  22.678  1.00  0.00     0.051 A 
ATOM      5  C   UNL     1      12.915 -53.839  20.439  1.00  0.00     0.161 A 
ATOM      6  C   UNL     1      12.749 -54.237  21.777  1.00  0.00     0.157 A 
ENDROOT
BRANCH   1   7
ATOM      7  C   UNL     1      16.538 -52.674  20.492  1.00  0.00     0.072 C 
ATOM      8  O   UNL     1      16.681 -52.194  19.337  1.00  0.00    -0.545 OA
ATOM      9  O   UNL     1      17.630 -52.691  21.353  1.00  0.00    -0.545 OA
ENDBRANCH   1   7
BRANCH   5  10
ATOM     10  O   UNL     1      11.830 -53.963  19.556  1.00  0.00    -0.493 OA
ATOM     11  C   UNL     1      11.589 -55.094  18.724  1.00  0.00     0.278 C 
ENDBRANCH   5  10
BRANCH   6  12
ATOM     12  O   UNL     1      11.533 -54.750  22.230  1.00  0.00    -0.504 OA
ATOM     13  H   UNL     1      11.380 -55.000  23.199  1.00  0.00     0.293 HD
ENDBRANCH   6  12
TORSDOF 3
ENDMDL
