MODEL 1
REMARK VINA RESULT:    -3.760      0.000      0.000
REMARK INTER + INTRA:          -5.340
REMARK INTER:                  -4.860
REMARK INTRA:                  -0.480
REMARK UNBOUND:                -0.480
REMARK SMILES C=CC(=O)CCCCC
REMARK SMILES IDX 6 1 7 2 8 3 9 4 5 5 3 6 4 7 2 8 1 9
REMARK H PARENT
REMARK Flexibility Score: inf
ROOT
ATOM      1  C   UNL     1      52.355  33.183  32.410  1.00  0.00     0.008 C 
ENDROOT
BRANCH   1   2
ATOM      2  C   UNL     1      52.091  33.007  30.901  1.00  0.00     0.000 C 
BRANCH   2   3
ATOM      3  C   UNL     1      50.977  32.007  30.549  1.00  0.00    -0.003 C 
ATOM      4  C   UNL     1      51.507  30.602  30.266  1.00  0.00     0.004 C 
ENDBRANCH   2   3
ENDBRANCH   1   2
BRANCH   1   5
ATOM      5  C   UNL     1      53.821  32.943  32.820  1.00  0.00     0.080 C 
BRANCH   5   6
ATOM      6  C   UNL     1      54.314  31.549  32.509  1.00  0.00     0.155 C 
ATOM      7  O   UNL     1      53.729  30.558  33.023  1.00  0.00    -0.295 OA
BRANCH   6   8
ATOM      8  C   UNL     1      55.499  31.290  31.665  1.00  0.00     0.039 C 
ATOM      9  C   UNL     1      56.210  32.246  31.070  1.00  0.00     0.012 C 
ENDBRANCH   6   8
ENDBRANCH   5   6
ENDBRANCH   1   5
TORSDOF 5
ENDMDL
MODEL 2
REMARK VINA RESULT:    -3.743      1.367      2.302
REMARK INTER + INTRA:          -5.318
REMARK INTER:                  -4.718
REMARK INTRA:                  -0.599
REMARK UNBOUND:                -0.480
REMARK SMILES C=CC(=O)CCCCC
REMARK SMILES IDX 6 1 7 2 8 3 9 4 5 5 3 6 4 7 2 8 1 9
REMARK H PARENT
REMARK Flexibility Score: inf
ROOT
ATOM      1  C   UNL     1      51.134  31.283  31.143  1.00  0.00     0.008 C 
ENDROOT
BRANCH   1   2
ATOM      2  C   UNL     1      50.937  32.628  30.416  1.00  0.00     0.000 C 
BRANCH   2   3
ATOM      3  C   UNL     1      50.680  33.832  31.336  1.00  0.00    -0.003 C 
ATOM      4  C   UNL     1      50.266  33.423  32.749  1.00  0.00     0.004 C 
ENDBRANCH   2   3
ENDBRANCH   1   2
BRANCH   1   5
ATOM      5  C   UNL     1      52.574  30.735  31.064  1.00  0.00     0.080 C 
BRANCH   5   6
ATOM      6  C   UNL     1      53.407  31.048  32.285  1.00  0.00     0.155 C 
ATOM      7  O   UNL     1      53.628  30.140  33.131  1.00  0.00    -0.295 OA
BRANCH   6   8
ATOM      8  C   UNL     1      53.935  32.399  32.567  1.00  0.00     0.039 C 
ATOM      9  C   UNL     1      54.467  33.196  31.642  1.00  0.00     0.012 C 
ENDBRANCH   6   8
ENDBRANCH   5   6
ENDBRANCH   1   5
TORSDOF 5
ENDMDL
MODEL 3
REMARK VINA RESULT:    -3.717      1.439      3.850
REMARK INTER + INTRA:          -5.284
REMARK INTER:                  -4.809
REMARK INTRA:                  -0.475
REMARK UNBOUND:                -0.480
REMARK SMILES C=CC(=O)CCCCC
REMARK SMILES IDX 6 1 7 2 8 3 9 4 5 5 3 6 4 7 2 8 1 9
REMARK H PARENT
REMARK Flexibility Score: inf
ROOT
ATOM      1  C   UNL     1      53.505  33.190  32.293  1.00  0.00     0.008 C 
ENDROOT
BRANCH   1   2
ATOM      2  C   UNL     1      54.021  31.766  32.583  1.00  0.00     0.000 C 
BRANCH   2   3
ATOM      3  C   UNL     1      54.998  31.205  31.538  1.00  0.00    -0.003 C 
ATOM      4  C   UNL     1      56.085  32.205  31.143  1.00  0.00     0.004 C 
ENDBRANCH   2   3
ENDBRANCH   1   2
BRANCH   1   5
ATOM      5  C   UNL     1      52.334  33.239  31.290  1.00  0.00     0.080 C 
BRANCH   5   6
ATOM      6  C   UNL     1      51.133  32.433  31.725  1.00  0.00     0.155 C 
ATOM      7  O   UNL     1      50.535  32.743  32.791  1.00  0.00    -0.295 OA
BRANCH   6   8
ATOM      8  C   UNL     1      50.651  31.250  30.981  1.00  0.00     0.039 C 
ATOM      9  C   UNL     1      51.428  30.494  30.206  1.00  0.00     0.012 C 
ENDBRANCH   6   8
ENDBRANCH   5   6
ENDBRANCH   1   5
TORSDOF 5
ENDMDL
MODEL 4
REMARK VINA RESULT:    -3.711      2.089      4.413
REMARK INTER + INTRA:          -5.276
REMARK INTER:                  -4.696
REMARK INTRA:                  -0.580
REMARK UNBOUND:                -0.480
REMARK SMILES C=CC(=O)CCCCC
REMARK SMILES IDX 6 1 7 2 8 3 9 4 5 5 3 6 4 7 2 8 1 9
REMARK H PARENT
REMARK Flexibility Score: inf
ROOT
ATOM      1  C   UNL     1      52.080  30.510  30.692  1.00  0.00     0.008 C 
ENDROOT
BRANCH   1   2
ATOM      2  C   UNL     1      52.863  30.869  31.972  1.00  0.00     0.000 C 
BRANCH   2   3
ATOM      3  C   UNL     1      54.252  31.483  31.733  1.00  0.00    -0.003 C 
ATOM      4  C   UNL     1      54.230  33.011  31.704  1.00  0.00     0.004 C 
ENDBRANCH   2   3
ENDBRANCH   1   2
BRANCH   1   5
ATOM      5  C   UNL     1      50.645  31.073  30.659  1.00  0.00     0.080 C 
BRANCH   5   6
ATOM      6  C   UNL     1      50.578  32.567  30.872  1.00  0.00     0.155 C 
ATOM      7  O   UNL     1      51.112  33.336  30.028  1.00  0.00    -0.295 OA
BRANCH   6   8
ATOM      8  C   UNL     1      49.957  33.177  32.067  1.00  0.00     0.039 C 
ATOM      9  C   UNL     1      50.644  33.790  33.030  1.00  0.00     0.012 C 
ENDBRANCH   6   8
ENDBRANCH   5   6
ENDBRANCH   1   5
TORSDOF 5
ENDMDL
MODEL 5
REMARK VINA RESULT:    -3.680      1.802      3.970
REMARK INTER + INTRA:          -5.235
REMARK INTER:                  -4.774
REMARK INTRA:                  -0.462
REMARK UNBOUND:                -0.480
REMARK SMILES C=CC(=O)CCCCC
REMARK SMILES IDX 6 1 7 2 8 3 9 4 5 5 3 6 4 7 2 8 1 9
REMARK H PARENT
REMARK Flexibility Score: inf
ROOT
ATOM      1  C   UNL     1      52.253  30.806  31.043  1.00  0.00     0.008 C 
ENDROOT
BRANCH   1   2
ATOM      2  C   UNL     1      53.048  30.774  32.364  1.00  0.00     0.000 C 
BRANCH   2   3
ATOM      3  C   UNL     1      54.278  31.697  32.404  1.00  0.00    -0.003 C 
ATOM      4  C   UNL     1      55.471  31.129  31.636  1.00  0.00     0.004 C 
ENDBRANCH   2   3
ENDBRANCH   1   2
BRANCH   1   5
ATOM      5  C   UNL     1      50.816  31.344  31.192  1.00  0.00     0.080 C 
BRANCH   5   6
ATOM      6  C   UNL     1      50.754  32.783  31.650  1.00  0.00     0.155 C 
ATOM      7  O   UNL     1      50.300  33.047  32.796  1.00  0.00    -0.295 OA
BRANCH   6   8
ATOM      8  C   UNL     1      51.154  33.914  30.787  1.00  0.00     0.039 C 
ATOM      9  C   UNL     1      52.334  34.527  30.866  1.00  0.00     0.012 C 
ENDBRANCH   6   8
ENDBRANCH   5   6
ENDBRANCH   1   5
TORSDOF 5
ENDMDL
MODEL 6
REMARK VINA RESULT:    -3.611      1.649      4.548
REMARK INTER + INTRA:          -5.147
REMARK INTER:                  -4.958
REMARK INTRA:                  -0.189
REMARK UNBOUND:                -0.480
REMARK SMILES C=CC(=O)CCCCC
REMARK SMILES IDX 6 1 7 2 8 3 9 4 5 5 3 6 4 7 2 8 1 9
REMARK H PARENT
REMARK Flexibility Score: inf
ROOT
ATOM      1  C   UNL     1      54.876  31.221  31.648  1.00  0.00     0.008 C 
ENDROOT
BRANCH   1   2
ATOM      2  C   UNL     1      56.012  32.182  31.246  1.00  0.00     0.000 C 
BRANCH   2   3
ATOM      3  C   UNL     1      57.427  31.707  31.616  1.00  0.00    -0.003 C 
ATOM      4  C   UNL     1      58.519  32.408  30.809  1.00  0.00     0.004 C 
ENDBRANCH   2   3
ENDBRANCH   1   2
BRANCH   1   5
ATOM      5  C   UNL     1      53.714  31.904  32.397  1.00  0.00     0.080 C 
BRANCH   5   6
ATOM      6  C   UNL     1      52.576  32.321  31.494  1.00  0.00     0.155 C 
ATOM      7  O   UNL     1      52.577  33.479  30.995  1.00  0.00    -0.295 OA
BRANCH   6   8
ATOM      8  C   UNL     1      51.420  31.447  31.209  1.00  0.00     0.039 C 
ATOM      9  C   UNL     1      51.386  30.561  30.214  1.00  0.00     0.012 C 
ENDBRANCH   6   8
ENDBRANCH   5   6
ENDBRANCH   1   5
TORSDOF 5
ENDMDL
MODEL 7
REMARK VINA RESULT:    -3.568      1.907      4.223
REMARK INTER + INTRA:          -5.091
REMARK INTER:                  -4.596
REMARK INTRA:                  -0.496
REMARK UNBOUND:                -0.480
REMARK SMILES C=CC(=O)CCCCC
REMARK SMILES IDX 6 1 7 2 8 3 9 4 5 5 3 6 4 7 2 8 1 9
REMARK H PARENT
REMARK Flexibility Score: inf
ROOT
ATOM      1  C   UNL     1      53.351  30.958  32.320  1.00  0.00     0.008 C 
ENDROOT
BRANCH   1   2
ATOM      2  C   UNL     1      54.733  31.260  31.706  1.00  0.00     0.000 C 
BRANCH   2   3
ATOM      3  C   UNL     1      55.089  32.753  31.610  1.00  0.00    -0.003 C 
ATOM      4  C   UNL     1      54.438  33.591  32.711  1.00  0.00     0.004 C 
ENDBRANCH   2   3
ENDBRANCH   1   2
BRANCH   1   5
ATOM      5  C   UNL     1      52.210  30.884  31.286  1.00  0.00     0.080 C 
BRANCH   5   6
ATOM      6  C   UNL     1      51.342  32.120  31.254  1.00  0.00     0.155 C 
ATOM      7  O   UNL     1      51.270  32.796  30.192  1.00  0.00    -0.295 OA
BRANCH   6   8
ATOM      8  C   UNL     1      50.609  32.613  32.438  1.00  0.00     0.039 C 
ATOM      9  C   UNL     1      50.679  33.866  32.886  1.00  0.00     0.012 C 
ENDBRANCH   6   8
ENDBRANCH   5   6
ENDBRANCH   1   5
TORSDOF 5
ENDMDL
MODEL 8
REMARK VINA RESULT:    -3.471      2.098      3.123
REMARK INTER + INTRA:          -4.966
REMARK INTER:                  -4.583
REMARK INTRA:                  -0.383
REMARK UNBOUND:                -0.480
REMARK SMILES C=CC(=O)CCCCC
REMARK SMILES IDX 6 1 7 2 8 3 9 4 5 5 3 6 4 7 2 8 1 9
REMARK H PARENT
REMARK Flexibility Score: inf
ROOT
ATOM      1  C   UNL     1      50.766  32.031  31.907  1.00  0.00     0.008 C 
ENDROOT
BRANCH   1   2
ATOM      2  C   UNL     1      50.503  33.141  32.944  1.00  0.00     0.000 C 
BRANCH   2   3
ATOM      3  C   UNL     1      49.982  34.465  32.360  1.00  0.00    -0.003 C 
ATOM      4  C   UNL     1      50.670  35.690  32.961  1.00  0.00     0.004 C 
ENDBRANCH   2   3
ENDBRANCH   1   2
BRANCH   1   5
ATOM      5  C   UNL     1      51.847  32.390  30.867  1.00  0.00     0.080 C 
BRANCH   5   6
ATOM      6  C   UNL     1      53.160  32.815  31.484  1.00  0.00     0.155 C 
ATOM      7  O   UNL     1      53.567  33.996  31.316  1.00  0.00    -0.295 OA
BRANCH   6   8
ATOM      8  C   UNL     1      54.028  31.885  32.235  1.00  0.00     0.039 C 
ATOM      9  C   UNL     1      54.966  31.125  31.672  1.00  0.00     0.012 C 
ENDBRANCH   6   8
ENDBRANCH   5   6
ENDBRANCH   1   5
TORSDOF 5
ENDMDL
MODEL 9
REMARK VINA RESULT:    -3.468      1.988      3.296
REMARK INTER + INTRA:          -4.962
REMARK INTER:                  -4.445
REMARK INTRA:                  -0.517
REMARK UNBOUND:                -0.480
REMARK SMILES C=CC(=O)CCCCC
REMARK SMILES IDX 6 1 7 2 8 3 9 4 5 5 3 6 4 7 2 8 1 9
REMARK H PARENT
REMARK Flexibility Score: inf
ROOT
ATOM      1  C   UNL     1      50.436  32.969  32.686  1.00  0.00     0.008 C 
ENDROOT
BRANCH   1   2
ATOM      2  C   UNL     1      50.830  34.457  32.595  1.00  0.00     0.000 C 
BRANCH   2   3
ATOM      3  C   UNL     1      52.302  34.718  32.235  1.00  0.00    -0.003 C 
ATOM      4  C   UNL     1      52.489  35.173  30.788  1.00  0.00     0.004 C 
ENDBRANCH   2   3
ENDBRANCH   1   2
BRANCH   1   5
ATOM      5  C   UNL     1      50.389  32.250  31.322  1.00  0.00     0.080 C 
BRANCH   5   6
ATOM      6  C   UNL     1      51.458  31.195  31.159  1.00  0.00     0.155 C 
ATOM      7  O   UNL     1      51.348  30.341  30.238  1.00  0.00    -0.295 OA
BRANCH   6   8
ATOM      8  C   UNL     1      52.614  31.079  32.073  1.00  0.00     0.039 C 
ATOM      9  C   UNL     1      53.868  31.364  31.725  1.00  0.00     0.012 C 
ENDBRANCH   6   8
ENDBRANCH   5   6
ENDBRANCH   1   5
TORSDOF 5
ENDMDL
