MODEL 1
REMARK VINA RESULT:    -2.761      0.000      0.000
REMARK INTER + INTRA:          -4.587
REMARK INTER:                  -4.214
REMARK INTRA:                  -0.373
REMARK UNBOUND:                -0.373
REMARK SMILES CCCCCCCCCCC(=O)[O-]
REMARK SMILES IDX 7 1 8 2 9 3 10 4 11 5 12 6 13 7 6 8 5 9 4 10 3 11 2 12 1 13
REMARK H PARENT
REMARK Flexibility Score: inf
ROOT
ATOM      1  C   UNL     1      -2.045 -15.714 -26.296  1.00  0.00     0.000 C 
ENDROOT
BRANCH   1   2
ATOM      2  C   UNL     1      -1.052 -15.774 -27.467  1.00  0.00     0.000 C 
BRANCH   2   3
ATOM      3  C   UNL     1      -0.332 -14.437 -27.702  1.00  0.00     0.006 C 
BRANCH   3   4
ATOM      4  C   UNL     1      -1.305 -13.277 -27.950  1.00  0.00     0.053 C 
BRANCH   4   5
ATOM      5  C   UNL     1      -1.199 -12.264 -26.854  1.00  0.00     0.041 C 
ATOM      6  O   UNL     1      -1.888 -12.389 -25.807  1.00  0.00    -0.550 OA
ATOM      7  O   UNL     1      -0.304 -11.209 -26.968  1.00  0.00    -0.550 OA
ENDBRANCH   4   5
ENDBRANCH   3   4
ENDBRANCH   2   3
ENDBRANCH   1   2
BRANCH   1   8
ATOM      8  C   UNL     1      -2.112 -17.060 -25.563  1.00  0.00     0.000 C 
BRANCH   8   9
ATOM      9  C   UNL     1      -0.793 -17.833 -25.711  1.00  0.00    -0.000 C 
BRANCH   9  10
ATOM     10  C   UNL     1      -1.009 -19.338 -25.931  1.00  0.00    -0.000 C 
BRANCH  10  11
ATOM     11  C   UNL     1       0.301 -20.138 -25.882  1.00  0.00    -0.000 C 
BRANCH  11  12
ATOM     12  C   UNL     1       0.085 -21.506 -25.226  1.00  0.00    -0.003 C 
ATOM     13  C   UNL     1      -1.267 -22.097 -25.616  1.00  0.00     0.004 C 
ENDBRANCH  11  12
ENDBRANCH  10  11
ENDBRANCH   9  10
ENDBRANCH   8   9
ENDBRANCH   1   8
TORSDOF 9
ENDMDL
MODEL 2
REMARK VINA RESULT:    -2.276      1.152      1.543
REMARK INTER + INTRA:          -3.847
REMARK INTER:                  -3.528
REMARK INTRA:                  -0.318
REMARK UNBOUND:                -0.373
REMARK SMILES CCCCCCCCCCC(=O)[O-]
REMARK SMILES IDX 7 1 8 2 9 3 10 4 11 5 12 6 13 7 6 8 5 9 4 10 3 11 2 12 1 13
REMARK H PARENT
REMARK Flexibility Score: inf
ROOT
ATOM      1  C   UNL     1      -1.819 -16.025 -26.673  1.00  0.00     0.000 C 
ENDROOT
BRANCH   1   2
ATOM      2  C   UNL     1      -1.581 -14.583 -26.198  1.00  0.00     0.000 C 
BRANCH   2   3
ATOM      3  C   UNL     1      -1.579 -13.571 -27.354  1.00  0.00     0.006 C 
BRANCH   3   4
ATOM      4  C   UNL     1      -0.163 -13.152 -27.771  1.00  0.00     0.053 C 
BRANCH   4   5
ATOM      5  C   UNL     1      -0.029 -11.663 -27.740  1.00  0.00     0.041 C 
ATOM      6  O   UNL     1      -0.980 -10.950 -27.324  1.00  0.00    -0.550 OA
ATOM      7  O   UNL     1       1.164 -11.064 -28.125  1.00  0.00    -0.550 OA
ENDBRANCH   4   5
ENDBRANCH   3   4
ENDBRANCH   2   3
ENDBRANCH   1   2
BRANCH   1   8
ATOM      8  C   UNL     1      -0.681 -16.947 -26.218  1.00  0.00     0.000 C 
BRANCH   8   9
ATOM      9  C   UNL     1      -1.226 -18.310 -25.768  1.00  0.00    -0.000 C 
BRANCH   9  10
ATOM     10  C   UNL     1      -0.330 -19.480 -26.205  1.00  0.00    -0.000 C 
BRANCH  10  11
ATOM     11  C   UNL     1      -1.083 -20.819 -26.247  1.00  0.00    -0.000 C 
BRANCH  11  12
ATOM     12  C   UNL     1      -0.456 -21.831 -25.282  1.00  0.00    -0.003 C 
ATOM     13  C   UNL     1       0.889 -21.336 -24.760  1.00  0.00     0.004 C 
ENDBRANCH  11  12
ENDBRANCH  10  11
ENDBRANCH   9  10
ENDBRANCH   8   9
ENDBRANCH   1   8
TORSDOF 9
ENDMDL
