MODEL 1
REMARK VINA RESULT:    -4.187      0.000      0.000
REMARK INTER + INTRA:          -4.187
REMARK INTER:                  -4.187
REMARK INTRA:                   0.000
REMARK UNBOUND:                 0.000
REMARK SMILES C=C1CC[C@@H]2C[C@H]1C2(C)C
REMARK SMILES IDX 9 1 8 2 5 3 4 4 3 5 2 6 1 7 7 8 6 9 10 10
REMARK H PARENT
REMARK Flexibility Score: inf
ROOT
ATOM      1  C   UNL     1       0.217  -0.950  15.476  1.00  0.00     0.012 C 
ATOM      2  C   UNL     1       1.347  -1.695  16.237  1.00  0.00    -0.026 C 
ATOM      3  C   UNL     1       2.769  -1.079  16.246  1.00  0.00    -0.004 C 
ATOM      4  C   UNL     1       3.096  -0.399  14.878  1.00  0.00     0.008 C 
ATOM      5  C   UNL     1       2.827  -1.351  13.650  1.00  0.00     0.031 C 
ATOM      6  C   UNL     1       2.149  -2.664  14.068  1.00  0.00    -0.074 C 
ATOM      7  C   UNL     1       1.712  -3.542  13.158  1.00  0.00     0.008 C 
ATOM      8  C   UNL     1       2.000  -2.925  15.564  1.00  0.00     0.021 C 
ATOM      9  C   UNL     1       3.345  -2.503  16.176  1.00  0.00     0.012 C 
ATOM     10  C   UNL     1       0.845  -2.014  17.668  1.00  0.00     0.012 C 
ENDROOT
TORSDOF 0
ENDMDL
MODEL 2
REMARK VINA RESULT:    -4.169      1.034      2.297
REMARK INTER + INTRA:          -4.169
REMARK INTER:                  -4.169
REMARK INTRA:                   0.000
REMARK UNBOUND:                 0.000
REMARK SMILES C=C1CC[C@@H]2C[C@H]1C2(C)C
REMARK SMILES IDX 9 1 8 2 5 3 4 4 3 5 2 6 1 7 7 8 6 9 10 10
REMARK H PARENT
REMARK Flexibility Score: inf
ROOT
ATOM      1  C   UNL     1       2.322  -3.225  16.727  1.00  0.00     0.012 C 
ATOM      2  C   UNL     1       3.139  -2.225  15.864  1.00  0.00    -0.026 C 
ATOM      3  C   UNL     1       2.617  -0.774  15.714  1.00  0.00    -0.004 C 
ATOM      4  C   UNL     1       1.056  -0.742  15.641  1.00  0.00     0.008 C 
ATOM      5  C   UNL     1       0.482  -1.734  14.560  1.00  0.00     0.031 C 
ATOM      6  C   UNL     1       1.573  -2.625  13.947  1.00  0.00    -0.074 C 
ATOM      7  C   UNL     1       1.268  -3.626  13.114  1.00  0.00     0.008 C 
ATOM      8  C   UNL     1       3.018  -2.314  14.324  1.00  0.00     0.021 C 
ATOM      9  C   UNL     1       3.124  -0.782  14.263  1.00  0.00     0.012 C 
ATOM     10  C   UNL     1       4.614  -2.265  16.334  1.00  0.00     0.012 C 
ENDROOT
TORSDOF 0
ENDMDL
MODEL 3
REMARK VINA RESULT:    -4.143      1.128      2.796
REMARK INTER + INTRA:          -4.143
REMARK INTER:                  -4.143
REMARK INTRA:                   0.000
REMARK UNBOUND:                 0.000
REMARK SMILES C=C1CC[C@@H]2C[C@H]1C2(C)C
REMARK SMILES IDX 9 1 8 2 5 3 4 4 3 5 2 6 1 7 7 8 6 9 10 10
REMARK H PARENT
REMARK Flexibility Score: inf
ROOT
ATOM      1  C   UNL     1       2.017  -3.359  13.848  1.00  0.00     0.012 C 
ATOM      2  C   UNL     1       1.722  -1.956  14.445  1.00  0.00    -0.026 C 
ATOM      3  C   UNL     1       2.788  -0.842  14.290  1.00  0.00    -0.004 C 
ATOM      4  C   UNL     1       4.232  -1.427  14.403  1.00  0.00     0.008 C 
ATOM      5  C   UNL     1       4.426  -2.311  15.694  1.00  0.00     0.031 C 
ATOM      6  C   UNL     1       3.109  -2.534  16.452  1.00  0.00    -0.074 C 
ATOM      7  C   UNL     1       3.038  -3.370  17.493  1.00  0.00     0.008 C 
ATOM      8  C   UNL     1       1.889  -1.755  15.970  1.00  0.00     0.021 C 
ATOM      9  C   UNL     1       2.408  -0.336  15.691  1.00  0.00     0.012 C 
ATOM     10  C   UNL     1       0.328  -1.497  13.949  1.00  0.00     0.012 C 
ENDROOT
TORSDOF 0
ENDMDL
MODEL 4
REMARK VINA RESULT:    -4.104      0.909      3.317
REMARK INTER + INTRA:          -4.104
REMARK INTER:                  -4.104
REMARK INTRA:                   0.000
REMARK UNBOUND:                 0.000
REMARK SMILES C=C1CC[C@@H]2C[C@H]1C2(C)C
REMARK SMILES IDX 9 1 8 2 5 3 4 4 3 5 2 6 1 7 7 8 6 9 10 10
REMARK H PARENT
REMARK Flexibility Score: inf
ROOT
ATOM      1  C   UNL     1       1.867  -3.365  13.379  1.00  0.00     0.012 C 
ATOM      2  C   UNL     1       2.712  -2.078  13.585  1.00  0.00    -0.026 C 
ATOM      3  C   UNL     1       3.548  -1.936  14.883  1.00  0.00    -0.004 C 
ATOM      4  C   UNL     1       2.796  -2.555  16.105  1.00  0.00     0.008 C 
ATOM      5  C   UNL     1       1.320  -2.018  16.242  1.00  0.00     0.031 C 
ATOM      6  C   UNL     1       0.905  -1.143  15.050  1.00  0.00    -0.074 C 
ATOM      7  C   UNL     1      -0.352  -0.708  14.910  1.00  0.00     0.008 C 
ATOM      8  C   UNL     1       1.989  -0.787  14.036  1.00  0.00     0.021 C 
ATOM      9  C   UNL     1       3.222  -0.434  14.882  1.00  0.00     0.012 C 
ATOM     10  C   UNL     1       3.570  -1.849  12.316  1.00  0.00     0.012 C 
ENDROOT
TORSDOF 0
ENDMDL
MODEL 5
REMARK VINA RESULT:    -4.062      0.930      2.918
REMARK INTER + INTRA:          -4.062
REMARK INTER:                  -4.062
REMARK INTRA:                   0.000
REMARK UNBOUND:                 0.000
REMARK SMILES C=C1CC[C@@H]2C[C@H]1C2(C)C
REMARK SMILES IDX 9 1 8 2 5 3 4 4 3 5 2 6 1 7 7 8 6 9 10 10
REMARK H PARENT
REMARK Flexibility Score: inf
ROOT
ATOM      1  C   UNL     1       2.927  -0.358  14.799  1.00  0.00     0.012 C 
ATOM      2  C   UNL     1       2.529  -1.582  15.668  1.00  0.00    -0.026 C 
ATOM      3  C   UNL     1       2.050  -2.873  14.958  1.00  0.00    -0.004 C 
ATOM      4  C   UNL     1       1.203  -2.536  13.689  1.00  0.00     0.008 C 
ATOM      5  C   UNL     1       0.042  -1.513  13.991  1.00  0.00     0.031 C 
ATOM      6  C   UNL     1       0.114  -0.954  15.420  1.00  0.00    -0.074 C 
ATOM      7  C   UNL     1      -0.696   0.030  15.824  1.00  0.00     0.008 C 
ATOM      8  C   UNL     1       1.145  -1.575  16.359  1.00  0.00     0.021 C 
ATOM      9  C   UNL     1       1.050  -3.088  16.107  1.00  0.00     0.012 C 
ATOM     10  C   UNL     1       3.676  -1.863  16.670  1.00  0.00     0.012 C 
ENDROOT
TORSDOF 0
ENDMDL
MODEL 6
REMARK VINA RESULT:    -3.971      1.019      3.296
REMARK INTER + INTRA:          -3.971
REMARK INTER:                  -3.971
REMARK INTRA:                   0.000
REMARK UNBOUND:                 0.000
REMARK SMILES C=C1CC[C@@H]2C[C@H]1C2(C)C
REMARK SMILES IDX 9 1 8 2 5 3 4 4 3 5 2 6 1 7 7 8 6 9 10 10
REMARK H PARENT
REMARK Flexibility Score: inf
ROOT
ATOM      1  C   UNL     1       3.065  -0.379  14.891  1.00  0.00     0.012 C 
ATOM      2  C   UNL     1       2.256  -1.451  14.111  1.00  0.00    -0.026 C 
ATOM      3  C   UNL     1       0.709  -1.363  14.115  1.00  0.00    -0.004 C 
ATOM      4  C   UNL     1       0.178  -0.869  15.499  1.00  0.00     0.008 C 
ATOM      5  C   UNL     1       0.767  -1.698  16.704  1.00  0.00     0.031 C 
ATOM      6  C   UNL     1       1.854  -2.686  16.255  1.00  0.00    -0.074 C 
ATOM      7  C   UNL     1       2.573  -3.380  17.144  1.00  0.00     0.008 C 
ATOM      8  C   UNL     1       2.073  -2.846  14.753  1.00  0.00     0.021 C 
ATOM      9  C   UNL     1       0.660  -2.900  14.150  1.00  0.00     0.012 C 
ATOM     10  C   UNL     1       2.827  -1.544  12.674  1.00  0.00     0.012 C 
ENDROOT
TORSDOF 0
ENDMDL
MODEL 7
REMARK VINA RESULT:    -3.967     13.421     14.843
REMARK INTER + INTRA:          -3.967
REMARK INTER:                  -3.967
REMARK INTRA:                   0.000
REMARK UNBOUND:                 0.000
REMARK SMILES C=C1CC[C@@H]2C[C@H]1C2(C)C
REMARK SMILES IDX 9 1 8 2 5 3 4 4 3 5 2 6 1 7 7 8 6 9 10 10
REMARK H PARENT
REMARK Flexibility Score: inf
ROOT
ATOM      1  C   UNL     1      13.124   1.810  26.170  1.00  0.00     0.012 C 
ATOM      2  C   UNL     1      12.263   0.827  27.008  1.00  0.00    -0.026 C 
ATOM      3  C   UNL     1      12.491  -0.696  26.835  1.00  0.00    -0.004 C 
ATOM      4  C   UNL     1      12.817  -1.050  25.348  1.00  0.00     0.008 C 
ATOM      5  C   UNL     1      11.764  -0.450  24.340  1.00  0.00     0.031 C 
ATOM      6  C   UNL     1      10.759   0.482  25.032  1.00  0.00    -0.074 C 
ATOM      7  C   UNL     1       9.874   1.198  24.329  1.00  0.00     0.008 C 
ATOM      8  C   UNL     1      10.809   0.552  26.556  1.00  0.00     0.021 C 
ATOM      9  C   UNL     1      10.979  -0.905  27.015  1.00  0.00     0.012 C 
ATOM     10  C   UNL     1      12.336   1.259  28.494  1.00  0.00     0.012 C 
ENDROOT
TORSDOF 0
ENDMDL
MODEL 8
REMARK VINA RESULT:    -3.815     13.705     15.005
REMARK INTER + INTRA:          -3.815
REMARK INTER:                  -3.815
REMARK INTRA:                   0.000
REMARK UNBOUND:                 0.000
REMARK SMILES C=C1CC[C@@H]2C[C@H]1C2(C)C
REMARK SMILES IDX 9 1 8 2 5 3 4 4 3 5 2 6 1 7 7 8 6 9 10 10
REMARK H PARENT
REMARK Flexibility Score: inf
ROOT
ATOM      1  C   UNL     1       9.677   0.785  26.114  1.00  0.00     0.012 C 
ATOM      2  C   UNL     1      10.299  -0.113  27.218  1.00  0.00    -0.026 C 
ATOM      3  C   UNL     1      11.359   0.502  28.167  1.00  0.00    -0.004 C 
ATOM      4  C   UNL     1      12.274   1.515  27.406  1.00  0.00     0.008 C 
ATOM      5  C   UNL     1      12.885   0.904  26.088  1.00  0.00     0.031 C 
ATOM      6  C   UNL     1      12.308  -0.482  25.764  1.00  0.00    -0.074 C 
ATOM      7  C   UNL     1      12.595  -1.104  24.616  1.00  0.00     0.008 C 
ATOM      8  C   UNL     1      11.401  -1.120  26.812  1.00  0.00     0.021 C 
ATOM      9  C   UNL     1      12.095  -0.848  28.156  1.00  0.00     0.012 C 
ATOM     10  C   UNL     1       9.148  -0.795  27.998  1.00  0.00     0.012 C 
ENDROOT
TORSDOF 0
ENDMDL
MODEL 9
REMARK VINA RESULT:    -3.778      3.138      5.529
REMARK INTER + INTRA:          -3.778
REMARK INTER:                  -3.778
REMARK INTRA:                   0.000
REMARK UNBOUND:                 0.000
REMARK SMILES C=C1CC[C@@H]2C[C@H]1C2(C)C
REMARK SMILES IDX 9 1 8 2 5 3 4 4 3 5 2 6 1 7 7 8 6 9 10 10
REMARK H PARENT
REMARK Flexibility Score: inf
ROOT
ATOM      1  C   UNL     1       0.030  -2.278  19.807  1.00  0.00     0.012 C 
ATOM      2  C   UNL     1       1.016  -2.852  18.754  1.00  0.00    -0.026 C 
ATOM      3  C   UNL     1       0.860  -4.331  18.317  1.00  0.00    -0.004 C 
ATOM      4  C   UNL     1       0.424  -5.229  19.519  1.00  0.00     0.008 C 
ATOM      5  C   UNL     1       1.348  -5.038  20.782  1.00  0.00     0.031 C 
ATOM      6  C   UNL     1       2.356  -3.894  20.600  1.00  0.00    -0.074 C 
ATOM      7  C   UNL     1       3.133  -3.483  21.608  1.00  0.00     0.008 C 
ATOM      8  C   UNL     1       2.437  -3.251  19.218  1.00  0.00     0.021 C 
ATOM      9  C   UNL     1       2.392  -4.428  18.230  1.00  0.00     0.012 C 
ATOM     10  C   UNL     1       1.051  -1.890  17.541  1.00  0.00     0.012 C 
ENDROOT
TORSDOF 0
ENDMDL
