MODEL 1
REMARK VINA RESULT:    -4.990      0.000      0.000
REMARK INTER + INTRA:          -7.635
REMARK INTER:                  -6.740
REMARK INTRA:                  -0.895
REMARK UNBOUND:                -0.895
REMARK SMILES CC(=O)CCC=C(C)CCC=C(C)C
REMARK SMILES IDX 7 1 6 2 8 3 9 4 10 5 11 6 13 7 12 8 14 9 5 10 4 11 2 12 3 13
REMARK SMILES IDX 1 14
REMARK H PARENT
REMARK Flexibility Score: inf
ROOT
ATOM      1  C   UNL     1      32.751  31.957 -15.806  1.00  0.00    -0.077 C 
ATOM      2  C   UNL     1      32.717  31.303 -16.990  1.00  0.00    -0.028 C 
ATOM      3  C   UNL     1      31.495  32.256 -15.023  1.00  0.00     0.039 C 
ENDROOT
BRANCH   1   4
ATOM      4  C   UNL     1      34.085  32.417 -15.259  1.00  0.00     0.034 C 
BRANCH   4   5
ATOM      5  C   UNL     1      34.886  31.229 -14.712  1.00  0.00     0.032 C 
BRANCH   5   6
ATOM      6  C   UNL     1      35.012  31.315 -13.211  1.00  0.00    -0.028 C 
ATOM      7  C   UNL     1      34.452  30.852 -10.865  1.00  0.00     0.039 C 
ATOM      8  C   UNL     1      34.236  30.635 -12.339  1.00  0.00    -0.080 C 
ATOM      9  C   UNL     1      33.180  29.658 -12.802  1.00  0.00     0.039 C 
ENDBRANCH   5   6
ENDBRANCH   4   5
ENDBRANCH   1   4
BRANCH   2  10
ATOM     10  C   UNL     1      31.465  30.749 -17.622  1.00  0.00     0.035 C 
BRANCH  10  11
ATOM     11  C   UNL     1      30.929  31.711 -18.693  1.00  0.00     0.079 C 
BRANCH  11  12
ATOM     12  C   UNL     1      29.514  32.165 -18.422  1.00  0.00     0.130 C 
ATOM     13  O   UNL     1      29.290  33.117 -17.689  1.00  0.00    -0.300 OA
ATOM     14  C   UNL     1      28.364  31.470 -19.086  1.00  0.00     0.087 C 
ENDBRANCH  11  12
ENDBRANCH  10  11
ENDBRANCH   2  10
TORSDOF 6
ENDMDL
MODEL 2
REMARK VINA RESULT:    -4.903      2.713      6.548
REMARK INTER + INTRA:          -7.518
REMARK INTER:                  -6.585
REMARK INTRA:                  -0.933
REMARK UNBOUND:                -0.895
REMARK SMILES CC(=O)CCC=C(C)CCC=C(C)C
REMARK SMILES IDX 7 1 6 2 8 3 9 4 10 5 11 6 13 7 12 8 14 9 5 10 4 11 2 12 3 13
REMARK SMILES IDX 1 14
REMARK H PARENT
REMARK Flexibility Score: inf
ROOT
ATOM      1  C   UNL     1      32.350  31.881 -14.649  1.00  0.00    -0.077 C 
ATOM      2  C   UNL     1      32.718  30.941 -13.749  1.00  0.00    -0.028 C 
ATOM      3  C   UNL     1      33.360  32.584 -15.526  1.00  0.00     0.039 C 
ENDROOT
BRANCH   1   4
ATOM      4  C   UNL     1      30.889  32.250 -14.770  1.00  0.00     0.034 C 
BRANCH   4   5
ATOM      5  C   UNL     1      30.123  31.186 -15.566  1.00  0.00     0.032 C 
BRANCH   5   6
ATOM      6  C   UNL     1      29.575  31.767 -16.846  1.00  0.00    -0.028 C 
ATOM      7  C   UNL     1      29.519  32.309 -19.241  1.00  0.00     0.039 C 
ATOM      8  C   UNL     1      30.163  31.639 -18.056  1.00  0.00    -0.080 C 
ATOM      9  C   UNL     1      31.428  30.836 -18.250  1.00  0.00     0.039 C 
ENDBRANCH   5   6
ENDBRANCH   4   5
ENDBRANCH   1   4
BRANCH   2  10
ATOM     10  C   UNL     1      34.130  30.445 -13.562  1.00  0.00     0.035 C 
BRANCH  10  11
ATOM     11  C   UNL     1      34.850  31.260 -12.478  1.00  0.00     0.079 C 
BRANCH  11  12
ATOM     12  C   UNL     1      36.100  31.941 -12.984  1.00  0.00     0.130 C 
ATOM     13  O   UNL     1      36.650  32.813 -12.328  1.00  0.00    -0.300 OA
ATOM     14  C   UNL     1      36.704  31.521 -14.290  1.00  0.00     0.087 C 
ENDBRANCH  11  12
ENDBRANCH  10  11
ENDBRANCH   2  10
TORSDOF 6
ENDMDL
MODEL 3
REMARK VINA RESULT:    -4.893      2.758      5.546
REMARK INTER + INTRA:          -7.504
REMARK INTER:                  -6.469
REMARK INTRA:                  -1.035
REMARK UNBOUND:                -0.895
REMARK SMILES CC(=O)CCC=C(C)CCC=C(C)C
REMARK SMILES IDX 7 1 6 2 8 3 9 4 10 5 11 6 13 7 12 8 14 9 5 10 4 11 2 12 3 13
REMARK SMILES IDX 1 14
REMARK H PARENT
REMARK Flexibility Score: inf
ROOT
ATOM      1  C   UNL     1      34.981  31.081 -13.235  1.00  0.00    -0.077 C 
ATOM      2  C   UNL     1      34.141  30.030 -13.096  1.00  0.00    -0.028 C 
ATOM      3  C   UNL     1      35.579  31.788 -12.041  1.00  0.00     0.039 C 
ENDROOT
BRANCH   1   4
ATOM      4  C   UNL     1      35.319  31.573 -14.625  1.00  0.00     0.034 C 
BRANCH   4   5
ATOM      5  C   UNL     1      34.194  32.456 -15.177  1.00  0.00     0.032 C 
BRANCH   5   6
ATOM      6  C   UNL     1      33.424  31.731 -16.254  1.00  0.00    -0.028 C 
ATOM      7  C   UNL     1      31.487  30.657 -17.315  1.00  0.00     0.039 C 
ATOM      8  C   UNL     1      32.112  31.419 -16.176  1.00  0.00    -0.080 C 
ATOM      9  C   UNL     1      31.261  31.827 -14.995  1.00  0.00     0.039 C 
ENDBRANCH   5   6
ENDBRANCH   4   5
ENDBRANCH   1   4
BRANCH   2  10
ATOM     10  C   UNL     1      33.762  29.410 -11.774  1.00  0.00     0.035 C 
BRANCH  10  11
ATOM     11  C   UNL     1      32.264  29.073 -11.745  1.00  0.00     0.079 C 
BRANCH  11  12
ATOM     12  C   UNL     1      31.888  27.976 -12.712  1.00  0.00     0.130 C 
ATOM     13  O   UNL     1      32.394  26.867 -12.632  1.00  0.00    -0.300 OA
ATOM     14  C   UNL     1      30.852  28.229 -13.765  1.00  0.00     0.087 C 
ENDBRANCH  11  12
ENDBRANCH  10  11
ENDBRANCH   2  10
TORSDOF 6
ENDMDL
MODEL 4
REMARK VINA RESULT:    -4.879      4.649      6.679
REMARK INTER + INTRA:          -7.485
REMARK INTER:                  -6.631
REMARK INTRA:                  -0.854
REMARK UNBOUND:                -0.895
REMARK SMILES CC(=O)CCC=C(C)CCC=C(C)C
REMARK SMILES IDX 7 1 6 2 8 3 9 4 10 5 11 6 13 7 12 8 14 9 5 10 4 11 2 12 3 13
REMARK SMILES IDX 1 14
REMARK H PARENT
REMARK Flexibility Score: inf
ROOT
ATOM      1  C   UNL     1      33.184  29.771 -10.776  1.00  0.00    -0.077 C 
ATOM      2  C   UNL     1      33.119  29.691 -12.125  1.00  0.00    -0.028 C 
ATOM      3  C   UNL     1      34.494  29.971 -10.051  1.00  0.00     0.039 C 
ENDROOT
BRANCH   1   4
ATOM      4  C   UNL     1      31.911  29.641  -9.970  1.00  0.00     0.034 C 
BRANCH   4   5
ATOM      5  C   UNL     1      32.036  30.380  -8.633  1.00  0.00     0.032 C 
BRANCH   5   6
ATOM      6  C   UNL     1      31.269  31.679  -8.666  1.00  0.00    -0.028 C 
ATOM      7  C   UNL     1      30.912  34.101  -8.460  1.00  0.00     0.039 C 
ATOM      8  C   UNL     1      31.812  32.893  -8.431  1.00  0.00    -0.080 C 
ATOM      9  C   UNL     1      33.288  33.070  -8.160  1.00  0.00     0.039 C 
ENDBRANCH   5   6
ENDBRANCH   4   5
ENDBRANCH   1   4
BRANCH   2  10
ATOM     10  C   UNL     1      34.302  29.853 -13.047  1.00  0.00     0.035 C 
BRANCH  10  11
ATOM     11  C   UNL     1      34.500  31.330 -13.417  1.00  0.00     0.079 C 
BRANCH  11  12
ATOM     12  C   UNL     1      35.951  31.748 -13.418  1.00  0.00     0.130 C 
ATOM     13  O   UNL     1      36.636  31.638 -14.426  1.00  0.00    -0.300 OA
ATOM     14  C   UNL     1      36.560  32.344 -12.185  1.00  0.00     0.087 C 
ENDBRANCH  11  12
ENDBRANCH  10  11
ENDBRANCH   2  10
TORSDOF 6
ENDMDL
MODEL 5
REMARK VINA RESULT:    -4.838      6.678     10.149
REMARK INTER + INTRA:          -7.430
REMARK INTER:                  -6.512
REMARK INTRA:                  -0.918
REMARK UNBOUND:                -0.895
REMARK SMILES CC(=O)CCC=C(C)CCC=C(C)C
REMARK SMILES IDX 7 1 6 2 8 3 9 4 10 5 11 6 13 7 12 8 14 9 5 10 4 11 2 12 3 13
REMARK SMILES IDX 1 14
REMARK H PARENT
REMARK Flexibility Score: inf
ROOT
ATOM      1  C   UNL     1      32.469  36.897 -22.870  1.00  0.00    -0.077 C 
ATOM      2  C   UNL     1      32.406  36.596 -21.553  1.00  0.00    -0.028 C 
ATOM      3  C   UNL     1      32.314  35.840 -23.938  1.00  0.00     0.039 C 
ENDROOT
BRANCH   1   4
ATOM      4  C   UNL     1      32.717  38.330 -23.285  1.00  0.00     0.034 C 
BRANCH   4   5
ATOM      5  C   UNL     1      31.550  39.229 -22.861  1.00  0.00     0.032 C 
BRANCH   5   6
ATOM      6  C   UNL     1      30.363  39.028 -23.770  1.00  0.00    -0.028 C 
ATOM      7  C   UNL     1      28.079  38.374 -24.397  1.00  0.00     0.039 C 
ATOM      8  C   UNL     1      29.161  38.561 -23.366  1.00  0.00    -0.080 C 
ATOM      9  C   UNL     1      28.873  38.241 -21.917  1.00  0.00     0.039 C 
ENDBRANCH   5   6
ENDBRANCH   4   5
ENDBRANCH   1   4
BRANCH   2  10
ATOM     10  C   UNL     1      32.115  35.221 -21.005  1.00  0.00     0.035 C 
BRANCH  10  11
ATOM     11  C   UNL     1      33.418  34.506 -20.620  1.00  0.00     0.079 C 
BRANCH  11  12
ATOM     12  C   UNL     1      33.298  33.001 -20.658  1.00  0.00     0.130 C 
ATOM     13  O   UNL     1      33.735  32.360 -21.603  1.00  0.00    -0.300 OA
ATOM     14  C   UNL     1      32.672  32.270 -19.509  1.00  0.00     0.087 C 
ENDBRANCH  11  12
ENDBRANCH  10  11
ENDBRANCH   2  10
TORSDOF 6
ENDMDL
MODEL 6
REMARK VINA RESULT:    -4.831     10.272     13.159
REMARK INTER + INTRA:          -7.421
REMARK INTER:                  -6.669
REMARK INTRA:                  -0.752
REMARK UNBOUND:                -0.895
REMARK SMILES CC(=O)CCC=C(C)CCC=C(C)C
REMARK SMILES IDX 7 1 6 2 8 3 9 4 10 5 11 6 13 7 12 8 14 9 5 10 4 11 2 12 3 13
REMARK SMILES IDX 1 14
REMARK H PARENT
REMARK Flexibility Score: inf
ROOT
ATOM      1  C   UNL     1      19.015  27.975 -14.239  1.00  0.00    -0.077 C 
ATOM      2  C   UNL     1      20.034  28.571 -13.578  1.00  0.00    -0.028 C 
ATOM      3  C   UNL     1      17.920  27.230 -13.513  1.00  0.00     0.039 C 
ENDROOT
BRANCH   1   4
ATOM      4  C   UNL     1      18.980  28.044 -15.750  1.00  0.00     0.034 C 
BRANCH   4   5
ATOM      5  C   UNL     1      20.189  27.320 -16.354  1.00  0.00     0.032 C 
BRANCH   5   6
ATOM      6  C   UNL     1      20.775  28.117 -17.493  1.00  0.00    -0.028 C 
ATOM      7  C   UNL     1      22.357  29.619 -18.623  1.00  0.00     0.039 C 
ATOM      8  C   UNL     1      21.914  28.840 -17.412  1.00  0.00    -0.080 C 
ATOM      9  C   UNL     1      22.755  28.871 -16.157  1.00  0.00     0.039 C 
ENDBRANCH   5   6
ENDBRANCH   4   5
ENDBRANCH   1   4
BRANCH   2  10
ATOM     10  C   UNL     1      20.162  28.620 -12.076  1.00  0.00     0.035 C 
BRANCH  10  11
ATOM     11  C   UNL     1      20.664  29.999 -11.621  1.00  0.00     0.079 C 
BRANCH  11  12
ATOM     12  C   UNL     1      22.170  30.115 -11.644  1.00  0.00     0.130 C 
ATOM     13  O   UNL     1      22.877  29.125 -11.525  1.00  0.00    -0.300 OA
ATOM     14  C   UNL     1      22.815  31.451 -11.854  1.00  0.00     0.087 C 
ENDBRANCH  11  12
ENDBRANCH  10  11
ENDBRANCH   2  10
TORSDOF 6
ENDMDL
MODEL 7
REMARK VINA RESULT:    -4.817      3.239      5.679
REMARK INTER + INTRA:          -7.401
REMARK INTER:                  -6.236
REMARK INTRA:                  -1.165
REMARK UNBOUND:                -0.895
REMARK SMILES CC(=O)CCC=C(C)CCC=C(C)C
REMARK SMILES IDX 7 1 6 2 8 3 9 4 10 5 11 6 13 7 12 8 14 9 5 10 4 11 2 12 3 13
REMARK SMILES IDX 1 14
REMARK H PARENT
REMARK Flexibility Score: inf
ROOT
ATOM      1  C   UNL     1      34.304  30.491 -10.464  1.00  0.00    -0.077 C 
ATOM      2  C   UNL     1      33.555  29.662 -11.225  1.00  0.00    -0.028 C 
ATOM      3  C   UNL     1      35.257  31.492 -11.074  1.00  0.00     0.039 C 
ENDROOT
BRANCH   1   4
ATOM      4  C   UNL     1      34.197  30.403  -8.957  1.00  0.00     0.034 C 
BRANCH   4   5
ATOM      5  C   UNL     1      32.730  30.440  -8.514  1.00  0.00     0.032 C 
BRANCH   5   6
ATOM      6  C   UNL     1      32.270  31.861  -8.307  1.00  0.00    -0.028 C 
ATOM      7  C   UNL     1      30.989  33.911  -8.748  1.00  0.00     0.039 C 
ATOM      8  C   UNL     1      31.317  32.471  -9.045  1.00  0.00    -0.080 C 
ATOM      9  C   UNL     1      30.568  31.747 -10.140  1.00  0.00     0.039 C 
ENDBRANCH   5   6
ENDBRANCH   4   5
ENDBRANCH   1   4
BRANCH   2  10
ATOM     10  C   UNL     1      33.529  29.680 -12.733  1.00  0.00     0.035 C 
BRANCH  10  11
ATOM     11  C   UNL     1      32.485  30.683 -13.244  1.00  0.00     0.079 C 
BRANCH  11  12
ATOM     12  C   UNL     1      33.015  31.580 -14.338  1.00  0.00     0.130 C 
ATOM     13  O   UNL     1      32.284  32.382 -14.901  1.00  0.00    -0.300 OA
ATOM     14  C   UNL     1      34.462  31.521 -14.719  1.00  0.00     0.087 C 
ENDBRANCH  11  12
ENDBRANCH  10  11
ENDBRANCH   2  10
TORSDOF 6
ENDMDL
MODEL 8
REMARK VINA RESULT:    -4.802     10.208     11.907
REMARK INTER + INTRA:          -7.380
REMARK INTER:                  -6.555
REMARK INTRA:                  -0.825
REMARK UNBOUND:                -0.895
REMARK SMILES CC(=O)CCC=C(C)CCC=C(C)C
REMARK SMILES IDX 7 1 6 2 8 3 9 4 10 5 11 6 13 7 12 8 14 9 5 10 4 11 2 12 3 13
REMARK SMILES IDX 1 14
REMARK H PARENT
REMARK Flexibility Score: inf
ROOT
ATOM      1  C   UNL     1      20.295  28.127 -14.561  1.00  0.00    -0.077 C 
ATOM      2  C   UNL     1      21.647  28.135 -14.582  1.00  0.00    -0.028 C 
ATOM      3  C   UNL     1      19.481  27.737 -15.773  1.00  0.00     0.039 C 
ENDROOT
BRANCH   1   4
ATOM      4  C   UNL     1      19.577  28.535 -13.294  1.00  0.00     0.034 C 
BRANCH   4   5
ATOM      5  C   UNL     1      20.515  29.315 -12.366  1.00  0.00     0.032 C 
BRANCH   5   6
ATOM      6  C   UNL     1      20.287  28.926 -10.926  1.00  0.00    -0.028 C 
ATOM      7  C   UNL     1      20.760  27.838  -8.775  1.00  0.00     0.039 C 
ATOM      8  C   UNL     1      21.141  28.181 -10.191  1.00  0.00    -0.080 C 
ATOM      9  C   UNL     1      22.464  27.702 -10.744  1.00  0.00     0.039 C 
ENDBRANCH   5   6
ENDBRANCH   4   5
ENDBRANCH   1   4
BRANCH   2  10
ATOM     10  C   UNL     1      22.485  27.705 -15.760  1.00  0.00     0.035 C 
BRANCH  10  11
ATOM     11  C   UNL     1      22.976  28.926 -16.550  1.00  0.00     0.079 C 
BRANCH  11  12
ATOM     12  C   UNL     1      22.858  28.748 -18.045  1.00  0.00     0.130 C 
ATOM     13  O   UNL     1      23.847  28.538 -18.732  1.00  0.00    -0.300 OA
ATOM     14  C   UNL     1      21.510  28.789 -18.700  1.00  0.00     0.087 C 
ENDBRANCH  11  12
ENDBRANCH  10  11
ENDBRANCH   2  10
TORSDOF 6
ENDMDL
MODEL 9
REMARK VINA RESULT:    -4.797      3.317      5.580
REMARK INTER + INTRA:          -7.375
REMARK INTER:                  -6.539
REMARK INTRA:                  -0.836
REMARK UNBOUND:                -0.895
REMARK SMILES CC(=O)CCC=C(C)CCC=C(C)C
REMARK SMILES IDX 7 1 6 2 8 3 9 4 10 5 11 6 13 7 12 8 14 9 5 10 4 11 2 12 3 13
REMARK SMILES IDX 1 14
REMARK H PARENT
REMARK Flexibility Score: inf
ROOT
ATOM      1  C   UNL     1      32.229  31.040 -13.917  1.00  0.00    -0.077 C 
ATOM      2  C   UNL     1      33.569  31.032 -13.731  1.00  0.00    -0.028 C 
ATOM      3  C   UNL     1      31.581  31.841 -15.022  1.00  0.00     0.039 C 
ENDROOT
BRANCH   1   4
ATOM      4  C   UNL     1      31.353  30.236 -12.982  1.00  0.00     0.034 C 
BRANCH   4   5
ATOM      5  C   UNL     1      32.205  29.343 -12.073  1.00  0.00     0.032 C 
BRANCH   5   6
ATOM      6  C   UNL     1      32.043  29.743 -10.627  1.00  0.00    -0.028 C 
ATOM      7  C   UNL     1      32.753  30.370  -8.360  1.00  0.00     0.039 C 
ATOM      8  C   UNL     1      33.067  30.023  -9.792  1.00  0.00    -0.080 C 
ATOM      9  C   UNL     1      34.505  30.012 -10.258  1.00  0.00     0.039 C 
ENDBRANCH   5   6
ENDBRANCH   4   5
ENDBRANCH   1   4
BRANCH   2  10
ATOM     10  C   UNL     1      34.557  31.748 -14.618  1.00  0.00     0.035 C 
BRANCH  10  11
ATOM     11  C   UNL     1      35.995  31.350 -14.257  1.00  0.00     0.079 C 
BRANCH  11  12
ATOM     12  C   UNL     1      36.742  32.439 -13.524  1.00  0.00     0.130 C 
ATOM     13  O   UNL     1      37.014  33.495 -14.078  1.00  0.00    -0.300 OA
ATOM     14  C   UNL     1      37.124  32.250 -12.088  1.00  0.00     0.087 C 
ENDBRANCH  11  12
ENDBRANCH  10  11
ENDBRANCH   2  10
TORSDOF 6
ENDMDL
