MODEL 1
REMARK VINA RESULT:    -4.581      0.000      0.000
REMARK INTER + INTRA:          -8.928
REMARK INTER:                  -7.125
REMARK INTRA:                  -1.804
REMARK UNBOUND:                -1.804
REMARK SMILES COc1cc(CNC(=O)CCCCC=CC(C)C)ccc1O
REMARK SMILES IDX 11 1 12 2 13 3 14 4 15 5 16 6 17 7 18 8 10 9 8 10 9 11 7 12
REMARK SMILES IDX 6 14 5 15 4 16 19 17 3 18 20 19 21 20 2 21 1 22 22 23
REMARK H PARENT 7 13 22 24
REMARK Flexibility Score: inf
ROOT
ATOM      1  C   UNL     1       3.905  29.067  63.352  1.00  0.00     0.010 C 
ENDROOT
BRANCH   1   2
ATOM      2  C   UNL     1       4.930  29.544  62.308  1.00  0.00     0.005 C 
BRANCH   2   3
ATOM      3  C   UNL     1       4.563  30.890  61.677  1.00  0.00     0.027 C 
BRANCH   3   4
ATOM      4  C   UNL     1       4.498  30.762  60.183  1.00  0.00    -0.031 C 
ATOM      5  C   UNL     1       3.963  29.684  59.592  1.00  0.00    -0.028 C 
BRANCH   5   6
ATOM      6  C   UNL     1       3.939  29.504  58.091  1.00  0.00     0.005 C 
ATOM      7  C   UNL     1       3.288  28.170  57.711  1.00  0.00     0.012 C 
ATOM      8  C   UNL     1       5.339  29.631  57.482  1.00  0.00     0.012 C 
ENDBRANCH   5   6
ENDBRANCH   3   4
ENDBRANCH   2   3
ENDBRANCH   1   2
BRANCH   1   9
ATOM      9  C   UNL     1       2.708  28.297  62.769  1.00  0.00     0.100 C 
BRANCH   9  10
ATOM     10  C   UNL     1       3.122  27.008  62.121  1.00  0.00     0.220 C 
ATOM     11  O   UNL     1       2.503  26.597  61.105  1.00  0.00    -0.275 OA
ATOM     12  N   UNL     1       4.232  26.264  62.640  1.00  0.00    -0.352 N 
ATOM     13  H   UNL     1       4.696  26.593  63.513  1.00  0.00     0.163 HD
BRANCH  12  14
ATOM     14  C   UNL     1       4.863  25.175  61.903  1.00  0.00     0.151 C 
BRANCH  14  15
ATOM     15  C   UNL     1       6.067  25.692  61.165  1.00  0.00    -0.025 A 
ATOM     16  C   UNL     1       7.360  25.387  61.622  1.00  0.00     0.056 A 
ATOM     17  C   UNL     1       5.910  26.517  60.041  1.00  0.00     0.009 A 
ATOM     18  C   UNL     1       8.494  25.866  60.937  1.00  0.00     0.160 A 
ATOM     19  C   UNL     1       7.030  26.988  59.352  1.00  0.00     0.050 A 
ATOM     20  C   UNL     1       8.318  26.661  59.788  1.00  0.00     0.157 A 
BRANCH  18  21
ATOM     21  O   UNL     1       9.800  25.578  61.366  1.00  0.00    -0.493 OA
ATOM     22  C   UNL     1      10.197  25.469  62.728  1.00  0.00     0.278 C 
ENDBRANCH  18  21
BRANCH  20  23
ATOM     23  O   UNL     1       9.413  27.138  59.067  1.00  0.00    -0.504 OA
ATOM     24  H   UNL     1      10.282  27.406  59.516  1.00  0.00     0.293 HD
ENDBRANCH  20  23
ENDBRANCH  14  15
ENDBRANCH  12  14
ENDBRANCH   9  10
ENDBRANCH   1   9
TORSDOF 10
ENDMDL
MODEL 2
REMARK VINA RESULT:    -4.489      4.145      7.005
REMARK INTER + INTRA:          -8.786
REMARK INTER:                  -8.125
REMARK INTRA:                  -0.661
REMARK UNBOUND:                -1.804
REMARK SMILES COc1cc(CNC(=O)CCCCC=CC(C)C)ccc1O
REMARK SMILES IDX 11 1 12 2 13 3 14 4 15 5 16 6 17 7 18 8 10 9 8 10 9 11 7 12
REMARK SMILES IDX 6 14 5 15 4 16 19 17 3 18 20 19 21 20 2 21 1 22 22 23
REMARK H PARENT 7 13 22 24
REMARK Flexibility Score: inf
ROOT
ATOM      1  C   UNL     1       3.592  28.746  58.517  1.00  0.00     0.010 C 
ENDROOT
BRANCH   1   2
ATOM      2  C   UNL     1       4.462  27.673  57.840  1.00  0.00     0.005 C 
BRANCH   2   3
ATOM      3  C   UNL     1       5.000  26.628  58.822  1.00  0.00     0.027 C 
BRANCH   3   4
ATOM      4  C   UNL     1       6.427  26.930  59.170  1.00  0.00    -0.031 C 
ATOM      5  C   UNL     1       7.103  26.197  60.067  1.00  0.00    -0.028 C 
BRANCH   5   6
ATOM      6  C   UNL     1       8.522  26.515  60.479  1.00  0.00     0.005 C 
ATOM      7  C   UNL     1       9.421  26.694  59.251  1.00  0.00     0.012 C 
ATOM      8  C   UNL     1       9.088  25.456  61.431  1.00  0.00     0.012 C 
ENDBRANCH   5   6
ENDBRANCH   3   4
ENDBRANCH   2   3
ENDBRANCH   1   2
BRANCH   1   9
ATOM      9  C   UNL     1       4.345  30.029  58.908  1.00  0.00     0.100 C 
BRANCH   9  10
ATOM     10  C   UNL     1       4.150  30.384  60.353  1.00  0.00     0.220 C 
ATOM     11  O   UNL     1       3.393  29.678  61.069  1.00  0.00    -0.275 OA
ATOM     12  N   UNL     1       4.841  31.504  60.920  1.00  0.00    -0.352 N 
ATOM     13  H   UNL     1       5.419  32.108  60.297  1.00  0.00     0.163 HD
BRANCH  12  14
ATOM     14  C   UNL     1       4.926  31.731  62.358  1.00  0.00     0.151 C 
BRANCH  14  15
ATOM     15  C   UNL     1       5.618  33.039  62.625  1.00  0.00    -0.025 A 
ATOM     16  C   UNL     1       6.880  33.298  62.065  1.00  0.00     0.056 A 
ATOM     17  C   UNL     1       5.029  33.994  63.468  1.00  0.00     0.009 A 
ATOM     18  C   UNL     1       7.536  34.521  62.308  1.00  0.00     0.160 A 
ATOM     19  C   UNL     1       5.670  35.212  63.707  1.00  0.00     0.050 A 
ATOM     20  C   UNL     1       6.913  35.484  63.126  1.00  0.00     0.157 A 
BRANCH  18  21
ATOM     21  O   UNL     1       8.797  34.812  61.764  1.00  0.00    -0.493 OA
ATOM     22  C   UNL     1       9.956  34.003  61.932  1.00  0.00     0.278 C 
ENDBRANCH  18  21
BRANCH  20  23
ATOM     23  O   UNL     1       7.517  36.716  63.376  1.00  0.00    -0.504 OA
ATOM     24  H   UNL     1       8.523  36.843  63.345  1.00  0.00     0.293 HD
ENDBRANCH  20  23
ENDBRANCH  14  15
ENDBRANCH  12  14
ENDBRANCH   9  10
ENDBRANCH   1   9
TORSDOF 10
ENDMDL
MODEL 3
REMARK VINA RESULT:    -4.463      4.117      6.964
REMARK INTER + INTRA:          -8.744
REMARK INTER:                  -7.852
REMARK INTRA:                  -0.892
REMARK UNBOUND:                -1.804
REMARK SMILES COc1cc(CNC(=O)CCCCC=CC(C)C)ccc1O
REMARK SMILES IDX 11 1 12 2 13 3 14 4 15 5 16 6 17 7 18 8 10 9 8 10 9 11 7 12
REMARK SMILES IDX 6 14 5 15 4 16 19 17 3 18 20 19 21 20 2 21 1 22 22 23
REMARK H PARENT 7 13 22 24
REMARK Flexibility Score: inf
ROOT
ATOM      1  C   UNL     1       4.567  29.923  58.532  1.00  0.00     0.010 C 
ENDROOT
BRANCH   1   2
ATOM      2  C   UNL     1       4.680  28.784  57.505  1.00  0.00     0.005 C 
BRANCH   2   3
ATOM      3  C   UNL     1       4.340  27.411  58.091  1.00  0.00     0.027 C 
BRANCH   3   4
ATOM      4  C   UNL     1       5.587  26.730  58.573  1.00  0.00    -0.031 C 
ATOM      5  C   UNL     1       5.967  26.784  59.858  1.00  0.00    -0.028 C 
BRANCH   5   6
ATOM      6  C   UNL     1       7.248  26.157  60.358  1.00  0.00     0.005 C 
ATOM      7  C   UNL     1       7.467  26.470  61.841  1.00  0.00     0.012 C 
ATOM      8  C   UNL     1       8.455  26.586  59.516  1.00  0.00     0.012 C 
ENDBRANCH   5   6
ENDBRANCH   3   4
ENDBRANCH   2   3
ENDBRANCH   1   2
BRANCH   1   9
ATOM      9  C   UNL     1       3.377  29.801  59.498  1.00  0.00     0.100 C 
BRANCH   9  10
ATOM     10  C   UNL     1       3.785  29.984  60.930  1.00  0.00     0.220 C 
ATOM     11  O   UNL     1       3.444  29.128  61.787  1.00  0.00    -0.275 OA
ATOM     12  N   UNL     1       4.578  31.114  61.315  1.00  0.00    -0.352 N 
ATOM     13  H   UNL     1       4.802  31.840  60.601  1.00  0.00     0.163 HD
BRANCH  12  14
ATOM     14  C   UNL     1       5.245  31.204  62.609  1.00  0.00     0.151 C 
BRANCH  14  15
ATOM     15  C   UNL     1       6.027  32.486  62.689  1.00  0.00    -0.025 A 
ATOM     16  C   UNL     1       5.516  33.662  62.114  1.00  0.00     0.056 A 
ATOM     17  C   UNL     1       7.290  32.509  63.298  1.00  0.00     0.009 A 
ATOM     18  C   UNL     1       6.241  34.868  62.184  1.00  0.00     0.160 A 
ATOM     19  C   UNL     1       8.011  33.703  63.378  1.00  0.00     0.050 A 
ATOM     20  C   UNL     1       7.490  34.882  62.834  1.00  0.00     0.157 A 
BRANCH  18  21
ATOM     21  O   UNL     1       5.759  36.061  61.621  1.00  0.00    -0.493 OA
ATOM     22  C   UNL     1       4.823  36.930  62.250  1.00  0.00     0.278 C 
ENDBRANCH  18  21
BRANCH  20  23
ATOM     23  O   UNL     1       8.232  36.059  62.945  1.00  0.00    -0.504 OA
ATOM     24  H   UNL     1       8.547  36.418  63.839  1.00  0.00     0.293 HD
ENDBRANCH  20  23
ENDBRANCH  14  15
ENDBRANCH  12  14
ENDBRANCH   9  10
ENDBRANCH   1   9
TORSDOF 10
ENDMDL
MODEL 4
REMARK VINA RESULT:    -4.439      2.345      3.990
REMARK INTER + INTRA:          -8.707
REMARK INTER:                  -7.351
REMARK INTRA:                  -1.356
REMARK UNBOUND:                -1.804
REMARK SMILES COc1cc(CNC(=O)CCCCC=CC(C)C)ccc1O
REMARK SMILES IDX 11 1 12 2 13 3 14 4 15 5 16 6 17 7 18 8 10 9 8 10 9 11 7 12
REMARK SMILES IDX 6 14 5 15 4 16 19 17 3 18 20 19 21 20 2 21 1 22 22 23
REMARK H PARENT 7 13 22 24
REMARK Flexibility Score: inf
ROOT
ATOM      1  C   UNL     1       3.129  29.699  60.092  1.00  0.00     0.010 C 
ENDROOT
BRANCH   1   2
ATOM      2  C   UNL     1       4.390  30.399  60.627  1.00  0.00     0.005 C 
BRANCH   2   3
ATOM      3  C   UNL     1       4.486  30.379  62.155  1.00  0.00     0.027 C 
BRANCH   3   4
ATOM      4  C   UNL     1       5.223  31.591  62.643  1.00  0.00    -0.031 C 
ATOM      5  C   UNL     1       5.480  32.632  61.837  1.00  0.00    -0.028 C 
BRANCH   5   6
ATOM      6  C   UNL     1       6.272  33.838  62.287  1.00  0.00     0.005 C 
ATOM      7  C   UNL     1       7.775  33.544  62.267  1.00  0.00     0.012 C 
ATOM      8  C   UNL     1       5.821  34.330  63.667  1.00  0.00     0.012 C 
ENDBRANCH   5   6
ENDBRANCH   3   4
ENDBRANCH   2   3
ENDBRANCH   1   2
BRANCH   1   9
ATOM      9  C   UNL     1       3.136  29.435  58.577  1.00  0.00     0.100 C 
BRANCH   9  10
ATOM     10  C   UNL     1       4.152  28.402  58.185  1.00  0.00     0.220 C 
ATOM     11  O   UNL     1       4.983  28.663  57.276  1.00  0.00    -0.275 OA
ATOM     12  N   UNL     1       4.192  27.138  58.858  1.00  0.00    -0.352 N 
ATOM     13  H   UNL     1       3.461  26.921  59.568  1.00  0.00     0.163 HD
BRANCH  12  14
ATOM     14  C   UNL     1       5.314  26.215  58.733  1.00  0.00     0.151 C 
BRANCH  14  15
ATOM     15  C   UNL     1       6.341  26.517  59.789  1.00  0.00    -0.025 A 
ATOM     16  C   UNL     1       7.709  26.502  59.469  1.00  0.00     0.056 A 
ATOM     17  C   UNL     1       5.945  26.774  61.110  1.00  0.00     0.009 A 
ATOM     18  C   UNL     1       8.679  26.785  60.451  1.00  0.00     0.160 A 
ATOM     19  C   UNL     1       6.901  27.064  62.087  1.00  0.00     0.050 A 
ATOM     20  C   UNL     1       8.261  27.079  61.763  1.00  0.00     0.157 A 
BRANCH  18  21
ATOM     21  O   UNL     1      10.053  26.780  60.165  1.00  0.00    -0.493 OA
ATOM     22  C   UNL     1      10.744  25.705  59.538  1.00  0.00     0.278 C 
ENDBRANCH  18  21
BRANCH  20  23
ATOM     23  O   UNL     1       9.187  27.386  62.762  1.00  0.00    -0.504 OA
ATOM     24  H   UNL     1       8.905  27.642  63.701  1.00  0.00     0.293 HD
ENDBRANCH  20  23
ENDBRANCH  14  15
ENDBRANCH  12  14
ENDBRANCH   9  10
ENDBRANCH   1   9
TORSDOF 10
ENDMDL
MODEL 5
REMARK VINA RESULT:    -4.368      1.802      5.221
REMARK INTER + INTRA:          -8.598
REMARK INTER:                  -6.648
REMARK INTRA:                  -1.950
REMARK UNBOUND:                -1.804
REMARK SMILES COc1cc(CNC(=O)CCCCC=CC(C)C)ccc1O
REMARK SMILES IDX 11 1 12 2 13 3 14 4 15 5 16 6 17 7 18 8 10 9 8 10 9 11 7 12
REMARK SMILES IDX 6 14 5 15 4 16 19 17 3 18 20 19 21 20 2 21 1 22 22 23
REMARK H PARENT 7 13 22 24
REMARK Flexibility Score: inf
ROOT
ATOM      1  C   UNL     1       8.478  25.872  60.749  1.00  0.00     0.010 C 
ENDROOT
BRANCH   1   2
ATOM      2  C   UNL     1       7.631  26.423  59.590  1.00  0.00     0.005 C 
BRANCH   2   3
ATOM      3  C   UNL     1       6.197  25.884  59.585  1.00  0.00     0.027 C 
BRANCH   3   4
ATOM      4  C   UNL     1       5.267  26.892  58.977  1.00  0.00    -0.031 C 
ATOM      5  C   UNL     1       5.672  28.136  58.682  1.00  0.00    -0.028 C 
BRANCH   5   6
ATOM      6  C   UNL     1       4.740  29.187  58.125  1.00  0.00     0.005 C 
ATOM      7  C   UNL     1       4.480  30.289  59.157  1.00  0.00     0.012 C 
ATOM      8  C   UNL     1       3.427  28.575  57.625  1.00  0.00     0.012 C 
ENDBRANCH   5   6
ENDBRANCH   3   4
ENDBRANCH   2   3
ENDBRANCH   1   2
BRANCH   1   9
ATOM      9  C   UNL     1       9.061  26.946  61.684  1.00  0.00     0.100 C 
BRANCH   9  10
ATOM     10  C   UNL     1       8.123  27.297  62.801  1.00  0.00     0.220 C 
ATOM     11  O   UNL     1       8.234  28.409  63.379  1.00  0.00    -0.275 OA
ATOM     12  N   UNL     1       7.091  26.382  63.191  1.00  0.00    -0.352 N 
ATOM     13  H   UNL     1       7.050  25.444  62.737  1.00  0.00     0.163 HD
BRANCH  12  14
ATOM     14  C   UNL     1       5.981  26.768  64.055  1.00  0.00     0.151 C 
BRANCH  14  15
ATOM     15  C   UNL     1       4.839  27.275  63.220  1.00  0.00    -0.025 A 
ATOM     16  C   UNL     1       4.051  26.377  62.482  1.00  0.00     0.056 A 
ATOM     17  C   UNL     1       4.578  28.651  63.136  1.00  0.00     0.009 A 
ATOM     18  C   UNL     1       2.977  26.843  61.696  1.00  0.00     0.160 A 
ATOM     19  C   UNL     1       3.511  29.119  62.366  1.00  0.00     0.050 A 
ATOM     20  C   UNL     1       2.705  28.224  61.655  1.00  0.00     0.157 A 
BRANCH  18  21
ATOM     21  O   UNL     1       2.169  25.972  60.947  1.00  0.00    -0.493 OA
ATOM     22  C   UNL     1       1.101  25.200  61.484  1.00  0.00     0.278 C 
ENDBRANCH  18  21
BRANCH  20  23
ATOM     23  O   UNL     1       1.640  28.726  60.907  1.00  0.00    -0.504 OA
ATOM     24  H   UNL     1       1.437  29.718  60.850  1.00  0.00     0.293 HD
ENDBRANCH  20  23
ENDBRANCH  14  15
ENDBRANCH  12  14
ENDBRANCH   9  10
ENDBRANCH   1   9
TORSDOF 10
ENDMDL
MODEL 6
REMARK VINA RESULT:    -4.368      2.743      5.066
REMARK INTER + INTRA:          -8.598
REMARK INTER:                  -6.927
REMARK INTRA:                  -1.671
REMARK UNBOUND:                -1.804
REMARK SMILES COc1cc(CNC(=O)CCCCC=CC(C)C)ccc1O
REMARK SMILES IDX 11 1 12 2 13 3 14 4 15 5 16 6 17 7 18 8 10 9 8 10 9 11 7 12
REMARK SMILES IDX 6 14 5 15 4 16 19 17 3 18 20 19 21 20 2 21 1 22 22 23
REMARK H PARENT 7 13 22 24
REMARK Flexibility Score: inf
ROOT
ATOM      1  C   UNL     1       6.432  25.252  61.726  1.00  0.00     0.010 C 
ENDROOT
BRANCH   1   2
ATOM      2  C   UNL     1       6.945  26.628  61.269  1.00  0.00     0.005 C 
BRANCH   2   3
ATOM      3  C   UNL     1       7.584  26.600  59.878  1.00  0.00     0.027 C 
BRANCH   3   4
ATOM      4  C   UNL     1       6.775  27.423  58.919  1.00  0.00    -0.031 C 
ATOM      5  C   UNL     1       5.441  27.304  58.841  1.00  0.00    -0.028 C 
BRANCH   5   6
ATOM      6  C   UNL     1       4.610  28.078  57.844  1.00  0.00     0.005 C 
ATOM      7  C   UNL     1       5.237  29.445  57.552  1.00  0.00     0.012 C 
ATOM      8  C   UNL     1       3.156  28.222  58.307  1.00  0.00     0.012 C 
ENDBRANCH   5   6
ENDBRANCH   3   4
ENDBRANCH   2   3
ENDBRANCH   1   2
BRANCH   1   9
ATOM      9  C   UNL     1       4.909  25.171  61.929  1.00  0.00     0.100 C 
BRANCH   9  10
ATOM     10  C   UNL     1       4.417  26.161  62.943  1.00  0.00     0.220 C 
ATOM     11  O   UNL     1       4.724  26.013  64.155  1.00  0.00    -0.275 OA
ATOM     12  N   UNL     1       3.623  27.280  62.532  1.00  0.00    -0.352 N 
ATOM     13  H   UNL     1       3.333  27.353  61.533  1.00  0.00     0.163 HD
BRANCH  12  14
ATOM     14  C   UNL     1       3.357  28.419  63.402  1.00  0.00     0.151 C 
BRANCH  14  15
ATOM     15  C   UNL     1       3.994  29.655  62.830  1.00  0.00    -0.025 A 
ATOM     16  C   UNL     1       4.545  30.626  63.684  1.00  0.00     0.056 A 
ATOM     17  C   UNL     1       4.006  29.870  61.444  1.00  0.00     0.009 A 
ATOM     18  C   UNL     1       5.145  31.787  63.158  1.00  0.00     0.160 A 
ATOM     19  C   UNL     1       4.607  31.016  60.915  1.00  0.00     0.050 A 
ATOM     20  C   UNL     1       5.183  31.968  61.763  1.00  0.00     0.157 A 
BRANCH  18  21
ATOM     21  O   UNL     1       5.705  32.775  63.983  1.00  0.00    -0.493 OA
ATOM     22  C   UNL     1       5.711  32.732  65.406  1.00  0.00     0.278 C 
ENDBRANCH  18  21
BRANCH  20  23
ATOM     23  O   UNL     1       5.787  33.092  61.198  1.00  0.00    -0.504 OA
ATOM     24  H   UNL     1       5.961  33.171  60.203  1.00  0.00     0.293 HD
ENDBRANCH  20  23
ENDBRANCH  14  15
ENDBRANCH  12  14
ENDBRANCH   9  10
ENDBRANCH   1   9
TORSDOF 10
ENDMDL
MODEL 7
REMARK VINA RESULT:    -4.272      2.104      4.944
REMARK INTER + INTRA:          -8.448
REMARK INTER:                  -6.505
REMARK INTRA:                  -1.943
REMARK UNBOUND:                -1.804
REMARK SMILES COc1cc(CNC(=O)CCCCC=CC(C)C)ccc1O
REMARK SMILES IDX 11 1 12 2 13 3 14 4 15 5 16 6 17 7 18 8 10 9 8 10 9 11 7 12
REMARK SMILES IDX 6 14 5 15 4 16 19 17 3 18 20 19 21 20 2 21 1 22 22 23
REMARK H PARENT 7 13 22 24
REMARK Flexibility Score: inf
ROOT
ATOM      1  C   UNL     1       8.134  25.374  61.499  1.00  0.00     0.010 C 
ENDROOT
BRANCH   1   2
ATOM      2  C   UNL     1       7.072  26.275  60.846  1.00  0.00     0.005 C 
BRANCH   2   3
ATOM      3  C   UNL     1       6.179  25.528  59.852  1.00  0.00     0.027 C 
BRANCH   3   4
ATOM      4  C   UNL     1       5.458  26.504  58.969  1.00  0.00    -0.031 C 
ATOM      5  C   UNL     1       5.774  27.807  58.953  1.00  0.00    -0.028 C 
BRANCH   5   6
ATOM      6  C   UNL     1       5.025  28.819  58.118  1.00  0.00     0.005 C 
ATOM      7  C   UNL     1       4.764  30.101  58.916  1.00  0.00     0.012 C 
ATOM      8  C   UNL     1       3.722  28.240  57.558  1.00  0.00     0.012 C 
ENDBRANCH   5   6
ENDBRANCH   3   4
ENDBRANCH   2   3
ENDBRANCH   1   2
BRANCH   1   9
ATOM      9  C   UNL     1       7.566  24.170  62.270  1.00  0.00     0.100 C 
BRANCH   9  10
ATOM     10  C   UNL     1       6.421  24.553  63.161  1.00  0.00     0.220 C 
ATOM     11  O   UNL     1       6.626  25.315  64.142  1.00  0.00    -0.275 OA
ATOM     12  N   UNL     1       5.099  24.076  62.882  1.00  0.00    -0.352 N 
ATOM     13  H   UNL     1       4.960  23.403  62.099  1.00  0.00     0.163 HD
BRANCH  12  14
ATOM     14  C   UNL     1       3.911  24.630  63.521  1.00  0.00     0.151 C 
BRANCH  14  15
ATOM     15  C   UNL     1       3.422  25.818  62.740  1.00  0.00    -0.025 A 
ATOM     16  C   UNL     1       3.686  27.120  63.196  1.00  0.00     0.056 A 
ATOM     17  C   UNL     1       2.661  25.637  61.576  1.00  0.00     0.009 A 
ATOM     18  C   UNL     1       3.233  28.240  62.471  1.00  0.00     0.160 A 
ATOM     19  C   UNL     1       2.216  26.743  60.847  1.00  0.00     0.050 A 
ATOM     20  C   UNL     1       2.504  28.040  61.283  1.00  0.00     0.157 A 
BRANCH  18  21
ATOM     21  O   UNL     1       3.481  29.555  62.898  1.00  0.00    -0.493 OA
ATOM     22  C   UNL     1       4.676  30.280  62.628  1.00  0.00     0.278 C 
ENDBRANCH  18  21
BRANCH  20  23
ATOM     23  O   UNL     1       2.055  29.120  60.523  1.00  0.00    -0.504 OA
ATOM     24  H   UNL     1       1.389  29.795  60.881  1.00  0.00     0.293 HD
ENDBRANCH  20  23
ENDBRANCH  14  15
ENDBRANCH  12  14
ENDBRANCH   9  10
ENDBRANCH   1   9
TORSDOF 10
ENDMDL
MODEL 8
REMARK VINA RESULT:    -4.172      3.685      7.803
REMARK INTER + INTRA:          -8.293
REMARK INTER:                  -7.575
REMARK INTRA:                  -0.718
REMARK UNBOUND:                -1.804
REMARK SMILES COc1cc(CNC(=O)CCCCC=CC(C)C)ccc1O
REMARK SMILES IDX 11 1 12 2 13 3 14 4 15 5 16 6 17 7 18 8 10 9 8 10 9 11 7 12
REMARK SMILES IDX 6 14 5 15 4 16 19 17 3 18 20 19 21 20 2 21 1 22 22 23
REMARK H PARENT 7 13 22 24
REMARK Flexibility Score: inf
ROOT
ATOM      1  C   UNL     1      10.328  26.422  59.195  1.00  0.00     0.010 C 
ENDROOT
BRANCH   1   2
ATOM      2  C   UNL     1      11.006  25.045  59.301  1.00  0.00     0.005 C 
BRANCH   2   3
ATOM      3  C   UNL     1      11.991  24.771  58.161  1.00  0.00     0.027 C 
BRANCH   3   4
ATOM      4  C   UNL     1      12.442  23.341  58.198  1.00  0.00    -0.031 C 
ATOM      5  C   UNL     1      12.640  22.695  59.356  1.00  0.00    -0.028 C 
BRANCH   5   6
ATOM      6  C   UNL     1      13.151  21.274  59.421  1.00  0.00     0.005 C 
ATOM      7  C   UNL     1      12.601  20.441  58.259  1.00  0.00     0.012 C 
ATOM      8  C   UNL     1      12.836  20.619  60.770  1.00  0.00     0.012 C 
ENDBRANCH   5   6
ENDBRANCH   3   4
ENDBRANCH   2   3
ENDBRANCH   1   2
BRANCH   1   9
ATOM      9  C   UNL     1       9.854  27.008  60.536  1.00  0.00     0.100 C 
BRANCH   9  10
ATOM     10  C   UNL     1       8.449  26.600  60.870  1.00  0.00     0.220 C 
ATOM     11  O   UNL     1       8.034  26.714  62.053  1.00  0.00    -0.275 OA
ATOM     12  N   UNL     1       7.578  26.108  59.844  1.00  0.00    -0.352 N 
ATOM     13  H   UNL     1       7.958  25.969  58.883  1.00  0.00     0.163 HD
BRANCH  12  14
ATOM     14  C   UNL     1       6.138  25.969  60.033  1.00  0.00     0.151 C 
BRANCH  14  15
ATOM     15  C   UNL     1       5.426  27.107  59.357  1.00  0.00    -0.025 A 
ATOM     16  C   UNL     1       5.282  28.341  60.014  1.00  0.00     0.056 A 
ATOM     17  C   UNL     1       4.861  26.934  58.085  1.00  0.00     0.009 A 
ATOM     18  C   UNL     1       4.617  29.414  59.388  1.00  0.00     0.160 A 
ATOM     19  C   UNL     1       4.207  27.996  57.455  1.00  0.00     0.050 A 
ATOM     20  C   UNL     1       4.090  29.235  58.095  1.00  0.00     0.157 A 
BRANCH  18  21
ATOM     21  O   UNL     1       4.457  30.660  60.016  1.00  0.00    -0.493 OA
ATOM     22  C   UNL     1       4.603  30.885  61.413  1.00  0.00     0.278 C 
ENDBRANCH  18  21
BRANCH  20  23
ATOM     23  O   UNL     1       3.442  30.277  57.430  1.00  0.00    -0.504 OA
ATOM     24  H   UNL     1       2.433  30.321  57.345  1.00  0.00     0.293 HD
ENDBRANCH  20  23
ENDBRANCH  14  15
ENDBRANCH  12  14
ENDBRANCH   9  10
ENDBRANCH   1   9
TORSDOF 10
ENDMDL
MODEL 9
REMARK VINA RESULT:    -4.151      1.748      2.023
REMARK INTER + INTRA:          -8.259
REMARK INTER:                  -7.054
REMARK INTRA:                  -1.205
REMARK UNBOUND:                -1.804
REMARK SMILES COc1cc(CNC(=O)CCCCC=CC(C)C)ccc1O
REMARK SMILES IDX 11 1 12 2 13 3 14 4 15 5 16 6 17 7 18 8 10 9 8 10 9 11 7 12
REMARK SMILES IDX 6 14 5 15 4 16 19 17 3 18 20 19 21 20 2 21 1 22 22 23
REMARK H PARENT 7 13 22 24
REMARK Flexibility Score: inf
ROOT
ATOM      1  C   UNL     1       3.654  28.795  62.835  1.00  0.00     0.010 C 
ENDROOT
BRANCH   1   2
ATOM      2  C   UNL     1       4.852  29.617  62.329  1.00  0.00     0.005 C 
BRANCH   2   3
ATOM      3  C   UNL     1       4.446  30.755  61.388  1.00  0.00     0.027 C 
BRANCH   3   4
ATOM      4  C   UNL     1       4.465  30.283  59.965  1.00  0.00    -0.031 C 
ATOM      5  C   UNL     1       3.384  29.733  59.391  1.00  0.00    -0.028 C 
BRANCH   5   6
ATOM      6  C   UNL     1       3.395  29.195  57.978  1.00  0.00     0.005 C 
ATOM      7  C   UNL     1       4.058  27.816  57.923  1.00  0.00     0.012 C 
ATOM      8  C   UNL     1       4.062  30.172  57.004  1.00  0.00     0.012 C 
ENDBRANCH   5   6
ENDBRANCH   3   4
ENDBRANCH   2   3
ENDBRANCH   1   2
BRANCH   1   9
ATOM      9  C   UNL     1       3.488  27.422  62.162  1.00  0.00     0.100 C 
BRANCH   9  10
ATOM     10  C   UNL     1       4.772  26.645  62.133  1.00  0.00     0.220 C 
ATOM     11  O   UNL     1       5.228  26.160  63.201  1.00  0.00    -0.275 OA
ATOM     12  N   UNL     1       5.460  26.436  60.894  1.00  0.00    -0.352 N 
ATOM     13  H   UNL     1       5.095  26.892  60.030  1.00  0.00     0.163 HD
BRANCH  12  14
ATOM     14  C   UNL     1       6.537  25.464  60.746  1.00  0.00     0.151 C 
BRANCH  14  15
ATOM     15  C   UNL     1       7.859  26.177  60.684  1.00  0.00    -0.025 A 
ATOM     16  C   UNL     1       8.432  26.705  61.854  1.00  0.00     0.056 A 
ATOM     17  C   UNL     1       8.511  26.358  59.456  1.00  0.00     0.009 A 
ATOM     18  C   UNL     1       9.671  27.374  61.807  1.00  0.00     0.160 A 
ATOM     19  C   UNL     1       9.744  27.013  59.403  1.00  0.00     0.050 A 
ATOM     20  C   UNL     1      10.330  27.513  60.571  1.00  0.00     0.157 A 
BRANCH  18  21
ATOM     21  O   UNL     1      10.271  27.912  62.957  1.00  0.00    -0.493 OA
ATOM     22  C   UNL     1       9.702  28.941  63.759  1.00  0.00     0.278 C 
ENDBRANCH  18  21
BRANCH  20  23
ATOM     23  O   UNL     1      11.569  28.149  60.482  1.00  0.00    -0.504 OA
ATOM     24  H   UNL     1      12.271  28.073  61.210  1.00  0.00     0.293 HD
ENDBRANCH  20  23
ENDBRANCH  14  15
ENDBRANCH  12  14
ENDBRANCH   9  10
ENDBRANCH   1   9
TORSDOF 10
ENDMDL
