MODEL 1
REMARK VINA RESULT:    -3.314      0.000      0.000
REMARK INTER + INTRA:          -8.823
REMARK INTER:                  -6.413
REMARK INTRA:                  -2.410
REMARK UNBOUND:                -2.410
REMARK SMILES CCCCCCCCCCCCCCCCCC(=O)[O-]
REMARK SMILES IDX 10 1 11 2 12 3 13 4 14 5 15 6 16 7 17 8 18 9 19 10 20 11
REMARK SMILES IDX 9 12 8 13 7 14 6 15 5 16 4 17 3 18 2 19 1 20
REMARK H PARENT
REMARK Flexibility Score: inf
ROOT
ATOM      1  C   UNL     1      57.911  25.359  51.522  1.00  0.00     0.000 C 
ENDROOT
BRANCH   1   2
ATOM      2  C   UNL     1      58.619  25.504  50.159  1.00  0.00     0.000 C 
BRANCH   2   3
ATOM      3  C   UNL     1      60.146  25.708  50.263  1.00  0.00     0.000 C 
BRANCH   3   4
ATOM      4  C   UNL     1      60.571  27.147  49.920  1.00  0.00     0.000 C 
BRANCH   4   5
ATOM      5  C   UNL     1      59.461  27.948  49.219  1.00  0.00     0.000 C 
BRANCH   5   6
ATOM      6  C   UNL     1      59.170  29.289  49.914  1.00  0.00     0.000 C 
BRANCH   6   7
ATOM      7  C   UNL     1      57.842  29.271  50.691  1.00  0.00     0.006 C 
BRANCH   7   8
ATOM      8  C   UNL     1      58.019  28.818  52.146  1.00  0.00     0.053 C 
BRANCH   8   9
ATOM      9  C   UNL     1      57.880  29.981  53.076  1.00  0.00     0.041 C 
ATOM     10  O   UNL     1      57.510  29.798  54.266  1.00  0.00    -0.550 OA
ATOM     11  O   UNL     1      58.111  31.272  52.616  1.00  0.00    -0.550 OA
ENDBRANCH   8   9
ENDBRANCH   7   8
ENDBRANCH   6   7
ENDBRANCH   5   6
ENDBRANCH   4   5
ENDBRANCH   3   4
ENDBRANCH   2   3
ENDBRANCH   1   2
BRANCH   1  12
ATOM     12  C   UNL     1      56.378  25.492  51.480  1.00  0.00     0.000 C 
BRANCH  12  13
ATOM     13  C   UNL     1      55.849  25.878  50.089  1.00  0.00    -0.000 C 
BRANCH  13  14
ATOM     14  C   UNL     1      54.527  25.154  49.784  1.00  0.00    -0.000 C 
BRANCH  14  15
ATOM     15  C   UNL     1      53.397  26.116  49.371  1.00  0.00    -0.000 C 
BRANCH  15  16
ATOM     16  C   UNL     1      52.876  27.022  50.502  1.00  0.00    -0.000 C 
BRANCH  16  17
ATOM     17  C   UNL     1      52.960  28.517  50.152  1.00  0.00    -0.000 C 
BRANCH  17  18
ATOM     18  C   UNL     1      54.255  29.171  50.663  1.00  0.00    -0.000 C 
BRANCH  18  19
ATOM     19  C   UNL     1      54.408  29.061  52.186  1.00  0.00    -0.003 C 
ATOM     20  C   UNL     1      53.328  29.865  52.905  1.00  0.00     0.004 C 
ENDBRANCH  18  19
ENDBRANCH  17  18
ENDBRANCH  16  17
ENDBRANCH  15  16
ENDBRANCH  14  15
ENDBRANCH  13  14
ENDBRANCH  12  13
ENDBRANCH   1  12
TORSDOF 16
ENDMDL
MODEL 2
REMARK VINA RESULT:    -3.294      1.958      2.415
REMARK INTER + INTRA:          -8.785
REMARK INTER:                  -6.055
REMARK INTRA:                  -2.730
REMARK UNBOUND:                -2.410
REMARK SMILES CCCCCCCCCCCCCCCCCC(=O)[O-]
REMARK SMILES IDX 10 1 11 2 12 3 13 4 14 5 15 6 16 7 17 8 18 9 19 10 20 11
REMARK SMILES IDX 9 12 8 13 7 14 6 15 5 16 4 17 3 18 2 19 1 20
REMARK H PARENT
REMARK Flexibility Score: inf
ROOT
ATOM      1  C   UNL     1      57.218  25.360  51.579  1.00  0.00     0.000 C 
ENDROOT
BRANCH   1   2
ATOM      2  C   UNL     1      58.044  25.807  50.355  1.00  0.00     0.000 C 
BRANCH   2   3
ATOM      3  C   UNL     1      59.498  26.206  50.690  1.00  0.00     0.000 C 
BRANCH   3   4
ATOM      4  C   UNL     1      60.107  27.147  49.636  1.00  0.00     0.000 C 
BRANCH   4   5
ATOM      5  C   UNL     1      59.154  28.282  49.225  1.00  0.00     0.000 C 
BRANCH   5   6
ATOM      6  C   UNL     1      59.416  29.584  50.000  1.00  0.00     0.000 C 
BRANCH   6   7
ATOM      7  C   UNL     1      60.855  29.666  50.541  1.00  0.00     0.006 C 
BRANCH   7   8
ATOM      8  C   UNL     1      60.902  29.986  52.040  1.00  0.00     0.053 C 
BRANCH   8   9
ATOM      9  C   UNL     1      61.319  28.780  52.819  1.00  0.00     0.041 C 
ATOM     10  O   UNL     1      60.819  28.554  53.953  1.00  0.00    -0.550 OA
ATOM     11  O   UNL     1      62.296  27.929  52.315  1.00  0.00    -0.550 OA
ENDBRANCH   8   9
ENDBRANCH   7   8
ENDBRANCH   6   7
ENDBRANCH   5   6
ENDBRANCH   4   5
ENDBRANCH   3   4
ENDBRANCH   2   3
ENDBRANCH   1   2
BRANCH   1  12
ATOM     12  C   UNL     1      55.700  25.273  51.346  1.00  0.00     0.000 C 
BRANCH  12  13
ATOM     13  C   UNL     1      55.300  25.554  49.888  1.00  0.00    -0.000 C 
BRANCH  13  14
ATOM     14  C   UNL     1      53.956  26.297  49.821  1.00  0.00    -0.000 C 
BRANCH  14  15
ATOM     15  C   UNL     1      53.819  27.389  50.899  1.00  0.00    -0.000 C 
BRANCH  15  16
ATOM     16  C   UNL     1      53.469  28.788  50.359  1.00  0.00    -0.000 C 
BRANCH  16  17
ATOM     17  C   UNL     1      54.577  29.821  50.624  1.00  0.00    -0.000 C 
BRANCH  17  18
ATOM     18  C   UNL     1      55.928  29.165  50.955  1.00  0.00    -0.000 C 
BRANCH  18  19
ATOM     19  C   UNL     1      56.532  29.690  52.264  1.00  0.00    -0.003 C 
ATOM     20  C   UNL     1      57.382  28.619  52.943  1.00  0.00     0.004 C 
ENDBRANCH  18  19
ENDBRANCH  17  18
ENDBRANCH  16  17
ENDBRANCH  15  16
ENDBRANCH  14  15
ENDBRANCH  13  14
ENDBRANCH  12  13
ENDBRANCH   1  12
TORSDOF 16
ENDMDL
MODEL 3
REMARK VINA RESULT:    -3.287      9.603     11.939
REMARK INTER + INTRA:          -8.772
REMARK INTER:                  -5.916
REMARK INTRA:                  -2.856
REMARK UNBOUND:                -2.410
REMARK SMILES CCCCCCCCCCCCCCCCCC(=O)[O-]
REMARK SMILES IDX 10 1 11 2 12 3 13 4 14 5 15 6 16 7 17 8 18 9 19 10 20 11
REMARK SMILES IDX 9 12 8 13 7 14 6 15 5 16 4 17 3 18 2 19 1 20
REMARK H PARENT
REMARK Flexibility Score: inf
ROOT
ATOM      1  C   UNL     1      60.967  31.005  60.674  1.00  0.00     0.000 C 
ENDROOT
BRANCH   1   2
ATOM      2  C   UNL     1      61.816  30.304  61.755  1.00  0.00     0.000 C 
BRANCH   2   3
ATOM      3  C   UNL     1      62.711  29.169  61.211  1.00  0.00     0.000 C 
BRANCH   3   4
ATOM      4  C   UNL     1      62.091  27.777  61.427  1.00  0.00     0.000 C 
BRANCH   4   5
ATOM      5  C   UNL     1      61.717  27.078  60.110  1.00  0.00     0.000 C 
BRANCH   5   6
ATOM      6  C   UNL     1      60.248  27.310  59.713  1.00  0.00     0.000 C 
BRANCH   6   7
ATOM      7  C   UNL     1      59.313  27.365  60.933  1.00  0.00     0.006 C 
BRANCH   7   8
ATOM      8  C   UNL     1      58.286  28.500  60.836  1.00  0.00     0.053 C 
BRANCH   8   9
ATOM      9  C   UNL     1      56.907  27.981  61.090  1.00  0.00     0.041 C 
ATOM     10  O   UNL     1      56.423  27.083  60.351  1.00  0.00    -0.550 OA
ATOM     11  O   UNL     1      56.138  28.520  62.114  1.00  0.00    -0.550 OA
ENDBRANCH   8   9
ENDBRANCH   7   8
ENDBRANCH   6   7
ENDBRANCH   5   6
ENDBRANCH   4   5
ENDBRANCH   3   4
ENDBRANCH   2   3
ENDBRANCH   1   2
BRANCH   1  12
ATOM     12  C   UNL     1      61.386  30.715  59.223  1.00  0.00     0.000 C 
BRANCH  12  13
ATOM     13  C   UNL     1      60.785  31.709  58.216  1.00  0.00    -0.000 C 
BRANCH  13  14
ATOM     14  C   UNL     1      60.174  32.921  58.939  1.00  0.00    -0.000 C 
BRANCH  14  15
ATOM     15  C   UNL     1      61.046  34.186  58.832  1.00  0.00    -0.000 C 
BRANCH  15  16
ATOM     16  C   UNL     1      61.242  34.949  60.155  1.00  0.00    -0.000 C 
BRANCH  16  17
ATOM     17  C   UNL     1      62.603  34.659  60.812  1.00  0.00    -0.000 C 
BRANCH  17  18
ATOM     18  C   UNL     1      63.557  33.897  59.877  1.00  0.00    -0.000 C 
BRANCH  18  19
ATOM     19  C   UNL     1      64.357  32.812  60.610  1.00  0.00    -0.003 C 
ATOM     20  C   UNL     1      64.874  31.759  59.634  1.00  0.00     0.004 C 
ENDBRANCH  18  19
ENDBRANCH  17  18
ENDBRANCH  16  17
ENDBRANCH  15  16
ENDBRANCH  14  15
ENDBRANCH  13  14
ENDBRANCH  12  13
ENDBRANCH   1  12
TORSDOF 16
ENDMDL
MODEL 4
REMARK VINA RESULT:    -3.274      9.917     12.735
REMARK INTER + INTRA:          -8.747
REMARK INTER:                  -5.917
REMARK INTRA:                  -2.830
REMARK UNBOUND:                -2.410
REMARK SMILES CCCCCCCCCCCCCCCCCC(=O)[O-]
REMARK SMILES IDX 10 1 11 2 12 3 13 4 14 5 15 6 16 7 17 8 18 9 19 10 20 11
REMARK SMILES IDX 9 12 8 13 7 14 6 15 5 16 4 17 3 18 2 19 1 20
REMARK H PARENT
REMARK Flexibility Score: inf
ROOT
ATOM      1  C   UNL     1      60.706  29.815  59.618  1.00  0.00     0.000 C 
ENDROOT
BRANCH   1   2
ATOM      2  C   UNL     1      60.590  30.645  58.324  1.00  0.00     0.000 C 
BRANCH   2   3
ATOM      3  C   UNL     1      59.904  32.015  58.516  1.00  0.00     0.000 C 
BRANCH   3   4
ATOM      4  C   UNL     1      60.843  33.192  58.198  1.00  0.00     0.000 C 
BRANCH   4   5
ATOM      5  C   UNL     1      61.900  33.426  59.289  1.00  0.00     0.000 C 
BRANCH   5   6
ATOM      6  C   UNL     1      61.425  34.409  60.373  1.00  0.00     0.000 C 
BRANCH   6   7
ATOM      7  C   UNL     1      62.546  35.355  60.839  1.00  0.00     0.006 C 
BRANCH   7   8
ATOM      8  C   UNL     1      63.885  34.632  61.024  1.00  0.00     0.053 C 
BRANCH   8   9
ATOM      9  C   UNL     1      64.993  35.621  61.202  1.00  0.00     0.041 C 
ATOM     10  O   UNL     1      65.845  35.788  60.290  1.00  0.00    -0.550 OA
ATOM     11  O   UNL     1      65.112  36.325  62.395  1.00  0.00    -0.550 OA
ENDBRANCH   8   9
ENDBRANCH   7   8
ENDBRANCH   6   7
ENDBRANCH   5   6
ENDBRANCH   4   5
ENDBRANCH   3   4
ENDBRANCH   2   3
ENDBRANCH   1   2
BRANCH   1  12
ATOM     12  C   UNL     1      60.195  30.512  60.891  1.00  0.00     0.000 C 
BRANCH  12  13
ATOM     13  C   UNL     1      61.305  30.758  61.926  1.00  0.00    -0.000 C 
BRANCH  13  14
ATOM     14  C   UNL     1      62.584  29.992  61.551  1.00  0.00    -0.000 C 
BRANCH  14  15
ATOM     15  C   UNL     1      63.757  30.923  61.190  1.00  0.00    -0.000 C 
BRANCH  15  16
ATOM     16  C   UNL     1      64.918  30.238  60.446  1.00  0.00    -0.000 C 
BRANCH  16  17
ATOM     17  C   UNL     1      65.397  31.041  59.225  1.00  0.00    -0.000 C 
BRANCH  17  18
ATOM     18  C   UNL     1      64.384  31.012  58.068  1.00  0.00    -0.000 C 
BRANCH  18  19
ATOM     19  C   UNL     1      64.594  32.161  57.072  1.00  0.00    -0.003 C 
ATOM     20  C   UNL     1      65.269  33.353  57.746  1.00  0.00     0.004 C 
ENDBRANCH  18  19
ENDBRANCH  17  18
ENDBRANCH  16  17
ENDBRANCH  15  16
ENDBRANCH  14  15
ENDBRANCH  13  14
ENDBRANCH  12  13
ENDBRANCH   1  12
TORSDOF 16
ENDMDL
MODEL 5
REMARK VINA RESULT:    -3.229      2.868      6.530
REMARK INTER + INTRA:          -8.660
REMARK INTER:                  -6.282
REMARK INTRA:                  -2.378
REMARK UNBOUND:                -2.410
REMARK SMILES CCCCCCCCCCCCCCCCCC(=O)[O-]
REMARK SMILES IDX 10 1 11 2 12 3 13 4 14 5 15 6 16 7 17 8 18 9 19 10 20 11
REMARK SMILES IDX 9 12 8 13 7 14 6 15 5 16 4 17 3 18 2 19 1 20
REMARK H PARENT
REMARK Flexibility Score: inf
ROOT
ATOM      1  C   UNL     1      56.150  28.959  51.997  1.00  0.00     0.000 C 
ENDROOT
BRANCH   1   2
ATOM      2  C   UNL     1      54.940  28.017  51.829  1.00  0.00     0.000 C 
BRANCH   2   3
ATOM      3  C   UNL     1      54.528  27.780  50.360  1.00  0.00     0.000 C 
BRANCH   3   4
ATOM      4  C   UNL     1      54.685  26.309  49.936  1.00  0.00     0.000 C 
BRANCH   4   5
ATOM      5  C   UNL     1      55.629  25.518  50.857  1.00  0.00     0.000 C 
BRANCH   5   6
ATOM      6  C   UNL     1      57.102  25.621  50.425  1.00  0.00     0.000 C 
BRANCH   6   7
ATOM      7  C   UNL     1      58.065  25.645  51.625  1.00  0.00     0.006 C 
BRANCH   7   8
ATOM      8  C   UNL     1      58.659  24.264  51.929  1.00  0.00     0.053 C 
BRANCH   8   9
ATOM      9  C   UNL     1      60.080  24.193  51.467  1.00  0.00     0.041 C 
ATOM     10  O   UNL     1      60.347  24.206  50.237  1.00  0.00    -0.550 OA
ATOM     11  O   UNL     1      61.107  24.067  52.395  1.00  0.00    -0.550 OA
ENDBRANCH   8   9
ENDBRANCH   7   8
ENDBRANCH   6   7
ENDBRANCH   5   6
ENDBRANCH   4   5
ENDBRANCH   3   4
ENDBRANCH   2   3
ENDBRANCH   1   2
BRANCH   1  12
ATOM     12  C   UNL     1      56.838  29.380  50.687  1.00  0.00     0.000 C 
BRANCH  12  13
ATOM     13  C   UNL     1      58.366  29.215  50.733  1.00  0.00    -0.000 C 
BRANCH  13  14
ATOM     14  C   UNL     1      58.926  28.894  49.338  1.00  0.00    -0.000 C 
BRANCH  14  15
ATOM     15  C   UNL     1      59.948  27.741  49.352  1.00  0.00    -0.000 C 
BRANCH  15  16
ATOM     16  C   UNL     1      60.921  27.757  50.544  1.00  0.00    -0.000 C 
BRANCH  16  17
ATOM     17  C   UNL     1      62.392  27.628  50.113  1.00  0.00    -0.000 C 
BRANCH  17  18
ATOM     18  C   UNL     1      63.064  28.994  49.899  1.00  0.00    -0.000 C 
BRANCH  18  19
ATOM     19  C   UNL     1      62.333  30.131  50.625  1.00  0.00    -0.003 C 
ATOM     20  C   UNL     1      62.522  31.458  49.895  1.00  0.00     0.004 C 
ENDBRANCH  18  19
ENDBRANCH  17  18
ENDBRANCH  16  17
ENDBRANCH  15  16
ENDBRANCH  14  15
ENDBRANCH  13  14
ENDBRANCH  12  13
ENDBRANCH   1  12
TORSDOF 16
ENDMDL
MODEL 6
REMARK VINA RESULT:    -3.227      2.694      4.738
REMARK INTER + INTRA:          -8.655
REMARK INTER:                  -6.267
REMARK INTRA:                  -2.388
REMARK UNBOUND:                -2.410
REMARK SMILES CCCCCCCCCCCCCCCCCC(=O)[O-]
REMARK SMILES IDX 10 1 11 2 12 3 13 4 14 5 15 6 16 7 17 8 18 9 19 10 20 11
REMARK SMILES IDX 9 12 8 13 7 14 6 15 5 16 4 17 3 18 2 19 1 20
REMARK H PARENT
REMARK Flexibility Score: inf
ROOT
ATOM      1  C   UNL     1      54.706  29.201  51.840  1.00  0.00     0.000 C 
ENDROOT
BRANCH   1   2
ATOM      2  C   UNL     1      56.239  29.314  51.960  1.00  0.00     0.000 C 
BRANCH   2   3
ATOM      3  C   UNL     1      56.983  29.226  50.610  1.00  0.00     0.000 C 
BRANCH   3   4
ATOM      4  C   UNL     1      58.497  29.463  50.756  1.00  0.00     0.000 C 
BRANCH   4   5
ATOM      5  C   UNL     1      59.315  28.817  49.627  1.00  0.00     0.000 C 
BRANCH   5   6
ATOM      6  C   UNL     1      59.257  27.280  49.658  1.00  0.00     0.000 C 
BRANCH   6   7
ATOM      7  C   UNL     1      60.638  26.645  49.900  1.00  0.00     0.006 C 
BRANCH   7   8
ATOM      8  C   UNL     1      61.708  27.685  50.254  1.00  0.00     0.053 C 
BRANCH   8   9
ATOM      9  C   UNL     1      63.029  27.295  49.671  1.00  0.00     0.041 C 
ATOM     10  O   UNL     1      63.727  26.405  50.225  1.00  0.00    -0.550 OA
ATOM     11  O   UNL     1      63.511  27.948  48.543  1.00  0.00    -0.550 OA
ENDBRANCH   8   9
ENDBRANCH   7   8
ENDBRANCH   6   7
ENDBRANCH   5   6
ENDBRANCH   4   5
ENDBRANCH   3   4
ENDBRANCH   2   3
ENDBRANCH   1   2
BRANCH   1  12
ATOM     12  C   UNL     1      54.155  29.272  50.405  1.00  0.00     0.000 C 
BRANCH  12  13
ATOM     13  C   UNL     1      53.354  28.021  50.009  1.00  0.00    -0.000 C 
BRANCH  13  14
ATOM     14  C   UNL     1      53.093  27.126  51.232  1.00  0.00    -0.000 C 
BRANCH  14  15
ATOM     15  C   UNL     1      53.728  25.729  51.100  1.00  0.00    -0.000 C 
BRANCH  15  16
ATOM     16  C   UNL     1      54.645  25.551  49.876  1.00  0.00    -0.000 C 
BRANCH  16  17
ATOM     17  C   UNL     1      56.132  25.748  50.213  1.00  0.00    -0.000 C 
BRANCH  17  18
ATOM     18  C   UNL     1      56.409  25.668  51.724  1.00  0.00    -0.000 C 
BRANCH  18  19
ATOM     19  C   UNL     1      57.600  24.760  52.058  1.00  0.00    -0.003 C 
ATOM     20  C   UNL     1      58.672  25.524  52.831  1.00  0.00     0.004 C 
ENDBRANCH  18  19
ENDBRANCH  17  18
ENDBRANCH  16  17
ENDBRANCH  15  16
ENDBRANCH  14  15
ENDBRANCH  13  14
ENDBRANCH  12  13
ENDBRANCH   1  12
TORSDOF 16
ENDMDL
MODEL 7
REMARK VINA RESULT:    -3.226      2.269      3.927
REMARK INTER + INTRA:          -8.653
REMARK INTER:                  -5.929
REMARK INTRA:                  -2.724
REMARK UNBOUND:                -2.410
REMARK SMILES CCCCCCCCCCCCCCCCCC(=O)[O-]
REMARK SMILES IDX 10 1 11 2 12 3 13 4 14 5 15 6 16 7 17 8 18 9 19 10 20 11
REMARK SMILES IDX 9 12 8 13 7 14 6 15 5 16 4 17 3 18 2 19 1 20
REMARK H PARENT
REMARK Flexibility Score: inf
ROOT
ATOM      1  C   UNL     1      54.669  25.122  50.672  1.00  0.00     0.000 C 
ENDROOT
BRANCH   1   2
ATOM      2  C   UNL     1      56.124  25.592  50.872  1.00  0.00     0.000 C 
BRANCH   2   3
ATOM      3  C   UNL     1      56.361  26.360  52.190  1.00  0.00     0.000 C 
BRANCH   3   4
ATOM      4  C   UNL     1      57.070  27.707  51.966  1.00  0.00     0.000 C 
BRANCH   4   5
ATOM      5  C   UNL     1      57.031  28.167  50.500  1.00  0.00     0.000 C 
BRANCH   5   6
ATOM      6  C   UNL     1      58.004  29.324  50.216  1.00  0.00     0.000 C 
BRANCH   6   7
ATOM      7  C   UNL     1      59.477  28.888  50.314  1.00  0.00     0.006 C 
BRANCH   7   8
ATOM      8  C   UNL     1      59.842  27.815  49.281  1.00  0.00     0.053 C 
BRANCH   8   9
ATOM      9  C   UNL     1      60.279  26.559  49.964  1.00  0.00     0.041 C 
ATOM     10  O   UNL     1      59.506  25.566  50.018  1.00  0.00    -0.550 OA
ATOM     11  O   UNL     1      61.522  26.499  50.582  1.00  0.00    -0.550 OA
ENDBRANCH   8   9
ENDBRANCH   7   8
ENDBRANCH   6   7
ENDBRANCH   5   6
ENDBRANCH   4   5
ENDBRANCH   3   4
ENDBRANCH   2   3
ENDBRANCH   1   2
BRANCH   1  12
ATOM     12  C   UNL     1      53.910  25.814  49.525  1.00  0.00     0.000 C 
BRANCH  12  13
ATOM     13  C   UNL     1      52.875  26.836  50.023  1.00  0.00    -0.000 C 
BRANCH  13  14
ATOM     14  C   UNL     1      53.461  28.258  50.018  1.00  0.00    -0.000 C 
BRANCH  14  15
ATOM     15  C   UNL     1      53.428  28.926  51.405  1.00  0.00    -0.000 C 
BRANCH  15  16
ATOM     16  C   UNL     1      54.296  30.191  51.532  1.00  0.00    -0.000 C 
BRANCH  16  17
ATOM     17  C   UNL     1      54.679  30.507  52.988  1.00  0.00    -0.000 C 
BRANCH  17  18
ATOM     18  C   UNL     1      55.877  31.466  53.088  1.00  0.00    -0.000 C 
BRANCH  18  19
ATOM     19  C   UNL     1      56.986  30.929  54.003  1.00  0.00    -0.003 C 
ATOM     20  C   UNL     1      58.360  31.111  53.363  1.00  0.00     0.004 C 
ENDBRANCH  18  19
ENDBRANCH  17  18
ENDBRANCH  16  17
ENDBRANCH  15  16
ENDBRANCH  14  15
ENDBRANCH  13  14
ENDBRANCH  12  13
ENDBRANCH   1  12
TORSDOF 16
ENDMDL
MODEL 8
REMARK VINA RESULT:    -3.193      9.141     11.513
REMARK INTER + INTRA:          -8.590
REMARK INTER:                  -5.594
REMARK INTRA:                  -2.995
REMARK UNBOUND:                -2.410
REMARK SMILES CCCCCCCCCCCCCCCCCC(=O)[O-]
REMARK SMILES IDX 10 1 11 2 12 3 13 4 14 5 15 6 16 7 17 8 18 9 19 10 20 11
REMARK SMILES IDX 9 12 8 13 7 14 6 15 5 16 4 17 3 18 2 19 1 20
REMARK H PARENT
REMARK Flexibility Score: inf
ROOT
ATOM      1  C   UNL     1      62.177  28.249  58.761  1.00  0.00     0.000 C 
ENDROOT
BRANCH   1   2
ATOM      2  C   UNL     1      62.560  29.333  57.733  1.00  0.00     0.000 C 
BRANCH   2   3
ATOM      3  C   UNL     1      63.636  30.321  58.233  1.00  0.00     0.000 C 
BRANCH   3   4
ATOM      4  C   UNL     1      63.543  31.692  57.541  1.00  0.00     0.000 C 
BRANCH   4   5
ATOM      5  C   UNL     1      63.725  32.868  58.515  1.00  0.00     0.000 C 
BRANCH   5   6
ATOM      6  C   UNL     1      64.579  32.497  59.738  1.00  0.00     0.000 C 
BRANCH   6   7
ATOM      7  C   UNL     1      64.276  33.386  60.957  1.00  0.00     0.006 C 
BRANCH   7   8
ATOM      8  C   UNL     1      64.555  34.869  60.686  1.00  0.00     0.053 C 
BRANCH   8   9
ATOM      9  C   UNL     1      63.388  35.705  61.107  1.00  0.00     0.041 C 
ATOM     10  O   UNL     1      62.213  35.287  60.930  1.00  0.00    -0.550 OA
ATOM     11  O   UNL     1      63.597  36.967  61.651  1.00  0.00    -0.550 OA
ENDBRANCH   8   9
ENDBRANCH   7   8
ENDBRANCH   6   7
ENDBRANCH   5   6
ENDBRANCH   4   5
ENDBRANCH   3   4
ENDBRANCH   2   3
ENDBRANCH   1   2
BRANCH   1  12
ATOM     12  C   UNL     1      63.070  28.190  60.013  1.00  0.00     0.000 C 
BRANCH  12  13
ATOM     13  C   UNL     1      62.305  28.504  61.309  1.00  0.00    -0.000 C 
BRANCH  13  14
ATOM     14  C   UNL     1      62.479  29.979  61.707  1.00  0.00    -0.000 C 
BRANCH  14  15
ATOM     15  C   UNL     1      61.143  30.743  61.777  1.00  0.00    -0.000 C 
BRANCH  15  16
ATOM     16  C   UNL     1      60.994  31.876  60.745  1.00  0.00    -0.000 C 
BRANCH  16  17
ATOM     17  C   UNL     1      60.193  31.447  59.504  1.00  0.00    -0.000 C 
BRANCH  17  18
ATOM     18  C   UNL     1      59.720  32.646  58.665  1.00  0.00    -0.000 C 
BRANCH  18  19
ATOM     19  C   UNL     1      59.665  32.330  57.164  1.00  0.00    -0.003 C 
ATOM     20  C   UNL     1      60.499  33.326  56.363  1.00  0.00     0.004 C 
ENDBRANCH  18  19
ENDBRANCH  17  18
ENDBRANCH  16  17
ENDBRANCH  15  16
ENDBRANCH  14  15
ENDBRANCH  13  14
ENDBRANCH  12  13
ENDBRANCH   1  12
TORSDOF 16
ENDMDL
MODEL 9
REMARK VINA RESULT:    -3.148      1.679      2.729
REMARK INTER + INTRA:          -8.502
REMARK INTER:                  -5.563
REMARK INTRA:                  -2.939
REMARK UNBOUND:                -2.410
REMARK SMILES CCCCCCCCCCCCCCCCCC(=O)[O-]
REMARK SMILES IDX 10 1 11 2 12 3 13 4 14 5 15 6 16 7 17 8 18 9 19 10 20 11
REMARK SMILES IDX 9 12 8 13 7 14 6 15 5 16 4 17 3 18 2 19 1 20
REMARK H PARENT
REMARK Flexibility Score: inf
ROOT
ATOM      1  C   UNL     1      54.497  24.698  53.687  1.00  0.00     0.000 C 
ENDROOT
BRANCH   1   2
ATOM      2  C   UNL     1      55.703  25.593  53.336  1.00  0.00     0.000 C 
BRANCH   2   3
ATOM      3  C   UNL     1      56.680  24.962  52.320  1.00  0.00     0.000 C 
BRANCH   3   4
ATOM      4  C   UNL     1      57.830  25.912  51.942  1.00  0.00     0.000 C 
BRANCH   4   5
ATOM      5  C   UNL     1      58.060  25.998  50.424  1.00  0.00     0.000 C 
BRANCH   5   6
ATOM      6  C   UNL     1      59.482  26.464  50.067  1.00  0.00     0.000 C 
BRANCH   6   7
ATOM      7  C   UNL     1      59.487  27.795  49.295  1.00  0.00     0.006 C 
BRANCH   7   8
ATOM      8  C   UNL     1      58.514  28.822  49.889  1.00  0.00     0.053 C 
BRANCH   8   9
ATOM      9  C   UNL     1      59.100  29.448  51.114  1.00  0.00     0.041 C 
ATOM     10  O   UNL     1      58.462  29.430  52.200  1.00  0.00    -0.550 OA
ATOM     11  O   UNL     1      60.329  30.094  51.046  1.00  0.00    -0.550 OA
ENDBRANCH   8   9
ENDBRANCH   7   8
ENDBRANCH   6   7
ENDBRANCH   5   6
ENDBRANCH   4   5
ENDBRANCH   3   4
ENDBRANCH   2   3
ENDBRANCH   1   2
BRANCH   1  12
ATOM     12  C   UNL     1      53.960  23.841  52.527  1.00  0.00     0.000 C 
BRANCH  12  13
ATOM     13  C   UNL     1      53.113  24.648  51.530  1.00  0.00    -0.000 C 
BRANCH  13  14
ATOM     14  C   UNL     1      53.620  24.449  50.092  1.00  0.00    -0.000 C 
BRANCH  14  15
ATOM     15  C   UNL     1      54.418  25.656  49.564  1.00  0.00    -0.000 C 
BRANCH  15  16
ATOM     16  C   UNL     1      53.883  27.028  50.013  1.00  0.00    -0.000 C 
BRANCH  16  17
ATOM     17  C   UNL     1      55.000  27.982  50.469  1.00  0.00    -0.000 C 
BRANCH  17  18
ATOM     18  C   UNL     1      54.698  28.635  51.828  1.00  0.00    -0.000 C 
BRANCH  18  19
ATOM     19  C   UNL     1      53.209  28.575  52.193  1.00  0.00    -0.003 C 
ATOM     20  C   UNL     1      53.018  28.128  53.640  1.00  0.00     0.004 C 
ENDBRANCH  18  19
ENDBRANCH  17  18
ENDBRANCH  16  17
ENDBRANCH  15  16
ENDBRANCH  14  15
ENDBRANCH  13  14
ENDBRANCH  12  13
ENDBRANCH   1  12
TORSDOF 16
ENDMDL
