MODEL 1
REMARK VINA RESULT:    -6.634      0.000      0.000
REMARK INTER + INTRA:          -6.634
REMARK INTER:                  -6.634
REMARK INTRA:                   0.000
REMARK UNBOUND:                 0.000
REMARK SMILES c1ccc2nc3ccccc3cc2c1
REMARK SMILES IDX 1 1 2 2 3 3 4 4 13 5 14 6 12 7 11 8 10 9 9 10 8 11 7 12 6 13
REMARK SMILES IDX 5 14
REMARK H PARENT
REMARK Flexibility Score: inf
ROOT
ATOM      1  C   UNL     1     -16.927  56.215  -3.627  1.00  0.00     0.001 A 
ATOM      2  C   UNL     1     -16.632  55.167  -2.750  1.00  0.00     0.002 A 
ATOM      3  C   UNL     1     -17.657  54.525  -2.048  1.00  0.00     0.029 A 
ATOM      4  C   UNL     1     -18.985  54.932  -2.222  1.00  0.00     0.071 A 
ATOM      5  C   UNL     1     -19.288  55.992  -3.107  1.00  0.00     0.001 A 
ATOM      6  C   UNL     1     -18.251  56.629  -3.808  1.00  0.00     0.010 A 
ATOM      7  C   UNL     1     -20.622  56.386  -3.270  1.00  0.00     0.020 A 
ATOM      8  C   UNL     1     -21.633  55.729  -2.557  1.00  0.00     0.001 A 
ATOM      9  C   UNL     1     -22.979  56.100  -2.696  1.00  0.00     0.010 A 
ATOM     10  C   UNL     1     -23.969  55.427  -1.972  1.00  0.00     0.001 A 
ATOM     11  C   UNL     1     -23.622  54.384  -1.108  1.00  0.00     0.002 A 
ATOM     12  C   UNL     1     -22.284  54.007  -0.961  1.00  0.00     0.029 A 
ATOM     13  C   UNL     1     -21.285  54.674  -1.681  1.00  0.00     0.071 A 
ATOM     14  N   UNL     1     -19.984  54.309  -1.540  1.00  0.00    -0.248 NA
ENDROOT
TORSDOF 0
ENDMDL
MODEL 2
REMARK VINA RESULT:    -6.604      1.053      4.924
REMARK INTER + INTRA:          -6.604
REMARK INTER:                  -6.604
REMARK INTRA:                   0.000
REMARK UNBOUND:                 0.000
REMARK SMILES c1ccc2nc3ccccc3cc2c1
REMARK SMILES IDX 1 1 2 2 3 3 4 4 13 5 14 6 12 7 11 8 10 9 9 10 8 11 7 12 6 13
REMARK SMILES IDX 5 14
REMARK H PARENT
REMARK Flexibility Score: inf
ROOT
ATOM      1  C   UNL     1     -24.250  55.074  -1.821  1.00  0.00     0.001 A 
ATOM      2  C   UNL     1     -23.876  54.804  -0.501  1.00  0.00     0.002 A 
ATOM      3  C   UNL     1     -22.545  54.957  -0.101  1.00  0.00     0.029 A 
ATOM      4  C   UNL     1     -21.581  55.381  -1.022  1.00  0.00     0.071 A 
ATOM      5  C   UNL     1     -21.955  55.654  -2.359  1.00  0.00     0.001 A 
ATOM      6  C   UNL     1     -23.295  55.498  -2.750  1.00  0.00     0.010 A 
ATOM      7  C   UNL     1     -20.978  56.077  -3.269  1.00  0.00     0.020 A 
ATOM      8  C   UNL     1     -19.651  56.223  -2.846  1.00  0.00     0.001 A 
ATOM      9  C   UNL     1     -18.648  56.645  -3.732  1.00  0.00     0.010 A 
ATOM     10  C   UNL     1     -17.330  56.783  -3.284  1.00  0.00     0.001 A 
ATOM     11  C   UNL     1     -17.007  56.502  -1.953  1.00  0.00     0.002 A 
ATOM     12  C   UNL     1     -17.999  56.080  -1.062  1.00  0.00     0.029 A 
ATOM     13  C   UNL     1     -19.320  55.939  -1.501  1.00  0.00     0.071 A 
ATOM     14  N   UNL     1     -20.286  55.530  -0.635  1.00  0.00    -0.248 NA
ENDROOT
TORSDOF 0
ENDMDL
MODEL 3
REMARK VINA RESULT:    -6.577      1.021      1.021
REMARK INTER + INTRA:          -6.577
REMARK INTER:                  -6.577
REMARK INTRA:                   0.000
REMARK UNBOUND:                 0.000
REMARK SMILES c1ccc2nc3ccccc3cc2c1
REMARK SMILES IDX 1 1 2 2 3 3 4 4 13 5 14 6 12 7 11 8 10 9 9 10 8 11 7 12 6 13
REMARK SMILES IDX 5 14
REMARK H PARENT
REMARK Flexibility Score: inf
ROOT
ATOM      1  C   UNL     1     -17.327  56.760  -3.273  1.00  0.00     0.001 A 
ATOM      2  C   UNL     1     -16.988  56.461  -1.949  1.00  0.00     0.002 A 
ATOM      3  C   UNL     1     -17.966  56.011  -1.057  1.00  0.00     0.029 A 
ATOM      4  C   UNL     1     -19.289  55.859  -1.486  1.00  0.00     0.071 A 
ATOM      5  C   UNL     1     -19.636  56.161  -2.823  1.00  0.00     0.001 A 
ATOM      6  C   UNL     1     -18.647  56.611  -3.712  1.00  0.00     0.010 A 
ATOM      7  C   UNL     1     -20.965  56.003  -3.237  1.00  0.00     0.020 A 
ATOM      8  C   UNL     1     -21.928  55.551  -2.326  1.00  0.00     0.001 A 
ATOM      9  C   UNL     1     -23.267  55.382  -2.707  1.00  0.00     0.010 A 
ATOM     10  C   UNL     1     -24.209  54.930  -1.777  1.00  0.00     0.001 A 
ATOM     11  C   UNL     1     -23.820  54.644  -0.465  1.00  0.00     0.002 A 
ATOM     12  C   UNL     1     -22.487  54.809  -0.074  1.00  0.00     0.029 A 
ATOM     13  C   UNL     1     -21.537  55.262  -0.997  1.00  0.00     0.071 A 
ATOM     14  N   UNL     1     -20.242  55.422  -0.619  1.00  0.00    -0.248 NA
ENDROOT
TORSDOF 0
ENDMDL
MODEL 4
REMARK VINA RESULT:    -6.507      1.802      2.872
REMARK INTER + INTRA:          -6.507
REMARK INTER:                  -6.507
REMARK INTRA:                   0.000
REMARK UNBOUND:                 0.000
REMARK SMILES c1ccc2nc3ccccc3cc2c1
REMARK SMILES IDX 1 1 2 2 3 3 4 4 13 5 14 6 12 7 11 8 10 9 9 10 8 11 7 12 6 13
REMARK SMILES IDX 5 14
REMARK H PARENT
REMARK Flexibility Score: inf
ROOT
ATOM      1  C   UNL     1     -18.456  54.090  -3.553  1.00  0.00     0.001 A 
ATOM      2  C   UNL     1     -18.486  55.488  -3.601  1.00  0.00     0.002 A 
ATOM      3  C   UNL     1     -19.375  56.201  -2.791  1.00  0.00     0.029 A 
ATOM      4  C   UNL     1     -20.239  55.517  -1.928  1.00  0.00     0.071 A 
ATOM      5  C   UNL     1     -20.211  54.104  -1.877  1.00  0.00     0.001 A 
ATOM      6  C   UNL     1     -19.314  53.397  -2.693  1.00  0.00     0.010 A 
ATOM      7  C   UNL     1     -21.082  53.435  -1.007  1.00  0.00     0.020 A 
ATOM      8  C   UNL     1     -21.964  54.169  -0.205  1.00  0.00     0.001 A 
ATOM      9  C   UNL     1     -22.849  53.530   0.677  1.00  0.00     0.010 A 
ATOM     10  C   UNL     1     -23.720  54.288   1.467  1.00  0.00     0.001 A 
ATOM     11  C   UNL     1     -23.712  55.684   1.382  1.00  0.00     0.002 A 
ATOM     12  C   UNL     1     -22.834  56.331   0.506  1.00  0.00     0.029 A 
ATOM     13  C   UNL     1     -21.959  55.581  -0.289  1.00  0.00     0.071 A 
ATOM     14  N   UNL     1     -21.105  56.209  -1.140  1.00  0.00    -0.248 NA
ENDROOT
TORSDOF 0
ENDMDL
MODEL 5
REMARK VINA RESULT:    -6.502      1.805      5.311
REMARK INTER + INTRA:          -6.502
REMARK INTER:                  -6.502
REMARK INTRA:                   0.000
REMARK UNBOUND:                 0.000
REMARK SMILES c1ccc2nc3ccccc3cc2c1
REMARK SMILES IDX 1 1 2 2 3 3 4 4 13 5 14 6 12 7 11 8 10 9 9 10 8 11 7 12 6 13
REMARK SMILES IDX 5 14
REMARK H PARENT
REMARK Flexibility Score: inf
ROOT
ATOM      1  C   UNL     1     -23.775  54.404   1.428  1.00  0.00     0.001 A 
ATOM      2  C   UNL     1     -23.728  55.796   1.302  1.00  0.00     0.002 A 
ATOM      3  C   UNL     1     -22.822  56.393   0.420  1.00  0.00     0.029 A 
ATOM      4  C   UNL     1     -21.957  55.597  -0.340  1.00  0.00     0.071 A 
ATOM      5  C   UNL     1     -22.001  54.189  -0.214  1.00  0.00     0.001 A 
ATOM      6  C   UNL     1     -22.915  53.599   0.673  1.00  0.00     0.010 A 
ATOM      7  C   UNL     1     -21.129  53.407  -0.983  1.00  0.00     0.020 A 
ATOM      8  C   UNL     1     -20.229  54.026  -1.860  1.00  0.00     0.001 A 
ATOM      9  C   UNL     1     -19.342  53.272  -2.643  1.00  0.00     0.010 A 
ATOM     10  C   UNL     1     -18.454  53.916  -3.511  1.00  0.00     0.001 A 
ATOM     11  C   UNL     1     -18.446  55.311  -3.602  1.00  0.00     0.002 A 
ATOM     12  C   UNL     1     -19.326  56.072  -2.825  1.00  0.00     0.029 A 
ATOM     13  C   UNL     1     -20.218  55.437  -1.953  1.00  0.00     0.071 A 
ATOM     14  N   UNL     1     -21.075  56.176  -1.198  1.00  0.00    -0.248 NA
ENDROOT
TORSDOF 0
ENDMDL
MODEL 6
REMARK VINA RESULT:    -6.474      0.850      2.120
REMARK INTER + INTRA:          -6.474
REMARK INTER:                  -6.474
REMARK INTRA:                   0.000
REMARK UNBOUND:                 0.000
REMARK SMILES c1ccc2nc3ccccc3cc2c1
REMARK SMILES IDX 1 1 2 2 3 3 4 4 13 5 14 6 12 7 11 8 10 9 9 10 8 11 7 12 6 13
REMARK SMILES IDX 5 14
REMARK H PARENT
REMARK Flexibility Score: inf
ROOT
ATOM      1  C   UNL     1     -16.645  55.083  -2.831  1.00  0.00     0.001 A 
ATOM      2  C   UNL     1     -16.923  56.244  -3.561  1.00  0.00     0.002 A 
ATOM      3  C   UNL     1     -18.240  56.693  -3.694  1.00  0.00     0.029 A 
ATOM      4  C   UNL     1     -19.286  55.982  -3.096  1.00  0.00     0.071 A 
ATOM      5  C   UNL     1     -19.010  54.808  -2.358  1.00  0.00     0.001 A 
ATOM      6  C   UNL     1     -17.684  54.365  -2.229  1.00  0.00     0.010 A 
ATOM      7  C   UNL     1     -20.069  54.108  -1.766  1.00  0.00     0.020 A 
ATOM      8  C   UNL     1     -21.381  54.577  -1.912  1.00  0.00     0.001 A 
ATOM      9  C   UNL     1     -22.464  53.899  -1.332  1.00  0.00     0.010 A 
ATOM     10  C   UNL     1     -23.764  54.389  -1.494  1.00  0.00     0.001 A 
ATOM     11  C   UNL     1     -23.989  55.555  -2.233  1.00  0.00     0.002 A 
ATOM     12  C   UNL     1     -22.917  56.237  -2.816  1.00  0.00     0.029 A 
ATOM     13  C   UNL     1     -21.612  55.755  -2.660  1.00  0.00     0.071 A 
ATOM     14  N   UNL     1     -20.569  56.418  -3.225  1.00  0.00    -0.248 NA
ENDROOT
TORSDOF 0
ENDMDL
MODEL 7
REMARK VINA RESULT:    -6.378      0.812      5.275
REMARK INTER + INTRA:          -6.378
REMARK INTER:                  -6.378
REMARK INTRA:                   0.000
REMARK UNBOUND:                 0.000
REMARK SMILES c1ccc2nc3ccccc3cc2c1
REMARK SMILES IDX 1 1 2 2 3 3 4 4 13 5 14 6 12 7 11 8 10 9 9 10 8 11 7 12 6 13
REMARK SMILES IDX 5 14
REMARK H PARENT
REMARK Flexibility Score: inf
ROOT
ATOM      1  C   UNL     1     -23.640  54.372  -0.900  1.00  0.00     0.001 A 
ATOM      2  C   UNL     1     -23.977  55.418  -1.764  1.00  0.00     0.002 A 
ATOM      3  C   UNL     1     -22.984  56.065  -2.506  1.00  0.00     0.029 A 
ATOM      4  C   UNL     1     -21.648  55.667  -2.386  1.00  0.00     0.071 A 
ATOM      5  C   UNL     1     -21.303  54.609  -1.513  1.00  0.00     0.001 A 
ATOM      6  C   UNL     1     -22.308  53.965  -0.772  1.00  0.00     0.010 A 
ATOM      7  C   UNL     1     -19.962  54.222  -1.405  1.00  0.00     0.020 A 
ATOM      8  C   UNL     1     -18.984  54.884  -2.158  1.00  0.00     0.001 A 
ATOM      9  C   UNL     1     -17.631  54.521  -2.072  1.00  0.00     0.010 A 
ATOM     10  C   UNL     1     -16.675  55.199  -2.836  1.00  0.00     0.001 A 
ATOM     11  C   UNL     1     -17.062  56.240  -3.686  1.00  0.00     0.002 A 
ATOM     12  C   UNL     1     -18.408  56.609  -3.778  1.00  0.00     0.029 A 
ATOM     13  C   UNL     1     -19.372  55.937  -3.018  1.00  0.00     0.071 A 
ATOM     14  N   UNL     1     -20.681  56.295  -3.108  1.00  0.00    -0.248 NA
ENDROOT
TORSDOF 0
ENDMDL
MODEL 8
REMARK VINA RESULT:    -6.232      1.563      5.395
REMARK INTER + INTRA:          -6.232
REMARK INTER:                  -6.232
REMARK INTRA:                   0.000
REMARK UNBOUND:                 0.000
REMARK SMILES c1ccc2nc3ccccc3cc2c1
REMARK SMILES IDX 1 1 2 2 3 3 4 4 13 5 14 6 12 7 11 8 10 9 9 10 8 11 7 12 6 13
REMARK SMILES IDX 5 14
REMARK H PARENT
REMARK Flexibility Score: inf
ROOT
ATOM      1  C   UNL     1     -25.332  56.208  -1.094  1.00  0.00     0.001 A 
ATOM      2  C   UNL     1     -25.004  57.504  -1.506  1.00  0.00     0.002 A 
ATOM      3  C   UNL     1     -23.746  57.771  -2.055  1.00  0.00     0.029 A 
ATOM      4  C   UNL     1     -22.810  56.741  -2.194  1.00  0.00     0.071 A 
ATOM      5  C   UNL     1     -23.137  55.429  -1.779  1.00  0.00     0.001 A 
ATOM      6  C   UNL     1     -24.404  55.171  -1.229  1.00  0.00     0.010 A 
ATOM      7  C   UNL     1     -22.189  54.409  -1.925  1.00  0.00     0.020 A 
ATOM      8  C   UNL     1     -20.935  54.699  -2.477  1.00  0.00     0.001 A 
ATOM      9  C   UNL     1     -19.962  53.701  -2.638  1.00  0.00     0.010 A 
ATOM     10  C   UNL     1     -18.718  54.019  -3.192  1.00  0.00     0.001 A 
ATOM     11  C   UNL     1     -18.438  55.330  -3.589  1.00  0.00     0.002 A 
ATOM     12  C   UNL     1     -19.401  56.333  -3.433  1.00  0.00     0.029 A 
ATOM     13  C   UNL     1     -20.649  56.025  -2.879  1.00  0.00     0.071 A 
ATOM     14  N   UNL     1     -21.585  56.999  -2.728  1.00  0.00    -0.248 NA
ENDROOT
TORSDOF 0
ENDMDL
MODEL 9
REMARK VINA RESULT:    -6.152      1.506      4.946
REMARK INTER + INTRA:          -6.152
REMARK INTER:                  -6.152
REMARK INTRA:                   0.000
REMARK UNBOUND:                 0.000
REMARK SMILES c1ccc2nc3ccccc3cc2c1
REMARK SMILES IDX 1 1 2 2 3 3 4 4 13 5 14 6 12 7 11 8 10 9 9 10 8 11 7 12 6 13
REMARK SMILES IDX 5 14
REMARK H PARENT
REMARK Flexibility Score: inf
ROOT
ATOM      1  C   UNL     1     -24.138  55.315   0.971  1.00  0.00     0.001 A 
ATOM      2  C   UNL     1     -23.720  54.014   1.271  1.00  0.00     0.002 A 
ATOM      3  C   UNL     1     -22.606  53.468   0.627  1.00  0.00     0.029 A 
ATOM      4  C   UNL     1     -21.904  54.222  -0.320  1.00  0.00     0.071 A 
ATOM      5  C   UNL     1     -22.324  55.537  -0.626  1.00  0.00     0.001 A 
ATOM      6  C   UNL     1     -23.444  56.078   0.027  1.00  0.00     0.010 A 
ATOM      7  C   UNL     1     -21.610  56.278  -1.576  1.00  0.00     0.020 A 
ATOM      8  C   UNL     1     -20.497  55.711  -2.208  1.00  0.00     0.001 A 
ATOM      9  C   UNL     1     -19.761  56.426  -3.165  1.00  0.00     0.010 A 
ATOM     10  C   UNL     1     -18.653  55.835  -3.781  1.00  0.00     0.001 A 
ATOM     11  C   UNL     1     -18.274  54.531  -3.447  1.00  0.00     0.002 A 
ATOM     12  C   UNL     1     -19.002  53.809  -2.495  1.00  0.00     0.029 A 
ATOM     13  C   UNL     1     -20.112  54.392  -1.873  1.00  0.00     0.071 A 
ATOM     14  N   UNL     1     -20.819  53.691  -0.947  1.00  0.00    -0.248 NA
ENDROOT
TORSDOF 0
ENDMDL
