MODEL 1
REMARK VINA RESULT:    -3.728      0.000      0.000
REMARK INTER + INTRA:          -5.884
REMARK INTER:                  -5.690
REMARK INTRA:                  -0.194
REMARK UNBOUND:                -0.194
REMARK SMILES CC1=CCC[C@H](C)C(=O)C[C@H](C(C)C)C(=O)C1
REMARK SMILES IDX 8 1 9 2 6 3 7 4 5 5 4 6 3 7 2 8 1 9 10 11 11 12 15 13 16 14
REMARK SMILES IDX 17 15 12 17 13 18 14 19
REMARK H PARENT
REMARK Flexibility Score: 70.00
ROOT
ATOM      1  C   UNL     1      16.600  45.101  19.949  1.00  0.00     0.136 C 
ATOM      2  O   UNL     1      17.599  45.212  20.645  1.00  0.00    -0.299 OA
ENDROOT
BRANCH   1   3
ATOM      3  C   UNL     1      15.655  46.286  19.858  1.00  0.00     0.053 C 
ATOM      4  C   UNL     1      15.366  46.750  18.419  1.00  0.00     0.016 C 
BRANCH   3   5
ATOM      5  C   UNL     1      14.356  46.039  20.655  1.00  0.00     0.015 C 
BRANCH   5   6
ATOM      6  C   UNL     1      13.057  46.235  19.840  1.00  0.00     0.028 C 
BRANCH   6   7
ATOM      7  C   UNL     1      12.112  45.069  20.017  1.00  0.00    -0.028 C 
ATOM      8  C   UNL     1      12.239  43.820  19.505  1.00  0.00    -0.070 CG0
ATOM      9  C   UNL     1      11.128  42.838  19.787  1.00  0.00     0.039 C 
ATOM     10  G   UNL     1      13.422  43.338  18.684  1.00  0.00     0.000 G0
ENDBRANCH   6   7
ENDBRANCH   5   6
ENDBRANCH   3   5
ENDBRANCH   1   3
BRANCH   1  11
ATOM     11  C   UNL     1      16.382  43.828  19.150  1.00  0.00     0.087 C 
BRANCH  11  12
ATOM     12  C   UNL     1      15.684  42.702  19.956  1.00  0.00     0.066 C 
BRANCH  12  13
ATOM     13  C   UNL     1      14.300  42.347  19.428  1.00  0.00     0.140 C 
ATOM     14  O   UNL     1      13.907  41.199  19.572  1.00  0.00    -0.299 OA
BRANCH  13  15
ATOM     15  C   UNL     1      13.425  43.316  18.661  1.00  0.00     0.106 CG0
ATOM     16  G   UNL     1      12.277  43.816  19.521  1.00  0.00     0.000 G0
ENDBRANCH  13  15
ENDBRANCH  12  13
BRANCH  12  17
ATOM     17  C   UNL     1      16.555  41.422  20.154  1.00  0.00    -0.006 C 
ATOM     18  C   UNL     1      16.988  41.242  21.618  1.00  0.00     0.008 C 
ATOM     19  C   UNL     1      17.782  41.348  19.231  1.00  0.00     0.008 C 
ENDBRANCH  12  17
ENDBRANCH  11  12
ENDBRANCH   1  11
TORSDOF 1
ENDMDL
MODEL 2
REMARK VINA RESULT:    -3.598      3.045      4.851
REMARK INTER + INTRA:          -5.686
REMARK INTER:                  -5.294
REMARK INTRA:                  -0.391
REMARK UNBOUND:                -0.194
REMARK SMILES CC1=CCC[C@H](C)C(=O)C[C@H](C(C)C)C(=O)C1
REMARK SMILES IDX 8 1 9 2 6 3 7 4 5 5 4 6 3 7 2 8 1 9 10 11 11 12 15 13 16 14
REMARK SMILES IDX 17 15 12 17 13 18 14 19
REMARK H PARENT
REMARK Flexibility Score: 70.00
ROOT
ATOM      1  C   UNL     1      20.029  41.929  21.193  1.00  0.00     0.136 C 
ATOM      2  O   UNL     1      21.008  41.216  21.367  1.00  0.00    -0.299 OA
ENDROOT
BRANCH   1   3
ATOM      3  C   UNL     1      19.810  43.089  22.147  1.00  0.00     0.053 C 
ATOM      4  C   UNL     1      20.071  42.747  23.625  1.00  0.00     0.016 C 
BRANCH   3   5
ATOM      5  C   UNL     1      20.589  44.346  21.702  1.00  0.00     0.015 C 
BRANCH   5   6
ATOM      6  C   UNL     1      19.994  45.065  20.470  1.00  0.00     0.028 C 
BRANCH   6   7
ATOM      7  C   UNL     1      18.584  45.543  20.736  1.00  0.00    -0.028 C 
ATOM      8  C   UNL     1      17.441  45.099  20.157  1.00  0.00    -0.070 CG0
ATOM      9  C   UNL     1      16.153  45.774  20.559  1.00  0.00     0.039 C 
ATOM     10  G   UNL     1      17.366  43.967  19.148  1.00  0.00     0.000 G0
ENDBRANCH   6   7
ENDBRANCH   5   6
ENDBRANCH   3   5
ENDBRANCH   1   3
BRANCH   1  11
ATOM     11  C   UNL     1      19.125  41.679  19.999  1.00  0.00     0.087 C 
BRANCH  11  12
ATOM     12  C   UNL     1      17.620  41.603  20.368  1.00  0.00     0.066 C 
BRANCH  12  13
ATOM     13  C   UNL     1      16.781  42.696  19.717  1.00  0.00     0.140 C 
ATOM     14  O   UNL     1      15.580  42.502  19.596  1.00  0.00    -0.299 OA
BRANCH  13  15
ATOM     15  C   UNL     1      17.367  43.966  19.139  1.00  0.00     0.106 CG0
ATOM     16  G   UNL     1      17.407  45.073  20.178  1.00  0.00     0.000 G0
ENDBRANCH  13  15
ENDBRANCH  12  13
BRANCH  12  17
ATOM     17  C   UNL     1      16.978  40.197  20.150  1.00  0.00    -0.006 C 
ATOM     18  C   UNL     1      16.610  39.521  21.480  1.00  0.00     0.008 C 
ATOM     19  C   UNL     1      17.828  39.243  19.295  1.00  0.00     0.008 C 
ENDBRANCH  12  17
ENDBRANCH  11  12
ENDBRANCH   1  11
TORSDOF 1
ENDMDL
MODEL 3
REMARK VINA RESULT:    -3.597      2.887      5.314
REMARK INTER + INTRA:          -5.684
REMARK INTER:                  -5.530
REMARK INTRA:                  -0.154
REMARK UNBOUND:                -0.194
REMARK SMILES CC1=CCC[C@H](C)C(=O)C[C@H](C(C)C)C(=O)C1
REMARK SMILES IDX 8 1 9 2 6 3 7 4 5 5 4 6 3 7 2 8 1 9 10 11 11 12 15 13 16 14
REMARK SMILES IDX 17 15 12 17 13 18 14 19
REMARK H PARENT
REMARK Flexibility Score: 70.00
ROOT
ATOM      1  C   UNL     1      18.094  46.972  20.256  1.00  0.00     0.136 C 
ATOM      2  O   UNL     1      17.688  48.059  19.872  1.00  0.00    -0.299 OA
ENDROOT
BRANCH   1   3
ATOM      3  C   UNL     1      19.594  46.742  20.302  1.00  0.00     0.053 C 
ATOM      4  C   UNL     1      20.395  47.929  20.870  1.00  0.00     0.016 C 
BRANCH   3   5
ATOM      5  C   UNL     1      19.945  45.418  21.016  1.00  0.00     0.015 C 
BRANCH   5   6
ATOM      6  C   UNL     1      20.334  44.262  20.067  1.00  0.00     0.028 C 
BRANCH   6   7
ATOM      7  C   UNL     1      19.925  42.921  20.632  1.00  0.00    -0.028 C 
ATOM      8  C   UNL     1      18.807  42.211  20.342  1.00  0.00    -0.070 CG0
ATOM      9  C   UNL     1      18.599  40.912  21.081  1.00  0.00     0.039 C 
ATOM     10  G   UNL     1      17.762  42.623  19.319  1.00  0.00     0.000 G0
ENDBRANCH   6   7
ENDBRANCH   5   6
ENDBRANCH   3   5
ENDBRANCH   1   3
BRANCH   1  11
ATOM     11  C   UNL     1      17.100  45.931  20.741  1.00  0.00     0.087 C 
BRANCH  11  12
ATOM     12  C   UNL     1      16.576  45.003  19.613  1.00  0.00     0.066 C 
BRANCH  12  13
ATOM     13  C   UNL     1      16.703  43.520  19.941  1.00  0.00     0.140 C 
ATOM     14  O   UNL     1      15.962  43.056  20.796  1.00  0.00    -0.299 OA
BRANCH  13  15
ATOM     15  C   UNL     1      17.750  42.616  19.327  1.00  0.00     0.106 CG0
ATOM     16  G   UNL     1      18.803  42.225  20.349  1.00  0.00     0.000 G0
ENDBRANCH  13  15
ENDBRANCH  12  13
BRANCH  12  17
ATOM     17  C   UNL     1      15.137  45.347  19.117  1.00  0.00    -0.006 C 
ATOM     18  C   UNL     1      15.158  46.301  17.911  1.00  0.00     0.008 C 
ATOM     19  C   UNL     1      14.212  45.906  20.211  1.00  0.00     0.008 C 
ENDBRANCH  12  17
ENDBRANCH  11  12
ENDBRANCH   1  11
TORSDOF 1
ENDMDL
MODEL 4
REMARK VINA RESULT:    -3.561      2.639      4.834
REMARK INTER + INTRA:          -5.628
REMARK INTER:                  -5.646
REMARK INTRA:                   0.018
REMARK UNBOUND:                -0.194
REMARK SMILES CC1=CCC[C@H](C)C(=O)C[C@H](C(C)C)C(=O)C1
REMARK SMILES IDX 8 1 9 2 6 3 7 4 5 5 4 6 3 7 2 8 1 9 10 11 11 12 15 13 16 14
REMARK SMILES IDX 17 15 12 17 13 18 14 19
REMARK H PARENT
REMARK Flexibility Score: 70.00
ROOT
ATOM      1  C   UNL     1      12.308  46.919  17.509  1.00  0.00     0.136 C 
ATOM      2  O   UNL     1      12.134  48.040  17.053  1.00  0.00    -0.299 OA
ENDROOT
BRANCH   1   3
ATOM      3  C   UNL     1      13.490  46.114  16.998  1.00  0.00     0.053 C 
ATOM      4  C   UNL     1      13.339  45.627  15.545  1.00  0.00     0.016 C 
BRANCH   3   5
ATOM      5  C   UNL     1      14.823  46.860  17.219  1.00  0.00     0.015 C 
BRANCH   5   6
ATOM      6  C   UNL     1      15.683  46.306  18.378  1.00  0.00     0.028 C 
BRANCH   6   7
ATOM      7  C   UNL     1      15.501  44.813  18.537  1.00  0.00    -0.028 C 
ATOM      8  C   UNL     1      14.925  44.160  19.576  1.00  0.00    -0.070 CG0
ATOM      9  C   UNL     1      14.907  42.652  19.522  1.00  0.00     0.039 C 
ATOM     10  G   UNL     1      14.287  44.836  20.777  1.00  0.00     0.000 G0
ENDBRANCH   6   7
ENDBRANCH   5   6
ENDBRANCH   3   5
ENDBRANCH   1   3
BRANCH   1  11
ATOM     11  C   UNL     1      11.395  46.408  18.610  1.00  0.00     0.087 C 
BRANCH  11  12
ATOM     12  C   UNL     1      12.010  45.248  19.434  1.00  0.00     0.066 C 
BRANCH  12  13
ATOM     13  C   UNL     1      13.106  45.699  20.391  1.00  0.00     0.140 C 
ATOM     14  O   UNL     1      13.076  46.851  20.797  1.00  0.00    -0.299 OA
BRANCH  13  15
ATOM     15  C   UNL     1      14.273  44.823  20.796  1.00  0.00     0.106 CG0
ATOM     16  G   UNL     1      14.915  44.171  19.584  1.00  0.00     0.000 G0
ENDBRANCH  13  15
ENDBRANCH  12  13
BRANCH  12  17
ATOM     17  C   UNL     1      10.959  44.355  20.166  1.00  0.00    -0.006 C 
ATOM     18  C   UNL     1      11.171  42.861  19.874  1.00  0.00     0.008 C 
ATOM     19  C   UNL     1       9.498  44.742  19.881  1.00  0.00     0.008 C 
ENDBRANCH  12  17
ENDBRANCH  11  12
ENDBRANCH   1  11
TORSDOF 1
ENDMDL
MODEL 5
REMARK VINA RESULT:    -3.392      8.647      9.968
REMARK INTER + INTRA:          -5.371
REMARK INTER:                  -5.546
REMARK INTRA:                   0.175
REMARK UNBOUND:                -0.194
REMARK SMILES CC1=CCC[C@H](C)C(=O)C[C@H](C(C)C)C(=O)C1
REMARK SMILES IDX 8 1 9 2 6 3 7 4 5 5 4 6 3 7 2 8 1 9 10 11 11 12 15 13 16 14
REMARK SMILES IDX 17 15 12 17 13 18 14 19
REMARK H PARENT
REMARK Flexibility Score: 70.00
ROOT
ATOM      1  C   UNL     1      13.775  39.901  28.141  1.00  0.00     0.136 C 
ATOM      2  O   UNL     1      12.590  40.152  27.973  1.00  0.00    -0.299 OA
ENDROOT
BRANCH   1   3
ATOM      3  C   UNL     1      14.692  41.031  28.573  1.00  0.00     0.053 C 
ATOM      4  C   UNL     1      14.002  42.405  28.653  1.00  0.00     0.016 C 
BRANCH   3   5
ATOM      5  C   UNL     1      15.442  40.687  29.878  1.00  0.00     0.015 C 
BRANCH   5   6
ATOM      6  C   UNL     1      16.636  39.723  29.696  1.00  0.00     0.028 C 
BRANCH   6   7
ATOM      7  C   UNL     1      17.534  40.164  28.562  1.00  0.00    -0.028 C 
ATOM      8  C   UNL     1      17.810  39.489  27.419  1.00  0.00    -0.070 CG0
ATOM      9  C   UNL     1      18.783  40.124  26.457  1.00  0.00     0.039 C 
ATOM     10  G   UNL     1      17.198  38.153  27.034  1.00  0.00     0.000 G0
ENDBRANCH   6   7
ENDBRANCH   5   6
ENDBRANCH   3   5
ENDBRANCH   1   3
BRANCH   1  11
ATOM     11  C   UNL     1      14.266  38.472  27.991  1.00  0.00     0.087 C 
BRANCH  11  12
ATOM     12  C   UNL     1      14.561  38.070  26.522  1.00  0.00     0.066 C 
BRANCH  12  13
ATOM     13  C   UNL     1      15.997  38.347  26.095  1.00  0.00     0.140 C 
ATOM     14  O   UNL     1      16.198  38.679  24.936  1.00  0.00    -0.299 OA
BRANCH  13  15
ATOM     15  C   UNL     1      17.191  38.148  27.004  1.00  0.00     0.106 CG0
ATOM     16  G   UNL     1      17.793  39.481  27.416  1.00  0.00     0.000 G0
ENDBRANCH  13  15
ENDBRANCH  12  13
BRANCH  12  17
ATOM     17  C   UNL     1      14.138  36.612  26.160  1.00  0.00    -0.006 C 
ATOM     18  C   UNL     1      13.640  36.501  24.709  1.00  0.00     0.008 C 
ATOM     19  C   UNL     1      13.103  36.001  27.117  1.00  0.00     0.008 C 
ENDBRANCH  12  17
ENDBRANCH  11  12
ENDBRANCH   1  11
TORSDOF 1
ENDMDL
MODEL 6
REMARK VINA RESULT:    -3.330      3.401      4.793
REMARK INTER + INTRA:          -5.276
REMARK INTER:                  -5.242
REMARK INTRA:                  -0.034
REMARK UNBOUND:                -0.194
REMARK SMILES CC1=CCC[C@H](C)C(=O)C[C@H](C(C)C)C(=O)C1
REMARK SMILES IDX 8 1 9 2 6 3 7 4 5 5 4 6 3 7 2 8 1 9 10 11 11 12 15 13 16 14
REMARK SMILES IDX 17 15 12 17 13 18 14 19
REMARK H PARENT
REMARK Flexibility Score: 70.00
ROOT
ATOM      1  C   UNL     1      19.664  45.247  20.838  1.00  0.00     0.136 C 
ATOM      2  O   UNL     1      20.500  46.115  21.041  1.00  0.00    -0.299 OA
ENDROOT
BRANCH   1   3
ATOM      3  C   UNL     1      18.215  45.672  20.676  1.00  0.00     0.053 C 
ATOM      4  C   UNL     1      18.035  47.116  20.175  1.00  0.00     0.016 C 
BRANCH   3   5
ATOM      5  C   UNL     1      17.419  44.662  19.820  1.00  0.00     0.015 C 
BRANCH   5   6
ATOM      6  C   UNL     1      16.342  43.872  20.598  1.00  0.00     0.028 C 
BRANCH   6   7
ATOM      7  C   UNL     1      16.217  42.455  20.084  1.00  0.00    -0.028 C 
ATOM      8  C   UNL     1      16.801  41.341  20.590  1.00  0.00    -0.070 CG0
ATOM      9  C   UNL     1      16.559  40.041  19.863  1.00  0.00     0.039 C 
ATOM     10  G   UNL     1      17.665  41.308  21.838  1.00  0.00     0.000 G0
ENDBRANCH   6   7
ENDBRANCH   5   6
ENDBRANCH   3   5
ENDBRANCH   1   3
BRANCH   1  11
ATOM     11  C   UNL     1      20.107  43.803  20.679  1.00  0.00     0.087 C 
BRANCH  11  12
ATOM     12  C   UNL     1      19.785  42.918  21.910  1.00  0.00     0.066 C 
BRANCH  12  13
ATOM     13  C   UNL     1      19.117  41.597  21.549  1.00  0.00     0.140 C 
ATOM     14  O   UNL     1      19.773  40.772  20.929  1.00  0.00    -0.299 OA
BRANCH  13  15
ATOM     15  C   UNL     1      17.664  41.289  21.841  1.00  0.00     0.106 CG0
ATOM     16  G   UNL     1      16.823  41.367  20.579  1.00  0.00     0.000 G0
ENDBRANCH  13  15
ENDBRANCH  12  13
BRANCH  12  17
ATOM     17  C   UNL     1      20.995  42.690  22.869  1.00  0.00    -0.006 C 
ATOM     18  C   UNL     1      20.546  42.514  24.329  1.00  0.00     0.008 C 
ATOM     19  C   UNL     1      22.079  43.777  22.782  1.00  0.00     0.008 C 
ENDBRANCH  12  17
ENDBRANCH  11  12
ENDBRANCH   1  11
TORSDOF 1
ENDMDL
MODEL 7
REMARK VINA RESULT:    -3.246      8.522      9.666
REMARK INTER + INTRA:          -5.148
REMARK INTER:                  -5.319
REMARK INTRA:                   0.172
REMARK UNBOUND:                -0.194
REMARK SMILES CC1=CCC[C@H](C)C(=O)C[C@H](C(C)C)C(=O)C1
REMARK SMILES IDX 8 1 9 2 6 3 7 4 5 5 4 6 3 7 2 8 1 9 10 11 11 12 15 13 16 14
REMARK SMILES IDX 17 15 12 17 13 18 14 19
REMARK H PARENT
REMARK Flexibility Score: 70.00
ROOT
ATOM      1  C   UNL     1      15.220  39.927  29.367  1.00  0.00     0.136 C 
ATOM      2  O   UNL     1      15.139  39.302  30.415  1.00  0.00    -0.299 OA
ENDROOT
BRANCH   1   3
ATOM      3  C   UNL     1      13.975  40.627  28.853  1.00  0.00     0.053 C 
ATOM      4  C   UNL     1      14.100  42.160  28.782  1.00  0.00     0.016 C 
BRANCH   3   5
ATOM      5  C   UNL     1      13.498  40.027  27.512  1.00  0.00     0.015 C 
BRANCH   5   6
ATOM      6  C   UNL     1      13.352  38.488  27.515  1.00  0.00     0.028 C 
BRANCH   6   7
ATOM      7  C   UNL     1      13.468  37.919  26.119  1.00  0.00    -0.028 C 
ATOM      8  C   UNL     1      14.559  37.352  25.548  1.00  0.00    -0.070 CG0
ATOM      9  C   UNL     1      14.435  36.901  24.113  1.00  0.00     0.039 C 
ATOM     10  G   UNL     1      15.885  37.126  26.253  1.00  0.00     0.000 G0
ENDBRANCH   6   7
ENDBRANCH   5   6
ENDBRANCH   3   5
ENDBRANCH   1   3
BRANCH   1  11
ATOM     11  C   UNL     1      16.563  40.044  28.667  1.00  0.00     0.087 C 
BRANCH  11  12
ATOM     12  C   UNL     1      17.073  38.703  28.078  1.00  0.00     0.066 C 
BRANCH  12  13
ATOM     13  C   UNL     1      16.555  38.422  26.673  1.00  0.00     0.140 C 
ATOM     14  O   UNL     1      16.603  39.327  25.852  1.00  0.00    -0.299 OA
BRANCH  13  15
ATOM     15  C   UNL     1      15.908  37.115  26.268  1.00  0.00     0.106 CG0
ATOM     16  G   UNL     1      14.584  37.355  25.562  1.00  0.00     0.000 G0
ENDBRANCH  13  15
ENDBRANCH  12  13
BRANCH  12  17
ATOM     17  C   UNL     1      18.621  38.519  28.153  1.00  0.00    -0.006 C 
ATOM     18  C   UNL     1      19.063  37.898  29.488  1.00  0.00     0.008 C 
ATOM     19  C   UNL     1      19.421  39.804  27.883  1.00  0.00     0.008 C 
ENDBRANCH  12  17
ENDBRANCH  11  12
ENDBRANCH   1  11
TORSDOF 1
ENDMDL
MODEL 8
REMARK VINA RESULT:    -3.234      3.126      6.495
REMARK INTER + INTRA:          -5.129
REMARK INTER:                  -4.804
REMARK INTRA:                  -0.325
REMARK UNBOUND:                -0.194
REMARK SMILES CC1=CCC[C@H](C)C(=O)C[C@H](C(C)C)C(=O)C1
REMARK SMILES IDX 8 1 9 2 6 3 7 4 5 5 4 6 3 7 2 8 1 9 10 11 11 12 15 13 16 14
REMARK SMILES IDX 17 15 12 17 13 18 14 19
REMARK H PARENT
REMARK Flexibility Score: 70.00
ROOT
ATOM      1  C   UNL     1      17.064  40.881  19.541  1.00  0.00     0.136 C 
ATOM      2  O   UNL     1      15.973  40.514  19.951  1.00  0.00    -0.299 OA
ENDROOT
BRANCH   1   3
ATOM      3  C   UNL     1      18.148  39.834  19.353  1.00  0.00     0.053 C 
ATOM      4  C   UNL     1      19.277  40.261  18.398  1.00  0.00     0.016 C 
BRANCH   3   5
ATOM      5  C   UNL     1      18.698  39.337  20.708  1.00  0.00     0.015 C 
BRANCH   5   6
ATOM      6  C   UNL     1      20.064  39.941  21.105  1.00  0.00     0.028 C 
BRANCH   6   7
ATOM      7  C   UNL     1      19.930  40.891  22.274  1.00  0.00    -0.028 C 
ATOM      8  C   UNL     1      19.781  42.238  22.229  1.00  0.00    -0.070 CG0
ATOM      9  C   UNL     1      19.716  42.973  23.546  1.00  0.00     0.039 C 
ATOM     10  G   UNL     1      19.659  43.052  20.953  1.00  0.00     0.000 G0
ENDBRANCH   6   7
ENDBRANCH   5   6
ENDBRANCH   3   5
ENDBRANCH   1   3
BRANCH   1  11
ATOM     11  C   UNL     1      17.271  42.338  19.164  1.00  0.00     0.087 C 
BRANCH  11  12
ATOM     12  C   UNL     1      17.059  43.319  20.346  1.00  0.00     0.066 C 
BRANCH  12  13
ATOM     13  C   UNL     1      18.361  43.863  20.922  1.00  0.00     0.140 C 
ATOM     14  O   UNL     1      18.374  45.020  21.318  1.00  0.00    -0.299 OA
BRANCH  13  15
ATOM     15  C   UNL     1      19.654  43.078  20.950  1.00  0.00     0.106 CG0
ATOM     16  G   UNL     1      19.773  42.264  22.227  1.00  0.00     0.000 G0
ENDBRANCH  13  15
ENDBRANCH  12  13
BRANCH  12  17
ATOM     17  C   UNL     1      16.052  44.473  20.047  1.00  0.00    -0.006 C 
ATOM     18  C   UNL     1      14.593  44.020  20.219  1.00  0.00     0.008 C 
ATOM     19  C   UNL     1      16.238  45.129  18.670  1.00  0.00     0.008 C 
ENDBRANCH  12  17
ENDBRANCH  11  12
ENDBRANCH   1  11
TORSDOF 1
ENDMDL
MODEL 9
REMARK VINA RESULT:    -3.105      9.869     11.271
REMARK INTER + INTRA:          -4.933
REMARK INTER:                  -4.643
REMARK INTRA:                  -0.290
REMARK UNBOUND:                -0.194
REMARK SMILES CC1=CCC[C@H](C)C(=O)C[C@H](C(C)C)C(=O)C1
REMARK SMILES IDX 8 1 9 2 6 3 7 4 5 5 4 6 3 7 2 8 1 9 10 11 11 12 15 13 16 14
REMARK SMILES IDX 17 15 12 17 13 18 14 19
REMARK H PARENT
REMARK Flexibility Score: 70.00
ROOT
ATOM      1  C   UNL     1      15.286  39.595  29.891  1.00  0.00     0.136 C 
ATOM      2  O   UNL     1      15.533  39.943  31.037  1.00  0.00    -0.299 OA
ENDROOT
BRANCH   1   3
ATOM      3  C   UNL     1      15.494  40.604  28.776  1.00  0.00     0.053 C 
ATOM      4  C   UNL     1      14.576  41.837  28.863  1.00  0.00     0.016 C 
BRANCH   3   5
ATOM      5  C   UNL     1      16.980  41.003  28.640  1.00  0.00     0.015 C 
BRANCH   5   6
ATOM      6  C   UNL     1      17.819  40.055  27.752  1.00  0.00     0.028 C 
BRANCH   6   7
ATOM      7  C   UNL     1      18.765  39.215  28.581  1.00  0.00    -0.028 C 
ATOM      8  C   UNL     1      18.820  37.862  28.650  1.00  0.00    -0.070 CG0
ATOM      9  C   UNL     1      19.829  37.257  29.595  1.00  0.00     0.039 C 
ATOM     10  G   UNL     1      17.953  36.918  27.835  1.00  0.00     0.000 G0
ENDBRANCH   6   7
ENDBRANCH   5   6
ENDBRANCH   3   5
ENDBRANCH   1   3
BRANCH   1  11
ATOM     11  C   UNL     1      14.862  38.163  29.618  1.00  0.00     0.087 C 
BRANCH  11  12
ATOM     12  C   UNL     1      15.418  37.595  28.287  1.00  0.00     0.066 C 
BRANCH  12  13
ATOM     13  C   UNL     1      16.615  36.670  28.476  1.00  0.00     0.140 C 
ATOM     14  O   UNL     1      16.496  35.728  29.246  1.00  0.00    -0.299 OA
BRANCH  13  15
ATOM     15  C   UNL     1      17.962  36.906  27.828  1.00  0.00     0.106 CG0
ATOM     16  G   UNL     1      18.815  37.843  28.664  1.00  0.00     0.000 G0
ENDBRANCH  13  15
ENDBRANCH  12  13
BRANCH  12  17
ATOM     17  C   UNL     1      14.340  36.937  27.370  1.00  0.00    -0.006 C 
ATOM     18  C   UNL     1      14.971  36.191  26.184  1.00  0.00     0.008 C 
ATOM     19  C   UNL     1      13.266  37.913  26.863  1.00  0.00     0.008 C 
ENDBRANCH  12  17
ENDBRANCH  11  12
ENDBRANCH   1  11
TORSDOF 1
ENDMDL
