MODEL 1
REMARK VINA RESULT:    -4.034      0.000      0.000
REMARK INTER + INTRA:          -6.657
REMARK INTER:                  -6.157
REMARK INTRA:                  -0.500
REMARK UNBOUND:                -0.500
REMARK SMILES O=C([O-])CCCCCCCCC(=O)[O-]
REMARK SMILES IDX 7 1 6 2 5 3 4 4 2 5 1 6 3 7 8 8 9 9 10 10 11 11 12 12 13 13
REMARK SMILES IDX 14 14
REMARK H PARENT
REMARK Flexibility Score: inf
ROOT
ATOM      1  C   UNL     1      26.851 -16.596  25.336  1.00  0.00     0.000 C 
ENDROOT
BRANCH   1   2
ATOM      2  C   UNL     1      26.785 -17.729  24.301  1.00  0.00     0.000 C 
BRANCH   2   3
ATOM      3  C   UNL     1      27.907 -18.762  24.484  1.00  0.00     0.006 C 
BRANCH   3   4
ATOM      4  C   UNL     1      28.896 -18.309  25.561  1.00  0.00     0.053 C 
BRANCH   4   5
ATOM      5  C   UNL     1      30.249 -18.898  25.311  1.00  0.00     0.041 C 
ATOM      6  O   UNL     1      30.872 -18.626  24.252  1.00  0.00    -0.550 OA
ATOM      7  O   UNL     1      30.800 -19.787  26.225  1.00  0.00    -0.550 OA
ENDBRANCH   4   5
ENDBRANCH   3   4
ENDBRANCH   2   3
ENDBRANCH   1   2
BRANCH   1   8
ATOM      8  C   UNL     1      25.509 -16.367  26.051  1.00  0.00     0.000 C 
BRANCH   8   9
ATOM      9  C   UNL     1      24.459 -17.438  25.707  1.00  0.00     0.000 C 
BRANCH   9  10
ATOM     10  C   UNL     1      23.015 -17.023  26.062  1.00  0.00     0.006 C 
BRANCH  10  11
ATOM     11  C   UNL     1      22.808 -16.878  27.575  1.00  0.00     0.053 C 
BRANCH  11  12
ATOM     12  C   UNL     1      22.195 -15.552  27.895  1.00  0.00     0.041 C 
ATOM     13  O   UNL     1      22.527 -14.526  27.243  1.00  0.00    -0.550 OA
ATOM     14  O   UNL     1      21.218 -15.455  28.879  1.00  0.00    -0.550 OA
ENDBRANCH  11  12
ENDBRANCH  10  11
ENDBRANCH   9  10
ENDBRANCH   8   9
ENDBRANCH   1   8
TORSDOF 9
ENDMDL
MODEL 2
REMARK VINA RESULT:    -4.004      1.246      7.176
REMARK INTER + INTRA:          -6.612
REMARK INTER:                  -6.119
REMARK INTRA:                  -0.493
REMARK UNBOUND:                -0.500
REMARK SMILES O=C([O-])CCCCCCCCC(=O)[O-]
REMARK SMILES IDX 7 1 6 2 5 3 4 4 2 5 1 6 3 7 8 8 9 9 10 10 11 11 12 12 13 13
REMARK SMILES IDX 14 14
REMARK H PARENT
REMARK Flexibility Score: inf
ROOT
ATOM      1  C   UNL     1      26.660 -16.390  25.401  1.00  0.00     0.000 C 
ENDROOT
BRANCH   1   2
ATOM      2  C   UNL     1      26.115 -16.722  26.799  1.00  0.00     0.000 C 
BRANCH   2   3
ATOM      3  C   UNL     1      24.604 -16.469  26.918  1.00  0.00     0.006 C 
BRANCH   3   4
ATOM      4  C   UNL     1      24.245 -15.061  26.435  1.00  0.00     0.053 C 
BRANCH   4   5
ATOM      5  C   UNL     1      22.786 -14.795  26.633  1.00  0.00     0.041 C 
ATOM      6  O   UNL     1      22.072 -14.429  25.663  1.00  0.00    -0.550 OA
ATOM      7  O   UNL     1      22.225 -14.903  27.899  1.00  0.00    -0.550 OA
ENDBRANCH   4   5
ENDBRANCH   3   4
ENDBRANCH   2   3
ENDBRANCH   1   2
BRANCH   1   8
ATOM      8  C   UNL     1      26.639 -17.601  24.454  1.00  0.00     0.000 C 
BRANCH   8   9
ATOM      9  C   UNL     1      26.645 -18.945  25.203  1.00  0.00     0.000 C 
BRANCH   9  10
ATOM     10  C   UNL     1      27.915 -19.786  24.953  1.00  0.00     0.006 C 
BRANCH  10  11
ATOM     11  C   UNL     1      29.080 -18.937  24.429  1.00  0.00     0.053 C 
BRANCH  11  12
ATOM     12  C   UNL     1      30.199 -18.914  25.422  1.00  0.00     0.041 C 
ATOM     13  O   UNL     1      30.363 -19.879  26.214  1.00  0.00    -0.550 OA
ATOM     14  O   UNL     1      31.092 -17.849  25.440  1.00  0.00    -0.550 OA
ENDBRANCH  11  12
ENDBRANCH  10  11
ENDBRANCH   9  10
ENDBRANCH   8   9
ENDBRANCH   1   8
TORSDOF 9
ENDMDL
MODEL 3
REMARK VINA RESULT:    -3.944      1.329      6.889
REMARK INTER + INTRA:          -6.519
REMARK INTER:                  -5.861
REMARK INTRA:                  -0.658
REMARK UNBOUND:                -0.500
REMARK SMILES O=C([O-])CCCCCCCCC(=O)[O-]
REMARK SMILES IDX 7 1 6 2 5 3 4 4 2 5 1 6 3 7 8 8 9 9 10 10 11 11 12 12 13 13
REMARK SMILES IDX 14 14
REMARK H PARENT
REMARK Flexibility Score: inf
ROOT
ATOM      1  C   UNL     1      25.700 -16.221  26.424  1.00  0.00     0.000 C 
ENDROOT
BRANCH   1   2
ATOM      2  C   UNL     1      24.906 -14.911  26.547  1.00  0.00     0.000 C 
BRANCH   2   3
ATOM      3  C   UNL     1      23.399 -15.112  26.329  1.00  0.00     0.006 C 
BRANCH   3   4
ATOM      4  C   UNL     1      23.003 -16.573  26.557  1.00  0.00     0.053 C 
BRANCH   4   5
ATOM      5  C   UNL     1      22.144 -16.699  27.776  1.00  0.00     0.041 C 
ATOM      6  O   UNL     1      21.802 -15.673  28.419  1.00  0.00    -0.550 OA
ATOM      7  O   UNL     1      21.764 -17.955  28.231  1.00  0.00    -0.550 OA
ENDBRANCH   4   5
ENDBRANCH   3   4
ENDBRANCH   2   3
ENDBRANCH   1   2
BRANCH   1   8
ATOM      8  C   UNL     1      26.646 -16.229  25.212  1.00  0.00     0.000 C 
BRANCH   8   9
ATOM      9  C   UNL     1      26.600 -17.550  24.426  1.00  0.00     0.000 C 
BRANCH   9  10
ATOM     10  C   UNL     1      26.540 -18.802  25.326  1.00  0.00     0.006 C 
BRANCH  10  11
ATOM     11  C   UNL     1      27.759 -19.714  25.135  1.00  0.00     0.053 C 
BRANCH  11  12
ATOM     12  C   UNL     1      29.015 -18.994  25.509  1.00  0.00     0.041 C 
ATOM     13  O   UNL     1      29.198 -18.613  26.696  1.00  0.00    -0.550 OA
ATOM     14  O   UNL     1      30.009 -18.788  24.560  1.00  0.00    -0.550 OA
ENDBRANCH  11  12
ENDBRANCH  10  11
ENDBRANCH   9  10
ENDBRANCH   8   9
ENDBRANCH   1   8
TORSDOF 9
ENDMDL
MODEL 4
REMARK VINA RESULT:    -3.920      1.204      1.557
REMARK INTER + INTRA:          -6.483
REMARK INTER:                  -5.990
REMARK INTRA:                  -0.492
REMARK UNBOUND:                -0.500
REMARK SMILES O=C([O-])CCCCCCCCC(=O)[O-]
REMARK SMILES IDX 7 1 6 2 5 3 4 4 2 5 1 6 3 7 8 8 9 9 10 10 11 11 12 12 13 13
REMARK SMILES IDX 14 14
REMARK H PARENT
REMARK Flexibility Score: inf
ROOT
ATOM      1  C   UNL     1      26.620 -17.468  24.401  1.00  0.00     0.000 C 
ENDROOT
BRANCH   1   2
ATOM      2  C   UNL     1      26.449 -18.738  25.250  1.00  0.00     0.000 C 
BRANCH   2   3
ATOM      3  C   UNL     1      27.660 -19.678  25.155  1.00  0.00     0.006 C 
BRANCH   3   4
ATOM      4  C   UNL     1      28.853 -18.971  24.506  1.00  0.00     0.053 C 
BRANCH   4   5
ATOM      5  C   UNL     1      30.006 -18.907  25.457  1.00  0.00     0.041 C 
ATOM      6  O   UNL     1      30.768 -17.906  25.463  1.00  0.00    -0.550 OA
ATOM      7  O   UNL     1      30.269 -19.978  26.302  1.00  0.00    -0.550 OA
ENDBRANCH   4   5
ENDBRANCH   3   4
ENDBRANCH   2   3
ENDBRANCH   1   2
BRANCH   1   8
ATOM      8  C   UNL     1      26.601 -16.184  25.245  1.00  0.00     0.000 C 
BRANCH   8   9
ATOM      9  C   UNL     1      25.704 -16.301  26.491  1.00  0.00     0.000 C 
BRANCH   9  10
ATOM     10  C   UNL     1      24.733 -15.115  26.665  1.00  0.00     0.006 C 
BRANCH  10  11
ATOM     11  C   UNL     1      23.287 -15.490  26.314  1.00  0.00     0.053 C 
BRANCH  11  12
ATOM     12  C   UNL     1      22.567 -15.992  27.524  1.00  0.00     0.041 C 
ATOM     13  O   UNL     1      21.889 -15.201  28.232  1.00  0.00    -0.550 OA
ATOM     14  O   UNL     1      22.601 -17.344  27.845  1.00  0.00    -0.550 OA
ENDBRANCH  11  12
ENDBRANCH  10  11
ENDBRANCH   9  10
ENDBRANCH   8   9
ENDBRANCH   1   8
TORSDOF 9
ENDMDL
MODEL 5
REMARK VINA RESULT:    -3.895      1.773      2.593
REMARK INTER + INTRA:          -6.445
REMARK INTER:                  -5.948
REMARK INTRA:                  -0.497
REMARK UNBOUND:                -0.500
REMARK SMILES O=C([O-])CCCCCCCCC(=O)[O-]
REMARK SMILES IDX 7 1 6 2 5 3 4 4 2 5 1 6 3 7 8 8 9 9 10 10 11 11 12 12 13 13
REMARK SMILES IDX 14 14
REMARK H PARENT
REMARK Flexibility Score: inf
ROOT
ATOM      1  C   UNL     1      25.042 -14.756  26.382  1.00  0.00     0.000 C 
ENDROOT
BRANCH   1   2
ATOM      2  C   UNL     1      25.668 -16.151  26.535  1.00  0.00     0.000 C 
BRANCH   2   3
ATOM      3  C   UNL     1      26.634 -16.493  25.391  1.00  0.00     0.006 C 
BRANCH   3   4
ATOM      4  C   UNL     1      26.595 -17.990  25.071  1.00  0.00     0.053 C 
BRANCH   4   5
ATOM      5  C   UNL     1      27.981 -18.526  24.900  1.00  0.00     0.041 C 
ATOM      6  O   UNL     1      28.943 -18.003  25.519  1.00  0.00    -0.550 OA
ATOM      7  O   UNL     1      28.218 -19.572  24.017  1.00  0.00    -0.550 OA
ENDBRANCH   4   5
ENDBRANCH   3   4
ENDBRANCH   2   3
ENDBRANCH   1   2
BRANCH   1   8
ATOM      8  C   UNL     1      23.505 -14.793  26.382  1.00  0.00     0.000 C 
BRANCH   8   9
ATOM      9  C   UNL     1      22.942 -16.225  26.364  1.00  0.00     0.000 C 
BRANCH   9  10
ATOM     10  C   UNL     1      22.187 -16.608  27.654  1.00  0.00     0.006 C 
BRANCH  10  11
ATOM     11  C   UNL     1      21.697 -15.378  28.428  1.00  0.00     0.053 C 
BRANCH  11  12
ATOM     12  C   UNL     1      20.680 -15.772  29.451  1.00  0.00     0.041 C 
ATOM     13  O   UNL     1      20.063 -14.890  30.105  1.00  0.00    -0.550 OA
ATOM     14  O   UNL     1      20.373 -17.114  29.647  1.00  0.00    -0.550 OA
ENDBRANCH  11  12
ENDBRANCH  10  11
ENDBRANCH   9  10
ENDBRANCH   8   9
ENDBRANCH   1   8
TORSDOF 9
ENDMDL
MODEL 6
REMARK VINA RESULT:    -3.815      1.840      6.537
REMARK INTER + INTRA:          -6.322
REMARK INTER:                  -5.619
REMARK INTRA:                  -0.703
REMARK UNBOUND:                -0.500
REMARK SMILES O=C([O-])CCCCCCCCC(=O)[O-]
REMARK SMILES IDX 7 1 6 2 5 3 4 4 2 5 1 6 3 7 8 8 9 9 10 10 11 11 12 12 13 13
REMARK SMILES IDX 14 14
REMARK H PARENT
REMARK Flexibility Score: inf
ROOT
ATOM      1  C   UNL     1      26.261 -18.802  25.255  1.00  0.00     0.000 C 
ENDROOT
BRANCH   1   2
ATOM      2  C   UNL     1      26.479 -17.332  24.861  1.00  0.00     0.000 C 
BRANCH   2   3
ATOM      3  C   UNL     1      26.165 -16.361  26.009  1.00  0.00     0.006 C 
BRANCH   3   4
ATOM      4  C   UNL     1      24.658 -16.294  26.273  1.00  0.00     0.053 C 
BRANCH   4   5
ATOM      5  C   UNL     1      24.245 -14.893  26.602  1.00  0.00     0.041 C 
ATOM      6  O   UNL     1      25.021 -13.932  26.363  1.00  0.00    -0.550 OA
ATOM      7  O   UNL     1      23.023 -14.656  27.219  1.00  0.00    -0.550 OA
ENDBRANCH   4   5
ENDBRANCH   3   4
ENDBRANCH   2   3
ENDBRANCH   1   2
BRANCH   1   8
ATOM      8  C   UNL     1      27.452 -19.698  24.879  1.00  0.00     0.000 C 
BRANCH   8   9
ATOM      9  C   UNL     1      28.594 -18.922  24.201  1.00  0.00     0.000 C 
BRANCH   9  10
ATOM     10  C   UNL     1      29.905 -18.917  25.014  1.00  0.00     0.006 C 
BRANCH  10  11
ATOM     11  C   UNL     1      29.753 -19.623  26.367  1.00  0.00     0.053 C 
BRANCH  11  12
ATOM     12  C   UNL     1      29.719 -18.622  27.479  1.00  0.00     0.041 C 
ATOM     13  O   UNL     1      30.792 -18.137  27.927  1.00  0.00    -0.550 OA
ATOM     14  O   UNL     1      28.502 -18.187  27.988  1.00  0.00    -0.550 OA
ENDBRANCH  11  12
ENDBRANCH  10  11
ENDBRANCH   9  10
ENDBRANCH   8   9
ENDBRANCH   1   8
TORSDOF 9
ENDMDL
MODEL 7
REMARK VINA RESULT:    -3.810      2.312      6.049
REMARK INTER + INTRA:          -6.315
REMARK INTER:                  -5.388
REMARK INTRA:                  -0.927
REMARK UNBOUND:                -0.500
REMARK SMILES O=C([O-])CCCCCCCCC(=O)[O-]
REMARK SMILES IDX 7 1 6 2 5 3 4 4 2 5 1 6 3 7 8 8 9 9 10 10 11 11 12 12 13 13
REMARK SMILES IDX 14 14
REMARK H PARENT
REMARK Flexibility Score: inf
ROOT
ATOM      1  C   UNL     1      26.324 -17.818  24.874  1.00  0.00     0.000 C 
ENDROOT
BRANCH   1   2
ATOM      2  C   UNL     1      26.603 -16.352  25.239  1.00  0.00     0.000 C 
BRANCH   2   3
ATOM      3  C   UNL     1      25.613 -15.804  26.278  1.00  0.00     0.006 C 
BRANCH   3   4
ATOM      4  C   UNL     1      24.329 -16.638  26.303  1.00  0.00     0.053 C 
BRANCH   4   5
ATOM      5  C   UNL     1      23.157 -15.787  26.680  1.00  0.00     0.041 C 
ATOM      6  O   UNL     1      22.355 -16.171  27.569  1.00  0.00    -0.550 OA
ATOM      7  O   UNL     1      22.924 -14.591  26.012  1.00  0.00    -0.550 OA
ENDBRANCH   4   5
ENDBRANCH   3   4
ENDBRANCH   2   3
ENDBRANCH   1   2
BRANCH   1   8
ATOM      8  C   UNL     1      27.603 -18.592  24.514  1.00  0.00     0.000 C 
BRANCH   8   9
ATOM      9  C   UNL     1      28.789 -18.246  25.430  1.00  0.00     0.000 C 
BRANCH   9  10
ATOM     10  C   UNL     1      28.965 -19.225  26.609  1.00  0.00     0.006 C 
BRANCH  10  11
ATOM     11  C   UNL     1      29.036 -18.503  27.960  1.00  0.00     0.053 C 
BRANCH  11  12
ATOM     12  C   UNL     1      27.665 -18.126  28.425  1.00  0.00     0.041 C 
ATOM     13  O   UNL     1      27.472 -17.023  29.002  1.00  0.00    -0.550 OA
ATOM     14  O   UNL     1      26.589 -18.969  28.177  1.00  0.00    -0.550 OA
ENDBRANCH  11  12
ENDBRANCH  10  11
ENDBRANCH   9  10
ENDBRANCH   8   9
ENDBRANCH   1   8
TORSDOF 9
ENDMDL
MODEL 8
REMARK VINA RESULT:    -3.777      2.334      3.103
REMARK INTER + INTRA:          -6.265
REMARK INTER:                  -5.276
REMARK INTRA:                  -0.989
REMARK UNBOUND:                -0.500
REMARK SMILES O=C([O-])CCCCCCCCC(=O)[O-]
REMARK SMILES IDX 7 1 6 2 5 3 4 4 2 5 1 6 3 7 8 8 9 9 10 10 11 11 12 12 13 13
REMARK SMILES IDX 14 14
REMARK H PARENT
REMARK Flexibility Score: inf
ROOT
ATOM      1  C   UNL     1      27.490 -18.668  24.590  1.00  0.00     0.000 C 
ENDROOT
BRANCH   1   2
ATOM      2  C   UNL     1      28.722 -18.261  25.412  1.00  0.00     0.000 C 
BRANCH   2   3
ATOM      3  C   UNL     1      29.039 -19.261  26.535  1.00  0.00     0.006 C 
BRANCH   3   4
ATOM      4  C   UNL     1      29.073 -18.562  27.897  1.00  0.00     0.053 C 
BRANCH   4   5
ATOM      5  C   UNL     1      27.692 -18.171  28.320  1.00  0.00     0.041 C 
ATOM      6  O   UNL     1      27.478 -17.031  28.809  1.00  0.00    -0.550 OA
ATOM      7  O   UNL     1      26.650 -19.084  28.221  1.00  0.00    -0.550 OA
ENDBRANCH   4   5
ENDBRANCH   3   4
ENDBRANCH   2   3
ENDBRANCH   1   2
BRANCH   1   8
ATOM      8  C   UNL     1      26.264 -17.787  24.884  1.00  0.00     0.000 C 
BRANCH   8   9
ATOM      9  C   UNL     1      26.644 -16.364  25.327  1.00  0.00     0.000 C 
BRANCH   9  10
ATOM     10  C   UNL     1      25.542 -15.656  26.143  1.00  0.00     0.006 C 
BRANCH  10  11
ATOM     11  C   UNL     1      24.529 -16.646  26.732  1.00  0.00     0.053 C 
BRANCH  11  12
ATOM     12  C   UNL     1      23.131 -16.188  26.461  1.00  0.00     0.041 C 
ATOM     13  O   UNL     1      22.672 -15.172  27.049  1.00  0.00    -0.550 OA
ATOM     14  O   UNL     1      22.350 -16.852  25.523  1.00  0.00    -0.550 OA
ENDBRANCH  11  12
ENDBRANCH  10  11
ENDBRANCH   9  10
ENDBRANCH   8   9
ENDBRANCH   1   8
TORSDOF 9
ENDMDL
MODEL 9
REMARK VINA RESULT:    -3.724      2.824      4.052
REMARK INTER + INTRA:          -6.183
REMARK INTER:                  -5.222
REMARK INTRA:                  -0.961
REMARK UNBOUND:                -0.500
REMARK SMILES O=C([O-])CCCCCCCCC(=O)[O-]
REMARK SMILES IDX 7 1 6 2 5 3 4 4 2 5 1 6 3 7 8 8 9 9 10 10 11 11 12 12 13 13
REMARK SMILES IDX 14 14
REMARK H PARENT
REMARK Flexibility Score: inf
ROOT
ATOM      1  C   UNL     1      29.717 -18.583  25.237  1.00  0.00     0.000 C 
ENDROOT
BRANCH   1   2
ATOM      2  C   UNL     1      30.216 -19.760  26.090  1.00  0.00     0.000 C 
BRANCH   2   3
ATOM      3  C   UNL     1      29.518 -19.836  27.456  1.00  0.00     0.006 C 
BRANCH   3   4
ATOM      4  C   UNL     1      29.282 -18.436  28.029  1.00  0.00     0.053 C 
BRANCH   4   5
ATOM      5  C   UNL     1      27.859 -18.281  28.466  1.00  0.00     0.041 C 
ATOM      6  O   UNL     1      27.048 -19.234  28.333  1.00  0.00    -0.550 OA
ATOM      7  O   UNL     1      27.417 -17.066  28.974  1.00  0.00    -0.550 OA
ENDBRANCH   4   5
ENDBRANCH   3   4
ENDBRANCH   2   3
ENDBRANCH   1   2
BRANCH   1   8
ATOM      8  C   UNL     1      28.608 -18.993  24.254  1.00  0.00     0.000 C 
BRANCH   8   9
ATOM      9  C   UNL     1      27.195 -18.786  24.828  1.00  0.00     0.000 C 
BRANCH   9  10
ATOM     10  C   UNL     1      26.544 -17.454  24.400  1.00  0.00     0.006 C 
BRANCH  10  11
ATOM     11  C   UNL     1      26.699 -16.362  25.466  1.00  0.00     0.053 C 
BRANCH  11  12
ATOM     12  C   UNL     1      25.410 -16.157  26.197  1.00  0.00     0.041 C 
ATOM     13  O   UNL     1      24.905 -15.006  26.279  1.00  0.00    -0.550 OA
ATOM     14  O   UNL     1      24.739 -17.243  26.745  1.00  0.00    -0.550 OA
ENDBRANCH  11  12
ENDBRANCH  10  11
ENDBRANCH   9  10
ENDBRANCH   8   9
ENDBRANCH   1   8
TORSDOF 9
ENDMDL
