MODEL 1
REMARK VINA RESULT:    -4.245      0.000      0.000
REMARK INTER + INTRA:          -4.867
REMARK INTER:                  -4.618
REMARK INTRA:                  -0.249
REMARK UNBOUND:                -0.249
REMARK SMILES O=C([O-])c1ccccc1O
REMARK SMILES IDX 4 1 9 2 5 3 8 4 6 5 7 6 2 7 1 8 3 9 10 10
REMARK H PARENT 10 11
REMARK Flexibility Score: inf
ROOT
ATOM      1  C   UNL     1      31.865  11.324  30.160  1.00  0.00     0.039 A 
ATOM      2  C   UNL     1      32.682  12.072  31.047  1.00  0.00     0.124 A 
ATOM      3  C   UNL     1      31.548   9.992  30.489  1.00  0.00     0.014 A 
ATOM      4  C   UNL     1      33.103  11.497  32.253  1.00  0.00     0.047 A 
ATOM      5  C   UNL     1      31.994   9.428  31.686  1.00  0.00     0.001 A 
ATOM      6  C   UNL     1      32.762  10.182  32.572  1.00  0.00     0.004 A 
ENDROOT
BRANCH   1   7
ATOM      7  C   UNL     1      31.301  11.891  28.916  1.00  0.00     0.075 C 
ATOM      8  O   UNL     1      31.993  12.636  28.174  1.00  0.00    -0.545 OA
ATOM      9  O   UNL     1      29.970  11.661  28.588  1.00  0.00    -0.545 OA
ENDBRANCH   1   7
BRANCH   2  10
ATOM     10  O   UNL     1      33.125  13.364  30.756  1.00  0.00    -0.507 OA
ATOM     11  H   UNL     1      32.512  14.111  30.458  1.00  0.00     0.293 HD
ENDBRANCH   2  10
TORSDOF 2
ENDMDL
MODEL 2
REMARK VINA RESULT:    -4.047      1.208      1.568
REMARK INTER + INTRA:          -4.651
REMARK INTER:                  -4.398
REMARK INTRA:                  -0.253
REMARK UNBOUND:                -0.249
REMARK SMILES O=C([O-])c1ccccc1O
REMARK SMILES IDX 4 1 9 2 5 3 8 4 6 5 7 6 2 7 1 8 3 9 10 10
REMARK H PARENT 10 11
REMARK Flexibility Score: inf
ROOT
ATOM      1  C   UNL     1      31.640  10.397  30.232  1.00  0.00     0.039 A 
ATOM      2  C   UNL     1      32.409  11.575  30.422  1.00  0.00     0.124 A 
ATOM      3  C   UNL     1      31.667   9.400  31.225  1.00  0.00     0.014 A 
ATOM      4  C   UNL     1      33.125  11.749  31.614  1.00  0.00     0.047 A 
ATOM      5  C   UNL     1      32.402   9.582  32.398  1.00  0.00     0.001 A 
ATOM      6  C   UNL     1      33.123  10.759  32.597  1.00  0.00     0.004 A 
ENDROOT
BRANCH   1   7
ATOM      7  C   UNL     1      30.782  10.182  29.046  1.00  0.00     0.075 C 
ATOM      8  O   UNL     1      30.762   9.071  28.456  1.00  0.00    -0.545 OA
ATOM      9  O   UNL     1      30.034  11.234  28.529  1.00  0.00    -0.545 OA
ENDBRANCH   1   7
BRANCH   2  10
ATOM     10  O   UNL     1      32.518  12.570  29.449  1.00  0.00    -0.507 OA
ATOM     11  H   UNL     1      32.678  13.545  29.662  1.00  0.00     0.293 HD
ENDBRANCH   2  10
TORSDOF 2
ENDMDL
MODEL 3
REMARK VINA RESULT:    -3.924      3.289      4.560
REMARK INTER + INTRA:          -4.517
REMARK INTER:                  -4.278
REMARK INTRA:                  -0.239
REMARK UNBOUND:                -0.249
REMARK SMILES O=C([O-])c1ccccc1O
REMARK SMILES IDX 4 1 9 2 5 3 8 4 6 5 7 6 2 7 1 8 3 9 10 10
REMARK H PARENT 10 11
REMARK Flexibility Score: inf
ROOT
ATOM      1  C   UNL     1      32.111   9.330  32.318  1.00  0.00     0.039 A 
ATOM      2  C   UNL     1      31.584   9.333  31.000  1.00  0.00     0.124 A 
ATOM      3  C   UNL     1      32.898  10.418  32.738  1.00  0.00     0.014 A 
ATOM      4  C   UNL     1      31.804  10.440  30.169  1.00  0.00     0.047 A 
ATOM      5  C   UNL     1      33.125  11.504  31.889  1.00  0.00     0.001 A 
ATOM      6  C   UNL     1      32.571  11.519  30.610  1.00  0.00     0.004 A 
ENDROOT
BRANCH   1   7
ATOM      7  C   UNL     1      31.841   8.245  33.287  1.00  0.00     0.075 C 
ATOM      8  O   UNL     1      32.078   7.044  32.995  1.00  0.00    -0.545 OA
ATOM      9  O   UNL     1      31.258   8.538  34.514  1.00  0.00    -0.545 OA
ENDBRANCH   1   7
BRANCH   2  10
ATOM     10  O   UNL     1      30.875   8.255  30.468  1.00  0.00    -0.507 OA
ATOM     11  H   UNL     1      30.273   7.656  31.018  1.00  0.00     0.293 HD
ENDBRANCH   2  10
TORSDOF 2
ENDMDL
MODEL 4
REMARK VINA RESULT:    -3.916      1.358      2.452
REMARK INTER + INTRA:          -4.509
REMARK INTER:                  -4.257
REMARK INTRA:                  -0.252
REMARK UNBOUND:                -0.249
REMARK SMILES O=C([O-])c1ccccc1O
REMARK SMILES IDX 4 1 9 2 5 3 8 4 6 5 7 6 2 7 1 8 3 9 10 10
REMARK H PARENT 10 11
REMARK Flexibility Score: inf
ROOT
ATOM      1  C   UNL     1      32.234  10.801  30.340  1.00  0.00     0.039 A 
ATOM      2  C   UNL     1      31.600   9.592  30.728  1.00  0.00     0.124 A 
ATOM      3  C   UNL     1      32.976  11.517  31.298  1.00  0.00     0.014 A 
ATOM      4  C   UNL     1      31.774   9.106  32.031  1.00  0.00     0.047 A 
ATOM      5  C   UNL     1      33.122  11.029  32.598  1.00  0.00     0.001 A 
ATOM      6  C   UNL     1      32.531   9.820  32.961  1.00  0.00     0.004 A 
ENDROOT
BRANCH   1   7
ATOM      7  C   UNL     1      32.178  11.329  28.959  1.00  0.00     0.075 C 
ATOM      8  O   UNL     1      32.097  12.566  28.743  1.00  0.00    -0.545 OA
ATOM      9  O   UNL     1      32.147  10.452  27.881  1.00  0.00    -0.545 OA
ENDBRANCH   1   7
BRANCH   2  10
ATOM     10  O   UNL     1      30.767   8.868  29.873  1.00  0.00    -0.507 OA
ATOM     11  H   UNL     1      30.989   8.679  28.905  1.00  0.00     0.293 HD
ENDBRANCH   2  10
TORSDOF 2
ENDMDL
MODEL 5
REMARK VINA RESULT:    -3.857      2.511      3.830
REMARK INTER + INTRA:          -4.445
REMARK INTER:                  -4.197
REMARK INTRA:                  -0.247
REMARK UNBOUND:                -0.249
REMARK SMILES O=C([O-])c1ccccc1O
REMARK SMILES IDX 4 1 9 2 5 3 8 4 6 5 7 6 2 7 1 8 3 9 10 10
REMARK H PARENT 10 11
REMARK Flexibility Score: inf
ROOT
ATOM      1  C   UNL     1      31.616   9.770  28.844  1.00  0.00     0.039 A 
ATOM      2  C   UNL     1      31.899   8.875  27.780  1.00  0.00     0.124 A 
ATOM      3  C   UNL     1      30.791   9.334  29.898  1.00  0.00     0.014 A 
ATOM      4  C   UNL     1      31.407   7.564  27.829  1.00  0.00     0.047 A 
ATOM      5  C   UNL     1      30.291   8.030  29.920  1.00  0.00     0.001 A 
ATOM      6  C   UNL     1      30.607   7.143  28.892  1.00  0.00     0.004 A 
ENDROOT
BRANCH   1   7
ATOM      7  C   UNL     1      32.178  11.137  28.914  1.00  0.00     0.075 C 
ATOM      8  O   UNL     1      32.127  11.908  27.921  1.00  0.00    -0.545 OA
ATOM      9  O   UNL     1      32.832  11.562  30.065  1.00  0.00    -0.545 OA
ENDBRANCH   1   7
BRANCH   2  10
ATOM     10  O   UNL     1      32.627   9.252  26.650  1.00  0.00    -0.507 OA
ATOM     11  H   UNL     1      33.302  10.005  26.646  1.00  0.00     0.293 HD
ENDBRANCH   2  10
TORSDOF 2
ENDMDL
MODEL 6
REMARK VINA RESULT:    -3.853      1.817      3.348
REMARK INTER + INTRA:          -4.440
REMARK INTER:                  -4.194
REMARK INTRA:                  -0.246
REMARK UNBOUND:                -0.249
REMARK SMILES O=C([O-])c1ccccc1O
REMARK SMILES IDX 4 1 9 2 5 3 8 4 6 5 7 6 2 7 1 8 3 9 10 10
REMARK H PARENT 10 11
REMARK Flexibility Score: inf
ROOT
ATOM      1  C   UNL     1      32.102  10.808  30.732  1.00  0.00     0.039 A 
ATOM      2  C   UNL     1      32.465  11.755  29.740  1.00  0.00     0.124 A 
ATOM      3  C   UNL     1      31.517   9.593  30.331  1.00  0.00     0.014 A 
ATOM      4  C   UNL     1      32.293  11.440  28.386  1.00  0.00     0.047 A 
ATOM      5  C   UNL     1      31.333   9.303  28.977  1.00  0.00     0.001 A 
ATOM      6  C   UNL     1      31.729  10.221  28.005  1.00  0.00     0.004 A 
ENDROOT
BRANCH   1   7
ATOM      7  C   UNL     1      32.343  11.026  32.176  1.00  0.00     0.075 C 
ATOM      8  O   UNL     1      32.858  10.126  32.888  1.00  0.00    -0.545 OA
ATOM      9  O   UNL     1      31.937  12.212  32.776  1.00  0.00    -0.545 OA
ENDBRANCH   1   7
BRANCH   2  10
ATOM     10  O   UNL     1      32.962  13.022  30.052  1.00  0.00    -0.507 OA
ATOM     11  H   UNL     1      33.288  13.284  30.972  1.00  0.00     0.293 HD
ENDBRANCH   2  10
TORSDOF 2
ENDMDL
MODEL 7
REMARK VINA RESULT:    -3.823      3.078      4.089
REMARK INTER + INTRA:          -4.407
REMARK INTER:                  -4.155
REMARK INTRA:                  -0.252
REMARK UNBOUND:                -0.249
REMARK SMILES O=C([O-])c1ccccc1O
REMARK SMILES IDX 4 1 9 2 5 3 8 4 6 5 7 6 2 7 1 8 3 9 10 10
REMARK H PARENT 10 11
REMARK Flexibility Score: inf
ROOT
ATOM      1  C   UNL     1      30.859   8.537  30.874  1.00  0.00     0.039 A 
ATOM      2  C   UNL     1      31.238   7.850  32.056  1.00  0.00     0.124 A 
ATOM      3  C   UNL     1      31.406   9.809  30.622  1.00  0.00     0.014 A 
ATOM      4  C   UNL     1      32.189   8.419  32.913  1.00  0.00     0.047 A 
ATOM      5  C   UNL     1      32.337  10.371  31.497  1.00  0.00     0.001 A 
ATOM      6  C   UNL     1      32.736   9.673  32.636  1.00  0.00     0.004 A 
ENDROOT
BRANCH   1   7
ATOM      7  C   UNL     1      29.936   7.960  29.872  1.00  0.00     0.075 C 
ATOM      8  O   UNL     1      29.014   8.653  29.368  1.00  0.00    -0.545 OA
ATOM      9  O   UNL     1      30.038   6.618  29.524  1.00  0.00    -0.545 OA
ENDBRANCH   1   7
BRANCH   2  10
ATOM     10  O   UNL     1      30.674   6.630  32.434  1.00  0.00    -0.507 OA
ATOM     11  H   UNL     1      31.203   5.874  32.849  1.00  0.00     0.293 HD
ENDBRANCH   2  10
TORSDOF 2
ENDMDL
MODEL 8
REMARK VINA RESULT:    -3.792      1.495      3.065
REMARK INTER + INTRA:          -4.374
REMARK INTER:                  -4.124
REMARK INTRA:                  -0.250
REMARK UNBOUND:                -0.249
REMARK SMILES O=C([O-])c1ccccc1O
REMARK SMILES IDX 4 1 9 2 5 3 8 4 6 5 7 6 2 7 1 8 3 9 10 10
REMARK H PARENT 10 11
REMARK Flexibility Score: inf
ROOT
ATOM      1  C   UNL     1      32.020  10.098  31.098  1.00  0.00     0.039 A 
ATOM      2  C   UNL     1      31.166   9.165  30.454  1.00  0.00     0.124 A 
ATOM      3  C   UNL     1      32.540   9.781  32.367  1.00  0.00     0.014 A 
ATOM      4  C   UNL     1      30.909   7.928  31.061  1.00  0.00     0.047 A 
ATOM      5  C   UNL     1      32.256   8.552  32.967  1.00  0.00     0.001 A 
ATOM      6  C   UNL     1      31.450   7.623  32.311  1.00  0.00     0.004 A 
ENDROOT
BRANCH   1   7
ATOM      7  C   UNL     1      32.417  11.381  30.479  1.00  0.00     0.075 C 
ATOM      8  O   UNL     1      32.680  11.453  29.250  1.00  0.00    -0.545 OA
ATOM      9  O   UNL     1      32.570  12.516  31.268  1.00  0.00    -0.545 OA
ENDBRANCH   1   7
BRANCH   2  10
ATOM     10  O   UNL     1      30.530   9.436  29.241  1.00  0.00    -0.507 OA
ATOM     11  H   UNL     1      30.198   8.718  28.611  1.00  0.00     0.293 HD
ENDBRANCH   2  10
TORSDOF 2
ENDMDL
