MODEL 1
REMARK VINA RESULT:    -3.640      0.000      0.000
REMARK INTER + INTRA:          -6.035
REMARK INTER:                  -5.343
REMARK INTRA:                  -0.692
REMARK UNBOUND:                -0.692
REMARK SMILES C=C1C=C[C@H](C(C)C)CCC(C)=CCC1
REMARK SMILES IDX 3 1 4 2 5 3 9 4 10 5 11 6 12 7 13 8 6 10 7 11 8 12 2 13 1 14
REMARK SMILES IDX 15 15 14 16
REMARK H PARENT
REMARK Flexibility Score: 70.00
ROOT
ATOM      1  C   UNL     1     140.242 137.628 132.939  1.00  0.00    -0.001 C 
ATOM      2  C   UNL     1     140.868 137.159 134.028  1.00  0.00    -0.023 C 
ENDROOT
BRANCH   2   3
ATOM      3  C   UNL     1     141.141 137.838 135.364  1.00  0.00     0.014 C 
BRANCH   3   4
ATOM      4  C   UNL     1     142.202 138.988 135.340  1.00  0.00     0.012 C 
BRANCH   4   5
ATOM      5  C   UNL     1     143.328 139.073 134.270  1.00  0.00     0.031 C 
BRANCH   5   6
ATOM      6  C   UNL     1     143.510 140.334 133.425  1.00  0.00    -0.077 C 
ATOM      7  C   UNL     1     144.596 141.312 133.817  1.00  0.00     0.039 C 
ATOM      8  C   UNL     1     142.956 140.523 132.205  1.00  0.00    -0.028 CG0
ATOM      9  G   UNL     1     141.872 139.682 131.594  1.00  0.00     0.000 G0
ENDBRANCH   5   6
ENDBRANCH   4   5
ENDBRANCH   3   4
BRANCH   3  10
ATOM     10  C   UNL     1     139.868 137.914 136.262  1.00  0.00    -0.010 C 
ATOM     11  C   UNL     1     139.985 137.058 137.535  1.00  0.00     0.008 C 
ATOM     12  C   UNL     1     139.383 139.329 136.585  1.00  0.00     0.008 C 
ENDBRANCH   3  10
ENDBRANCH   2   3
BRANCH   1  13
ATOM     13  C   UNL     1     139.637 138.955 132.770  1.00  0.00    -0.055 C 
ATOM     14  C   UNL     1     138.302 139.042 132.822  1.00  0.00     0.012 C 
BRANCH  13  15
ATOM     15  C   UNL     1     140.437 140.065 132.108  1.00  0.00     0.039 C 
BRANCH  15  16
ATOM     16  C   UNL     1     141.845 139.672 131.600  1.00  0.00     0.032 CG0
ATOM     17  G   UNL     1     142.947 140.507 132.187  1.00  0.00     0.000 G0
ENDBRANCH  15  16
ENDBRANCH  13  15
ENDBRANCH   1  13
TORSDOF 1
ENDMDL
MODEL 2
REMARK VINA RESULT:    -3.637      1.606      3.484
REMARK INTER + INTRA:          -6.031
REMARK INTER:                  -5.464
REMARK INTRA:                  -0.566
REMARK UNBOUND:                -0.692
REMARK SMILES C=C1C=C[C@H](C(C)C)CCC(C)=CCC1
REMARK SMILES IDX 3 1 4 2 5 3 9 4 10 5 11 6 12 7 13 8 6 10 7 11 8 12 2 13 1 14
REMARK SMILES IDX 15 15 14 16
REMARK H PARENT
REMARK Flexibility Score: 70.00
ROOT
ATOM      1  C   UNL     1     141.290 137.463 132.886  1.00  0.00    -0.001 C 
ATOM      2  C   UNL     1     140.615 137.238 134.022  1.00  0.00    -0.023 C 
ENDROOT
BRANCH   2   3
ATOM      3  C   UNL     1     140.462 138.119 135.256  1.00  0.00     0.014 C 
BRANCH   3   4
ATOM      4  C   UNL     1     139.211 139.060 135.272  1.00  0.00     0.012 C 
BRANCH   4   5
ATOM      5  C   UNL     1     138.192 139.125 134.099  1.00  0.00     0.031 C 
BRANCH   5   6
ATOM      6  C   UNL     1     138.104 140.363 133.207  1.00  0.00    -0.077 C 
ATOM      7  C   UNL     1     137.255 141.525 133.670  1.00  0.00     0.039 C 
ATOM      8  C   UNL     1     138.928 140.611 132.163  1.00  0.00    -0.028 CG0
ATOM      9  G   UNL     1     139.868 139.624 131.531  1.00  0.00     0.000 G0
ENDBRANCH   5   6
ENDBRANCH   4   5
ENDBRANCH   3   4
BRANCH   3  10
ATOM     10  C   UNL     1     140.981 137.421 136.551  1.00  0.00    -0.010 C 
ATOM     11  C   UNL     1     142.111 138.206 137.239  1.00  0.00     0.008 C 
ATOM     12  C   UNL     1     139.896 137.015 137.551  1.00  0.00     0.008 C 
ENDBRANCH   3  10
ENDBRANCH   2   3
BRANCH   1  13
ATOM     13  C   UNL     1     142.064 138.661 132.539  1.00  0.00    -0.055 C 
ATOM     14  C   UNL     1     143.258 138.820 133.120  1.00  0.00     0.012 C 
BRANCH  13  15
ATOM     15  C   UNL     1     141.355 139.862 131.936  1.00  0.00     0.039 C 
BRANCH  15  16
ATOM     16  C   UNL     1     139.880 139.639 131.521  1.00  0.00     0.032 CG0
ATOM     17  G   UNL     1     138.929 140.616 132.149  1.00  0.00     0.000 G0
ENDBRANCH  15  16
ENDBRANCH  13  15
ENDBRANCH   1  13
TORSDOF 1
ENDMDL
MODEL 3
REMARK VINA RESULT:    -3.610      3.968      5.714
REMARK INTER + INTRA:          -5.990
REMARK INTER:                  -5.301
REMARK INTRA:                  -0.689
REMARK UNBOUND:                -0.692
REMARK SMILES C=C1C=C[C@H](C(C)C)CCC(C)=CCC1
REMARK SMILES IDX 3 1 4 2 5 3 9 4 10 5 11 6 12 7 13 8 6 10 7 11 8 12 2 13 1 14
REMARK SMILES IDX 15 15 14 16
REMARK H PARENT
REMARK Flexibility Score: 70.00
ROOT
ATOM      1  C   UNL     1     140.967 144.732 134.542  1.00  0.00    -0.001 C 
ATOM      2  C   UNL     1     141.346 144.962 133.277  1.00  0.00    -0.023 C 
ENDROOT
BRANCH   2   3
ATOM      3  C   UNL     1     141.430 144.003 132.095  1.00  0.00     0.014 C 
BRANCH   3   4
ATOM      4  C   UNL     1     142.418 142.801 132.260  1.00  0.00     0.012 C 
BRANCH   4   5
ATOM      5  C   UNL     1     143.737 142.902 133.078  1.00  0.00     0.031 C 
BRANCH   5   6
ATOM      6  C   UNL     1     144.067 141.872 134.160  1.00  0.00    -0.077 C 
ATOM      7  C   UNL     1     145.001 140.736 133.810  1.00  0.00     0.039 C 
ATOM      8  C   UNL     1     143.801 142.036 135.476  1.00  0.00    -0.028 CG0
ATOM      9  G   UNL     1     142.913 143.093 136.068  1.00  0.00     0.000 G0
ENDBRANCH   5   6
ENDBRANCH   4   5
ENDBRANCH   3   4
BRANCH   3  10
ATOM     10  C   UNL     1     140.063 143.847 131.360  1.00  0.00    -0.010 C 
ATOM     11  C   UNL     1     139.476 142.430 131.488  1.00  0.00     0.008 C 
ATOM     12  C   UNL     1     139.018 144.914 131.694  1.00  0.00     0.008 C 
ENDBRANCH   3  10
ENDBRANCH   2   3
BRANCH   1  13
ATOM     13  C   UNL     1     140.513 143.458 135.112  1.00  0.00    -0.055 C 
ATOM     14  C   UNL     1     139.203 143.191 135.076  1.00  0.00     0.012 C 
BRANCH  13  15
ATOM     15  C   UNL     1     141.404 142.718 136.096  1.00  0.00     0.039 C 
BRANCH  15  16
ATOM     16  C   UNL     1     142.904 143.101 136.071  1.00  0.00     0.032 CG0
ATOM     17  G   UNL     1     143.783 142.033 135.485  1.00  0.00     0.000 G0
ENDBRANCH  15  16
ENDBRANCH  13  15
ENDBRANCH   1  13
TORSDOF 1
ENDMDL
MODEL 4
REMARK VINA RESULT:    -3.577      3.076      3.930
REMARK INTER + INTRA:          -5.942
REMARK INTER:                  -5.283
REMARK INTRA:                  -0.659
REMARK UNBOUND:                -0.692
REMARK SMILES C=C1C=C[C@H](C(C)C)CCC(C)=CCC1
REMARK SMILES IDX 3 1 4 2 5 3 9 4 10 5 11 6 12 7 13 8 6 10 7 11 8 12 2 13 1 14
REMARK SMILES IDX 15 15 14 16
REMARK H PARENT
REMARK Flexibility Score: 70.00
ROOT
ATOM      1  C   UNL     1     137.664 140.464 133.551  1.00  0.00    -0.001 C 
ATOM      2  C   UNL     1     137.276 141.395 134.434  1.00  0.00    -0.023 C 
ENDROOT
BRANCH   2   3
ATOM      3  C   UNL     1     138.040 142.013 135.598  1.00  0.00     0.014 C 
BRANCH   3   4
ATOM      4  C   UNL     1     138.750 143.376 135.302  1.00  0.00     0.012 C 
BRANCH   4   5
ATOM      5  C   UNL     1     140.294 143.554 135.373  1.00  0.00     0.031 C 
BRANCH   5   6
ATOM      6  C   UNL     1     141.139 143.564 134.100  1.00  0.00    -0.077 C 
ATOM      7  C   UNL     1     141.712 144.881 133.627  1.00  0.00     0.039 C 
ATOM      8  C   UNL     1     141.636 142.455 133.504  1.00  0.00    -0.028 CG0
ATOM      9  G   UNL     1     141.232 141.040 133.808  1.00  0.00     0.000 G0
ENDBRANCH   5   6
ENDBRANCH   4   5
ENDBRANCH   3   4
BRANCH   3  10
ATOM     10  C   UNL     1     137.362 141.723 136.973  1.00  0.00    -0.010 C 
ATOM     11  C   UNL     1     137.909 140.454 137.650  1.00  0.00     0.008 C 
ATOM     12  C   UNL     1     137.330 142.903 137.946  1.00  0.00     0.008 C 
ENDBRANCH   3  10
ENDBRANCH   2   3
BRANCH   1  13
ATOM     13  C   UNL     1     138.971 139.798 133.484  1.00  0.00    -0.055 C 
ATOM     14  C   UNL     1     139.202 138.794 134.337  1.00  0.00     0.012 C 
BRANCH  13  15
ATOM     15  C   UNL     1     140.141 140.510 132.826  1.00  0.00     0.039 C 
BRANCH  15  16
ATOM     16  C   UNL     1     141.239 141.034 133.783  1.00  0.00     0.032 CG0
ATOM     17  G   UNL     1     141.649 142.451 133.503  1.00  0.00     0.000 G0
ENDBRANCH  15  16
ENDBRANCH  13  15
ENDBRANCH   1  13
TORSDOF 1
ENDMDL
MODEL 5
REMARK VINA RESULT:    -3.548      2.518      4.146
REMARK INTER + INTRA:          -5.899
REMARK INTER:                  -5.341
REMARK INTRA:                  -0.558
REMARK UNBOUND:                -0.692
REMARK SMILES C=C1C=C[C@H](C(C)C)CCC(C)=CCC1
REMARK SMILES IDX 3 1 4 2 5 3 9 4 10 5 11 6 12 7 13 8 6 10 7 11 8 12 2 13 1 14
REMARK SMILES IDX 15 15 14 16
REMARK H PARENT
REMARK Flexibility Score: 70.00
ROOT
ATOM      1  C   UNL     1     144.246 140.051 132.904  1.00  0.00    -0.001 C 
ATOM      2  C   UNL     1     144.924 140.817 133.770  1.00  0.00    -0.023 C 
ENDROOT
BRANCH   2   3
ATOM      3  C   UNL     1     144.520 141.317 135.152  1.00  0.00     0.014 C 
BRANCH   3   4
ATOM      4  C   UNL     1     143.272 142.262 135.198  1.00  0.00     0.012 C 
BRANCH   4   5
ATOM      5  C   UNL     1     142.969 143.311 134.090  1.00  0.00     0.031 C 
BRANCH   5   6
ATOM      6  C   UNL     1     141.594 143.372 133.426  1.00  0.00    -0.077 C 
ATOM      7  C   UNL     1     140.656 144.492 133.818  1.00  0.00     0.039 C 
ATOM      8  C   UNL     1     141.243 142.663 132.328  1.00  0.00    -0.028 CG0
ATOM      9  G   UNL     1     142.013 141.515 131.742  1.00  0.00     0.000 G0
ENDBRANCH   5   6
ENDBRANCH   4   5
ENDBRANCH   3   4
BRANCH   3  10
ATOM     10  C   UNL     1     144.791 140.262 136.267  1.00  0.00    -0.010 C 
ATOM     11  C   UNL     1     145.454 140.871 137.516  1.00  0.00     0.008 C 
ATOM     12  C   UNL     1     143.592 139.389 136.644  1.00  0.00     0.008 C 
ENDBRANCH   3  10
ENDBRANCH   2   3
BRANCH   1  13
ATOM     13  C   UNL     1     142.907 139.478 133.088  1.00  0.00    -0.055 C 
ATOM     14  C   UNL     1     142.825 138.193 133.451  1.00  0.00     0.012 C 
BRANCH  13  15
ATOM     15  C   UNL     1     141.708 140.157 132.449  1.00  0.00     0.039 C 
BRANCH  15  16
ATOM     16  C   UNL     1     141.992 141.504 131.739  1.00  0.00     0.032 CG0
ATOM     17  G   UNL     1     141.233 142.660 132.326  1.00  0.00     0.000 G0
ENDBRANCH  15  16
ENDBRANCH  13  15
ENDBRANCH   1  13
TORSDOF 1
ENDMDL
MODEL 6
REMARK VINA RESULT:    -3.475      2.076      3.491
REMARK INTER + INTRA:          -5.792
REMARK INTER:                  -5.225
REMARK INTRA:                  -0.567
REMARK UNBOUND:                -0.692
REMARK SMILES C=C1C=C[C@H](C(C)C)CCC(C)=CCC1
REMARK SMILES IDX 3 1 4 2 5 3 9 4 10 5 11 6 12 7 13 8 6 10 7 11 8 12 2 13 1 14
REMARK SMILES IDX 15 15 14 16
REMARK H PARENT
REMARK Flexibility Score: 70.00
ROOT
ATOM      1  C   UNL     1     139.952 137.987 133.790  1.00  0.00    -0.001 C 
ATOM      2  C   UNL     1     141.176 137.727 133.311  1.00  0.00    -0.023 C 
ENDROOT
BRANCH   2   3
ATOM      3  C   UNL     1     142.471 138.517 133.463  1.00  0.00     0.014 C 
BRANCH   3   4
ATOM      4  C   UNL     1     143.006 138.674 134.926  1.00  0.00     0.012 C 
BRANCH   4   5
ATOM      5  C   UNL     1     142.986 140.029 135.688  1.00  0.00     0.031 C 
BRANCH   5   6
ATOM      6  C   UNL     1     142.913 141.353 134.928  1.00  0.00    -0.077 C 
ATOM      7  C   UNL     1     144.185 141.909 134.328  1.00  0.00     0.039 C 
ATOM      8  C   UNL     1     141.763 141.939 134.523  1.00  0.00    -0.028 CG0
ATOM      9  G   UNL     1     140.380 141.560 134.970  1.00  0.00     0.000 G0
ENDBRANCH   5   6
ENDBRANCH   4   5
ENDBRANCH   3   4
BRANCH   3  10
ATOM     10  C   UNL     1     143.435 138.315 132.254  1.00  0.00    -0.010 C 
ATOM     11  C   UNL     1     142.921 137.266 131.251  1.00  0.00     0.008 C 
ATOM     12  C   UNL     1     143.866 139.600 131.543  1.00  0.00     0.008 C 
ENDBRANCH   3  10
ENDBRANCH   2   3
BRANCH   1  13
ATOM     13  C   UNL     1     139.550 139.131 134.618  1.00  0.00    -0.055 C 
ATOM     14  C   UNL     1     138.732 138.895 135.650  1.00  0.00     0.012 C 
BRANCH  13  15
ATOM     15  C   UNL     1     139.667 140.538 134.059  1.00  0.00     0.039 C 
BRANCH  15  16
ATOM     16  C   UNL     1     140.364 141.574 134.975  1.00  0.00     0.032 CG0
ATOM     17  G   UNL     1     141.750 141.936 134.522  1.00  0.00     0.000 G0
ENDBRANCH  15  16
ENDBRANCH  13  15
ENDBRANCH   1  13
TORSDOF 1
ENDMDL
MODEL 7
REMARK VINA RESULT:    -3.462      2.937      4.223
REMARK INTER + INTRA:          -5.773
REMARK INTER:                  -5.163
REMARK INTRA:                  -0.610
REMARK UNBOUND:                -0.692
REMARK SMILES C=C1C=C[C@H](C(C)C)CCC(C)=CCC1
REMARK SMILES IDX 3 1 4 2 5 3 9 4 10 5 11 6 12 7 13 8 6 10 7 11 8 12 2 13 1 14
REMARK SMILES IDX 15 15 14 16
REMARK H PARENT
REMARK Flexibility Score: 70.00
ROOT
ATOM      1  C   UNL     1     139.860 144.046 134.335  1.00  0.00    -0.001 C 
ATOM      2  C   UNL     1     139.533 142.807 134.730  1.00  0.00    -0.023 C 
ENDROOT
BRANCH   2   3
ATOM      3  C   UNL     1     139.769 141.469 134.039  1.00  0.00     0.014 C 
BRANCH   3   4
ATOM      4  C   UNL     1     141.190 140.842 134.231  1.00  0.00     0.012 C 
BRANCH   4   5
ATOM      5  C   UNL     1     142.212 140.700 133.068  1.00  0.00     0.031 C 
BRANCH   5   6
ATOM      6  C   UNL     1     143.553 141.432 133.111  1.00  0.00    -0.077 C 
ATOM      7  C   UNL     1     144.774 140.670 133.577  1.00  0.00     0.039 C 
ATOM      8  C   UNL     1     143.791 142.627 132.521  1.00  0.00    -0.028 CG0
ATOM      9  G   UNL     1     142.748 143.558 131.974  1.00  0.00     0.000 G0
ENDBRANCH   5   6
ENDBRANCH   4   5
ENDBRANCH   3   4
BRANCH   3  10
ATOM     10  C   UNL     1     138.482 140.588 133.998  1.00  0.00    -0.010 C 
ATOM     11  C   UNL     1     137.202 141.413 133.774  1.00  0.00     0.008 C 
ATOM     12  C   UNL     1     138.544 139.389 133.049  1.00  0.00     0.008 C 
ENDBRANCH   3  10
ENDBRANCH   2   3
BRANCH   1  13
ATOM     13  C   UNL     1     140.558 144.425 133.101  1.00  0.00    -0.055 C 
ATOM     14  C   UNL     1     139.877 144.349 131.952  1.00  0.00     0.012 C 
BRANCH  13  15
ATOM     15  C   UNL     1     142.077 144.443 133.075  1.00  0.00     0.039 C 
BRANCH  15  16
ATOM     16  C   UNL     1     142.745 143.579 131.977  1.00  0.00     0.032 CG0
ATOM     17  G   UNL     1     143.777 142.627 132.511  1.00  0.00     0.000 G0
ENDBRANCH  15  16
ENDBRANCH  13  15
ENDBRANCH   1  13
TORSDOF 1
ENDMDL
MODEL 8
REMARK VINA RESULT:    -3.423      4.019      4.747
REMARK INTER + INTRA:          -5.715
REMARK INTER:                  -5.109
REMARK INTRA:                  -0.606
REMARK UNBOUND:                -0.692
REMARK SMILES C=C1C=C[C@H](C(C)C)CCC(C)=CCC1
REMARK SMILES IDX 3 1 4 2 5 3 9 4 10 5 11 6 12 7 13 8 6 10 7 11 8 12 2 13 1 14
REMARK SMILES IDX 15 15 14 16
REMARK H PARENT
REMARK Flexibility Score: 70.00
ROOT
ATOM      1  C   UNL     1     141.352 145.145 133.299  1.00  0.00    -0.001 C 
ATOM      2  C   UNL     1     141.395 144.772 134.586  1.00  0.00    -0.023 C 
ENDROOT
BRANCH   2   3
ATOM      3  C   UNL     1     141.014 143.445 135.230  1.00  0.00     0.014 C 
BRANCH   3   4
ATOM      4  C   UNL     1     142.158 142.380 135.325  1.00  0.00     0.012 C 
BRANCH   4   5
ATOM      5  C   UNL     1     143.624 142.679 134.902  1.00  0.00     0.031 C 
BRANCH   5   6
ATOM      6  C   UNL     1     144.265 141.943 133.726  1.00  0.00    -0.077 C 
ATOM      7  C   UNL     1     144.959 140.626 133.993  1.00  0.00     0.039 C 
ATOM      8  C   UNL     1     144.038 142.239 132.425  1.00  0.00    -0.028 CG0
ATOM      9  G   UNL     1     143.362 143.478 131.912  1.00  0.00     0.000 G0
ENDBRANCH   5   6
ENDBRANCH   4   5
ENDBRANCH   3   4
BRANCH   3  10
ATOM     10  C   UNL     1     139.957 143.617 136.363  1.00  0.00    -0.010 C 
ATOM     11  C   UNL     1     138.527 143.286 135.899  1.00  0.00     0.008 C 
ATOM     12  C   UNL     1     140.292 142.912 137.679  1.00  0.00     0.008 C 
ENDBRANCH   3  10
ENDBRANCH   2   3
BRANCH   1  13
ATOM     13  C   UNL     1     140.923 144.330 132.155  1.00  0.00    -0.055 C 
ATOM     14  C   UNL     1     139.610 144.240 131.914  1.00  0.00     0.012 C 
BRANCH  13  15
ATOM     15  C   UNL     1     141.866 143.285 131.584  1.00  0.00     0.039 C 
BRANCH  15  16
ATOM     16  C   UNL     1     143.368 143.483 131.903  1.00  0.00     0.032 CG0
ATOM     17  G   UNL     1     144.040 142.240 132.413  1.00  0.00     0.000 G0
ENDBRANCH  15  16
ENDBRANCH  13  15
ENDBRANCH   1  13
TORSDOF 1
ENDMDL
MODEL 9
REMARK VINA RESULT:    -3.400      2.583      4.959
REMARK INTER + INTRA:          -5.682
REMARK INTER:                  -5.064
REMARK INTRA:                  -0.618
REMARK UNBOUND:                -0.692
REMARK SMILES C=C1C=C[C@H](C(C)C)CCC(C)=CCC1
REMARK SMILES IDX 3 1 4 2 5 3 9 4 10 5 11 6 12 7 13 8 6 10 7 11 8 12 2 13 1 14
REMARK SMILES IDX 15 15 14 16
REMARK H PARENT
REMARK Flexibility Score: 70.00
ROOT
ATOM      1  C   UNL     1     144.004 142.692 134.382  1.00  0.00    -0.001 C 
ATOM      2  C   UNL     1     142.791 142.928 134.903  1.00  0.00    -0.023 C 
ENDROOT
BRANCH   2   3
ATOM      3  C   UNL     1     141.410 142.709 134.296  1.00  0.00     0.014 C 
BRANCH   3   4
ATOM      4  C   UNL     1     140.715 141.352 134.655  1.00  0.00     0.012 C 
BRANCH   4   5
ATOM      5  C   UNL     1     140.604 140.172 133.648  1.00  0.00     0.031 C 
BRANCH   5   6
ATOM      6  C   UNL     1     141.557 138.980 133.733  1.00  0.00    -0.077 C 
ATOM      7  C   UNL     1     141.098 137.743 134.474  1.00  0.00     0.039 C 
ATOM      8  C   UNL     1     142.673 138.838 132.981  1.00  0.00    -0.028 CG0
ATOM      9  G   UNL     1     143.316 139.914 132.153  1.00  0.00     0.000 G0
ENDBRANCH   5   6
ENDBRANCH   4   5
ENDBRANCH   3   4
BRANCH   3  10
ATOM     10  C   UNL     1     140.602 144.036 134.167  1.00  0.00    -0.010 C 
ATOM     11  C   UNL     1     141.336 145.102 133.334  1.00  0.00     0.008 C 
ATOM     12  C   UNL     1     139.151 143.873 133.708  1.00  0.00     0.008 C 
ENDBRANCH   3  10
ENDBRANCH   2   3
BRANCH   1  13
ATOM     13  C   UNL     1     144.305 142.134 133.059  1.00  0.00    -0.055 C 
ATOM     14  C   UNL     1     144.031 142.888 131.988  1.00  0.00     0.012 C 
BRANCH  13  15
ATOM     15  C   UNL     1     144.467 140.632 132.898  1.00  0.00     0.039 C 
BRANCH  15  16
ATOM     16  C   UNL     1     143.320 139.903 132.157  1.00  0.00     0.032 CG0
ATOM     17  G   UNL     1     142.657 138.838 132.982  1.00  0.00     0.000 G0
ENDBRANCH  15  16
ENDBRANCH  13  15
ENDBRANCH   1  13
TORSDOF 1
ENDMDL
