MODEL 1
REMARK VINA RESULT:    16.850      0.000      0.000
REMARK INTER + INTRA:          32.050
REMARK INTER:                  24.730
REMARK INTRA:                   7.320
REMARK UNBOUND:                 7.320
REMARK SMILES Cc1cc2c(C(C)C)c(O)c(O)c(C=O)c2c(O)c1-c1c(C)cc2c(C(C)C)c(O)c(O)c(C=O)c2c1O
REMARK SMILES IDX 1 1 2 2 3 3 4 4 16 5 13 6 11 7 9 8 5 9 17 10 19 11 20 12
REMARK SMILES IDX 37 13 21 14 36 15 23 16 22 17 24 18 33 19 25 20 31 21 29 22
REMARK SMILES IDX 38 23 34 25 35 26 26 27 27 28 28 29 32 30 30 32 18 34 6 36
REMARK SMILES IDX 7 37 8 38 14 39 15 40 10 41 12 43
REMARK H PARENT 38 24 32 31 30 33 18 35 10 42 12 44
REMARK Flexibility Score: inf
ROOT
ATOM      1  C   UNL     1      26.890  35.060  25.132  1.00  0.00     0.045 C 
ATOM      2  C   UNL     1      27.287  33.685  24.650  1.00  0.00    -0.039 A 
ATOM      3  C   UNL     1      27.385  32.639  25.570  1.00  0.00     0.013 A 
ATOM      4  C   UNL     1      27.793  31.342  25.187  1.00  0.00    -0.006 A 
ATOM      5  C   UNL     1      28.064  31.089  23.810  1.00  0.00     0.039 A 
ATOM      6  C   UNL     1      28.469  29.781  23.418  1.00  0.00     0.072 A 
ATOM      7  C   UNL     1      28.381  28.718  24.327  1.00  0.00     0.169 A 
ATOM      8  C   UNL     1      28.025  28.956  25.666  1.00  0.00     0.162 A 
ATOM      9  C   UNL     1      27.896  30.282  26.141  1.00  0.00     0.008 A 
ATOM     10  C   UNL     1      27.875  32.136  22.861  1.00  0.00     0.132 A 
ATOM     11  C   UNL     1      27.548  33.438  23.291  1.00  0.00     0.031 A 
ENDROOT
BRANCH  11  12
ATOM     12  C   UNL     1      27.431  34.538  22.298  1.00  0.00     0.031 A 
ATOM     13  C   UNL     1      26.582  35.636  22.554  1.00  0.00     0.132 A 
ATOM     14  C   UNL     1      28.177  34.490  21.110  1.00  0.00    -0.039 A 
ATOM     15  C   UNL     1      26.408  36.656  21.576  1.00  0.00     0.039 A 
ATOM     16  C   UNL     1      28.105  35.556  20.209  1.00  0.00     0.013 A 
ATOM     17  C   UNL     1      29.125  33.350  20.825  1.00  0.00     0.045 C 
ATOM     18  C   UNL     1      27.213  36.634  20.400  1.00  0.00    -0.006 A 
ATOM     19  C   UNL     1      25.492  37.729  21.762  1.00  0.00     0.072 A 
ATOM     20  C   UNL     1      27.144  37.714  19.467  1.00  0.00     0.008 A 
ATOM     21  C   UNL     1      25.575  38.867  20.946  1.00  0.00     0.169 A 
ATOM     22  C   UNL     1      26.458  38.889  19.850  1.00  0.00     0.162 A 
BRANCH  13  23
ATOM     23  O   UNL     1      25.957  35.746  23.801  1.00  0.00    -0.507 OA
ATOM     24  H   UNL     1      26.346  36.254  24.585  1.00  0.00     0.293 HD
ENDBRANCH  13  23
BRANCH  19  25
ATOM     25  C   UNL     1      24.375  37.677  22.733  1.00  0.00     0.264 C 
ATOM     26  O   UNL     1      23.189  37.882  22.361  1.00  0.00    -0.298 OA
ENDBRANCH  19  25
BRANCH  20  27
ATOM     27  C   UNL     1      27.838  37.649  18.097  1.00  0.00     0.017 C 
ATOM     28  C   UNL     1      29.122  38.483  18.090  1.00  0.00     0.012 C 
ATOM     29  C   UNL     1      26.922  38.027  16.917  1.00  0.00     0.012 C 
ENDBRANCH  20  27
BRANCH  21  30
ATOM     30  O   UNL     1      24.727  39.947  21.216  1.00  0.00    -0.504 OA
ATOM     31  H   UNL     1      24.882  40.619  21.954  1.00  0.00     0.293 HD
ENDBRANCH  21  30
BRANCH  22  32
ATOM     32  O   UNL     1      26.673  40.069  19.134  1.00  0.00    -0.504 OA
ATOM     33  H   UNL     1      26.107  40.368  18.353  1.00  0.00     0.293 HD
ENDBRANCH  22  32
ENDBRANCH  11  12
BRANCH  10  34
ATOM     34  O   UNL     1      27.964  31.866  21.491  1.00  0.00    -0.507 OA
ATOM     35  H   UNL     1      27.861  32.570  20.769  1.00  0.00     0.293 HD
ENDBRANCH  10  34
BRANCH   9  36
ATOM     36  C   UNL     1      27.818  30.542  27.655  1.00  0.00     0.017 C 
ATOM     37  C   UNL     1      26.625  29.812  28.279  1.00  0.00     0.012 C 
ATOM     38  C   UNL     1      29.124  30.225  28.407  1.00  0.00     0.012 C 
ENDBRANCH   9  36
BRANCH   6  39
ATOM     39  C   UNL     1      29.071  29.482  22.100  1.00  0.00     0.264 C 
ATOM     40  O   UNL     1      28.379  28.973  21.177  1.00  0.00    -0.298 OA
ENDBRANCH   6  39
BRANCH   8  41
ATOM     41  O   UNL     1      27.786  27.893  26.541  1.00  0.00    -0.504 OA
ATOM     42  H   UNL     1      27.939  27.932  27.538  1.00  0.00     0.293 HD
ENDBRANCH   8  41
BRANCH   7  43
ATOM     43  O   UNL     1      28.703  27.429  23.880  1.00  0.00    -0.504 OA
ATOM     44  H   UNL     1      28.989  27.212  22.936  1.00  0.00     0.293 HD
ENDBRANCH   7  43
TORSDOF 11
ENDMDL
MODEL 2
REMARK VINA RESULT:    17.731     11.998     16.464
REMARK INTER + INTRA:          33.343
REMARK INTER:                  26.362
REMARK INTRA:                   6.980
REMARK UNBOUND:                 7.320
REMARK SMILES Cc1cc2c(C(C)C)c(O)c(O)c(C=O)c2c(O)c1-c1c(C)cc2c(C(C)C)c(O)c(O)c(C=O)c2c1O
REMARK SMILES IDX 1 1 2 2 3 3 4 4 16 5 13 6 11 7 9 8 5 9 17 10 19 11 20 12
REMARK SMILES IDX 37 13 21 14 36 15 23 16 22 17 24 18 33 19 25 20 31 21 29 22
REMARK SMILES IDX 38 23 34 25 35 26 26 27 27 28 28 29 32 30 30 32 18 34 6 36
REMARK SMILES IDX 7 37 8 38 14 39 15 40 10 41 12 43
REMARK H PARENT 38 24 32 31 30 33 18 35 10 42 12 44
REMARK Flexibility Score: inf
ROOT
ATOM      1  C   UNL     1      10.763  35.826  25.347  1.00  0.00     0.045 C 
ATOM      2  C   UNL     1      12.048  35.829  24.553  1.00  0.00    -0.039 A 
ATOM      3  C   UNL     1      12.179  36.696  23.466  1.00  0.00     0.013 A 
ATOM      4  C   UNL     1      13.340  36.714  22.660  1.00  0.00    -0.006 A 
ATOM      5  C   UNL     1      14.424  35.855  23.003  1.00  0.00     0.039 A 
ATOM      6  C   UNL     1      15.599  35.875  22.199  1.00  0.00     0.072 A 
ATOM      7  C   UNL     1      15.770  36.878  21.234  1.00  0.00     0.169 A 
ATOM      8  C   UNL     1      14.732  37.784  20.959  1.00  0.00     0.162 A 
ATOM      9  C   UNL     1      13.458  37.603  21.546  1.00  0.00     0.008 A 
ATOM     10  C   UNL     1      14.322  35.038  24.167  1.00  0.00     0.132 A 
ATOM     11  C   UNL     1      13.117  34.984  24.898  1.00  0.00     0.031 A 
ENDROOT
BRANCH  11  12
ATOM     12  C   UNL     1      12.998  34.069  26.063  1.00  0.00     0.031 A 
ATOM     13  C   UNL     1      14.147  33.699  26.794  1.00  0.00     0.132 A 
ATOM     14  C   UNL     1      11.737  33.583  26.445  1.00  0.00    -0.039 A 
ATOM     15  C   UNL     1      14.052  32.765  27.864  1.00  0.00     0.039 A 
ATOM     16  C   UNL     1      11.627  32.771  27.576  1.00  0.00     0.013 A 
ATOM     17  C   UNL     1      10.484  33.993  25.710  1.00  0.00     0.045 C 
ATOM     18  C   UNL     1      12.763  32.323  28.286  1.00  0.00    -0.006 A 
ATOM     19  C   UNL     1      15.200  32.301  28.562  1.00  0.00     0.072 A 
ATOM     20  C   UNL     1      12.637  31.486  29.437  1.00  0.00     0.008 A 
ATOM     21  C   UNL     1      15.051  31.644  29.793  1.00  0.00     0.169 A 
ATOM     22  C   UNL     1      13.768  31.312  30.267  1.00  0.00     0.162 A 
BRANCH  13  23
ATOM     23  O   UNL     1      15.375  34.301  26.496  1.00  0.00    -0.507 OA
ATOM     24  H   UNL     1      16.067  33.895  25.880  1.00  0.00     0.293 HD
ENDBRANCH  13  23
BRANCH  19  25
ATOM     25  C   UNL     1      16.572  32.393  28.012  1.00  0.00     0.264 C 
ATOM     26  O   UNL     1      17.411  33.194  28.502  1.00  0.00    -0.298 OA
ENDBRANCH  19  25
BRANCH  20  27
ATOM     27  C   UNL     1      11.302  30.826  29.818  1.00  0.00     0.017 C 
ATOM     28  C   UNL     1      10.522  31.694  30.810  1.00  0.00     0.012 C 
ATOM     29  C   UNL     1      11.448  29.382  30.337  1.00  0.00     0.012 C 
ENDBRANCH  20  27
BRANCH  21  30
ATOM     30  O   UNL     1      16.202  31.287  30.505  1.00  0.00    -0.504 OA
ATOM     31  H   UNL     1      17.144  31.443  30.176  1.00  0.00     0.293 HD
ENDBRANCH  21  30
BRANCH  22  32
ATOM     32  O   UNL     1      13.594  30.814  31.561  1.00  0.00    -0.504 OA
ATOM     33  H   UNL     1      13.868  31.307  32.399  1.00  0.00     0.293 HD
ENDBRANCH  22  32
ENDBRANCH  11  12
BRANCH  10  34
ATOM     34  O   UNL     1      15.433  34.321  24.622  1.00  0.00    -0.507 OA
ATOM     35  H   UNL     1      15.509  33.925  25.552  1.00  0.00     0.293 HD
ENDBRANCH  10  34
BRANCH   9  36
ATOM     36  C   UNL     1      12.254  38.396  21.009  1.00  0.00     0.017 C 
ATOM     37  C   UNL     1      10.969  37.567  21.090  1.00  0.00     0.012 C 
ATOM     38  C   UNL     1      12.074  39.774  21.672  1.00  0.00     0.012 C 
ENDBRANCH   9  36
BRANCH   6  39
ATOM     39  C   UNL     1      16.642  34.827  22.262  1.00  0.00     0.264 C 
ATOM     40  O   UNL     1      17.591  34.913  23.086  1.00  0.00    -0.298 OA
ENDBRANCH   6  39
BRANCH   8  41
ATOM     41  O   UNL     1      14.943  38.876  20.113  1.00  0.00    -0.504 OA
ATOM     42  H   UNL     1      14.240  39.265  19.501  1.00  0.00     0.293 HD
ENDBRANCH   8  41
BRANCH   7  43
ATOM     43  O   UNL     1      16.977  36.919  20.523  1.00  0.00    -0.504 OA
ATOM     44  H   UNL     1      17.049  37.144  19.541  1.00  0.00     0.293 HD
ENDBRANCH   7  43
TORSDOF 11
ENDMDL
MODEL 3
REMARK VINA RESULT:    18.762     12.023     14.379
REMARK INTER + INTRA:          34.857
REMARK INTER:                  27.678
REMARK INTRA:                   7.179
REMARK UNBOUND:                 7.320
REMARK SMILES Cc1cc2c(C(C)C)c(O)c(O)c(C=O)c2c(O)c1-c1c(C)cc2c(C(C)C)c(O)c(O)c(C=O)c2c1O
REMARK SMILES IDX 1 1 2 2 3 3 4 4 16 5 13 6 11 7 9 8 5 9 17 10 19 11 20 12
REMARK SMILES IDX 37 13 21 14 36 15 23 16 22 17 24 18 33 19 25 20 31 21 29 22
REMARK SMILES IDX 38 23 34 25 35 26 26 27 27 28 28 29 32 30 30 32 18 34 6 36
REMARK SMILES IDX 7 37 8 38 14 39 15 40 10 41 12 43
REMARK H PARENT 38 24 32 31 30 33 18 35 10 42 12 44
REMARK Flexibility Score: inf
ROOT
ATOM      1  C   UNL     1      10.544  33.590  26.212  1.00  0.00     0.045 C 
ATOM      2  C   UNL     1      11.861  33.258  26.874  1.00  0.00    -0.039 A 
ATOM      3  C   UNL     1      11.883  32.358  27.941  1.00  0.00     0.013 A 
ATOM      4  C   UNL     1      13.077  32.041  28.627  1.00  0.00    -0.006 A 
ATOM      5  C   UNL     1      14.299  32.623  28.179  1.00  0.00     0.039 A 
ATOM      6  C   UNL     1      15.505  32.301  28.863  1.00  0.00     0.072 A 
ATOM      7  C   UNL     1      15.522  31.263  29.804  1.00  0.00     0.169 A 
ATOM      8  C   UNL     1      14.327  30.626  30.180  1.00  0.00     0.162 A 
ATOM      9  C   UNL     1      13.084  31.122  29.723  1.00  0.00     0.008 A 
ATOM     10  C   UNL     1      14.284  33.471  27.033  1.00  0.00     0.132 A 
ATOM     11  C   UNL     1      13.064  33.830  26.425  1.00  0.00     0.031 A 
ENDROOT
BRANCH  11  12
ATOM     12  C   UNL     1      13.057  34.777  25.280  1.00  0.00     0.031 A 
ATOM     13  C   UNL     1      14.183  34.874  24.434  1.00  0.00     0.132 A 
ATOM     14  C   UNL     1      11.923  35.565  25.030  1.00  0.00    -0.039 A 
ATOM     15  C   UNL     1      14.214  35.830  23.380  1.00  0.00     0.039 A 
ATOM     16  C   UNL     1      11.903  36.409  23.916  1.00  0.00     0.013 A 
ATOM     17  C   UNL     1      10.687  35.455  25.889  1.00  0.00     0.045 C 
ATOM     18  C   UNL     1      13.038  36.584  23.093  1.00  0.00    -0.006 A 
ATOM     19  C   UNL     1      15.365  36.019  22.567  1.00  0.00     0.072 A 
ATOM     20  C   UNL     1      13.007  37.456  21.962  1.00  0.00     0.008 A 
ATOM     21  C   UNL     1      15.260  36.723  21.359  1.00  0.00     0.169 A 
ATOM     22  C   UNL     1      14.057  37.370  21.020  1.00  0.00     0.162 A 
BRANCH  13  23
ATOM     23  O   UNL     1      15.249  33.983  24.604  1.00  0.00    -0.507 OA
ATOM     24  H   UNL     1      15.146  32.976  24.614  1.00  0.00     0.293 HD
ENDBRANCH  13  23
BRANCH  19  25
ATOM     25  C   UNL     1      16.720  35.580  22.974  1.00  0.00     0.264 C 
ATOM     26  O   UNL     1      17.304  34.643  22.367  1.00  0.00    -0.298 OA
ENDBRANCH  19  25
BRANCH  20  27
ATOM     27  C   UNL     1      11.844  38.432  21.721  1.00  0.00     0.017 C 
ATOM     28  C   UNL     1      10.727  37.768  20.910  1.00  0.00     0.012 C 
ATOM     29  C   UNL     1      12.274  39.768  21.086  1.00  0.00     0.012 C 
ENDBRANCH  20  27
BRANCH  21  30
ATOM     30  O   UNL     1      16.387  36.807  20.532  1.00  0.00    -0.504 OA
ATOM     31  H   UNL     1      17.339  36.752  20.864  1.00  0.00     0.293 HD
ENDBRANCH  21  30
BRANCH  22  32
ATOM     32  O   UNL     1      13.883  37.929  19.751  1.00  0.00    -0.504 OA
ATOM     33  H   UNL     1      13.033  37.851  19.211  1.00  0.00     0.293 HD
ENDBRANCH  22  32
ENDBRANCH  11  12
BRANCH  10  34
ATOM     34  O   UNL     1      15.487  33.912  26.470  1.00  0.00    -0.507 OA
ATOM     35  H   UNL     1      15.554  34.671  25.802  1.00  0.00     0.293 HD
ENDBRANCH  10  34
BRANCH   9  36
ATOM     36  C   UNL     1      11.782  30.627  30.376  1.00  0.00     0.017 C 
ATOM     37  C   UNL     1      10.680  31.685  30.275  1.00  0.00     0.012 C 
ATOM     38  C   UNL     1      11.300  29.265  29.844  1.00  0.00     0.012 C 
ENDBRANCH   9  36
BRANCH   6  39
ATOM     39  C   UNL     1      16.759  33.070  28.697  1.00  0.00     0.264 C 
ATOM     40  O   UNL     1      17.583  32.770  27.791  1.00  0.00    -0.298 OA
ENDBRANCH   6  39
BRANCH   8  41
ATOM     41  O   UNL     1      14.348  29.493  30.999  1.00  0.00    -0.504 OA
ATOM     42  H   UNL     1      13.567  28.866  31.122  1.00  0.00     0.293 HD
ENDBRANCH   8  41
BRANCH   7  43
ATOM     43  O   UNL     1      16.746  30.915  30.391  1.00  0.00    -0.504 OA
ATOM     44  H   UNL     1      16.834  30.425  31.270  1.00  0.00     0.293 HD
ENDBRANCH   7  43
TORSDOF 11
ENDMDL
MODEL 4
REMARK VINA RESULT:    19.537     11.902     14.062
REMARK INTER + INTRA:          35.994
REMARK INTER:                  27.244
REMARK INTRA:                   8.750
REMARK UNBOUND:                 7.320
REMARK SMILES Cc1cc2c(C(C)C)c(O)c(O)c(C=O)c2c(O)c1-c1c(C)cc2c(C(C)C)c(O)c(O)c(C=O)c2c1O
REMARK SMILES IDX 1 1 2 2 3 3 4 4 16 5 13 6 11 7 9 8 5 9 17 10 19 11 20 12
REMARK SMILES IDX 37 13 21 14 36 15 23 16 22 17 24 18 33 19 25 20 31 21 29 22
REMARK SMILES IDX 38 23 34 25 35 26 26 27 27 28 28 29 32 30 30 32 18 34 6 36
REMARK SMILES IDX 7 37 8 38 14 39 15 40 10 41 12 43
REMARK H PARENT 38 24 32 31 30 33 18 35 10 42 12 44
REMARK Flexibility Score: inf
ROOT
ATOM      1  C   UNL     1      11.159  34.040  25.405  1.00  0.00     0.045 C 
ATOM      2  C   UNL     1      12.307  33.616  26.290  1.00  0.00    -0.039 A 
ATOM      3  C   UNL     1      12.052  32.813  27.404  1.00  0.00     0.013 A 
ATOM      4  C   UNL     1      13.079  32.420  28.292  1.00  0.00    -0.006 A 
ATOM      5  C   UNL     1      14.418  32.818  28.010  1.00  0.00     0.039 A 
ATOM      6  C   UNL     1      15.456  32.418  28.898  1.00  0.00     0.072 A 
ATOM      7  C   UNL     1      15.198  31.468  29.896  1.00  0.00     0.169 A 
ATOM      8  C   UNL     1      13.888  31.007  30.115  1.00  0.00     0.162 A 
ATOM      9  C   UNL     1      12.802  31.602  29.433  1.00  0.00     0.008 A 
ATOM     10  C   UNL     1      14.686  33.561  26.823  1.00  0.00     0.132 A 
ATOM     11  C   UNL     1      13.627  34.006  26.005  1.00  0.00     0.031 A 
ENDROOT
BRANCH  11  12
ATOM     12  C   UNL     1      13.915  34.846  24.813  1.00  0.00     0.031 A 
ATOM     13  C   UNL     1      12.948  35.758  24.339  1.00  0.00     0.132 A 
ATOM     14  C   UNL     1      15.158  34.743  24.168  1.00  0.00    -0.039 A 
ATOM     15  C   UNL     1      13.187  36.511  23.155  1.00  0.00     0.039 A 
ATOM     16  C   UNL     1      15.442  35.578  23.084  1.00  0.00     0.013 A 
ATOM     17  C   UNL     1      16.229  33.808  24.675  1.00  0.00     0.045 C 
ATOM     18  C   UNL     1      14.471  36.448  22.540  1.00  0.00    -0.006 A 
ATOM     19  C   UNL     1      12.200  37.370  22.597  1.00  0.00     0.072 A 
ATOM     20  C   UNL     1      14.772  37.292  21.426  1.00  0.00     0.008 A 
ATOM     21  C   UNL     1      12.566  38.325  21.636  1.00  0.00     0.169 A 
ATOM     22  C   UNL     1      13.873  38.336  21.114  1.00  0.00     0.162 A 
BRANCH  13  23
ATOM     23  O   UNL     1      11.773  35.958  25.072  1.00  0.00    -0.507 OA
ATOM     24  H   UNL     1      11.752  36.332  26.012  1.00  0.00     0.293 HD
ENDBRANCH  13  23
BRANCH  19  25
ATOM     25  C   UNL     1      10.758  37.255  22.914  1.00  0.00     0.264 C 
ATOM     26  O   UNL     1       9.917  37.007  22.010  1.00  0.00    -0.298 OA
ENDBRANCH  19  25
BRANCH  20  27
ATOM     27  C   UNL     1      16.063  37.126  20.608  1.00  0.00     0.017 C 
ATOM     28  C   UNL     1      16.881  35.930  21.106  1.00  0.00     0.012 C 
ATOM     29  C   UNL     1      16.926  38.401  20.542  1.00  0.00     0.012 C 
ENDBRANCH  20  27
BRANCH  21  30
ATOM     30  O   UNL     1      11.594  39.222  21.179  1.00  0.00    -0.504 OA
ATOM     31  H   UNL     1      11.296  39.293  20.217  1.00  0.00     0.293 HD
ENDBRANCH  21  30
BRANCH  22  32
ATOM     32  O   UNL     1      14.299  39.379  20.287  1.00  0.00    -0.504 OA
ATOM     33  H   UNL     1      13.762  39.743  19.514  1.00  0.00     0.293 HD
ENDBRANCH  22  32
ENDBRANCH  11  12
BRANCH  10  34
ATOM     34  O   UNL     1      16.006  33.811  26.434  1.00  0.00    -0.507 OA
ATOM     35  H   UNL     1      16.590  33.139  25.949  1.00  0.00     0.293 HD
ENDBRANCH  10  34
BRANCH   9  36
ATOM     36  C   UNL     1      11.364  31.318  29.899  1.00  0.00     0.017 C 
ATOM     37  C   UNL     1      11.170  29.831  30.210  1.00  0.00     0.012 C 
ATOM     38  C   UNL     1      10.907  32.200  31.076  1.00  0.00     0.012 C 
ENDBRANCH   9  36
BRANCH   6  39
ATOM     39  C   UNL     1      16.808  33.020  28.887  1.00  0.00     0.264 C 
ATOM     40  O   UNL     1      17.747  32.480  28.243  1.00  0.00    -0.298 OA
ENDBRANCH   6  39
BRANCH   8  41
ATOM     41  O   UNL     1      13.641  29.953  31.000  1.00  0.00    -0.504 OA
ATOM     42  H   UNL     1      14.344  29.523  31.581  1.00  0.00     0.293 HD
ENDBRANCH   8  41
BRANCH   7  43
ATOM     43  O   UNL     1      16.264  31.032  30.694  1.00  0.00    -0.504 OA
ATOM     44  H   UNL     1      16.582  31.509  31.525  1.00  0.00     0.293 HD
ENDBRANCH   7  43
TORSDOF 11
ENDMDL
