MODEL 1
REMARK VINA RESULT:    -4.543      0.000      0.000
REMARK INTER + INTRA:          -6.147
REMARK INTER:                  -5.738
REMARK INTRA:                  -0.409
REMARK UNBOUND:                -0.409
REMARK SMILES CC(C)=CCCC(C)=CCO
REMARK SMILES IDX 7 1 9 2 8 3 6 4 5 5 4 6 1 7 2 8 3 9 10 10 11 11
REMARK H PARENT 11 12
REMARK Flexibility Score: inf
ROOT
ATOM      1  C   UNL     1      10.088   5.421   7.771  1.00  0.00    -0.075 C 
ATOM      2  C   UNL     1      10.369   6.659   7.302  1.00  0.00    -0.000 C 
ATOM      3  C   UNL     1       8.661   5.096   8.125  1.00  0.00     0.039 C 
ENDROOT
BRANCH   1   4
ATOM      4  C   UNL     1      11.135   4.330   7.891  1.00  0.00     0.034 C 
BRANCH   4   5
ATOM      5  C   UNL     1      10.938   3.270   6.802  1.00  0.00     0.032 C 
BRANCH   5   6
ATOM      6  C   UNL     1      11.803   3.556   5.598  1.00  0.00    -0.028 C 
ATOM      7  C   UNL     1      12.986   3.011   3.512  1.00  0.00     0.039 C 
ATOM      8  C   UNL     1      12.114   2.619   4.676  1.00  0.00    -0.080 C 
ATOM      9  C   UNL     1      11.607   1.201   4.789  1.00  0.00     0.039 C 
ENDBRANCH   5   6
ENDBRANCH   4   5
ENDBRANCH   1   4
BRANCH   2  10
ATOM     10  C   UNL     1      11.744   7.126   6.900  1.00  0.00     0.183 C 
BRANCH  10  11
ATOM     11  O   UNL     1      11.871   7.135   5.504  1.00  0.00    -0.392 OA
ATOM     12  H   UNL     1      11.358   7.920   5.177  1.00  0.00     0.210 HD
ENDBRANCH  10  11
ENDBRANCH   2  10
TORSDOF 5
ENDMDL
MODEL 2
REMARK VINA RESULT:    -4.519      1.191      1.495
REMARK INTER + INTRA:          -6.116
REMARK INTER:                  -5.571
REMARK INTRA:                  -0.546
REMARK UNBOUND:                -0.409
REMARK SMILES CC(C)=CCCC(C)=CCO
REMARK SMILES IDX 7 1 9 2 8 3 6 4 5 5 4 6 1 7 2 8 3 9 10 10 11 11
REMARK H PARENT 11 12
REMARK Flexibility Score: inf
ROOT
ATOM      1  C   UNL     1      10.169   5.330   7.810  1.00  0.00    -0.075 C 
ATOM      2  C   UNL     1      10.337   6.542   7.230  1.00  0.00    -0.000 C 
ATOM      3  C   UNL     1       8.767   4.858   8.092  1.00  0.00     0.039 C 
ENDROOT
BRANCH   1   4
ATOM      4  C   UNL     1      11.327   4.403   8.125  1.00  0.00     0.034 C 
BRANCH   4   5
ATOM      5  C   UNL     1      10.879   2.938   8.062  1.00  0.00     0.032 C 
BRANCH   5   6
ATOM      6  C   UNL     1      11.456   2.242   6.853  1.00  0.00    -0.028 C 
ATOM      7  C   UNL     1      11.373   1.088   4.683  1.00  0.00     0.039 C 
ATOM      8  C   UNL     1      10.695   1.767   5.843  1.00  0.00    -0.080 C 
ATOM      9  C   UNL     1       9.191   1.906   5.857  1.00  0.00     0.039 C 
ENDBRANCH   5   6
ENDBRANCH   4   5
ENDBRANCH   1   4
BRANCH   2  10
ATOM     10  C   UNL     1      11.674   7.142   6.880  1.00  0.00     0.183 C 
BRANCH  10  11
ATOM     11  O   UNL     1      11.872   7.126   5.492  1.00  0.00    -0.392 OA
ATOM     12  H   UNL     1      12.685   6.581   5.328  1.00  0.00     0.210 HD
ENDBRANCH  10  11
ENDBRANCH   2  10
TORSDOF 5
ENDMDL
MODEL 3
REMARK VINA RESULT:    -4.413      1.692      1.855
REMARK INTER + INTRA:          -5.983
REMARK INTER:                  -5.660
REMARK INTRA:                  -0.323
REMARK UNBOUND:                -0.409
REMARK SMILES CC(C)=CCCC(C)=CCO
REMARK SMILES IDX 7 1 9 2 8 3 6 4 5 5 4 6 1 7 2 8 3 9 10 10 11 11
REMARK H PARENT 11 12
REMARK Flexibility Score: inf
ROOT
ATOM      1  C   UNL     1       9.947   5.501   7.694  1.00  0.00    -0.075 C 
ATOM      2  C   UNL     1      10.401   6.738   7.382  1.00  0.00    -0.000 C 
ATOM      3  C   UNL     1       8.511   5.352   8.123  1.00  0.00     0.039 C 
ENDROOT
BRANCH   1   4
ATOM      4  C   UNL     1      10.803   4.256   7.568  1.00  0.00     0.034 C 
BRANCH   4   5
ATOM      5  C   UNL     1       9.929   2.996   7.582  1.00  0.00     0.032 C 
BRANCH   5   6
ATOM      6  C   UNL     1       9.980   2.280   6.255  1.00  0.00    -0.028 C 
ATOM      7  C   UNL     1      10.426   0.389   4.748  1.00  0.00     0.039 C 
ATOM      8  C   UNL     1      10.415   1.009   6.120  1.00  0.00    -0.080 C 
ATOM      9  C   UNL     1      10.886   0.206   7.309  1.00  0.00     0.039 C 
ENDBRANCH   5   6
ENDBRANCH   4   5
ENDBRANCH   1   4
BRANCH   2  10
ATOM     10  C   UNL     1      11.806   7.041   6.929  1.00  0.00     0.183 C 
BRANCH  10  11
ATOM     11  O   UNL     1      11.862   7.144   5.532  1.00  0.00    -0.392 OA
ATOM     12  H   UNL     1      12.274   6.304   5.202  1.00  0.00     0.210 HD
ENDBRANCH  10  11
ENDBRANCH   2  10
TORSDOF 5
ENDMDL
MODEL 4
REMARK VINA RESULT:    -4.192      1.526      4.541
REMARK INTER + INTRA:          -5.704
REMARK INTER:                  -5.260
REMARK INTRA:                  -0.444
REMARK UNBOUND:                -0.409
REMARK SMILES CC(C)=CCCC(C)=CCO
REMARK SMILES IDX 7 1 9 2 8 3 6 4 5 5 4 6 1 7 2 8 3 9 10 10 11 11
REMARK H PARENT 11 12
REMARK Flexibility Score: inf
ROOT
ATOM      1  C   UNL     1      12.411   1.946   6.320  1.00  0.00    -0.075 C 
ATOM      2  C   UNL     1      13.130   2.390   5.263  1.00  0.00    -0.000 C 
ATOM      3  C   UNL     1      13.130   1.199   7.412  1.00  0.00     0.039 C 
ENDROOT
BRANCH   1   4
ATOM      4  C   UNL     1      10.930   2.226   6.483  1.00  0.00     0.034 C 
BRANCH   4   5
ATOM      5  C   UNL     1      10.653   2.911   7.826  1.00  0.00     0.032 C 
BRANCH   5   6
ATOM      6  C   UNL     1      10.969   4.386   7.762  1.00  0.00    -0.028 C 
ATOM      7  C   UNL     1      10.447   6.789   7.783  1.00  0.00     0.039 C 
ATOM      8  C   UNL     1      10.024   5.346   7.859  1.00  0.00    -0.080 C 
ATOM      9  C   UNL     1       8.565   5.001   8.041  1.00  0.00     0.039 C 
ENDBRANCH   5   6
ENDBRANCH   4   5
ENDBRANCH   1   4
BRANCH   2  10
ATOM     10  C   UNL     1      12.553   3.158   4.101  1.00  0.00     0.183 C 
BRANCH  10  11
ATOM     11  O   UNL     1      12.477   4.524   4.404  1.00  0.00    -0.392 OA
ATOM     12  H   UNL     1      13.152   4.696   5.112  1.00  0.00     0.210 HD
ENDBRANCH  10  11
ENDBRANCH   2  10
TORSDOF 5
ENDMDL
MODEL 5
REMARK VINA RESULT:    -4.116      1.689      2.700
REMARK INTER + INTRA:          -5.607
REMARK INTER:                  -5.054
REMARK INTRA:                  -0.553
REMARK UNBOUND:                -0.409
REMARK SMILES CC(C)=CCCC(C)=CCO
REMARK SMILES IDX 7 1 9 2 8 3 6 4 5 5 4 6 1 7 2 8 3 9 10 10 11 11
REMARK H PARENT 11 12
REMARK Flexibility Score: inf
ROOT
ATOM      1  C   UNL     1      10.896   3.864   7.984  1.00  0.00    -0.075 C 
ATOM      2  C   UNL     1      11.060   5.200   8.119  1.00  0.00    -0.000 C 
ATOM      3  C   UNL     1      12.105   2.976   8.121  1.00  0.00     0.039 C 
ENDROOT
BRANCH   1   4
ATOM      4  C   UNL     1       9.541   3.219   7.767  1.00  0.00     0.034 C 
BRANCH   4   5
ATOM      5  C   UNL     1       9.280   3.000   6.273  1.00  0.00     0.032 C 
BRANCH   5   6
ATOM      6  C   UNL     1       9.368   1.536   5.912  1.00  0.00    -0.028 C 
ATOM      7  C   UNL     1      10.386  -0.463   4.904  1.00  0.00     0.039 C 
ATOM      8  C   UNL     1      10.396   1.012   5.211  1.00  0.00    -0.080 C 
ATOM      9  C   UNL     1      11.545   1.869   4.735  1.00  0.00     0.039 C 
ENDBRANCH   5   6
ENDBRANCH   4   5
ENDBRANCH   1   4
BRANCH   2  10
ATOM     10  C   UNL     1       9.946   6.210   8.017  1.00  0.00     0.183 C 
BRANCH  10  11
ATOM     11  O   UNL     1      10.465   7.510   7.950  1.00  0.00    -0.392 OA
ATOM     12  H   UNL     1      10.093   8.004   8.727  1.00  0.00     0.210 HD
ENDBRANCH  10  11
ENDBRANCH   2  10
TORSDOF 5
ENDMDL
MODEL 6
REMARK VINA RESULT:    -4.100      2.561      5.335
REMARK INTER + INTRA:          -5.587
REMARK INTER:                  -5.108
REMARK INTRA:                  -0.479
REMARK UNBOUND:                -0.409
REMARK SMILES CC(C)=CCCC(C)=CCO
REMARK SMILES IDX 7 1 9 2 8 3 6 4 5 5 4 6 1 7 2 8 3 9 10 10 11 11
REMARK H PARENT 11 12
REMARK Flexibility Score: inf
ROOT
ATOM      1  C   UNL     1      11.812   2.254   5.547  1.00  0.00    -0.075 C 
ATOM      2  C   UNL     1      11.072   1.347   4.868  1.00  0.00    -0.000 C 
ATOM      3  C   UNL     1      12.350   3.444   4.797  1.00  0.00     0.039 C 
ENDROOT
BRANCH   1   4
ATOM      4  C   UNL     1      12.067   2.157   7.038  1.00  0.00     0.034 C 
BRANCH   4   5
ATOM      5  C   UNL     1      11.734   3.484   7.731  1.00  0.00     0.032 C 
BRANCH   5   6
ATOM      6  C   UNL     1      10.245   3.639   7.928  1.00  0.00    -0.028 C 
ATOM      7  C   UNL     1       8.130   4.879   8.124  1.00  0.00     0.039 C 
ATOM      8  C   UNL     1       9.622   4.836   7.916  1.00  0.00    -0.080 C 
ATOM      9  C   UNL     1      10.385   6.121   7.699  1.00  0.00     0.039 C 
ENDBRANCH   5   6
ENDBRANCH   4   5
ENDBRANCH   1   4
BRANCH   2  10
ATOM     10  C   UNL     1      10.461   0.114   5.484  1.00  0.00     0.183 C 
BRANCH  10  11
ATOM     11  O   UNL     1       9.201  -0.141   4.926  1.00  0.00    -0.392 OA
ATOM     12  H   UNL     1       8.991   0.628   4.333  1.00  0.00     0.210 HD
ENDBRANCH  10  11
ENDBRANCH   2  10
TORSDOF 5
ENDMDL
MODEL 7
REMARK VINA RESULT:    -4.016      1.143      1.409
REMARK INTER + INTRA:          -5.481
REMARK INTER:                  -4.924
REMARK INTRA:                  -0.557
REMARK UNBOUND:                -0.409
REMARK SMILES CC(C)=CCCC(C)=CCO
REMARK SMILES IDX 7 1 9 2 8 3 6 4 5 5 4 6 1 7 2 8 3 9 10 10 11 11
REMARK H PARENT 11 12
REMARK Flexibility Score: inf
ROOT
ATOM      1  C   UNL     1      10.007   4.006   7.877  1.00  0.00    -0.075 C 
ATOM      2  C   UNL     1       9.472   5.242   7.746  1.00  0.00    -0.000 C 
ATOM      3  C   UNL     1       9.097   2.813   7.740  1.00  0.00     0.039 C 
ENDROOT
BRANCH   1   4
ATOM      4  C   UNL     1      11.490   3.770   8.090  1.00  0.00     0.034 C 
BRANCH   4   5
ATOM      5  C   UNL     1      11.936   2.477   7.398  1.00  0.00     0.032 C 
BRANCH   5   6
ATOM      6  C   UNL     1      12.498   2.757   6.025  1.00  0.00    -0.028 C 
ATOM      7  C   UNL     1      12.672   2.509   3.585  1.00  0.00     0.039 C 
ATOM      8  C   UNL     1      12.040   2.156   4.906  1.00  0.00    -0.080 C 
ATOM      9  C   UNL     1      10.917   1.149   4.954  1.00  0.00     0.039 C 
ENDBRANCH   5   6
ENDBRANCH   4   5
ENDBRANCH   1   4
BRANCH   2  10
ATOM     10  C   UNL     1      10.257   6.525   7.848  1.00  0.00     0.183 C 
BRANCH  10  11
ATOM     11  O   UNL     1      10.559   7.019   6.571  1.00  0.00    -0.392 OA
ATOM     12  H   UNL     1      11.424   7.499   6.650  1.00  0.00     0.210 HD
ENDBRANCH  10  11
ENDBRANCH   2  10
TORSDOF 5
ENDMDL
MODEL 8
REMARK VINA RESULT:    -3.850      2.492      3.668
REMARK INTER + INTRA:          -5.272
REMARK INTER:                  -4.784
REMARK INTRA:                  -0.487
REMARK UNBOUND:                -0.409
REMARK SMILES CC(C)=CCCC(C)=CCO
REMARK SMILES IDX 7 1 9 2 8 3 6 4 5 5 4 6 1 7 2 8 3 9 10 10 11 11
REMARK H PARENT 11 12
REMARK Flexibility Score: inf
ROOT
ATOM      1  C   UNL     1      10.397   1.790   5.895  1.00  0.00    -0.075 C 
ATOM      2  C   UNL     1       9.276   2.281   6.472  1.00  0.00    -0.000 C 
ATOM      3  C   UNL     1      10.314   0.468   5.179  1.00  0.00     0.039 C 
ENDROOT
BRANCH   1   4
ATOM      4  C   UNL     1      11.713   2.544   5.882  1.00  0.00     0.034 C 
BRANCH   4   5
ATOM      5  C   UNL     1      12.760   1.790   5.055  1.00  0.00     0.032 C 
BRANCH   5   6
ATOM      6  C   UNL     1      13.353   2.676   3.986  1.00  0.00    -0.028 C 
ATOM      7  C   UNL     1      13.836   3.385   1.681  1.00  0.00     0.039 C 
ATOM      8  C   UNL     1      13.202   2.437   2.665  1.00  0.00    -0.080 C 
ATOM      9  C   UNL     1      12.416   1.250   2.162  1.00  0.00     0.039 C 
ENDBRANCH   5   6
ENDBRANCH   4   5
ENDBRANCH   1   4
BRANCH   2  10
ATOM     10  C   UNL     1       9.202   3.591   7.214  1.00  0.00     0.183 C 
BRANCH  10  11
ATOM     11  O   UNL     1       8.465   4.530   6.480  1.00  0.00    -0.392 OA
ATOM     12  H   UNL     1       8.309   4.132   5.584  1.00  0.00     0.210 HD
ENDBRANCH  10  11
ENDBRANCH   2  10
TORSDOF 5
ENDMDL
