MODEL 1
REMARK VINA RESULT:    -7.892      0.000      0.000
REMARK INTER + INTRA:         -13.050
REMARK INTER:                 -11.352
REMARK INTRA:                  -1.698
REMARK UNBOUND:                -1.698
REMARK SMILES O=c1c(O[C@@H]2O[C@H](CO)[C@@H](O)[C@H](O)[C@@H]2O)c(-c2ccc(O)cc2)oc2cc(O)cc(O)c12
REMARK SMILES IDX 4 1 3 2 16 3 24 4 2 5 25 6 1 7 32 8 26 9 30 10 27 11 29 12
REMARK SMILES IDX 17 13 18 14 19 15 20 16 23 17 22 18 21 19 31 21 28 23 5 25
REMARK SMILES IDX 14 26 6 27 12 28 7 29 10 30 15 31 13 33 8 35 9 36 11 38
REMARK H PARENT 21 20 31 22 28 24 15 32 13 34 9 37 11 39
REMARK Flexibility Score: inf
ROOT
ATOM      1  O   UNL     1       1.156  -7.512 -42.435  1.00  0.00    -0.454 OA
ENDROOT
BRANCH   1   2
ATOM      2  C   UNL     1       0.157  -8.380 -42.903  1.00  0.00     0.214 A 
ATOM      3  C   UNL     1       0.499  -9.429 -43.774  1.00  0.00     0.180 A 
ATOM      4  O   UNL     1      -0.426 -10.322 -44.122  1.00  0.00    -0.452 OA
ATOM      5  C   UNL     1      -1.187  -8.236 -42.513  1.00  0.00     0.239 A 
ATOM      6  C   UNL     1      -1.692 -10.252 -43.747  1.00  0.00     0.146 A 
ATOM      7  O   UNL     1      -1.504  -7.284 -41.758  1.00  0.00    -0.285 OA
ATOM      8  C   UNL     1      -2.156  -9.170 -42.956  1.00  0.00     0.111 A 
ATOM      9  C   UNL     1      -2.558 -11.261 -44.160  1.00  0.00     0.094 A 
ATOM     10  C   UNL     1      -3.548  -9.125 -42.626  1.00  0.00     0.134 A 
ATOM     11  C   UNL     1      -3.902 -11.230 -43.801  1.00  0.00     0.123 A 
ATOM     12  C   UNL     1      -4.391 -10.172 -43.031  1.00  0.00     0.093 A 
BRANCH   3  13
ATOM     13  C   UNL     1       1.871  -9.624 -44.298  1.00  0.00     0.021 A 
ATOM     14  C   UNL     1       2.743 -10.500 -43.630  1.00  0.00     0.016 A 
ATOM     15  C   UNL     1       4.008 -10.782 -44.155  1.00  0.00     0.047 A 
ATOM     16  C   UNL     1       4.422 -10.189 -45.353  1.00  0.00     0.115 A 
ATOM     17  C   UNL     1       2.281  -9.052 -45.516  1.00  0.00     0.016 A 
ATOM     18  C   UNL     1       3.568  -9.297 -46.013  1.00  0.00     0.047 A 
BRANCH  16  19
ATOM     19  O   UNL     1       5.661 -10.508 -45.913  1.00  0.00    -0.508 OA
ATOM     20  H   UNL     1       6.102  -9.897 -46.601  1.00  0.00     0.293 HD
ENDBRANCH  16  19
ENDBRANCH   3  13
BRANCH  10  21
ATOM     21  O   UNL     1      -4.158  -8.067 -41.941  1.00  0.00    -0.507 OA
ATOM     22  H   UNL     1      -5.138  -7.848 -41.936  1.00  0.00     0.293 HD
ENDBRANCH  10  21
BRANCH  11  23
ATOM     23  O   UNL     1      -4.740 -12.274 -44.193  1.00  0.00    -0.508 OA
ATOM     24  H   UNL     1      -5.199 -12.287 -45.094  1.00  0.00     0.293 HD
ENDBRANCH  11  23
ENDBRANCH   1   2
BRANCH   1  25
ATOM     25  C   UNL     1       1.435  -6.225 -43.001  1.00  0.00     0.339 C 
ATOM     26  C   UNL     1       1.314  -5.114 -41.933  1.00  0.00     0.214 C 
ATOM     27  O   UNL     1       2.699  -6.243 -43.643  1.00  0.00    -0.332 OA
ATOM     28  C   UNL     1       2.519  -5.079 -40.960  1.00  0.00     0.180 C 
ATOM     29  C   UNL     1       3.835  -6.205 -42.780  1.00  0.00     0.179 C 
ATOM     30  C   UNL     1       3.534  -6.192 -41.257  1.00  0.00     0.177 C 
BRANCH  26  31
ATOM     31  O   UNL     1       0.107  -5.250 -41.225  1.00  0.00    -0.384 OA
ATOM     32  H   UNL     1      -0.552  -4.648 -41.664  1.00  0.00     0.211 HD
ENDBRANCH  26  31
BRANCH  28  33
ATOM     33  O   UNL     1       2.109  -5.111 -39.611  1.00  0.00    -0.387 OA
ATOM     34  H   UNL     1       2.923  -5.144 -39.045  1.00  0.00     0.211 HD
ENDBRANCH  28  33
BRANCH  29  35
ATOM     35  C   UNL     1       4.789  -7.347 -43.171  1.00  0.00     0.191 C 
BRANCH  35  36
ATOM     36  O   UNL     1       6.133  -6.980 -42.999  1.00  0.00    -0.394 OA
ATOM     37  H   UNL     1       6.342  -7.117 -42.041  1.00  0.00     0.210 HD
ENDBRANCH  35  36
ENDBRANCH  29  35
BRANCH  30  38
ATOM     38  O   UNL     1       4.720  -5.982 -40.539  1.00  0.00    -0.387 OA
ATOM     39  H   UNL     1       4.816  -5.003 -40.443  1.00  0.00     0.211 HD
ENDBRANCH  30  38
ENDBRANCH   1  25
TORSDOF 11
ENDMDL
MODEL 2
REMARK VINA RESULT:    -7.884      1.539      4.843
REMARK INTER + INTRA:         -13.039
REMARK INTER:                 -11.316
REMARK INTRA:                  -1.723
REMARK UNBOUND:                -1.698
REMARK SMILES O=c1c(O[C@@H]2O[C@H](CO)[C@@H](O)[C@H](O)[C@@H]2O)c(-c2ccc(O)cc2)oc2cc(O)cc(O)c12
REMARK SMILES IDX 4 1 3 2 16 3 24 4 2 5 25 6 1 7 32 8 26 9 30 10 27 11 29 12
REMARK SMILES IDX 17 13 18 14 19 15 20 16 23 17 22 18 21 19 31 21 28 23 5 25
REMARK SMILES IDX 14 26 6 27 12 28 7 29 10 30 15 31 13 33 8 35 9 36 11 38
REMARK H PARENT 21 20 31 22 28 24 15 32 13 34 9 37 11 39
REMARK Flexibility Score: inf
ROOT
ATOM      1  O   UNL     1       1.948  -9.269 -44.252  1.00  0.00    -0.454 OA
ENDROOT
BRANCH   1   2
ATOM      2  C   UNL     1       0.750  -8.994 -43.577  1.00  0.00     0.214 A 
ATOM      3  C   UNL     1       0.677  -7.891 -42.709  1.00  0.00     0.180 A 
ATOM      4  O   UNL     1      -0.492  -7.560 -42.162  1.00  0.00    -0.452 OA
ATOM      5  C   UNL     1      -0.396  -9.792 -43.754  1.00  0.00     0.239 A 
ATOM      6  C   UNL     1      -1.605  -8.255 -42.332  1.00  0.00     0.146 A 
ATOM      7  O   UNL     1      -0.330 -10.795 -44.505  1.00  0.00    -0.285 OA
ATOM      8  C   UNL     1      -1.607  -9.445 -43.104  1.00  0.00     0.111 A 
ATOM      9  C   UNL     1      -2.769  -7.794 -41.723  1.00  0.00     0.094 A 
ATOM     10  C   UNL     1      -2.831 -10.179 -43.208  1.00  0.00     0.134 A 
ATOM     11  C   UNL     1      -3.964  -8.492 -41.863  1.00  0.00     0.123 A 
ATOM     12  C   UNL     1      -3.995  -9.673 -42.608  1.00  0.00     0.093 A 
BRANCH   3  13
ATOM     13  C   UNL     1       1.844  -7.032 -42.400  1.00  0.00     0.021 A 
ATOM     14  C   UNL     1       2.027  -5.838 -43.119  1.00  0.00     0.016 A 
ATOM     15  C   UNL     1       3.060  -4.957 -42.784  1.00  0.00     0.047 A 
ATOM     16  C   UNL     1       3.929  -5.259 -41.730  1.00  0.00     0.115 A 
ATOM     17  C   UNL     1       2.703  -7.317 -41.324  1.00  0.00     0.016 A 
ATOM     18  C   UNL     1       3.768  -6.457 -41.024  1.00  0.00     0.047 A 
BRANCH  16  19
ATOM     19  O   UNL     1       4.929  -4.360 -41.354  1.00  0.00    -0.508 OA
ATOM     20  H   UNL     1       5.814  -4.686 -40.967  1.00  0.00     0.293 HD
ENDBRANCH  16  19
ENDBRANCH   3  13
BRANCH  10  21
ATOM     21  O   UNL     1      -2.951 -11.417 -43.850  1.00  0.00    -0.507 OA
ATOM     22  H   UNL     1      -2.492 -11.692 -44.700  1.00  0.00     0.293 HD
ENDBRANCH  10  21
BRANCH  11  23
ATOM     23  O   UNL     1      -5.125  -7.987 -41.278  1.00  0.00    -0.508 OA
ATOM     24  H   UNL     1      -5.172  -7.743 -40.297  1.00  0.00     0.293 HD
ENDBRANCH  11  23
ENDBRANCH   1   2
BRANCH   1  25
ATOM     25  C   UNL     1       2.950 -10.178 -43.778  1.00  0.00     0.339 C 
ATOM     26  C   UNL     1       3.222 -11.290 -44.815  1.00  0.00     0.214 C 
ATOM     27  O   UNL     1       4.118  -9.461 -43.411  1.00  0.00    -0.332 OA
ATOM     28  C   UNL     1       4.068 -10.800 -46.018  1.00  0.00     0.180 C 
ATOM     29  C   UNL     1       4.928  -8.998 -44.492  1.00  0.00     0.179 C 
ATOM     30  C   UNL     1       4.399  -9.303 -45.919  1.00  0.00     0.177 C 
BRANCH  26  31
ATOM     31  O   UNL     1       2.011 -11.851 -45.256  1.00  0.00    -0.384 OA
ATOM     32  H   UNL     1       1.489 -11.115 -45.672  1.00  0.00     0.211 HD
ENDBRANCH  26  31
BRANCH  28  33
ATOM     33  O   UNL     1       3.457 -11.105 -47.251  1.00  0.00    -0.387 OA
ATOM     34  H   UNL     1       2.608 -10.595 -47.306  1.00  0.00     0.211 HD
ENDBRANCH  28  33
BRANCH  29  35
ATOM     35  C   UNL     1       5.210  -7.500 -44.287  1.00  0.00     0.191 C 
BRANCH  35  36
ATOM     36  O   UNL     1       6.405  -7.109 -44.915  1.00  0.00    -0.394 OA
ATOM     37  H   UNL     1       6.624  -7.818 -45.570  1.00  0.00     0.210 HD
ENDBRANCH  35  36
ENDBRANCH  29  35
BRANCH  30  38
ATOM     38  O   UNL     1       5.366  -8.949 -46.871  1.00  0.00    -0.387 OA
ATOM     39  H   UNL     1       5.433  -7.963 -46.844  1.00  0.00     0.211 HD
ENDBRANCH  30  38
ENDBRANCH   1  25
TORSDOF 11
ENDMDL
MODEL 3
REMARK VINA RESULT:    -7.682      3.592      5.898
REMARK INTER + INTRA:         -12.749
REMARK INTER:                 -11.052
REMARK INTRA:                  -1.697
REMARK UNBOUND:                -1.698
REMARK SMILES O=c1c(O[C@@H]2O[C@H](CO)[C@@H](O)[C@H](O)[C@@H]2O)c(-c2ccc(O)cc2)oc2cc(O)cc(O)c12
REMARK SMILES IDX 4 1 3 2 16 3 24 4 2 5 25 6 1 7 32 8 26 9 30 10 27 11 29 12
REMARK SMILES IDX 17 13 18 14 19 15 20 16 23 17 22 18 21 19 31 21 28 23 5 25
REMARK SMILES IDX 14 26 6 27 12 28 7 29 10 30 15 31 13 33 8 35 9 36 11 38
REMARK H PARENT 21 20 31 22 28 24 15 32 13 34 9 37 11 39
REMARK Flexibility Score: inf
ROOT
ATOM      1  O   UNL     1       4.903  -9.834 -41.794  1.00  0.00    -0.454 OA
ENDROOT
BRANCH   1   2
ATOM      2  C   UNL     1       3.651 -10.251 -41.317  1.00  0.00     0.214 A 
ATOM      3  C   UNL     1       2.573  -9.350 -41.310  1.00  0.00     0.180 A 
ATOM      4  O   UNL     1       1.358  -9.779 -40.970  1.00  0.00    -0.452 OA
ATOM      5  C   UNL     1       3.440 -11.562 -40.850  1.00  0.00     0.239 A 
ATOM      6  C   UNL     1       1.103 -11.012 -40.565  1.00  0.00     0.146 A 
ATOM      7  O   UNL     1       4.405 -12.363 -40.826  1.00  0.00    -0.285 OA
ATOM      8  C   UNL     1       2.146 -11.964 -40.435  1.00  0.00     0.111 A 
ATOM      9  C   UNL     1      -0.214 -11.345 -40.257  1.00  0.00     0.094 A 
ATOM     10  C   UNL     1       1.812 -13.267 -39.943  1.00  0.00     0.134 A 
ATOM     11  C   UNL     1      -0.535 -12.625 -39.818  1.00  0.00     0.123 A 
ATOM     12  C   UNL     1       0.472 -13.582 -39.670  1.00  0.00     0.093 A 
BRANCH   3  13
ATOM     13  C   UNL     1       2.708  -7.931 -41.714  1.00  0.00     0.021 A 
ATOM     14  C   UNL     1       2.304  -7.542 -43.002  1.00  0.00     0.016 A 
ATOM     15  C   UNL     1       2.326  -6.195 -43.379  1.00  0.00     0.047 A 
ATOM     16  C   UNL     1       2.756  -5.218 -42.475  1.00  0.00     0.115 A 
ATOM     17  C   UNL     1       3.114  -6.941 -40.800  1.00  0.00     0.016 A 
ATOM     18  C   UNL     1       3.182  -5.599 -41.197  1.00  0.00     0.047 A 
BRANCH  16  19
ATOM     19  O   UNL     1       2.728  -3.866 -42.824  1.00  0.00    -0.508 OA
ATOM     20  H   UNL     1       3.590  -3.340 -42.967  1.00  0.00     0.293 HD
ENDBRANCH  16  19
ENDBRANCH   3  13
BRANCH  10  21
ATOM     21  O   UNL     1       2.753 -14.267 -39.671  1.00  0.00    -0.507 OA
ATOM     22  H   UNL     1       3.030 -14.590 -38.761  1.00  0.00     0.293 HD
ENDBRANCH  10  21
BRANCH  11  23
ATOM     23  O   UNL     1      -1.867 -12.945 -39.556  1.00  0.00    -0.508 OA
ATOM     24  H   UNL     1      -2.628 -12.588 -40.120  1.00  0.00     0.293 HD
ENDBRANCH  11  23
ENDBRANCH   1   2
BRANCH   1  25
ATOM     25  C   UNL     1       5.293  -9.875 -43.172  1.00  0.00     0.339 C 
ATOM     26  C   UNL     1       6.246  -8.706 -43.512  1.00  0.00     0.214 C 
ATOM     27  O   UNL     1       5.841 -11.146 -43.482  1.00  0.00    -0.332 OA
ATOM     28  C   UNL     1       7.683  -8.924 -42.975  1.00  0.00     0.180 C 
ATOM     29  C   UNL     1       7.167 -11.383 -43.010  1.00  0.00     0.179 C 
ATOM     30  C   UNL     1       7.813 -10.236 -42.187  1.00  0.00     0.177 C 
BRANCH  26  31
ATOM     31  O   UNL     1       5.716  -7.494 -43.036  1.00  0.00    -0.384 OA
ATOM     32  H   UNL     1       4.735  -7.529 -43.192  1.00  0.00     0.211 HD
ENDBRANCH  26  31
BRANCH  28  33
ATOM     33  O   UNL     1       8.134  -7.826 -42.214  1.00  0.00    -0.387 OA
ATOM     34  H   UNL     1       7.472  -7.093 -42.313  1.00  0.00     0.211 HD
ENDBRANCH  28  33
BRANCH  29  35
ATOM     35  C   UNL     1       7.188 -12.721 -42.252  1.00  0.00     0.191 C 
BRANCH  35  36
ATOM     36  O   UNL     1       7.282 -12.527 -40.864  1.00  0.00    -0.394 OA
ATOM     37  H   UNL     1       6.356 -12.543 -40.514  1.00  0.00     0.210 HD
ENDBRANCH  35  36
ENDBRANCH  29  35
BRANCH  30  38
ATOM     38  O   UNL     1       9.161 -10.529 -41.938  1.00  0.00    -0.387 OA
ATOM     39  H   UNL     1       9.686  -9.822 -42.387  1.00  0.00     0.211 HD
ENDBRANCH  30  38
ENDBRANCH   1  25
TORSDOF 11
ENDMDL
MODEL 4
REMARK VINA RESULT:    -7.679      3.556      4.082
REMARK INTER + INTRA:         -12.745
REMARK INTER:                 -11.000
REMARK INTRA:                  -1.744
REMARK UNBOUND:                -1.698
REMARK SMILES O=c1c(O[C@@H]2O[C@H](CO)[C@@H](O)[C@H](O)[C@@H]2O)c(-c2ccc(O)cc2)oc2cc(O)cc(O)c12
REMARK SMILES IDX 4 1 3 2 16 3 24 4 2 5 25 6 1 7 32 8 26 9 30 10 27 11 29 12
REMARK SMILES IDX 17 13 18 14 19 15 20 16 23 17 22 18 21 19 31 21 28 23 5 25
REMARK SMILES IDX 14 26 6 27 12 28 7 29 10 30 15 31 13 33 8 35 9 36 11 38
REMARK H PARENT 21 20 31 22 28 24 15 32 13 34 9 37 11 39
REMARK Flexibility Score: inf
ROOT
ATOM      1  O   UNL     1       2.938  -8.131 -41.146  1.00  0.00    -0.454 OA
ENDROOT
BRANCH   1   2
ATOM      2  C   UNL     1       2.607  -9.438 -40.760  1.00  0.00     0.214 A 
ATOM      3  C   UNL     1       3.072 -10.527 -41.519  1.00  0.00     0.180 A 
ATOM      4  O   UNL     1       2.859 -11.769 -41.087  1.00  0.00    -0.452 OA
ATOM      5  C   UNL     1       1.825  -9.695 -39.618  1.00  0.00     0.239 A 
ATOM      6  C   UNL     1       2.167 -12.058 -39.998  1.00  0.00     0.146 A 
ATOM      7  O   UNL     1       1.384  -8.728 -38.953  1.00  0.00    -0.285 OA
ATOM      8  C   UNL     1       1.566 -11.032 -39.225  1.00  0.00     0.111 A 
ATOM      9  C   UNL     1       2.032 -13.397 -39.639  1.00  0.00     0.094 A 
ATOM     10  C   UNL     1       0.786 -11.414 -38.087  1.00  0.00     0.134 A 
ATOM     11  C   UNL     1       1.305 -13.756 -38.508  1.00  0.00     0.123 A 
ATOM     12  C   UNL     1       0.694 -12.769 -37.733  1.00  0.00     0.093 A 
BRANCH   3  13
ATOM     13  C   UNL     1       3.841 -10.361 -42.774  1.00  0.00     0.021 A 
ATOM     14  C   UNL     1       5.240 -10.245 -42.713  1.00  0.00     0.016 A 
ATOM     15  C   UNL     1       6.002 -10.189 -43.884  1.00  0.00     0.047 A 
ATOM     16  C   UNL     1       5.377 -10.242 -45.134  1.00  0.00     0.115 A 
ATOM     17  C   UNL     1       3.220 -10.442 -44.034  1.00  0.00     0.016 A 
ATOM     18  C   UNL     1       3.981 -10.335 -45.205  1.00  0.00     0.047 A 
BRANCH  16  19
ATOM     19  O   UNL     1       6.133 -10.242 -46.307  1.00  0.00    -0.508 OA
ATOM     20  H   UNL     1       6.467  -9.372 -46.720  1.00  0.00     0.293 HD
ENDBRANCH  16  19
ENDBRANCH   3  13
BRANCH  10  21
ATOM     21  O   UNL     1       0.058 -10.515 -37.298  1.00  0.00    -0.507 OA
ATOM     22  H   UNL     1      -0.862 -10.664 -36.923  1.00  0.00     0.293 HD
ENDBRANCH  10  21
BRANCH  11  23
ATOM     23  O   UNL     1       1.221 -15.101 -38.148  1.00  0.00    -0.508 OA
ATOM     24  H   UNL     1       0.419 -15.673 -38.382  1.00  0.00     0.293 HD
ENDBRANCH  11  23
ENDBRANCH   1   2
BRANCH   1  25
ATOM     25  C   UNL     1       2.235  -7.384 -42.147  1.00  0.00     0.339 C 
ATOM     26  C   UNL     1       1.580  -6.123 -41.537  1.00  0.00     0.214 C 
ATOM     27  O   UNL     1       3.103  -7.090 -43.230  1.00  0.00    -0.332 OA
ATOM     28  C   UNL     1       2.600  -4.995 -41.242  1.00  0.00     0.180 C 
ATOM     29  C   UNL     1       4.054  -6.051 -42.999  1.00  0.00     0.179 C 
ATOM     30  C   UNL     1       4.038  -5.414 -41.584  1.00  0.00     0.177 C 
BRANCH  26  31
ATOM     31  O   UNL     1       0.864  -6.462 -40.376  1.00  0.00    -0.384 OA
ATOM     32  H   UNL     1       1.520  -6.850 -39.738  1.00  0.00     0.211 HD
ENDBRANCH  26  31
BRANCH  28  33
ATOM     33  O   UNL     1       2.506  -4.533 -39.914  1.00  0.00    -0.387 OA
ATOM     34  H   UNL     1       2.355  -5.319 -39.328  1.00  0.00     0.211 HD
ENDBRANCH  28  33
BRANCH  29  35
ATOM     35  C   UNL     1       5.451  -6.568 -43.385  1.00  0.00     0.191 C 
BRANCH  35  36
ATOM     36  O   UNL     1       6.303  -6.635 -42.270  1.00  0.00    -0.394 OA
ATOM     37  H   UNL     1       7.053  -7.228 -42.524  1.00  0.00     0.210 HD
ENDBRANCH  35  36
ENDBRANCH  29  35
BRANCH  30  38
ATOM     38  O   UNL     1       4.895  -4.303 -41.552  1.00  0.00    -0.387 OA
ATOM     39  H   UNL     1       5.238  -4.191 -42.472  1.00  0.00     0.211 HD
ENDBRANCH  30  38
ENDBRANCH   1  25
TORSDOF 11
ENDMDL
MODEL 5
REMARK VINA RESULT:    -7.678      3.559      5.956
REMARK INTER + INTRA:         -12.742
REMARK INTER:                 -11.976
REMARK INTRA:                  -0.766
REMARK UNBOUND:                -1.698
REMARK SMILES O=c1c(O[C@@H]2O[C@H](CO)[C@@H](O)[C@H](O)[C@@H]2O)c(-c2ccc(O)cc2)oc2cc(O)cc(O)c12
REMARK SMILES IDX 4 1 3 2 16 3 24 4 2 5 25 6 1 7 32 8 26 9 30 10 27 11 29 12
REMARK SMILES IDX 17 13 18 14 19 15 20 16 23 17 22 18 21 19 31 21 28 23 5 25
REMARK SMILES IDX 14 26 6 27 12 28 7 29 10 30 15 31 13 33 8 35 9 36 11 38
REMARK H PARENT 21 20 31 22 28 24 15 32 13 34 9 37 11 39
REMARK Flexibility Score: inf
ROOT
ATOM      1  O   UNL     1       3.301 -10.215 -42.753  1.00  0.00    -0.454 OA
ENDROOT
BRANCH   1   2
ATOM      2  C   UNL     1       2.641 -10.412 -41.530  1.00  0.00     0.214 A 
ATOM      3  C   UNL     1       2.023  -9.325 -40.889  1.00  0.00     0.180 A 
ATOM      4  O   UNL     1       1.296  -9.535 -39.792  1.00  0.00    -0.452 OA
ATOM      5  C   UNL     1       2.570 -11.682 -40.928  1.00  0.00     0.239 A 
ATOM      6  C   UNL     1       1.165 -10.716 -39.213  1.00  0.00     0.146 A 
ATOM      7  O   UNL     1       3.144 -12.652 -41.481  1.00  0.00    -0.285 OA
ATOM      8  C   UNL     1       1.840 -11.854 -39.725  1.00  0.00     0.111 A 
ATOM      9  C   UNL     1       0.360 -10.810 -38.081  1.00  0.00     0.094 A 
ATOM     10  C   UNL     1       1.698 -13.094 -39.024  1.00  0.00     0.134 A 
ATOM     11  C   UNL     1       0.197 -12.028 -37.429  1.00  0.00     0.123 A 
ATOM     12  C   UNL     1       0.856 -13.164 -37.903  1.00  0.00     0.093 A 
BRANCH   3  13
ATOM     13  C   UNL     1       2.100  -7.938 -41.404  1.00  0.00     0.021 A 
ATOM     14  C   UNL     1       2.988  -7.030 -40.801  1.00  0.00     0.016 A 
ATOM     15  C   UNL     1       3.157  -5.745 -41.326  1.00  0.00     0.047 A 
ATOM     16  C   UNL     1       2.439  -5.347 -42.458  1.00  0.00     0.115 A 
ATOM     17  C   UNL     1       1.401  -7.541 -42.558  1.00  0.00     0.016 A 
ATOM     18  C   UNL     1       1.536  -6.237 -43.052  1.00  0.00     0.047 A 
BRANCH  16  19
ATOM     19  O   UNL     1       2.643  -4.086 -43.022  1.00  0.00    -0.508 OA
ATOM     20  H   UNL     1       2.356  -3.237 -42.534  1.00  0.00     0.293 HD
ENDBRANCH  16  19
ENDBRANCH   3  13
BRANCH  10  21
ATOM     21  O   UNL     1       2.386 -14.267 -39.358  1.00  0.00    -0.507 OA
ATOM     22  H   UNL     1       2.206 -14.855 -40.151  1.00  0.00     0.293 HD
ENDBRANCH  10  21
BRANCH  11  23
ATOM     23  O   UNL     1      -0.649 -12.103 -36.322  1.00  0.00    -0.508 OA
ATOM     24  H   UNL     1      -0.725 -12.940 -35.757  1.00  0.00     0.293 HD
ENDBRANCH  11  23
ENDBRANCH   1   2
BRANCH   1  25
ATOM     25  C   UNL     1       3.355 -11.186 -43.805  1.00  0.00     0.339 C 
ATOM     26  C   UNL     1       2.390 -10.811 -44.953  1.00  0.00     0.214 C 
ATOM     27  O   UNL     1       4.695 -11.355 -44.238  1.00  0.00    -0.332 OA
ATOM     28  C   UNL     1       2.921  -9.653 -45.834  1.00  0.00     0.180 C 
ATOM     29  C   UNL     1       5.219 -10.311 -45.059  1.00  0.00     0.179 C 
ATOM     30  C   UNL     1       4.268  -9.114 -45.329  1.00  0.00     0.177 C 
BRANCH  26  31
ATOM     31  O   UNL     1       1.119 -10.501 -44.438  1.00  0.00    -0.384 OA
ATOM     32  H   UNL     1       0.459 -11.015 -44.975  1.00  0.00     0.211 HD
ENDBRANCH  26  31
BRANCH  28  33
ATOM     33  O   UNL     1       1.976  -8.615 -45.967  1.00  0.00    -0.387 OA
ATOM     34  H   UNL     1       2.219  -7.897 -45.326  1.00  0.00     0.211 HD
ENDBRANCH  28  33
BRANCH  29  35
ATOM     35  C   UNL     1       6.568  -9.858 -44.475  1.00  0.00     0.191 C 
BRANCH  35  36
ATOM     36  O   UNL     1       7.541  -9.709 -45.477  1.00  0.00    -0.394 OA
ATOM     37  H   UNL     1       7.343  -8.856 -45.938  1.00  0.00     0.210 HD
ENDBRANCH  35  36
ENDBRANCH  29  35
BRANCH  30  38
ATOM     38  O   UNL     1       4.842  -8.255 -46.278  1.00  0.00    -0.387 OA
ATOM     39  H   UNL     1       4.529  -7.345 -46.052  1.00  0.00     0.211 HD
ENDBRANCH  30  38
ENDBRANCH   1  25
TORSDOF 11
ENDMDL
MODEL 6
REMARK VINA RESULT:    -7.672      4.665      7.271
REMARK INTER + INTRA:         -12.734
REMARK INTER:                 -11.048
REMARK INTRA:                  -1.686
REMARK UNBOUND:                -1.698
REMARK SMILES O=c1c(O[C@@H]2O[C@H](CO)[C@@H](O)[C@H](O)[C@@H]2O)c(-c2ccc(O)cc2)oc2cc(O)cc(O)c12
REMARK SMILES IDX 4 1 3 2 16 3 24 4 2 5 25 6 1 7 32 8 26 9 30 10 27 11 29 12
REMARK SMILES IDX 17 13 18 14 19 15 20 16 23 17 22 18 21 19 31 21 28 23 5 25
REMARK SMILES IDX 14 26 6 27 12 28 7 29 10 30 15 31 13 33 8 35 9 36 11 38
REMARK H PARENT 21 20 31 22 28 24 15 32 13 34 9 37 11 39
REMARK Flexibility Score: inf
ROOT
ATOM      1  O   UNL     1       7.776  -5.905 -40.532  1.00  0.00    -0.454 OA
ENDROOT
BRANCH   1   2
ATOM      2  C   UNL     1       6.705  -6.440 -41.264  1.00  0.00     0.214 A 
ATOM      3  C   UNL     1       6.738  -7.787 -41.664  1.00  0.00     0.180 A 
ATOM      4  O   UNL     1       5.671  -8.325 -42.252  1.00  0.00    -0.452 OA
ATOM      5  C   UNL     1       5.582  -5.662 -41.604  1.00  0.00     0.239 A 
ATOM      6  C   UNL     1       4.578  -7.645 -42.554  1.00  0.00     0.146 A 
ATOM      7  O   UNL     1       5.559  -4.451 -41.275  1.00  0.00    -0.285 OA
ATOM      8  C   UNL     1       4.492  -6.254 -42.288  1.00  0.00     0.111 A 
ATOM      9  C   UNL     1       3.521  -8.326 -43.151  1.00  0.00     0.094 A 
ATOM     10  C   UNL     1       3.302  -5.564 -42.684  1.00  0.00     0.134 A 
ATOM     11  C   UNL     1       2.352  -7.656 -43.497  1.00  0.00     0.123 A 
ATOM     12  C   UNL     1       2.242  -6.284 -43.257  1.00  0.00     0.093 A 
BRANCH   3  13
ATOM     13  C   UNL     1       7.902  -8.670 -41.418  1.00  0.00     0.021 A 
ATOM     14  C   UNL     1       7.916  -9.486 -40.273  1.00  0.00     0.016 A 
ATOM     15  C   UNL     1       8.952 -10.402 -40.064  1.00  0.00     0.047 A 
ATOM     16  C   UNL     1       9.991 -10.513 -40.994  1.00  0.00     0.115 A 
ATOM     17  C   UNL     1       8.935  -8.806 -42.362  1.00  0.00     0.016 A 
ATOM     18  C   UNL     1       9.997  -9.689 -42.126  1.00  0.00     0.047 A 
BRANCH  16  19
ATOM     19  O   UNL     1      10.999 -11.464 -40.822  1.00  0.00    -0.508 OA
ATOM     20  H   UNL     1      11.874 -11.405 -41.342  1.00  0.00     0.293 HD
ENDBRANCH  16  19
ENDBRANCH   3  13
BRANCH  10  21
ATOM     21  O   UNL     1       3.125  -4.180 -42.576  1.00  0.00    -0.507 OA
ATOM     22  H   UNL     1       3.822  -3.512 -42.300  1.00  0.00     0.293 HD
ENDBRANCH  10  21
BRANCH  11  23
ATOM     23  O   UNL     1       1.292  -8.370 -44.055  1.00  0.00    -0.508 OA
ATOM     24  H   UNL     1       0.549  -8.761 -43.490  1.00  0.00     0.293 HD
ENDBRANCH  11  23
ENDBRANCH   1   2
BRANCH   1  25
ATOM     25  C   UNL     1       8.834  -5.127 -41.105  1.00  0.00     0.339 C 
ATOM     26  C   UNL     1       8.944  -3.749 -40.412  1.00  0.00     0.214 C 
ATOM     27  O   UNL     1      10.047  -5.863 -41.074  1.00  0.00    -0.332 OA
ATOM     28  C   UNL     1       9.601  -3.829 -39.011  1.00  0.00     0.180 C 
ATOM     29  C   UNL     1      10.686  -5.954 -39.801  1.00  0.00     0.179 C 
ATOM     30  C   UNL     1       9.948  -5.273 -38.618  1.00  0.00     0.177 C 
BRANCH  26  31
ATOM     31  O   UNL     1       7.678  -3.143 -40.334  1.00  0.00    -0.384 OA
ATOM     32  H   UNL     1       7.809  -2.264 -39.887  1.00  0.00     0.211 HD
ENDBRANCH  26  31
BRANCH  28  33
ATOM     33  O   UNL     1       8.811  -3.208 -38.022  1.00  0.00    -0.387 OA
ATOM     34  H   UNL     1       7.915  -3.634 -38.037  1.00  0.00     0.211 HD
ENDBRANCH  28  33
BRANCH  29  35
ATOM     35  C   UNL     1      11.001  -7.432 -39.514  1.00  0.00     0.191 C 
BRANCH  35  36
ATOM     36  O   UNL     1      12.161  -7.571 -38.734  1.00  0.00    -0.394 OA
ATOM     37  H   UNL     1      12.749  -8.206 -39.214  1.00  0.00     0.210 HD
ENDBRANCH  35  36
ENDBRANCH  29  35
BRANCH  30  38
ATOM     38  O   UNL     1      10.763  -5.289 -37.476  1.00  0.00    -0.387 OA
ATOM     39  H   UNL     1      11.681  -5.473 -37.793  1.00  0.00     0.211 HD
ENDBRANCH  30  38
ENDBRANCH   1  25
TORSDOF 11
ENDMDL
MODEL 7
REMARK VINA RESULT:    -7.559      4.392      8.853
REMARK INTER + INTRA:         -12.571
REMARK INTER:                 -10.812
REMARK INTRA:                  -1.760
REMARK UNBOUND:                -1.698
REMARK SMILES O=c1c(O[C@@H]2O[C@H](CO)[C@@H](O)[C@H](O)[C@@H]2O)c(-c2ccc(O)cc2)oc2cc(O)cc(O)c12
REMARK SMILES IDX 4 1 3 2 16 3 24 4 2 5 25 6 1 7 32 8 26 9 30 10 27 11 29 12
REMARK SMILES IDX 17 13 18 14 19 15 20 16 23 17 22 18 21 19 31 21 28 23 5 25
REMARK SMILES IDX 14 26 6 27 12 28 7 29 10 30 15 31 13 33 8 35 9 36 11 38
REMARK H PARENT 21 20 31 22 28 24 15 32 13 34 9 37 11 39
REMARK Flexibility Score: inf
ROOT
ATOM      1  O   UNL     1       6.148  -9.994 -40.985  1.00  0.00    -0.454 OA
ENDROOT
BRANCH   1   2
ATOM      2  C   UNL     1       6.499  -8.637 -40.933  1.00  0.00     0.214 A 
ATOM      3  C   UNL     1       5.954  -7.739 -41.867  1.00  0.00     0.180 A 
ATOM      4  O   UNL     1       6.193  -6.435 -41.743  1.00  0.00    -0.452 OA
ATOM      5  C   UNL     1       7.382  -8.141 -39.955  1.00  0.00     0.239 A 
ATOM      6  C   UNL     1       6.981  -5.918 -40.815  1.00  0.00     0.146 A 
ATOM      7  O   UNL     1       7.894  -8.941 -39.135  1.00  0.00    -0.285 OA
ATOM      8  C   UNL     1       7.662  -6.753 -39.894  1.00  0.00     0.111 A 
ATOM      9  C   UNL     1       7.135  -4.534 -40.777  1.00  0.00     0.094 A 
ATOM     10  C   UNL     1       8.541  -6.137 -38.947  1.00  0.00     0.134 A 
ATOM     11  C   UNL     1       7.960  -3.940 -39.827  1.00  0.00     0.123 A 
ATOM     12  C   UNL     1       8.652  -4.738 -38.913  1.00  0.00     0.093 A 
BRANCH   3  13
ATOM     13  C   UNL     1       5.073  -8.171 -42.977  1.00  0.00     0.021 A 
ATOM     14  C   UNL     1       3.687  -8.259 -42.759  1.00  0.00     0.016 A 
ATOM     15  C   UNL     1       2.819  -8.566 -43.811  1.00  0.00     0.047 A 
ATOM     16  C   UNL     1       3.323  -8.795 -45.096  1.00  0.00     0.115 A 
ATOM     17  C   UNL     1       5.571  -8.375 -44.276  1.00  0.00     0.016 A 
ATOM     18  C   UNL     1       4.704  -8.732 -45.317  1.00  0.00     0.047 A 
BRANCH  16  19
ATOM     19  O   UNL     1       2.460  -9.048 -46.164  1.00  0.00    -0.508 OA
ATOM     20  H   UNL     1       1.496  -9.342 -46.005  1.00  0.00     0.293 HD
ENDBRANCH  16  19
ENDBRANCH   3  13
BRANCH  10  21
ATOM     21  O   UNL     1       9.350  -6.845 -38.050  1.00  0.00    -0.507 OA
ATOM     22  H   UNL     1      10.216  -6.528 -37.653  1.00  0.00     0.293 HD
ENDBRANCH  10  21
BRANCH  11  23
ATOM     23  O   UNL     1       8.063  -2.550 -39.783  1.00  0.00    -0.508 OA
ATOM     24  H   UNL     1       7.870  -1.970 -40.590  1.00  0.00     0.293 HD
ENDBRANCH  11  23
ENDBRANCH   1   2
BRANCH   1  25
ATOM     25  C   UNL     1       6.784 -10.958 -41.833  1.00  0.00     0.339 C 
ATOM     26  C   UNL     1       7.479 -12.057 -40.996  1.00  0.00     0.214 C 
ATOM     27  O   UNL     1       5.848 -11.477 -42.764  1.00  0.00    -0.332 OA
ATOM     28  C   UNL     1       6.480 -13.074 -40.389  1.00  0.00     0.180 C 
ATOM     29  C   UNL     1       4.914 -12.424 -42.243  1.00  0.00     0.179 C 
ATOM     30  C   UNL     1       5.023 -12.723 -40.724  1.00  0.00     0.177 C 
BRANCH  26  31
ATOM     31  O   UNL     1       8.269 -11.474 -39.990  1.00  0.00    -0.384 OA
ATOM     32  H   UNL     1       8.235 -12.088 -39.208  1.00  0.00     0.211 HD
ENDBRANCH  26  31
BRANCH  28  33
ATOM     33  O   UNL     1       6.661 -13.224 -38.998  1.00  0.00    -0.387 OA
ATOM     34  H   UNL     1       7.633 -13.317 -38.825  1.00  0.00     0.211 HD
ENDBRANCH  28  33
BRANCH  29  35
ATOM     35  C   UNL     1       3.495 -11.988 -42.647  1.00  0.00     0.191 C 
BRANCH  35  36
ATOM     36  O   UNL     1       2.710 -11.680 -41.523  1.00  0.00    -0.394 OA
ATOM     37  H   UNL     1       1.781 -11.932 -41.751  1.00  0.00     0.210 HD
ENDBRANCH  35  36
ENDBRANCH  29  35
BRANCH  30  38
ATOM     38  O   UNL     1       4.171 -13.785 -40.386  1.00  0.00    -0.387 OA
ATOM     39  H   UNL     1       4.244 -13.898 -39.406  1.00  0.00     0.211 HD
ENDBRANCH  30  38
ENDBRANCH   1  25
TORSDOF 11
ENDMDL
MODEL 8
REMARK VINA RESULT:    -7.532      3.424      8.205
REMARK INTER + INTRA:         -12.532
REMARK INTER:                 -11.192
REMARK INTRA:                  -1.340
REMARK UNBOUND:                -1.698
REMARK SMILES O=c1c(O[C@@H]2O[C@H](CO)[C@@H](O)[C@H](O)[C@@H]2O)c(-c2ccc(O)cc2)oc2cc(O)cc(O)c12
REMARK SMILES IDX 4 1 3 2 16 3 24 4 2 5 25 6 1 7 32 8 26 9 30 10 27 11 29 12
REMARK SMILES IDX 17 13 18 14 19 15 20 16 23 17 22 18 21 19 31 21 28 23 5 25
REMARK SMILES IDX 14 26 6 27 12 28 7 29 10 30 15 31 13 33 8 35 9 36 11 38
REMARK H PARENT 21 20 31 22 28 24 15 32 13 34 9 37 11 39
REMARK Flexibility Score: inf
ROOT
ATOM      1  O   UNL     1       4.416  -8.117 -42.142  1.00  0.00    -0.454 OA
ENDROOT
BRANCH   1   2
ATOM      2  C   UNL     1       5.640  -7.629 -41.661  1.00  0.00     0.214 A 
ATOM      3  C   UNL     1       6.695  -8.522 -41.408  1.00  0.00     0.180 A 
ATOM      4  O   UNL     1       7.892  -8.047 -41.068  1.00  0.00    -0.452 OA
ATOM      5  C   UNL     1       5.848  -6.256 -41.433  1.00  0.00     0.239 A 
ATOM      6  C   UNL     1       8.146  -6.763 -40.883  1.00  0.00     0.146 A 
ATOM      7  O   UNL     1       4.901  -5.456 -41.630  1.00  0.00    -0.285 OA
ATOM      8  C   UNL     1       7.118  -5.794 -41.009  1.00  0.00     0.111 A 
ATOM      9  C   UNL     1       9.445  -6.389 -40.548  1.00  0.00     0.094 A 
ATOM     10  C   UNL     1       7.446  -4.425 -40.746  1.00  0.00     0.134 A 
ATOM     11  C   UNL     1       9.764  -5.052 -40.333  1.00  0.00     0.123 A 
ATOM     12  C   UNL     1       8.771  -4.076 -40.440  1.00  0.00     0.093 A 
BRANCH   3  13
ATOM     13  C   UNL     1       6.556  -9.990 -41.549  1.00  0.00     0.021 A 
ATOM     14  C   UNL     1       7.189 -10.641 -42.622  1.00  0.00     0.016 A 
ATOM     15  C   UNL     1       7.161 -12.035 -42.726  1.00  0.00     0.047 A 
ATOM     16  C   UNL     1       6.496 -12.800 -41.762  1.00  0.00     0.115 A 
ATOM     17  C   UNL     1       5.912 -10.766 -40.568  1.00  0.00     0.016 A 
ATOM     18  C   UNL     1       5.843 -12.159 -40.702  1.00  0.00     0.047 A 
BRANCH  16  19
ATOM     19  O   UNL     1       6.509 -14.194 -41.828  1.00  0.00    -0.508 OA
ATOM     20  H   UNL     1       6.113 -14.689 -42.627  1.00  0.00     0.293 HD
ENDBRANCH  16  19
ENDBRANCH   3  13
BRANCH  10  21
ATOM     21  O   UNL     1       6.511  -3.383 -40.734  1.00  0.00    -0.507 OA
ATOM     22  H   UNL     1       6.670  -2.438 -41.033  1.00  0.00     0.293 HD
ENDBRANCH  10  21
BRANCH  11  23
ATOM     23  O   UNL     1      11.081  -4.701 -40.040  1.00  0.00    -0.508 OA
ATOM     24  H   UNL     1      11.815  -4.730 -40.737  1.00  0.00     0.293 HD
ENDBRANCH  11  23
ENDBRANCH   1   2
BRANCH   1  25
ATOM     25  C   UNL     1       4.040  -8.129 -43.525  1.00  0.00     0.339 C 
ATOM     26  C   UNL     1       3.248  -9.411 -43.871  1.00  0.00     0.214 C 
ATOM     27  O   UNL     1       3.340  -6.938 -43.846  1.00  0.00    -0.332 OA
ATOM     28  C   UNL     1       1.788  -9.376 -43.353  1.00  0.00     0.180 C 
ATOM     29  C   UNL     1       1.988  -6.871 -43.392  1.00  0.00     0.179 C 
ATOM     30  C   UNL     1       1.483  -8.088 -42.572  1.00  0.00     0.177 C 
BRANCH  26  31
ATOM     31  O   UNL     1       3.921 -10.545 -43.384  1.00  0.00    -0.384 OA
ATOM     32  H   UNL     1       3.763 -11.275 -44.040  1.00  0.00     0.211 HD
ENDBRANCH  26  31
BRANCH  28  33
ATOM     33  O   UNL     1       1.471 -10.519 -42.592  1.00  0.00    -0.387 OA
ATOM     34  H   UNL     1       1.387 -10.241 -41.643  1.00  0.00     0.211 HD
ENDBRANCH  28  33
BRANCH  29  35
ATOM     35  C   UNL     1       1.789  -5.544 -42.639  1.00  0.00     0.191 C 
BRANCH  35  36
ATOM     36  O   UNL     1       2.713  -4.571 -43.052  1.00  0.00    -0.394 OA
ATOM     37  H   UNL     1       2.886  -4.736 -44.013  1.00  0.00     0.210 HD
ENDBRANCH  35  36
ENDBRANCH  29  35
BRANCH  30  38
ATOM     38  O   UNL     1       0.105  -7.968 -42.340  1.00  0.00    -0.387 OA
ATOM     39  H   UNL     1      -0.054  -7.021 -42.107  1.00  0.00     0.211 HD
ENDBRANCH  30  38
ENDBRANCH   1  25
TORSDOF 11
ENDMDL
MODEL 9
REMARK VINA RESULT:    -7.466      4.253      8.869
REMARK INTER + INTRA:         -12.437
REMARK INTER:                 -10.677
REMARK INTRA:                  -1.760
REMARK UNBOUND:                -1.698
REMARK SMILES O=c1c(O[C@@H]2O[C@H](CO)[C@@H](O)[C@H](O)[C@@H]2O)c(-c2ccc(O)cc2)oc2cc(O)cc(O)c12
REMARK SMILES IDX 4 1 3 2 16 3 24 4 2 5 25 6 1 7 32 8 26 9 30 10 27 11 29 12
REMARK SMILES IDX 17 13 18 14 19 15 20 16 23 17 22 18 21 19 31 21 28 23 5 25
REMARK SMILES IDX 14 26 6 27 12 28 7 29 10 30 15 31 13 33 8 35 9 36 11 38
REMARK H PARENT 21 20 31 22 28 24 15 32 13 34 9 37 11 39
REMARK Flexibility Score: inf
ROOT
ATOM      1  O   UNL     1       5.593  -7.431 -41.576  1.00  0.00    -0.454 OA
ENDROOT
BRANCH   1   2
ATOM      2  C   UNL     1       6.743  -7.245 -40.795  1.00  0.00     0.214 A 
ATOM      3  C   UNL     1       7.541  -8.352 -40.457  1.00  0.00     0.180 A 
ATOM      4  O   UNL     1       8.695  -8.160 -39.819  1.00  0.00    -0.452 OA
ATOM      5  C   UNL     1       7.132  -5.969 -40.346  1.00  0.00     0.239 A 
ATOM      6  C   UNL     1       9.122  -6.976 -39.414  1.00  0.00     0.146 A 
ATOM      7  O   UNL     1       6.409  -4.981 -40.621  1.00  0.00    -0.285 OA
ATOM      8  C   UNL     1       8.335  -5.814 -39.614  1.00  0.00     0.111 A 
ATOM      9  C   UNL     1      10.357  -6.904 -38.775  1.00  0.00     0.094 A 
ATOM     10  C   UNL     1       8.830  -4.569 -39.107  1.00  0.00     0.134 A 
ATOM     11  C   UNL     1      10.848  -5.684 -38.321  1.00  0.00     0.123 A 
ATOM     12  C   UNL     1      10.092  -4.523 -38.494  1.00  0.00     0.093 A 
BRANCH   3  13
ATOM     13  C   UNL     1       7.182  -9.742 -40.820  1.00  0.00     0.021 A 
ATOM     14  C   UNL     1       7.556 -10.242 -42.080  1.00  0.00     0.016 A 
ATOM     15  C   UNL     1       7.321 -11.579 -42.414  1.00  0.00     0.047 A 
ATOM     16  C   UNL     1       6.705 -12.436 -41.496  1.00  0.00     0.115 A 
ATOM     17  C   UNL     1       6.588 -10.616 -39.891  1.00  0.00     0.016 A 
ATOM     18  C   UNL     1       6.308 -11.942 -40.247  1.00  0.00     0.047 A 
BRANCH  16  19
ATOM     19  O   UNL     1       6.516 -13.786 -41.800  1.00  0.00    -0.508 OA
ATOM     20  H   UNL     1       6.479 -14.109 -42.767  1.00  0.00     0.293 HD
ENDBRANCH  16  19
ENDBRANCH   3  13
BRANCH  10  21
ATOM     21  O   UNL     1       8.113  -3.367 -39.144  1.00  0.00    -0.507 OA
ATOM     22  H   UNL     1       7.302  -3.142 -38.596  1.00  0.00     0.293 HD
ENDBRANCH  10  21
BRANCH  11  23
ATOM     23  O   UNL     1      12.107  -5.634 -37.722  1.00  0.00    -0.508 OA
ATOM     24  H   UNL     1      12.364  -4.904 -37.069  1.00  0.00     0.293 HD
ENDBRANCH  11  23
ENDBRANCH   1   2
BRANCH   1  25
ATOM     25  C   UNL     1       4.328  -7.861 -41.058  1.00  0.00     0.339 C 
ATOM     26  C   UNL     1       3.259  -6.756 -41.219  1.00  0.00     0.214 C 
ATOM     27  O   UNL     1       3.952  -9.090 -41.658  1.00  0.00    -0.332 OA
ATOM     28  C   UNL     1       2.749  -6.619 -42.676  1.00  0.00     0.180 C 
ATOM     29  C   UNL     1       3.470  -9.005 -42.999  1.00  0.00     0.179 C 
ATOM     30  C   UNL     1       3.463  -7.587 -43.631  1.00  0.00     0.177 C 
BRANCH  26  31
ATOM     31  O   UNL     1       3.755  -5.528 -40.749  1.00  0.00    -0.384 OA
ATOM     32  H   UNL     1       3.211  -4.816 -41.179  1.00  0.00     0.211 HD
ENDBRANCH  26  31
BRANCH  28  33
ATOM     33  O   UNL     1       2.833  -5.291 -43.141  1.00  0.00    -0.387 OA
ATOM     34  H   UNL     1       2.672  -4.687 -42.370  1.00  0.00     0.211 HD
ENDBRANCH  28  33
BRANCH  29  35
ATOM     35  C   UNL     1       4.237 -10.020 -43.863  1.00  0.00     0.191 C 
BRANCH  35  36
ATOM     36  O   UNL     1       5.204  -9.390 -44.664  1.00  0.00    -0.394 OA
ATOM     37  H   UNL     1       6.036  -9.918 -44.570  1.00  0.00     0.210 HD
ENDBRANCH  35  36
ENDBRANCH  29  35
BRANCH  30  38
ATOM     38  O   UNL     1       2.811  -7.623 -44.873  1.00  0.00    -0.387 OA
ATOM     39  H   UNL     1       3.440  -7.228 -45.527  1.00  0.00     0.211 HD
ENDBRANCH  30  38
ENDBRANCH   1  25
TORSDOF 11
ENDMDL
