MODEL 1
REMARK VINA RESULT:    -3.115      0.000      0.000
REMARK INTER + INTRA:         -10.085
REMARK INTER:                  -6.757
REMARK INTRA:                  -3.328
REMARK UNBOUND:                -3.328
REMARK SMILES CCCCCCCCCCCCCCCCCCCCCC(=O)[O-]
REMARK SMILES IDX 12 1 11 2 10 3 9 4 8 5 7 6 6 7 5 8 4 9 3 10 2 11 1 12 13 13
REMARK SMILES IDX 14 14 15 15 16 16 17 17 18 18 19 19 20 20 21 21 22 22 23 23
REMARK SMILES IDX 24 24
REMARK H PARENT
REMARK Flexibility Score: inf
ROOT
ATOM      1  C   UNL     1       3.030  10.644   0.806  1.00  0.00     0.000 C 
ENDROOT
BRANCH   1   2
ATOM      2  C   UNL     1       3.521   9.834  -0.405  1.00  0.00     0.000 C 
BRANCH   2   3
ATOM      3  C   UNL     1       2.936  10.345  -1.732  1.00  0.00     0.000 C 
BRANCH   3   4
ATOM      4  C   UNL     1       4.019  10.865  -2.696  1.00  0.00    -0.000 C 
BRANCH   4   5
ATOM      5  C   UNL     1       5.444  10.568  -2.202  1.00  0.00    -0.000 C 
BRANCH   5   6
ATOM      6  C   UNL     1       6.400  11.755  -2.413  1.00  0.00    -0.000 C 
BRANCH   6   7
ATOM      7  C   UNL     1       6.175  12.462  -3.758  1.00  0.00    -0.000 C 
BRANCH   7   8
ATOM      8  C   UNL     1       7.007  11.849  -4.899  1.00  0.00    -0.000 C 
BRANCH   8   9
ATOM      9  C   UNL     1       6.195  11.668  -6.191  1.00  0.00    -0.000 C 
BRANCH   9  10
ATOM     10  C   UNL     1       4.803  12.312  -6.109  1.00  0.00    -0.000 C 
BRANCH  10  11
ATOM     11  C   UNL     1       3.809  11.587  -7.023  1.00  0.00    -0.003 C 
ATOM     12  C   UNL     1       2.877  10.686  -6.219  1.00  0.00     0.004 C 
ENDBRANCH  10  11
ENDBRANCH   9  10
ENDBRANCH   8   9
ENDBRANCH   7   8
ENDBRANCH   6   7
ENDBRANCH   5   6
ENDBRANCH   4   5
ENDBRANCH   3   4
ENDBRANCH   2   3
ENDBRANCH   1   2
BRANCH   1  13
ATOM     13  C   UNL     1       3.535  12.097   0.791  1.00  0.00     0.000 C 
BRANCH  13  14
ATOM     14  C   UNL     1       4.642  12.349   1.829  1.00  0.00     0.000 C 
BRANCH  14  15
ATOM     15  C   UNL     1       6.050  12.088   1.267  1.00  0.00     0.000 C 
BRANCH  15  16
ATOM     16  C   UNL     1       6.597  10.705   1.661  1.00  0.00     0.000 C 
BRANCH  16  17
ATOM     17  C   UNL     1       7.863  10.325   0.875  1.00  0.00     0.000 C 
BRANCH  17  18
ATOM     18  C   UNL     1       8.061   8.806   0.765  1.00  0.00     0.000 C 
BRANCH  18  19
ATOM     19  C   UNL     1       6.810   8.131   0.183  1.00  0.00     0.000 C 
BRANCH  19  20
ATOM     20  C   UNL     1       6.253   7.019   1.090  1.00  0.00     0.006 C 
BRANCH  20  21
ATOM     21  C   UNL     1       5.048   7.445   1.945  1.00  0.00     0.053 C 
BRANCH  21  22
ATOM     22  C   UNL     1       5.421   7.640   3.382  1.00  0.00     0.041 C 
ATOM     23  O   UNL     1       4.657   8.277   4.154  1.00  0.00    -0.550 OA
ATOM     24  O   UNL     1       6.627   7.145   3.861  1.00  0.00    -0.550 OA
ENDBRANCH  21  22
ENDBRANCH  20  21
ENDBRANCH  19  20
ENDBRANCH  18  19
ENDBRANCH  17  18
ENDBRANCH  16  17
ENDBRANCH  15  16
ENDBRANCH  14  15
ENDBRANCH  13  14
ENDBRANCH   1  13
TORSDOF 20
ENDMDL
MODEL 2
REMARK VINA RESULT:    -3.109      2.569      6.661
REMARK INTER + INTRA:         -10.072
REMARK INTER:                  -6.618
REMARK INTRA:                  -3.454
REMARK UNBOUND:                -3.328
REMARK SMILES CCCCCCCCCCCCCCCCCCCCCC(=O)[O-]
REMARK SMILES IDX 12 1 11 2 10 3 9 4 8 5 7 6 6 7 5 8 4 9 3 10 2 11 1 12 13 13
REMARK SMILES IDX 14 14 15 15 16 16 17 17 18 18 19 19 20 20 21 21 22 22 23 23
REMARK SMILES IDX 24 24
REMARK H PARENT
REMARK Flexibility Score: inf
ROOT
ATOM      1  C   UNL     1       7.755  11.988   1.288  1.00  0.00     0.000 C 
ENDROOT
BRANCH   1   2
ATOM      2  C   UNL     1       6.585  11.263   1.974  1.00  0.00     0.000 C 
BRANCH   2   3
ATOM      3  C   UNL     1       5.364  12.174   2.176  1.00  0.00     0.000 C 
BRANCH   3   4
ATOM      4  C   UNL     1       4.142  11.720   1.355  1.00  0.00    -0.000 C 
BRANCH   4   5
ATOM      5  C   UNL     1       3.207  10.792   2.149  1.00  0.00    -0.000 C 
BRANCH   5   6
ATOM      6  C   UNL     1       3.214   9.350   1.613  1.00  0.00    -0.000 C 
BRANCH   6   7
ATOM      7  C   UNL     1       3.175   8.303   2.737  1.00  0.00    -0.000 C 
BRANCH   7   8
ATOM      8  C   UNL     1       4.081   8.673   3.925  1.00  0.00    -0.000 C 
BRANCH   8   9
ATOM      9  C   UNL     1       5.559   8.344   3.666  1.00  0.00    -0.000 C 
BRANCH   9  10
ATOM     10  C   UNL     1       5.753   6.966   3.014  1.00  0.00    -0.000 C 
BRANCH  10  11
ATOM     11  C   UNL     1       6.481   6.008   3.963  1.00  0.00    -0.003 C 
ATOM     12  C   UNL     1       6.615   4.618   3.347  1.00  0.00     0.004 C 
ENDBRANCH  10  11
ENDBRANCH   9  10
ENDBRANCH   8   9
ENDBRANCH   7   8
ENDBRANCH   6   7
ENDBRANCH   5   6
ENDBRANCH   4   5
ENDBRANCH   3   4
ENDBRANCH   2   3
ENDBRANCH   1   2
BRANCH   1  13
ATOM     13  C   UNL     1       7.758  11.792  -0.238  1.00  0.00     0.000 C 
BRANCH  13  14
ATOM     14  C   UNL     1       7.648  13.122  -1.005  1.00  0.00     0.000 C 
BRANCH  14  15
ATOM     15  C   UNL     1       6.850  12.987  -2.312  1.00  0.00     0.000 C 
BRANCH  15  16
ATOM     16  C   UNL     1       5.340  12.817  -2.068  1.00  0.00     0.000 C 
BRANCH  16  17
ATOM     17  C   UNL     1       4.772  11.556  -2.739  1.00  0.00     0.000 C 
BRANCH  17  18
ATOM     18  C   UNL     1       4.541  10.406  -1.746  1.00  0.00     0.000 C 
BRANCH  18  19
ATOM     19  C   UNL     1       5.745   9.451  -1.726  1.00  0.00     0.000 C 
BRANCH  19  20
ATOM     20  C   UNL     1       5.820   8.611  -0.438  1.00  0.00     0.006 C 
BRANCH  20  21
ATOM     21  C   UNL     1       7.132   7.829  -0.269  1.00  0.00     0.053 C 
BRANCH  21  22
ATOM     22  C   UNL     1       7.136   6.562  -1.066  1.00  0.00     0.041 C 
ATOM     23  O   UNL     1       8.014   6.371  -1.949  1.00  0.00    -0.550 OA
ATOM     24  O   UNL     1       6.151   5.605  -0.857  1.00  0.00    -0.550 OA
ENDBRANCH  21  22
ENDBRANCH  20  21
ENDBRANCH  19  20
ENDBRANCH  18  19
ENDBRANCH  17  18
ENDBRANCH  16  17
ENDBRANCH  15  16
ENDBRANCH  14  15
ENDBRANCH  13  14
ENDBRANCH   1  13
TORSDOF 20
ENDMDL
MODEL 3
REMARK VINA RESULT:    -3.080      1.655      3.618
REMARK INTER + INTRA:         -10.008
REMARK INTER:                  -6.919
REMARK INTRA:                  -3.089
REMARK UNBOUND:                -3.328
REMARK SMILES CCCCCCCCCCCCCCCCCCCCCC(=O)[O-]
REMARK SMILES IDX 12 1 11 2 10 3 9 4 8 5 7 6 6 7 5 8 4 9 3 10 2 11 1 12 13 13
REMARK SMILES IDX 14 14 15 15 16 16 17 17 18 18 19 19 20 20 21 21 22 22 23 23
REMARK SMILES IDX 24 24
REMARK H PARENT
REMARK Flexibility Score: inf
ROOT
ATOM      1  C   UNL     1       7.312  10.786   1.356  1.00  0.00     0.000 C 
ENDROOT
BRANCH   1   2
ATOM      2  C   UNL     1       7.968  12.142   1.046  1.00  0.00     0.000 C 
BRANCH   2   3
ATOM      3  C   UNL     1       7.140  12.986   0.063  1.00  0.00     0.000 C 
BRANCH   3   4
ATOM      4  C   UNL     1       5.642  12.630   0.091  1.00  0.00    -0.000 C 
BRANCH   4   5
ATOM      5  C   UNL     1       4.967  12.804  -1.280  1.00  0.00    -0.000 C 
BRANCH   5   6
ATOM      6  C   UNL     1       4.166  11.560  -1.704  1.00  0.00    -0.000 C 
BRANCH   6   7
ATOM      7  C   UNL     1       4.532  11.077  -3.116  1.00  0.00    -0.000 C 
BRANCH   7   8
ATOM      8  C   UNL     1       6.039  11.189  -3.410  1.00  0.00    -0.000 C 
BRANCH   8   9
ATOM      9  C   UNL     1       6.337  12.052  -4.645  1.00  0.00    -0.000 C 
BRANCH   9  10
ATOM     10  C   UNL     1       6.143  11.287  -5.963  1.00  0.00    -0.000 C 
BRANCH  10  11
ATOM     11  C   UNL     1       6.185  12.240  -7.162  1.00  0.00    -0.003 C 
ATOM     12  C   UNL     1       7.622  12.596  -7.534  1.00  0.00     0.004 C 
ENDBRANCH  10  11
ENDBRANCH   9  10
ENDBRANCH   8   9
ENDBRANCH   7   8
ENDBRANCH   6   7
ENDBRANCH   5   6
ENDBRANCH   4   5
ENDBRANCH   3   4
ENDBRANCH   2   3
ENDBRANCH   1   2
BRANCH   1  13
ATOM     13  C   UNL     1       8.171   9.595   0.896  1.00  0.00     0.000 C 
BRANCH  13  14
ATOM     14  C   UNL     1       7.322   8.398   0.432  1.00  0.00     0.000 C 
BRANCH  14  15
ATOM     15  C   UNL     1       5.986   8.829  -0.196  1.00  0.00     0.000 C 
BRANCH  15  16
ATOM     16  C   UNL     1       4.887   7.764  -0.035  1.00  0.00     0.000 C 
BRANCH  16  17
ATOM     17  C   UNL     1       3.634   8.311   0.669  1.00  0.00     0.000 C 
BRANCH  17  18
ATOM     18  C   UNL     1       3.890   9.643   1.388  1.00  0.00     0.000 C 
BRANCH  18  19
ATOM     19  C   UNL     1       3.621   9.513   2.895  1.00  0.00     0.000 C 
BRANCH  19  20
ATOM     20  C   UNL     1       4.141   8.188   3.483  1.00  0.00     0.006 C 
BRANCH  20  21
ATOM     21  C   UNL     1       5.652   8.172   3.765  1.00  0.00     0.053 C 
BRANCH  21  22
ATOM     22  C   UNL     1       6.236   6.801   3.615  1.00  0.00     0.041 C 
ATOM     23  O   UNL     1       6.013   6.128   2.575  1.00  0.00    -0.550 OA
ATOM     24  O   UNL     1       7.000   6.254   4.638  1.00  0.00    -0.550 OA
ENDBRANCH  21  22
ENDBRANCH  20  21
ENDBRANCH  19  20
ENDBRANCH  18  19
ENDBRANCH  17  18
ENDBRANCH  16  17
ENDBRANCH  15  16
ENDBRANCH  14  15
ENDBRANCH  13  14
ENDBRANCH   1  13
TORSDOF 20
ENDMDL
MODEL 4
REMARK VINA RESULT:    -3.040      1.633      3.395
REMARK INTER + INTRA:          -9.922
REMARK INTER:                  -6.540
REMARK INTRA:                  -3.382
REMARK UNBOUND:                -3.328
REMARK SMILES CCCCCCCCCCCCCCCCCCCCCC(=O)[O-]
REMARK SMILES IDX 12 1 11 2 10 3 9 4 8 5 7 6 6 7 5 8 4 9 3 10 2 11 1 12 13 13
REMARK SMILES IDX 14 14 15 15 16 16 17 17 18 18 19 19 20 20 21 21 22 22 23 23
REMARK SMILES IDX 24 24
REMARK H PARENT
REMARK Flexibility Score: inf
ROOT
ATOM      1  C   UNL     1       6.303  11.712   1.990  1.00  0.00     0.000 C 
ENDROOT
BRANCH   1   2
ATOM      2  C   UNL     1       7.569  12.491   1.596  1.00  0.00     0.000 C 
BRANCH   2   3
ATOM      3  C   UNL     1       7.687  12.696   0.077  1.00  0.00     0.000 C 
BRANCH   3   4
ATOM      4  C   UNL     1       7.311  11.435  -0.722  1.00  0.00    -0.000 C 
BRANCH   4   5
ATOM      5  C   UNL     1       6.433  11.748  -1.945  1.00  0.00    -0.000 C 
BRANCH   5   6
ATOM      6  C   UNL     1       5.622  10.528  -2.417  1.00  0.00    -0.000 C 
BRANCH   6   7
ATOM      7  C   UNL     1       4.210  10.907  -2.891  1.00  0.00    -0.000 C 
BRANCH   7   8
ATOM      8  C   UNL     1       4.048  12.419  -3.128  1.00  0.00    -0.000 C 
BRANCH   8   9
ATOM      9  C   UNL     1       4.059  12.787  -4.620  1.00  0.00    -0.000 C 
BRANCH   9  10
ATOM     10  C   UNL     1       3.924  11.559  -5.533  1.00  0.00    -0.000 C 
BRANCH  10  11
ATOM     11  C   UNL     1       5.053  11.519  -6.568  1.00  0.00    -0.003 C 
ATOM     12  C   UNL     1       6.415  11.712  -5.907  1.00  0.00     0.004 C 
ENDBRANCH  10  11
ENDBRANCH   9  10
ENDBRANCH   8   9
ENDBRANCH   7   8
ENDBRANCH   6   7
ENDBRANCH   5   6
ENDBRANCH   4   5
ENDBRANCH   3   4
ENDBRANCH   2   3
ENDBRANCH   1   2
BRANCH   1  13
ATOM     13  C   UNL     1       5.039  12.589   1.966  1.00  0.00     0.000 C 
BRANCH  13  14
ATOM     14  C   UNL     1       3.930  12.004   1.074  1.00  0.00     0.000 C 
BRANCH  14  15
ATOM     15  C   UNL     1       4.081  10.488   0.862  1.00  0.00     0.000 C 
BRANCH  15  16
ATOM     16  C   UNL     1       2.971   9.681   1.558  1.00  0.00     0.000 C 
BRANCH  16  17
ATOM     17  C   UNL     1       3.196   9.553   3.074  1.00  0.00     0.000 C 
BRANCH  17  18
ATOM     18  C   UNL     1       3.898   8.244   3.463  1.00  0.00     0.000 C 
BRANCH  18  19
ATOM     19  C   UNL     1       5.375   8.496   3.805  1.00  0.00     0.000 C 
BRANCH  19  20
ATOM     20  C   UNL     1       6.302   7.366   3.319  1.00  0.00     0.006 C 
BRANCH  20  21
ATOM     21  C   UNL     1       6.003   6.872   1.895  1.00  0.00     0.053 C 
BRANCH  21  22
ATOM     22  C   UNL     1       6.622   7.753   0.854  1.00  0.00     0.041 C 
ATOM     23  O   UNL     1       6.151   7.781  -0.314  1.00  0.00    -0.550 OA
ATOM     24  O   UNL     1       7.739   8.518   1.165  1.00  0.00    -0.550 OA
ENDBRANCH  21  22
ENDBRANCH  20  21
ENDBRANCH  19  20
ENDBRANCH  18  19
ENDBRANCH  17  18
ENDBRANCH  16  17
ENDBRANCH  15  16
ENDBRANCH  14  15
ENDBRANCH  13  14
ENDBRANCH   1  13
TORSDOF 20
ENDMDL
MODEL 5
REMARK VINA RESULT:    -2.957      3.481      6.957
REMARK INTER + INTRA:          -9.743
REMARK INTER:                  -6.060
REMARK INTRA:                  -3.683
REMARK UNBOUND:                -3.328
REMARK SMILES CCCCCCCCCCCCCCCCCCCCCC(=O)[O-]
REMARK SMILES IDX 12 1 11 2 10 3 9 4 8 5 7 6 6 7 5 8 4 9 3 10 2 11 1 12 13 13
REMARK SMILES IDX 14 14 15 15 16 16 17 17 18 18 19 19 20 20 21 21 22 22 23 23
REMARK SMILES IDX 24 24
REMARK H PARENT
REMARK Flexibility Score: inf
ROOT
ATOM      1  C   UNL     1       6.279  11.516   2.176  1.00  0.00     0.000 C 
ENDROOT
BRANCH   1   2
ATOM      2  C   UNL     1       4.985  12.215   1.726  1.00  0.00     0.000 C 
BRANCH   2   3
ATOM      3  C   UNL     1       3.825  11.228   1.515  1.00  0.00     0.000 C 
BRANCH   3   4
ATOM      4  C   UNL     1       4.229  10.011   0.663  1.00  0.00    -0.000 C 
BRANCH   4   5
ATOM      5  C   UNL     1       3.660   8.691   1.210  1.00  0.00    -0.000 C 
BRANCH   5   6
ATOM      6  C   UNL     1       3.634   8.652   2.748  1.00  0.00    -0.000 C 
BRANCH   6   7
ATOM      7  C   UNL     1       4.982   8.227   3.350  1.00  0.00    -0.000 C 
BRANCH   7   8
ATOM      8  C   UNL     1       5.815   7.358   2.390  1.00  0.00    -0.000 C 
BRANCH   8   9
ATOM      9  C   UNL     1       7.090   8.067   1.908  1.00  0.00    -0.000 C 
BRANCH   9  10
ATOM     10  C   UNL     1       7.296   7.947   0.390  1.00  0.00    -0.000 C 
BRANCH  10  11
ATOM     11  C   UNL     1       6.600   6.698  -0.160  1.00  0.00    -0.003 C 
ATOM     12  C   UNL     1       6.962   6.465  -1.625  1.00  0.00     0.004 C 
ENDBRANCH  10  11
ENDBRANCH   9  10
ENDBRANCH   8   9
ENDBRANCH   7   8
ENDBRANCH   6   7
ENDBRANCH   5   6
ENDBRANCH   4   5
ENDBRANCH   3   4
ENDBRANCH   2   3
ENDBRANCH   1   2
BRANCH   1  13
ATOM     13  C   UNL     1       7.457  11.782   1.223  1.00  0.00     0.000 C 
BRANCH  13  14
ATOM     14  C   UNL     1       7.052  12.634   0.006  1.00  0.00     0.000 C 
BRANCH  14  15
ATOM     15  C   UNL     1       7.303  11.914  -1.329  1.00  0.00     0.000 C 
BRANCH  15  16
ATOM     16  C   UNL     1       6.023  11.767  -2.171  1.00  0.00     0.000 C 
BRANCH  16  17
ATOM     17  C   UNL     1       5.007  12.889  -1.902  1.00  0.00     0.000 C 
BRANCH  17  18
ATOM     18  C   UNL     1       3.561  12.467  -2.200  1.00  0.00     0.000 C 
BRANCH  18  19
ATOM     19  C   UNL     1       3.513  11.040  -2.766  1.00  0.00     0.000 C 
BRANCH  19  20
ATOM     20  C   UNL     1       2.945  10.982  -4.196  1.00  0.00     0.006 C 
BRANCH  20  21
ATOM     21  C   UNL     1       3.499  12.061  -5.141  1.00  0.00     0.053 C 
BRANCH  21  22
ATOM     22  C   UNL     1       4.522  11.508  -6.085  1.00  0.00     0.041 C 
ATOM     23  O   UNL     1       4.205  11.233  -7.272  1.00  0.00    -0.550 OA
ATOM     24  O   UNL     1       5.816  11.267  -5.644  1.00  0.00    -0.550 OA
ENDBRANCH  21  22
ENDBRANCH  20  21
ENDBRANCH  19  20
ENDBRANCH  18  19
ENDBRANCH  17  18
ENDBRANCH  16  17
ENDBRANCH  15  16
ENDBRANCH  14  15
ENDBRANCH  13  14
ENDBRANCH   1  13
TORSDOF 20
ENDMDL
MODEL 6
REMARK VINA RESULT:    -2.943      2.226      4.343
REMARK INTER + INTRA:          -9.712
REMARK INTER:                  -6.366
REMARK INTRA:                  -3.345
REMARK UNBOUND:                -3.328
REMARK SMILES CCCCCCCCCCCCCCCCCCCCCC(=O)[O-]
REMARK SMILES IDX 12 1 11 2 10 3 9 4 8 5 7 6 6 7 5 8 4 9 3 10 2 11 1 12 13 13
REMARK SMILES IDX 14 14 15 15 16 16 17 17 18 18 19 19 20 20 21 21 22 22 23 23
REMARK SMILES IDX 24 24
REMARK H PARENT
REMARK Flexibility Score: inf
ROOT
ATOM      1  C   UNL     1       3.714  10.187  -0.947  1.00  0.00     0.000 C 
ENDROOT
BRANCH   1   2
ATOM      2  C   UNL     1       3.580  11.684  -1.275  1.00  0.00     0.000 C 
BRANCH   2   3
ATOM      3  C   UNL     1       2.975  11.931  -2.666  1.00  0.00     0.000 C 
BRANCH   3   4
ATOM      4  C   UNL     1       3.808  11.299  -3.796  1.00  0.00    -0.000 C 
BRANCH   4   5
ATOM      5  C   UNL     1       4.914  12.235  -4.310  1.00  0.00    -0.000 C 
BRANCH   5   6
ATOM      6  C   UNL     1       6.249  11.502  -4.535  1.00  0.00    -0.000 C 
BRANCH   6   7
ATOM      7  C   UNL     1       7.359  11.998  -3.597  1.00  0.00    -0.000 C 
BRANCH   7   8
ATOM      8  C   UNL     1       6.824  12.890  -2.462  1.00  0.00    -0.000 C 
BRANCH   8   9
ATOM      9  C   UNL     1       7.662  12.779  -1.179  1.00  0.00    -0.000 C 
BRANCH   9  10
ATOM     10  C   UNL     1       7.060  11.798  -0.161  1.00  0.00    -0.000 C 
BRANCH  10  11
ATOM     11  C   UNL     1       7.397  12.220   1.273  1.00  0.00    -0.003 C 
ATOM     12  C   UNL     1       6.631  11.379   2.290  1.00  0.00     0.004 C 
ENDBRANCH  10  11
ENDBRANCH   9  10
ENDBRANCH   8   9
ENDBRANCH   7   8
ENDBRANCH   6   7
ENDBRANCH   5   6
ENDBRANCH   4   5
ENDBRANCH   3   4
ENDBRANCH   2   3
ENDBRANCH   1   2
BRANCH   1  13
ATOM     13  C   UNL     1       2.979   9.798   0.348  1.00  0.00     0.000 C 
BRANCH  13  14
ATOM     14  C   UNL     1       3.152  10.845   1.463  1.00  0.00     0.000 C 
BRANCH  14  15
ATOM     15  C   UNL     1       3.079  10.227   2.869  1.00  0.00     0.000 C 
BRANCH  15  16
ATOM     16  C   UNL     1       3.473   8.739   2.882  1.00  0.00     0.000 C 
BRANCH  16  17
ATOM     17  C   UNL     1       4.620   8.440   3.862  1.00  0.00     0.000 C 
BRANCH  17  18
ATOM     18  C   UNL     1       5.656   7.464   3.285  1.00  0.00     0.000 C 
BRANCH  18  19
ATOM     19  C   UNL     1       5.486   7.320   1.765  1.00  0.00     0.000 C 
BRANCH  19  20
ATOM     20  C   UNL     1       6.535   8.116   0.967  1.00  0.00     0.006 C 
BRANCH  20  21
ATOM     21  C   UNL     1       6.461   7.911  -0.554  1.00  0.00     0.053 C 
BRANCH  21  22
ATOM     22  C   UNL     1       7.021   6.586  -0.969  1.00  0.00     0.041 C 
ATOM     23  O   UNL     1       6.248   5.626  -1.233  1.00  0.00    -0.550 OA
ATOM     24  O   UNL     1       8.395   6.400  -1.033  1.00  0.00    -0.550 OA
ENDBRANCH  21  22
ENDBRANCH  20  21
ENDBRANCH  19  20
ENDBRANCH  18  19
ENDBRANCH  17  18
ENDBRANCH  16  17
ENDBRANCH  15  16
ENDBRANCH  14  15
ENDBRANCH  13  14
ENDBRANCH   1  13
TORSDOF 20
ENDMDL
MODEL 7
REMARK VINA RESULT:    -2.887      2.299      4.708
REMARK INTER + INTRA:          -9.591
REMARK INTER:                  -6.333
REMARK INTRA:                  -3.258
REMARK UNBOUND:                -3.328
REMARK SMILES CCCCCCCCCCCCCCCCCCCCCC(=O)[O-]
REMARK SMILES IDX 12 1 11 2 10 3 9 4 8 5 7 6 6 7 5 8 4 9 3 10 2 11 1 12 13 13
REMARK SMILES IDX 14 14 15 15 16 16 17 17 18 18 19 19 20 20 21 21 22 22 23 23
REMARK SMILES IDX 24 24
REMARK H PARENT
REMARK Flexibility Score: inf
ROOT
ATOM      1  C   UNL     1       7.847  11.857   0.623  1.00  0.00     0.000 C 
ENDROOT
BRANCH   1   2
ATOM      2  C   UNL     1       7.739  13.032  -0.363  1.00  0.00     0.000 C 
BRANCH   2   3
ATOM      3  C   UNL     1       7.743  12.571  -1.830  1.00  0.00     0.000 C 
BRANCH   3   4
ATOM      4  C   UNL     1       6.392  12.809  -2.530  1.00  0.00    -0.000 C 
BRANCH   4   5
ATOM      5  C   UNL     1       5.231  12.069  -1.844  1.00  0.00    -0.000 C 
BRANCH   5   6
ATOM      6  C   UNL     1       5.342  10.540  -1.985  1.00  0.00    -0.000 C 
BRANCH   6   7
ATOM      7  C   UNL     1       4.337   9.792  -1.095  1.00  0.00    -0.000 C 
BRANCH   7   8
ATOM      8  C   UNL     1       4.963   8.584  -0.377  1.00  0.00    -0.000 C 
BRANCH   8   9
ATOM      9  C   UNL     1       6.318   8.916   0.268  1.00  0.00    -0.000 C 
BRANCH   9  10
ATOM     10  C   UNL     1       7.353   7.797   0.079  1.00  0.00    -0.000 C 
BRANCH  10  11
ATOM     11  C   UNL     1       6.728   6.585  -0.620  1.00  0.00    -0.003 C 
ATOM     12  C   UNL     1       7.346   6.363  -1.998  1.00  0.00     0.004 C 
ENDBRANCH  10  11
ENDBRANCH   9  10
ENDBRANCH   8   9
ENDBRANCH   7   8
ENDBRANCH   6   7
ENDBRANCH   5   6
ENDBRANCH   4   5
ENDBRANCH   3   4
ENDBRANCH   2   3
ENDBRANCH   1   2
BRANCH   1  13
ATOM     13  C   UNL     1       6.879  11.992   1.811  1.00  0.00     0.000 C 
BRANCH  13  14
ATOM     14  C   UNL     1       5.756  13.011   1.546  1.00  0.00     0.000 C 
BRANCH  14  15
ATOM     15  C   UNL     1       4.459  12.670   2.298  1.00  0.00     0.000 C 
BRANCH  15  16
ATOM     16  C   UNL     1       3.698  11.494   1.660  1.00  0.00     0.000 C 
BRANCH  16  17
ATOM     17  C   UNL     1       2.901  10.678   2.692  1.00  0.00     0.000 C 
BRANCH  17  18
ATOM     18  C   UNL     1       3.335   9.206   2.750  1.00  0.00     0.000 C 
BRANCH  18  19
ATOM     19  C   UNL     1       4.084   8.908   4.058  1.00  0.00     0.000 C 
BRANCH  19  20
ATOM     20  C   UNL     1       5.435   8.205   3.826  1.00  0.00     0.006 C 
BRANCH  20  21
ATOM     21  C   UNL     1       5.355   6.964   2.923  1.00  0.00     0.053 C 
BRANCH  21  22
ATOM     22  C   UNL     1       6.311   5.894   3.355  1.00  0.00     0.041 C 
ATOM     23  O   UNL     1       6.430   4.840   2.677  1.00  0.00    -0.550 OA
ATOM     24  O   UNL     1       7.045   6.048   4.524  1.00  0.00    -0.550 OA
ENDBRANCH  21  22
ENDBRANCH  20  21
ENDBRANCH  19  20
ENDBRANCH  18  19
ENDBRANCH  17  18
ENDBRANCH  16  17
ENDBRANCH  15  16
ENDBRANCH  14  15
ENDBRANCH  13  14
ENDBRANCH   1  13
TORSDOF 20
ENDMDL
MODEL 8
REMARK VINA RESULT:    -2.846      2.106      3.103
REMARK INTER + INTRA:          -9.502
REMARK INTER:                  -6.237
REMARK INTRA:                  -3.265
REMARK UNBOUND:                -3.328
REMARK SMILES CCCCCCCCCCCCCCCCCCCCCC(=O)[O-]
REMARK SMILES IDX 12 1 11 2 10 3 9 4 8 5 7 6 6 7 5 8 4 9 3 10 2 11 1 12 13 13
REMARK SMILES IDX 14 14 15 15 16 16 17 17 18 18 19 19 20 20 21 21 22 22 23 23
REMARK SMILES IDX 24 24
REMARK H PARENT
REMARK Flexibility Score: inf
ROOT
ATOM      1  C   UNL     1       3.079   9.542   0.412  1.00  0.00     0.000 C 
ENDROOT
BRANCH   1   2
ATOM      2  C   UNL     1       3.993   9.689  -0.816  1.00  0.00     0.000 C 
BRANCH   2   3
ATOM      3  C   UNL     1       3.909  11.087  -1.449  1.00  0.00     0.000 C 
BRANCH   3   4
ATOM      4  C   UNL     1       4.508  12.183  -0.549  1.00  0.00    -0.000 C 
BRANCH   4   5
ATOM      5  C   UNL     1       5.668  12.935  -1.223  1.00  0.00    -0.000 C 
BRANCH   5   6
ATOM      6  C   UNL     1       6.636  11.991  -1.957  1.00  0.00    -0.000 C 
BRANCH   6   7
ATOM      7  C   UNL     1       7.900  12.711  -2.451  1.00  0.00    -0.000 C 
BRANCH   7   8
ATOM      8  C   UNL     1       8.190  12.449  -3.940  1.00  0.00    -0.000 C 
BRANCH   8   9
ATOM      9  C   UNL     1       7.015  12.841  -4.849  1.00  0.00    -0.000 C 
BRANCH   9  10
ATOM     10  C   UNL     1       6.347  11.625  -5.509  1.00  0.00    -0.000 C 
BRANCH  10  11
ATOM     11  C   UNL     1       4.823  11.692  -5.366  1.00  0.00    -0.003 C 
ATOM     12  C   UNL     1       4.383  13.027  -4.769  1.00  0.00     0.004 C 
ENDBRANCH  10  11
ENDBRANCH   9  10
ENDBRANCH   8   9
ENDBRANCH   7   8
ENDBRANCH   6   7
ENDBRANCH   5   6
ENDBRANCH   4   5
ENDBRANCH   3   4
ENDBRANCH   2   3
ENDBRANCH   1   2
BRANCH   1  13
ATOM     13  C   UNL     1       2.973   8.087   0.900  1.00  0.00     0.000 C 
BRANCH  13  14
ATOM     14  C   UNL     1       4.176   7.664   1.762  1.00  0.00     0.000 C 
BRANCH  14  15
ATOM     15  C   UNL     1       4.503   8.687   2.863  1.00  0.00     0.000 C 
BRANCH  15  16
ATOM     16  C   UNL     1       6.008   9.003   2.948  1.00  0.00     0.000 C 
BRANCH  16  17
ATOM     17  C   UNL     1       6.375  10.318   2.242  1.00  0.00     0.000 C 
BRANCH  17  18
ATOM     18  C   UNL     1       7.137  10.096   0.927  1.00  0.00     0.000 C 
BRANCH  18  19
ATOM     19  C   UNL     1       8.338   9.163   1.143  1.00  0.00     0.000 C 
BRANCH  19  20
ATOM     20  C   UNL     1       8.309   7.928   0.223  1.00  0.00     0.006 C 
BRANCH  20  21
ATOM     21  C   UNL     1       6.927   7.618  -0.375  1.00  0.00     0.053 C 
BRANCH  21  22
ATOM     22  C   UNL     1       6.941   6.371  -1.204  1.00  0.00     0.041 C 
ATOM     23  O   UNL     1       6.067   5.482  -1.027  1.00  0.00    -0.550 OA
ATOM     24  O   UNL     1       7.940   6.175  -2.149  1.00  0.00    -0.550 OA
ENDBRANCH  21  22
ENDBRANCH  20  21
ENDBRANCH  19  20
ENDBRANCH  18  19
ENDBRANCH  17  18
ENDBRANCH  16  17
ENDBRANCH  15  16
ENDBRANCH  14  15
ENDBRANCH  13  14
ENDBRANCH   1  13
TORSDOF 20
ENDMDL
MODEL 9
REMARK VINA RESULT:    -2.805      1.254      2.704
REMARK INTER + INTRA:          -9.413
REMARK INTER:                  -5.966
REMARK INTRA:                  -3.448
REMARK UNBOUND:                -3.328
REMARK SMILES CCCCCCCCCCCCCCCCCCCCCC(=O)[O-]
REMARK SMILES IDX 12 1 11 2 10 3 9 4 8 5 7 6 6 7 5 8 4 9 3 10 2 11 1 12 13 13
REMARK SMILES IDX 14 14 15 15 16 16 17 17 18 18 19 19 20 20 21 21 22 22 23 23
REMARK SMILES IDX 24 24
REMARK H PARENT
REMARK Flexibility Score: inf
ROOT
ATOM      1  C   UNL     1       4.908  10.615   2.371  1.00  0.00     0.000 C 
ENDROOT
BRANCH   1   2
ATOM      2  C   UNL     1       6.422  10.879   2.311  1.00  0.00     0.000 C 
BRANCH   2   3
ATOM      3  C   UNL     1       6.756  12.265   1.738  1.00  0.00     0.000 C 
BRANCH   3   4
ATOM      4  C   UNL     1       7.703  12.194   0.526  1.00  0.00    -0.000 C 
BRANCH   4   5
ATOM      5  C   UNL     1       7.271  13.124  -0.620  1.00  0.00    -0.000 C 
BRANCH   5   6
ATOM      6  C   UNL     1       7.883  12.718  -1.972  1.00  0.00    -0.000 C 
BRANCH   6   7
ATOM      7  C   UNL     1       6.867  12.786  -3.123  1.00  0.00    -0.000 C 
BRANCH   7   8
ATOM      8  C   UNL     1       7.132  11.733  -4.213  1.00  0.00    -0.000 C 
BRANCH   8   9
ATOM      9  C   UNL     1       5.952  11.579  -5.185  1.00  0.00    -0.000 C 
BRANCH   9  10
ATOM     10  C   UNL     1       4.659  12.213  -4.651  1.00  0.00    -0.000 C 
BRANCH  10  11
ATOM     11  C   UNL     1       3.436  11.378  -5.044  1.00  0.00    -0.003 C 
ATOM     12  C   UNL     1       3.250  11.351  -6.559  1.00  0.00     0.004 C 
ENDBRANCH  10  11
ENDBRANCH   9  10
ENDBRANCH   8   9
ENDBRANCH   7   8
ENDBRANCH   6   7
ENDBRANCH   5   6
ENDBRANCH   4   5
ENDBRANCH   3   4
ENDBRANCH   2   3
ENDBRANCH   1   2
BRANCH   1  13
ATOM     13  C   UNL     1       4.125  11.421   1.320  1.00  0.00     0.000 C 
BRANCH  13  14
ATOM     14  C   UNL     1       2.964  10.619   0.705  1.00  0.00     0.000 C 
BRANCH  14  15
ATOM     15  C   UNL     1       3.253  10.171  -0.737  1.00  0.00     0.000 C 
BRANCH  15  16
ATOM     16  C   UNL     1       4.595  10.711  -1.266  1.00  0.00     0.000 C 
BRANCH  16  17
ATOM     17  C   UNL     1       5.551   9.589  -1.701  1.00  0.00     0.000 C 
BRANCH  17  18
ATOM     18  C   UNL     1       6.332   8.982  -0.526  1.00  0.00     0.000 C 
BRANCH  18  19
ATOM     19  C   UNL     1       5.897   7.531  -0.271  1.00  0.00     0.000 C 
BRANCH  19  20
ATOM     20  C   UNL     1       5.382   7.304   1.162  1.00  0.00     0.006 C 
BRANCH  20  21
ATOM     21  C   UNL     1       6.287   6.410   2.025  1.00  0.00     0.053 C 
BRANCH  21  22
ATOM     22  C   UNL     1       6.080   6.650   3.489  1.00  0.00     0.041 C 
ATOM     23  O   UNL     1       6.566   5.855   4.336  1.00  0.00    -0.550 OA
ATOM     24  O   UNL     1       5.324   7.734   3.916  1.00  0.00    -0.550 OA
ENDBRANCH  21  22
ENDBRANCH  20  21
ENDBRANCH  19  20
ENDBRANCH  18  19
ENDBRANCH  17  18
ENDBRANCH  16  17
ENDBRANCH  15  16
ENDBRANCH  14  15
ENDBRANCH  13  14
ENDBRANCH   1  13
TORSDOF 20
ENDMDL
