MODEL 1
REMARK VINA RESULT:    -5.563      0.000      0.000
REMARK INTER + INTRA:         -10.987
REMARK INTER:                  -9.792
REMARK INTRA:                  -1.196
REMARK UNBOUND:                -1.196
REMARK SMILES CCCCCCCCCCCCCCC(=O)[O-]
REMARK SMILES IDX 9 1 10 2 11 3 12 4 13 5 14 6 15 7 16 8 17 9 8 10 7 11 6 12
REMARK SMILES IDX 5 13 4 14 3 15 2 16 1 17
REMARK H PARENT
REMARK Flexibility Score: inf
ROOT
ATOM      1  C   UNL     1      19.512  11.022  45.547  1.00  0.00     0.000 C 
ENDROOT
BRANCH   1   2
ATOM      2  C   UNL     1      19.509  12.464  46.078  1.00  0.00     0.000 C 
BRANCH   2   3
ATOM      3  C   UNL     1      19.724  13.504  44.965  1.00  0.00     0.000 C 
BRANCH   3   4
ATOM      4  C   UNL     1      20.685  12.995  43.867  1.00  0.00     0.000 C 
BRANCH   4   5
ATOM      5  C   UNL     1      20.470  13.675  42.502  1.00  0.00     0.006 C 
BRANCH   5   6
ATOM      6  C   UNL     1      19.590  14.933  42.562  1.00  0.00     0.053 C 
BRANCH   6   7
ATOM      7  C   UNL     1      20.280  16.126  41.976  1.00  0.00     0.041 C 
ATOM      8  O   UNL     1      19.958  17.287  42.343  1.00  0.00    -0.550 OA
ATOM      9  O   UNL     1      21.269  15.961  41.015  1.00  0.00    -0.550 OA
ENDBRANCH   6   7
ENDBRANCH   5   6
ENDBRANCH   4   5
ENDBRANCH   3   4
ENDBRANCH   2   3
ENDBRANCH   1   2
BRANCH   1  10
ATOM     10  C   UNL     1      20.715  10.211  46.060  1.00  0.00     0.000 C 
BRANCH  10  11
ATOM     11  C   UNL     1      21.573   9.639  44.921  1.00  0.00    -0.000 C 
BRANCH  11  12
ATOM     12  C   UNL     1      20.734   9.190  43.713  1.00  0.00    -0.000 C 
BRANCH  12  13
ATOM     13  C   UNL     1      21.369   9.666  42.398  1.00  0.00    -0.000 C 
BRANCH  13  14
ATOM     14  C   UNL     1      20.332   9.897  41.286  1.00  0.00    -0.000 C 
BRANCH  14  15
ATOM     15  C   UNL     1      19.810   8.581  40.683  1.00  0.00    -0.000 C 
BRANCH  15  16
ATOM     16  C   UNL     1      18.904   8.812  39.464  1.00  0.00    -0.003 C 
ATOM     17  C   UNL     1      17.519   8.186  39.627  1.00  0.00     0.004 C 
ENDBRANCH  15  16
ENDBRANCH  14  15
ENDBRANCH  13  14
ENDBRANCH  12  13
ENDBRANCH  11  12
ENDBRANCH  10  11
ENDBRANCH   1  10
TORSDOF 13
ENDMDL
MODEL 2
REMARK VINA RESULT:    -5.420      1.200      1.998
REMARK INTER + INTRA:         -10.735
REMARK INTER:                  -9.839
REMARK INTRA:                  -0.896
REMARK UNBOUND:                -1.196
REMARK SMILES CCCCCCCCCCCCCCC(=O)[O-]
REMARK SMILES IDX 9 1 10 2 11 3 12 4 13 5 14 6 15 7 16 8 17 9 8 10 7 11 6 12
REMARK SMILES IDX 5 13 4 14 3 15 2 16 1 17
REMARK H PARENT
REMARK Flexibility Score: inf
ROOT
ATOM      1  C   UNL     1      19.769  12.910  45.285  1.00  0.00     0.000 C 
ENDROOT
BRANCH   1   2
ATOM      2  C   UNL     1      20.617  13.559  44.179  1.00  0.00     0.000 C 
BRANCH   2   3
ATOM      3  C   UNL     1      19.872  13.644  42.836  1.00  0.00     0.000 C 
BRANCH   3   4
ATOM      4  C   UNL     1      19.197  15.017  42.628  1.00  0.00     0.000 C 
BRANCH   4   5
ATOM      5  C   UNL     1      20.167  16.205  42.769  1.00  0.00     0.006 C 
BRANCH   5   6
ATOM      6  C   UNL     1      20.868  16.598  41.460  1.00  0.00     0.053 C 
BRANCH   6   7
ATOM      7  C   UNL     1      22.349  16.382  41.531  1.00  0.00     0.041 C 
ATOM      8  O   UNL     1      22.846  15.283  41.172  1.00  0.00    -0.550 OA
ATOM      9  O   UNL     1      23.180  17.388  42.007  1.00  0.00    -0.550 OA
ENDBRANCH   6   7
ENDBRANCH   5   6
ENDBRANCH   4   5
ENDBRANCH   3   4
ENDBRANCH   2   3
ENDBRANCH   1   2
BRANCH   1  10
ATOM     10  C   UNL     1      19.869  11.375  45.276  1.00  0.00     0.000 C 
BRANCH  10  11
ATOM     11  C   UNL     1      21.071  10.864  44.466  1.00  0.00    -0.000 C 
BRANCH  11  12
ATOM     12  C   UNL     1      20.729   9.638  43.603  1.00  0.00    -0.000 C 
BRANCH  12  13
ATOM     13  C   UNL     1      20.742   9.999  42.110  1.00  0.00    -0.000 C 
BRANCH  13  14
ATOM     14  C   UNL     1      20.426   8.797  41.205  1.00  0.00    -0.000 C 
BRANCH  14  15
ATOM     15  C   UNL     1      20.044   9.218  39.775  1.00  0.00    -0.000 C 
BRANCH  15  16
ATOM     16  C   UNL     1      18.527   9.382  39.595  1.00  0.00    -0.003 C 
ATOM     17  C   UNL     1      17.798   8.045  39.464  1.00  0.00     0.004 C 
ENDBRANCH  15  16
ENDBRANCH  14  15
ENDBRANCH  13  14
ENDBRANCH  12  13
ENDBRANCH  11  12
ENDBRANCH  10  11
ENDBRANCH   1  10
TORSDOF 13
ENDMDL
MODEL 3
REMARK VINA RESULT:    -5.397      9.961     11.978
REMARK INTER + INTRA:         -10.694
REMARK INTER:                  -9.743
REMARK INTRA:                  -0.951
REMARK UNBOUND:                -1.196
REMARK SMILES CCCCCCCCCCCCCCC(=O)[O-]
REMARK SMILES IDX 9 1 10 2 11 3 12 4 13 5 14 6 15 7 16 8 17 9 8 10 7 11 6 12
REMARK SMILES IDX 5 13 4 14 3 15 2 16 1 17
REMARK H PARENT
REMARK Flexibility Score: inf
ROOT
ATOM      1  C   UNL     1       9.589  10.521  39.450  1.00  0.00     0.000 C 
ENDROOT
BRANCH   1   2
ATOM      2  C   UNL     1       9.764  11.770  38.571  1.00  0.00     0.000 C 
BRANCH   2   3
ATOM      3  C   UNL     1       9.703  13.076  39.381  1.00  0.00     0.000 C 
BRANCH   3   4
ATOM      4  C   UNL     1       9.010  12.884  40.749  1.00  0.00     0.000 C 
BRANCH   4   5
ATOM      5  C   UNL     1       8.399  14.181  41.313  1.00  0.00     0.006 C 
BRANCH   5   6
ATOM      6  C   UNL     1       9.413  15.091  42.025  1.00  0.00     0.053 C 
BRANCH   6   7
ATOM      7  C   UNL     1       8.761  16.307  42.606  1.00  0.00     0.041 C 
ATOM      8  O   UNL     1       7.961  16.196  43.572  1.00  0.00    -0.550 OA
ATOM      9  O   UNL     1       9.024  17.563  42.073  1.00  0.00    -0.550 OA
ENDBRANCH   6   7
ENDBRANCH   5   6
ENDBRANCH   4   5
ENDBRANCH   3   4
ENDBRANCH   2   3
ENDBRANCH   1   2
BRANCH   1  10
ATOM     10  C   UNL     1       8.379   9.670  39.025  1.00  0.00     0.000 C 
BRANCH  10  11
ATOM     11  C   UNL     1       7.797   8.846  40.184  1.00  0.00    -0.000 C 
BRANCH  11  12
ATOM     12  C   UNL     1       7.696   9.648  41.491  1.00  0.00    -0.000 C 
BRANCH  12  13
ATOM     13  C   UNL     1       8.610   9.052  42.572  1.00  0.00    -0.000 C 
BRANCH  13  14
ATOM     14  C   UNL     1       8.920  10.047  43.703  1.00  0.00    -0.000 C 
BRANCH  14  15
ATOM     15  C   UNL     1       9.270   9.345  45.028  1.00  0.00    -0.000 C 
BRANCH  15  16
ATOM     16  C   UNL     1      10.745   9.525  45.418  1.00  0.00    -0.003 C 
ATOM     17  C   UNL     1      11.570   8.254  45.218  1.00  0.00     0.004 C 
ENDBRANCH  15  16
ENDBRANCH  14  15
ENDBRANCH  13  14
ENDBRANCH  12  13
ENDBRANCH  11  12
ENDBRANCH  10  11
ENDBRANCH   1  10
TORSDOF 13
ENDMDL
MODEL 4
REMARK VINA RESULT:    -5.212      2.060      2.745
REMARK INTER + INTRA:         -10.368
REMARK INTER:                  -9.362
REMARK INTRA:                  -1.006
REMARK UNBOUND:                -1.196
REMARK SMILES CCCCCCCCCCCCCCC(=O)[O-]
REMARK SMILES IDX 9 1 10 2 11 3 12 4 13 5 14 6 15 7 16 8 17 9 8 10 7 11 6 12
REMARK SMILES IDX 5 13 4 14 3 15 2 16 1 17
REMARK H PARENT
REMARK Flexibility Score: inf
ROOT
ATOM      1  C   UNL     1      20.714  12.881  43.858  1.00  0.00     0.000 C 
ENDROOT
BRANCH   1   2
ATOM      2  C   UNL     1      20.068  14.266  44.027  1.00  0.00     0.000 C 
BRANCH   2   3
ATOM      3  C   UNL     1      19.379  14.758  42.743  1.00  0.00     0.000 C 
BRANCH   3   4
ATOM      4  C   UNL     1      19.402  16.298  42.621  1.00  0.00     0.000 C 
BRANCH   4   5
ATOM      5  C   UNL     1      20.789  16.863  42.260  1.00  0.00     0.006 C 
BRANCH   5   6
ATOM      6  C   UNL     1      21.476  16.137  41.093  1.00  0.00     0.053 C 
BRANCH   6   7
ATOM      7  C   UNL     1      22.907  15.816  41.398  1.00  0.00     0.041 C 
ATOM      8  O   UNL     1      23.806  16.670  41.179  1.00  0.00    -0.550 OA
ATOM      9  O   UNL     1      23.251  14.572  41.910  1.00  0.00    -0.550 OA
ENDBRANCH   6   7
ENDBRANCH   5   6
ENDBRANCH   4   5
ENDBRANCH   3   4
ENDBRANCH   2   3
ENDBRANCH   1   2
BRANCH   1  10
ATOM     10  C   UNL     1      20.669  12.387  42.401  1.00  0.00     0.000 C 
BRANCH  10  11
ATOM     11  C   UNL     1      20.750  10.857  42.292  1.00  0.00    -0.000 C 
BRANCH  11  12
ATOM     12  C   UNL     1      22.054  10.375  41.636  1.00  0.00    -0.000 C 
BRANCH  12  13
ATOM     13  C   UNL     1      21.761   9.395  40.490  1.00  0.00    -0.000 C 
BRANCH  13  14
ATOM     14  C   UNL     1      20.379   8.733  40.613  1.00  0.00    -0.000 C 
BRANCH  14  15
ATOM     15  C   UNL     1      19.504   8.956  39.367  1.00  0.00    -0.000 C 
BRANCH  15  16
ATOM     16  C   UNL     1      18.384   7.911  39.239  1.00  0.00    -0.003 C 
ATOM     17  C   UNL     1      17.178   8.223  40.126  1.00  0.00     0.004 C 
ENDBRANCH  15  16
ENDBRANCH  14  15
ENDBRANCH  13  14
ENDBRANCH  12  13
ENDBRANCH  11  12
ENDBRANCH  10  11
ENDBRANCH   1  10
TORSDOF 13
ENDMDL
MODEL 5
REMARK VINA RESULT:    -5.203      1.831      2.209
REMARK INTER + INTRA:         -10.352
REMARK INTER:                  -8.881
REMARK INTRA:                  -1.471
REMARK UNBOUND:                -1.196
REMARK SMILES CCCCCCCCCCCCCCC(=O)[O-]
REMARK SMILES IDX 9 1 10 2 11 3 12 4 13 5 14 6 15 7 16 8 17 9 8 10 7 11 6 12
REMARK SMILES IDX 5 13 4 14 3 15 2 16 1 17
REMARK H PARENT
REMARK Flexibility Score: inf
ROOT
ATOM      1  C   UNL     1      20.614  10.394  46.117  1.00  0.00     0.000 C 
ENDROOT
BRANCH   1   2
ATOM      2  C   UNL     1      19.546  11.289  45.467  1.00  0.00     0.000 C 
BRANCH   2   3
ATOM      3  C   UNL     1      19.708  12.772  45.843  1.00  0.00     0.000 C 
BRANCH   3   4
ATOM      4  C   UNL     1      19.822  13.681  44.599  1.00  0.00     0.000 C 
BRANCH   4   5
ATOM      5  C   UNL     1      20.332  12.944  43.347  1.00  0.00     0.006 C 
BRANCH   5   6
ATOM      6  C   UNL     1      21.381  13.728  42.544  1.00  0.00     0.053 C 
BRANCH   6   7
ATOM      7  C   UNL     1      22.767  13.212  42.781  1.00  0.00     0.041 C 
ATOM      8  O   UNL     1      22.986  12.390  43.709  1.00  0.00    -0.550 OA
ATOM      9  O   UNL     1      23.821  13.649  41.988  1.00  0.00    -0.550 OA
ENDBRANCH   6   7
ENDBRANCH   5   6
ENDBRANCH   4   5
ENDBRANCH   3   4
ENDBRANCH   2   3
ENDBRANCH   1   2
BRANCH   1  10
ATOM     10  C   UNL     1      21.305   9.471  45.098  1.00  0.00     0.000 C 
BRANCH  10  11
ATOM     11  C   UNL     1      20.351   8.419  44.510  1.00  0.00    -0.000 C 
BRANCH  11  12
ATOM     12  C   UNL     1      20.450   8.315  42.980  1.00  0.00    -0.000 C 
BRANCH  12  13
ATOM     13  C   UNL     1      21.113   9.568  42.387  1.00  0.00    -0.000 C 
BRANCH  13  14
ATOM     14  C   UNL     1      20.752   9.789  40.909  1.00  0.00    -0.000 C 
BRANCH  14  15
ATOM     15  C   UNL     1      19.906   8.641  40.330  1.00  0.00    -0.000 C 
BRANCH  15  16
ATOM     16  C   UNL     1      18.653   9.146  39.598  1.00  0.00    -0.003 C 
ATOM     17  C   UNL     1      17.550   8.090  39.514  1.00  0.00     0.004 C 
ENDBRANCH  15  16
ENDBRANCH  14  15
ENDBRANCH  13  14
ENDBRANCH  12  13
ENDBRANCH  11  12
ENDBRANCH  10  11
ENDBRANCH   1  10
TORSDOF 13
ENDMDL
MODEL 6
REMARK VINA RESULT:    -5.184     10.477     12.213
REMARK INTER + INTRA:         -10.319
REMARK INTER:                  -9.184
REMARK INTRA:                  -1.136
REMARK UNBOUND:                -1.196
REMARK SMILES CCCCCCCCCCCCCCC(=O)[O-]
REMARK SMILES IDX 9 1 10 2 11 3 12 4 13 5 14 6 15 7 16 8 17 9 8 10 7 11 6 12
REMARK SMILES IDX 5 13 4 14 3 15 2 16 1 17
REMARK H PARENT
REMARK Flexibility Score: inf
ROOT
ATOM      1  C   UNL     1       9.014  11.577  40.191  1.00  0.00     0.000 C 
ENDROOT
BRANCH   1   2
ATOM      2  C   UNL     1       8.199  12.706  40.840  1.00  0.00     0.000 C 
BRANCH   2   3
ATOM      3  C   UNL     1       8.932  13.360  42.024  1.00  0.00     0.000 C 
BRANCH   3   4
ATOM      4  C   UNL     1       9.817  14.547  41.581  1.00  0.00     0.000 C 
BRANCH   4   5
ATOM      5  C   UNL     1       9.106  15.910  41.678  1.00  0.00     0.006 C 
BRANCH   5   6
ATOM      6  C   UNL     1       8.419  16.162  43.028  1.00  0.00     0.053 C 
BRANCH   6   7
ATOM      7  C   UNL     1       6.955  16.434  42.869  1.00  0.00     0.041 C 
ATOM      8  O   UNL     1       6.114  15.522  43.085  1.00  0.00    -0.550 OA
ATOM      9  O   UNL     1       6.517  17.690  42.467  1.00  0.00    -0.550 OA
ENDBRANCH   6   7
ENDBRANCH   5   6
ENDBRANCH   4   5
ENDBRANCH   3   4
ENDBRANCH   2   3
ENDBRANCH   1   2
BRANCH   1  10
ATOM     10  C   UNL     1       8.142  10.367  39.812  1.00  0.00     0.000 C 
BRANCH  10  11
ATOM     11  C   UNL     1       8.469   9.117  40.644  1.00  0.00    -0.000 C 
BRANCH  11  12
ATOM     12  C   UNL     1       7.904   9.188  42.071  1.00  0.00    -0.000 C 
BRANCH  12  13
ATOM     13  C   UNL     1       9.017   8.993  43.112  1.00  0.00    -0.000 C 
BRANCH  13  14
ATOM     14  C   UNL     1       9.167  10.198  44.055  1.00  0.00    -0.000 C 
BRANCH  14  15
ATOM     15  C   UNL     1       9.867   9.832  45.375  1.00  0.00    -0.000 C 
BRANCH  15  16
ATOM     16  C   UNL     1      10.485   8.426  45.344  1.00  0.00    -0.003 C 
ATOM     17  C   UNL     1      12.013   8.449  45.389  1.00  0.00     0.004 C 
ENDBRANCH  15  16
ENDBRANCH  14  15
ENDBRANCH  13  14
ENDBRANCH  12  13
ENDBRANCH  11  12
ENDBRANCH  10  11
ENDBRANCH   1  10
TORSDOF 13
ENDMDL
MODEL 7
REMARK VINA RESULT:    -5.132      1.220      2.282
REMARK INTER + INTRA:         -10.228
REMARK INTER:                  -9.004
REMARK INTRA:                  -1.223
REMARK UNBOUND:                -1.196
REMARK SMILES CCCCCCCCCCCCCCC(=O)[O-]
REMARK SMILES IDX 9 1 10 2 11 3 12 4 13 5 14 6 15 7 16 8 17 9 8 10 7 11 6 12
REMARK SMILES IDX 5 13 4 14 3 15 2 16 1 17
REMARK H PARENT
REMARK Flexibility Score: inf
ROOT
ATOM      1  C   UNL     1      20.783   8.625  44.912  1.00  0.00     0.000 C 
ENDROOT
BRANCH   1   2
ATOM      2  C   UNL     1      19.739   9.425  45.708  1.00  0.00     0.000 C 
BRANCH   2   3
ATOM      3  C   UNL     1      20.248  10.817  46.120  1.00  0.00     0.000 C 
BRANCH   3   4
ATOM      4  C   UNL     1      19.330  11.950  45.609  1.00  0.00     0.000 C 
BRANCH   4   5
ATOM      5  C   UNL     1      20.100  13.207  45.161  1.00  0.00     0.006 C 
BRANCH   5   6
ATOM      6  C   UNL     1      20.187  13.377  43.637  1.00  0.00     0.053 C 
BRANCH   6   7
ATOM      7  C   UNL     1      19.862  14.776  43.211  1.00  0.00     0.041 C 
ATOM      8  O   UNL     1      20.666  15.714  43.453  1.00  0.00    -0.550 OA
ATOM      9  O   UNL     1      18.666  15.048  42.558  1.00  0.00    -0.550 OA
ENDBRANCH   6   7
ENDBRANCH   5   6
ENDBRANCH   4   5
ENDBRANCH   3   4
ENDBRANCH   2   3
ENDBRANCH   1   2
BRANCH   1  10
ATOM     10  C   UNL     1      21.670   9.527  44.037  1.00  0.00     0.000 C 
BRANCH  10  11
ATOM     11  C   UNL     1      20.978   9.952  42.732  1.00  0.00    -0.000 C 
BRANCH  11  12
ATOM     12  C   UNL     1      21.971  10.421  41.657  1.00  0.00    -0.000 C 
BRANCH  12  13
ATOM     13  C   UNL     1      21.982   9.456  40.462  1.00  0.00    -0.000 C 
BRANCH  13  14
ATOM     14  C   UNL     1      20.805   8.468  40.485  1.00  0.00    -0.000 C 
BRANCH  14  15
ATOM     15  C   UNL     1      19.897   8.599  39.249  1.00  0.00    -0.000 C 
BRANCH  15  16
ATOM     16  C   UNL     1      18.519   9.186  39.591  1.00  0.00    -0.003 C 
ATOM     17  C   UNL     1      17.402   8.143  39.545  1.00  0.00     0.004 C 
ENDBRANCH  15  16
ENDBRANCH  14  15
ENDBRANCH  13  14
ENDBRANCH  12  13
ENDBRANCH  11  12
ENDBRANCH  10  11
ENDBRANCH   1  10
TORSDOF 13
ENDMDL
MODEL 8
REMARK VINA RESULT:    -5.066     10.507     12.671
REMARK INTER + INTRA:         -10.111
REMARK INTER:                  -8.783
REMARK INTRA:                  -1.329
REMARK UNBOUND:                -1.196
REMARK SMILES CCCCCCCCCCCCCCC(=O)[O-]
REMARK SMILES IDX 9 1 10 2 11 3 12 4 13 5 14 6 15 7 16 8 17 9 8 10 7 11 6 12
REMARK SMILES IDX 5 13 4 14 3 15 2 16 1 17
REMARK H PARENT
REMARK Flexibility Score: inf
ROOT
ATOM      1  C   UNL     1       9.075  13.362  41.744  1.00  0.00     0.000 C 
ENDROOT
BRANCH   1   2
ATOM      2  C   UNL     1       8.740  13.094  40.268  1.00  0.00     0.000 C 
BRANCH   2   3
ATOM      3  C   UNL     1       9.993  13.031  39.378  1.00  0.00     0.000 C 
BRANCH   3   4
ATOM      4  C   UNL     1       9.962  11.829  38.409  1.00  0.00     0.000 C 
BRANCH   4   5
ATOM      5  C   UNL     1       9.640  10.491  39.102  1.00  0.00     0.006 C 
BRANCH   5   6
ATOM      6  C   UNL     1       8.310   9.862  38.658  1.00  0.00     0.053 C 
BRANCH   6   7
ATOM      7  C   UNL     1       7.828   8.830  39.630  1.00  0.00     0.041 C 
ATOM      8  O   UNL     1       6.602   8.743  39.905  1.00  0.00    -0.550 OA
ATOM      9  O   UNL     1       8.731   7.971  40.244  1.00  0.00    -0.550 OA
ENDBRANCH   6   7
ENDBRANCH   5   6
ENDBRANCH   4   5
ENDBRANCH   3   4
ENDBRANCH   2   3
ENDBRANCH   1   2
BRANCH   1  10
ATOM     10  C   UNL     1       8.184  12.554  42.704  1.00  0.00     0.000 C 
BRANCH  10  11
ATOM     11  C   UNL     1       8.274  11.039  42.463  1.00  0.00    -0.000 C 
BRANCH  11  12
ATOM     12  C   UNL     1       7.040  10.281  42.977  1.00  0.00    -0.000 C 
BRANCH  12  13
ATOM     13  C   UNL     1       7.455   9.029  43.765  1.00  0.00    -0.000 C 
BRANCH  13  14
ATOM     14  C   UNL     1       8.979   8.907  43.928  1.00  0.00    -0.000 C 
BRANCH  14  15
ATOM     15  C   UNL     1       9.428   9.021  45.395  1.00  0.00    -0.000 C 
BRANCH  15  16
ATOM     16  C   UNL     1      10.892   9.467  45.530  1.00  0.00    -0.003 C 
ATOM     17  C   UNL     1      11.875   8.298  45.483  1.00  0.00     0.004 C 
ENDBRANCH  15  16
ENDBRANCH  14  15
ENDBRANCH  13  14
ENDBRANCH  12  13
ENDBRANCH  11  12
ENDBRANCH  10  11
ENDBRANCH   1  10
TORSDOF 13
ENDMDL
MODEL 9
REMARK VINA RESULT:    -5.023      2.752      5.983
REMARK INTER + INTRA:         -10.035
REMARK INTER:                  -9.059
REMARK INTRA:                  -0.976
REMARK UNBOUND:                -1.196
REMARK SMILES CCCCCCCCCCCCCCC(=O)[O-]
REMARK SMILES IDX 9 1 10 2 11 3 12 4 13 5 14 6 15 7 16 8 17 9 8 10 7 11 6 12
REMARK SMILES IDX 5 13 4 14 3 15 2 16 1 17
REMARK H PARENT
REMARK Flexibility Score: inf
ROOT
ATOM      1  C   UNL     1      20.977  10.126  46.009  1.00  0.00     0.000 C 
ENDROOT
BRANCH   1   2
ATOM      2  C   UNL     1      21.578   9.052  45.088  1.00  0.00     0.000 C 
BRANCH   2   3
ATOM      3  C   UNL     1      20.543   8.464  44.113  1.00  0.00     0.000 C 
BRANCH   3   4
ATOM      4  C   UNL     1      21.147   8.184  42.719  1.00  0.00     0.000 C 
BRANCH   4   5
ATOM      5  C   UNL     1      20.516   9.029  41.597  1.00  0.00     0.006 C 
BRANCH   5   6
ATOM      6  C   UNL     1      20.132   8.222  40.347  1.00  0.00     0.053 C 
BRANCH   6   7
ATOM      7  C   UNL     1      18.868   8.728  39.721  1.00  0.00     0.041 C 
ATOM      8  O   UNL     1      17.954   7.923  39.402  1.00  0.00    -0.550 OA
ATOM      9  O   UNL     1      18.704  10.086  39.477  1.00  0.00    -0.550 OA
ENDBRANCH   6   7
ENDBRANCH   5   6
ENDBRANCH   4   5
ENDBRANCH   3   4
ENDBRANCH   2   3
ENDBRANCH   1   2
BRANCH   1  10
ATOM     10  C   UNL     1      19.761  10.827  45.378  1.00  0.00     0.000 C 
BRANCH  10  11
ATOM     11  C   UNL     1      19.505  12.220  45.973  1.00  0.00    -0.000 C 
BRANCH  11  12
ATOM     12  C   UNL     1      19.827  13.356  44.989  1.00  0.00    -0.000 C 
BRANCH  12  13
ATOM     13  C   UNL     1      20.401  12.798  43.678  1.00  0.00    -0.000 C 
BRANCH  13  14
ATOM     14  C   UNL     1      20.445  13.847  42.554  1.00  0.00    -0.000 C 
BRANCH  14  15
ATOM     15  C   UNL     1      19.662  15.124  42.907  1.00  0.00    -0.000 C 
BRANCH  15  16
ATOM     16  C   UNL     1      20.347  16.397  42.387  1.00  0.00    -0.003 C 
ATOM     17  C   UNL     1      21.266  16.131  41.195  1.00  0.00     0.004 C 
ENDBRANCH  15  16
ENDBRANCH  14  15
ENDBRANCH  13  14
ENDBRANCH  12  13
ENDBRANCH  11  12
ENDBRANCH  10  11
ENDBRANCH   1  10
TORSDOF 13
ENDMDL
