MODEL 1
REMARK VINA RESULT:    -3.087      0.000      0.000
REMARK INTER + INTRA:         -11.268
REMARK INTER:                  -7.058
REMARK INTRA:                  -4.210
REMARK UNBOUND:                -4.210
REMARK SMILES CCCCCCCCCCCCCCCCCCCCCCCC(=O)[O-]
REMARK SMILES IDX 13 1 14 2 15 3 16 4 17 5 18 6 19 7 20 8 21 9 22 10 23 11
REMARK SMILES IDX 24 12 25 13 26 14 12 15 11 16 10 17 9 18 8 19 7 20 6 21 5 22
REMARK SMILES IDX 4 23 3 24 2 25 1 26
REMARK H PARENT
REMARK Flexibility Score: inf
ROOT
ATOM      1  C   UNL     1      59.336  31.056  12.612  1.00  0.00     0.000 C 
ENDROOT
BRANCH   1   2
ATOM      2  C   UNL     1      58.914  31.251  14.080  1.00  0.00     0.000 C 
BRANCH   2   3
ATOM      3  C   UNL     1      57.520  31.878  14.227  1.00  0.00     0.000 C 
BRANCH   3   4
ATOM      4  C   UNL     1      56.677  31.644  12.964  1.00  0.00     0.000 C 
BRANCH   4   5
ATOM      5  C   UNL     1      56.155  32.952  12.348  1.00  0.00     0.000 C 
BRANCH   5   6
ATOM      6  C   UNL     1      56.597  34.195  13.134  1.00  0.00     0.000 C 
BRANCH   6   7
ATOM      7  C   UNL     1      57.000  35.331  12.185  1.00  0.00     0.000 C 
BRANCH   7   8
ATOM      8  C   UNL     1      55.928  36.430  12.158  1.00  0.00     0.000 C 
BRANCH   8   9
ATOM      9  C   UNL     1      55.254  36.635  13.524  1.00  0.00     0.000 C 
BRANCH   9  10
ATOM     10  C   UNL     1      53.726  36.778  13.413  1.00  0.00     0.006 C 
BRANCH  10  11
ATOM     11  C   UNL     1      53.021  35.417  13.338  1.00  0.00     0.053 C 
BRANCH  11  12
ATOM     12  C   UNL     1      53.009  34.724  14.666  1.00  0.00     0.041 C 
ATOM     13  O   UNL     1      53.586  33.614  14.807  1.00  0.00    -0.550 OA
ATOM     14  O   UNL     1      52.336  35.292  15.740  1.00  0.00    -0.550 OA
ENDBRANCH  11  12
ENDBRANCH  10  11
ENDBRANCH   9  10
ENDBRANCH   8   9
ENDBRANCH   7   8
ENDBRANCH   6   7
ENDBRANCH   5   6
ENDBRANCH   4   5
ENDBRANCH   3   4
ENDBRANCH   2   3
ENDBRANCH   1   2
BRANCH   1  15
ATOM     15  C   UNL     1      60.447  32.003  12.121  1.00  0.00     0.000 C 
BRANCH  15  16
ATOM     16  C   UNL     1      59.963  33.447  11.927  1.00  0.00     0.000 C 
BRANCH  16  17
ATOM     17  C   UNL     1      60.827  34.428  12.735  1.00  0.00     0.000 C 
BRANCH  17  18
ATOM     18  C   UNL     1      61.810  33.720  13.684  1.00  0.00    -0.000 C 
BRANCH  18  19
ATOM     19  C   UNL     1      61.387  33.698  15.167  1.00  0.00    -0.000 C 
BRANCH  19  20
ATOM     20  C   UNL     1      60.067  34.433  15.479  1.00  0.00    -0.000 C 
BRANCH  20  21
ATOM     21  C   UNL     1      59.375  34.000  16.787  1.00  0.00    -0.000 C 
BRANCH  21  22
ATOM     22  C   UNL     1      58.391  35.030  17.370  1.00  0.00    -0.000 C 
BRANCH  22  23
ATOM     23  C   UNL     1      57.299  35.444  16.367  1.00  0.00    -0.000 C 
BRANCH  23  24
ATOM     24  C   UNL     1      55.885  35.334  16.956  1.00  0.00    -0.000 C 
BRANCH  24  25
ATOM     25  C   UNL     1      55.399  36.654  17.573  1.00  0.00    -0.003 C 
ATOM     26  C   UNL     1      55.983  37.854  16.834  1.00  0.00     0.004 C 
ENDBRANCH  24  25
ENDBRANCH  23  24
ENDBRANCH  22  23
ENDBRANCH  21  22
ENDBRANCH  20  21
ENDBRANCH  19  20
ENDBRANCH  18  19
ENDBRANCH  17  18
ENDBRANCH  16  17
ENDBRANCH  15  16
ENDBRANCH   1  15
TORSDOF 22
ENDMDL
MODEL 2
REMARK VINA RESULT:    -3.021     10.475     14.516
REMARK INTER + INTRA:         -11.116
REMARK INTER:                  -7.398
REMARK INTRA:                  -3.718
REMARK UNBOUND:                -4.210
REMARK SMILES CCCCCCCCCCCCCCCCCCCCCCCC(=O)[O-]
REMARK SMILES IDX 13 1 14 2 15 3 16 4 17 5 18 6 19 7 20 8 21 9 22 10 23 11
REMARK SMILES IDX 24 12 25 13 26 14 12 15 11 16 10 17 9 18 8 19 7 20 6 21 5 22
REMARK SMILES IDX 4 23 3 24 2 25 1 26
REMARK H PARENT
REMARK Flexibility Score: inf
ROOT
ATOM      1  C   UNL     1      49.739  50.279  12.981  1.00  0.00     0.000 C 
ENDROOT
BRANCH   1   2
ATOM      2  C   UNL     1      50.485  50.336  14.326  1.00  0.00     0.000 C 
BRANCH   2   3
ATOM      3  C   UNL     1      50.885  48.950  14.853  1.00  0.00     0.000 C 
BRANCH   3   4
ATOM      4  C   UNL     1      50.438  47.846  13.883  1.00  0.00     0.000 C 
BRANCH   4   5
ATOM      5  C   UNL     1      51.351  46.610  13.930  1.00  0.00     0.000 C 
BRANCH   5   6
ATOM      6  C   UNL     1      50.699  45.419  14.646  1.00  0.00     0.000 C 
BRANCH   6   7
ATOM      7  C   UNL     1      51.644  44.826  15.700  1.00  0.00     0.000 C 
BRANCH   7   8
ATOM      8  C   UNL     1      52.523  45.920  16.325  1.00  0.00     0.000 C 
BRANCH   8   9
ATOM      9  C   UNL     1      53.706  45.347  17.122  1.00  0.00     0.000 C 
BRANCH   9  10
ATOM     10  C   UNL     1      54.331  44.114  16.445  1.00  0.00     0.006 C 
BRANCH  10  11
ATOM     11  C   UNL     1      55.480  43.521  17.273  1.00  0.00     0.053 C 
BRANCH  11  12
ATOM     12  C   UNL     1      55.249  42.074  17.585  1.00  0.00     0.041 C 
ATOM     13  O   UNL     1      56.201  41.351  17.979  1.00  0.00    -0.550 OA
ATOM     14  O   UNL     1      53.987  41.519  17.416  1.00  0.00    -0.550 OA
ENDBRANCH  11  12
ENDBRANCH  10  11
ENDBRANCH   9  10
ENDBRANCH   8   9
ENDBRANCH   7   8
ENDBRANCH   6   7
ENDBRANCH   5   6
ENDBRANCH   4   5
ENDBRANCH   3   4
ENDBRANCH   2   3
ENDBRANCH   1   2
BRANCH   1  15
ATOM     15  C   UNL     1      50.360  51.124  11.853  1.00  0.00     0.000 C 
BRANCH  15  16
ATOM     16  C   UNL     1      50.563  50.335  10.552  1.00  0.00     0.000 C 
BRANCH  16  17
ATOM     17  C   UNL     1      51.826  49.465  10.629  1.00  0.00     0.000 C 
BRANCH  17  18
ATOM     18  C   UNL     1      52.853  49.989  11.649  1.00  0.00    -0.000 C 
BRANCH  18  19
ATOM     19  C   UNL     1      53.703  48.903  12.339  1.00  0.00    -0.000 C 
BRANCH  19  20
ATOM     20  C   UNL     1      54.585  49.405  13.499  1.00  0.00    -0.000 C 
BRANCH  20  21
ATOM     21  C   UNL     1      54.794  48.393  14.644  1.00  0.00    -0.000 C 
BRANCH  21  22
ATOM     22  C   UNL     1      55.252  46.994  14.196  1.00  0.00    -0.000 C 
BRANCH  22  23
ATOM     23  C   UNL     1      56.781  46.883  14.063  1.00  0.00    -0.000 C 
BRANCH  23  24
ATOM     24  C   UNL     1      57.400  45.959  15.123  1.00  0.00    -0.000 C 
BRANCH  24  25
ATOM     25  C   UNL     1      57.705  46.692  16.438  1.00  0.00    -0.003 C 
ATOM     26  C   UNL     1      58.460  45.790  17.408  1.00  0.00     0.004 C 
ENDBRANCH  24  25
ENDBRANCH  23  24
ENDBRANCH  22  23
ENDBRANCH  21  22
ENDBRANCH  20  21
ENDBRANCH  19  20
ENDBRANCH  18  19
ENDBRANCH  17  18
ENDBRANCH  16  17
ENDBRANCH  15  16
ENDBRANCH   1  15
TORSDOF 22
ENDMDL
MODEL 3
REMARK VINA RESULT:    -3.015      9.457     12.567
REMARK INTER + INTRA:         -11.103
REMARK INTER:                  -7.819
REMARK INTRA:                  -3.284
REMARK UNBOUND:                -4.210
REMARK SMILES CCCCCCCCCCCCCCCCCCCCCCCC(=O)[O-]
REMARK SMILES IDX 13 1 14 2 15 3 16 4 17 5 18 6 19 7 20 8 21 9 22 10 23 11
REMARK SMILES IDX 24 12 25 13 26 14 12 15 11 16 10 17 9 18 8 19 7 20 6 21 5 22
REMARK SMILES IDX 4 23 3 24 2 25 1 26
REMARK H PARENT
REMARK Flexibility Score: inf
ROOT
ATOM      1  C   UNL     1      57.279  43.258  16.234  1.00  0.00     0.000 C 
ENDROOT
BRANCH   1   2
ATOM      2  C   UNL     1      56.788  44.358  15.274  1.00  0.00     0.000 C 
BRANCH   2   3
ATOM      3  C   UNL     1      57.282  45.759  15.661  1.00  0.00     0.000 C 
BRANCH   3   4
ATOM      4  C   UNL     1      56.309  46.433  16.639  1.00  0.00     0.000 C 
BRANCH   4   5
ATOM      5  C   UNL     1      56.550  47.946  16.769  1.00  0.00     0.000 C 
BRANCH   5   6
ATOM      6  C   UNL     1      57.888  48.387  16.158  1.00  0.00     0.000 C 
BRANCH   6   7
ATOM      7  C   UNL     1      57.679  49.498  15.121  1.00  0.00     0.000 C 
BRANCH   7   8
ATOM      8  C   UNL     1      57.156  48.922  13.797  1.00  0.00     0.000 C 
BRANCH   8   9
ATOM      9  C   UNL     1      56.107  49.826  13.130  1.00  0.00     0.000 C 
BRANCH   9  10
ATOM     10  C   UNL     1      54.704  49.193  13.117  1.00  0.00     0.006 C 
BRANCH  10  11
ATOM     11  C   UNL     1      54.735  47.710  13.513  1.00  0.00     0.053 C 
BRANCH  11  12
ATOM     12  C   UNL     1      53.373  47.204  13.875  1.00  0.00     0.041 C 
ATOM     13  O   UNL     1      53.191  46.596  14.963  1.00  0.00    -0.550 OA
ATOM     14  O   UNL     1      52.310  47.379  12.998  1.00  0.00    -0.550 OA
ENDBRANCH  11  12
ENDBRANCH  10  11
ENDBRANCH   9  10
ENDBRANCH   8   9
ENDBRANCH   7   8
ENDBRANCH   6   7
ENDBRANCH   5   6
ENDBRANCH   4   5
ENDBRANCH   3   4
ENDBRANCH   2   3
ENDBRANCH   1   2
BRANCH   1  15
ATOM     15  C   UNL     1      56.293  42.885  17.357  1.00  0.00     0.000 C 
BRANCH  15  16
ATOM     16  C   UNL     1      56.892  43.047  18.761  1.00  0.00     0.000 C 
BRANCH  16  17
ATOM     17  C   UNL     1      58.367  43.467  18.682  1.00  0.00     0.000 C 
BRANCH  17  18
ATOM     18  C   UNL     1      58.614  44.893  19.208  1.00  0.00    -0.000 C 
BRANCH  18  19
ATOM     19  C   UNL     1      59.606  45.733  18.380  1.00  0.00    -0.000 C 
BRANCH  19  20
ATOM     20  C   UNL     1      60.443  44.934  17.360  1.00  0.00    -0.000 C 
BRANCH  20  21
ATOM     21  C   UNL     1      61.911  44.696  17.767  1.00  0.00    -0.000 C 
BRANCH  21  22
ATOM     22  C   UNL     1      62.954  45.197  16.752  1.00  0.00    -0.000 C 
BRANCH  22  23
ATOM     23  C   UNL     1      63.936  44.096  16.314  1.00  0.00    -0.000 C 
BRANCH  23  24
ATOM     24  C   UNL     1      63.515  43.418  15.002  1.00  0.00    -0.000 C 
BRANCH  24  25
ATOM     25  C   UNL     1      63.703  41.894  15.040  1.00  0.00    -0.003 C 
ATOM     26  C   UNL     1      64.008  41.413  16.455  1.00  0.00     0.004 C 
ENDBRANCH  24  25
ENDBRANCH  23  24
ENDBRANCH  22  23
ENDBRANCH  21  22
ENDBRANCH  20  21
ENDBRANCH  19  20
ENDBRANCH  18  19
ENDBRANCH  17  18
ENDBRANCH  16  17
ENDBRANCH  15  16
ENDBRANCH   1  15
TORSDOF 22
ENDMDL
MODEL 4
REMARK VINA RESULT:    -2.975     11.523     15.198
REMARK INTER + INTRA:         -11.012
REMARK INTER:                  -6.633
REMARK INTRA:                  -4.379
REMARK UNBOUND:                -4.210
REMARK SMILES CCCCCCCCCCCCCCCCCCCCCCCC(=O)[O-]
REMARK SMILES IDX 13 1 14 2 15 3 16 4 17 5 18 6 19 7 20 8 21 9 22 10 23 11
REMARK SMILES IDX 24 12 25 13 26 14 12 15 11 16 10 17 9 18 8 19 7 20 6 21 5 22
REMARK SMILES IDX 4 23 3 24 2 25 1 26
REMARK H PARENT
REMARK Flexibility Score: inf
ROOT
ATOM      1  C   UNL     1      48.999  47.372  14.892  1.00  0.00     0.000 C 
ENDROOT
BRANCH   1   2
ATOM      2  C   UNL     1      49.431  45.939  15.253  1.00  0.00     0.000 C 
BRANCH   2   3
ATOM      3  C   UNL     1      50.706  45.493  14.523  1.00  0.00     0.000 C 
BRANCH   3   4
ATOM      4  C   UNL     1      51.745  44.950  15.515  1.00  0.00     0.000 C 
BRANCH   4   5
ATOM      5  C   UNL     1      51.568  45.522  16.932  1.00  0.00     0.000 C 
BRANCH   5   6
ATOM      6  C   UNL     1      52.799  45.295  17.821  1.00  0.00     0.000 C 
BRANCH   6   7
ATOM      7  C   UNL     1      53.851  44.445  17.096  1.00  0.00     0.000 C 
BRANCH   7   8
ATOM      8  C   UNL     1      55.130  45.256  16.840  1.00  0.00     0.000 C 
BRANCH   8   9
ATOM      9  C   UNL     1      55.680  45.064  15.418  1.00  0.00     0.000 C 
BRANCH   9  10
ATOM     10  C   UNL     1      57.196  45.311  15.332  1.00  0.00     0.006 C 
BRANCH  10  11
ATOM     11  C   UNL     1      57.575  46.734  15.762  1.00  0.00     0.053 C 
BRANCH  11  12
ATOM     12  C   UNL     1      57.257  47.739  14.697  1.00  0.00     0.041 C 
ATOM     13  O   UNL     1      57.285  47.407  13.483  1.00  0.00    -0.550 OA
ATOM     14  O   UNL     1      56.957  49.050  15.046  1.00  0.00    -0.550 OA
ENDBRANCH  11  12
ENDBRANCH  10  11
ENDBRANCH   9  10
ENDBRANCH   8   9
ENDBRANCH   7   8
ENDBRANCH   6   7
ENDBRANCH   5   6
ENDBRANCH   4   5
ENDBRANCH   3   4
ENDBRANCH   2   3
ENDBRANCH   1   2
BRANCH   1  15
ATOM     15  C   UNL     1      50.014  48.168  14.050  1.00  0.00     0.000 C 
BRANCH  15  16
ATOM     16  C   UNL     1      49.399  49.402  13.376  1.00  0.00     0.000 C 
BRANCH  16  17
ATOM     17  C   UNL     1      50.445  50.515  13.209  1.00  0.00     0.000 C 
BRANCH  17  18
ATOM     18  C   UNL     1      50.943  50.657  11.759  1.00  0.00    -0.000 C 
BRANCH  18  19
ATOM     19  C   UNL     1      52.182  49.809  11.408  1.00  0.00    -0.000 C 
BRANCH  19  20
ATOM     20  C   UNL     1      53.530  50.411  11.850  1.00  0.00    -0.000 C 
BRANCH  20  21
ATOM     21  C   UNL     1      54.303  49.580  12.894  1.00  0.00    -0.000 C 
BRANCH  21  22
ATOM     22  C   UNL     1      53.664  48.225  13.244  1.00  0.00    -0.000 C 
BRANCH  22  23
ATOM     23  C   UNL     1      53.576  47.982  14.761  1.00  0.00    -0.000 C 
BRANCH  23  24
ATOM     24  C   UNL     1      53.199  49.250  15.541  1.00  0.00    -0.000 C 
BRANCH  24  25
ATOM     25  C   UNL     1      52.602  48.937  16.921  1.00  0.00    -0.003 C 
ATOM     26  C   UNL     1      51.250  49.617  17.103  1.00  0.00     0.004 C 
ENDBRANCH  24  25
ENDBRANCH  23  24
ENDBRANCH  22  23
ENDBRANCH  21  22
ENDBRANCH  20  21
ENDBRANCH  19  20
ENDBRANCH  18  19
ENDBRANCH  17  18
ENDBRANCH  16  17
ENDBRANCH  15  16
ENDBRANCH   1  15
TORSDOF 22
ENDMDL
MODEL 5
REMARK VINA RESULT:    -2.900     10.084     12.638
REMARK INTER + INTRA:         -10.841
REMARK INTER:                  -8.423
REMARK INTRA:                  -2.417
REMARK UNBOUND:                -4.210
REMARK SMILES CCCCCCCCCCCCCCCCCCCCCCCC(=O)[O-]
REMARK SMILES IDX 13 1 14 2 15 3 16 4 17 5 18 6 19 7 20 8 21 9 22 10 23 11
REMARK SMILES IDX 24 12 25 13 26 14 12 15 11 16 10 17 9 18 8 19 7 20 6 21 5 22
REMARK SMILES IDX 4 23 3 24 2 25 1 26
REMARK H PARENT
REMARK Flexibility Score: inf
ROOT
ATOM      1  C   UNL     1      57.739  43.625  17.219  1.00  0.00     0.000 C 
ENDROOT
BRANCH   1   2
ATOM      2  C   UNL     1      57.374  43.945  15.757  1.00  0.00     0.000 C 
BRANCH   2   3
ATOM      3  C   UNL     1      55.903  44.351  15.579  1.00  0.00     0.000 C 
BRANCH   3   4
ATOM      4  C   UNL     1      55.793  45.721  14.892  1.00  0.00     0.000 C 
BRANCH   4   5
ATOM      5  C   UNL     1      57.129  46.481  14.867  1.00  0.00     0.000 C 
BRANCH   5   6
ATOM      6  C   UNL     1      57.392  47.171  13.520  1.00  0.00     0.000 C 
BRANCH   6   7
ATOM      7  C   UNL     1      57.462  48.694  13.687  1.00  0.00     0.000 C 
BRANCH   7   8
ATOM      8  C   UNL     1      56.727  49.141  14.960  1.00  0.00     0.000 C 
BRANCH   8   9
ATOM      9  C   UNL     1      55.348  49.752  14.666  1.00  0.00     0.000 C 
BRANCH   9  10
ATOM     10  C   UNL     1      55.036  49.809  13.160  1.00  0.00     0.006 C 
BRANCH  10  11
ATOM     11  C   UNL     1      53.891  48.866  12.769  1.00  0.00     0.053 C 
BRANCH  11  12
ATOM     12  C   UNL     1      52.844  49.569  11.960  1.00  0.00     0.041 C 
ATOM     13  O   UNL     1      51.688  49.081  11.859  1.00  0.00    -0.550 OA
ATOM     14  O   UNL     1      53.156  50.748  11.295  1.00  0.00    -0.550 OA
ENDBRANCH  11  12
ENDBRANCH  10  11
ENDBRANCH   9  10
ENDBRANCH   8   9
ENDBRANCH   7   8
ENDBRANCH   6   7
ENDBRANCH   5   6
ENDBRANCH   4   5
ENDBRANCH   3   4
ENDBRANCH   2   3
ENDBRANCH   1   2
BRANCH   1  15
ATOM     15  C   UNL     1      58.024  44.853  18.104  1.00  0.00     0.000 C 
BRANCH  15  16
ATOM     16  C   UNL     1      59.250  45.654  17.644  1.00  0.00     0.000 C 
BRANCH  16  17
ATOM     17  C   UNL     1      60.355  44.718  17.130  1.00  0.00     0.000 C 
BRANCH  17  18
ATOM     18  C   UNL     1      61.703  44.938  17.838  1.00  0.00    -0.000 C 
BRANCH  18  19
ATOM     19  C   UNL     1      62.116  43.824  18.821  1.00  0.00    -0.000 C 
BRANCH  19  20
ATOM     20  C   UNL     1      63.598  43.405  18.747  1.00  0.00    -0.000 C 
BRANCH  20  21
ATOM     21  C   UNL     1      63.854  41.891  18.893  1.00  0.00    -0.000 C 
BRANCH  21  22
ATOM     22  C   UNL     1      63.805  41.096  17.576  1.00  0.00    -0.000 C 
BRANCH  22  23
ATOM     23  C   UNL     1      64.637  41.746  16.457  1.00  0.00    -0.000 C 
BRANCH  23  24
ATOM     24  C   UNL     1      63.846  41.907  15.150  1.00  0.00    -0.000 C 
BRANCH  24  25
ATOM     25  C   UNL     1      63.373  43.350  14.921  1.00  0.00    -0.003 C 
ATOM     26  C   UNL     1      64.472  44.350  15.265  1.00  0.00     0.004 C 
ENDBRANCH  24  25
ENDBRANCH  23  24
ENDBRANCH  22  23
ENDBRANCH  21  22
ENDBRANCH  20  21
ENDBRANCH  19  20
ENDBRANCH  18  19
ENDBRANCH  17  18
ENDBRANCH  16  17
ENDBRANCH  15  16
ENDBRANCH   1  15
TORSDOF 22
ENDMDL
MODEL 6
REMARK VINA RESULT:    -2.853      2.626      6.070
REMARK INTER + INTRA:         -10.731
REMARK INTER:                  -6.615
REMARK INTRA:                  -4.116
REMARK UNBOUND:                -4.210
REMARK SMILES CCCCCCCCCCCCCCCCCCCCCCCC(=O)[O-]
REMARK SMILES IDX 13 1 14 2 15 3 16 4 17 5 18 6 19 7 20 8 21 9 22 10 23 11
REMARK SMILES IDX 24 12 25 13 26 14 12 15 11 16 10 17 9 18 8 19 7 20 6 21 5 22
REMARK SMILES IDX 4 23 3 24 2 25 1 26
REMARK H PARENT
REMARK Flexibility Score: inf
ROOT
ATOM      1  C   UNL     1      56.139  36.256  12.076  1.00  0.00     0.000 C 
ENDROOT
BRANCH   1   2
ATOM      2  C   UNL     1      57.155  35.104  12.187  1.00  0.00     0.000 C 
BRANCH   2   3
ATOM      3  C   UNL     1      56.507  33.766  12.570  1.00  0.00     0.000 C 
BRANCH   3   4
ATOM      4  C   UNL     1      57.167  33.177  13.826  1.00  0.00     0.000 C 
BRANCH   4   5
ATOM      5  C   UNL     1      57.808  34.251  14.719  1.00  0.00     0.000 C 
BRANCH   5   6
ATOM      6  C   UNL     1      58.358  33.678  16.033  1.00  0.00     0.000 C 
BRANCH   6   7
ATOM      7  C   UNL     1      59.636  34.411  16.460  1.00  0.00     0.000 C 
BRANCH   7   8
ATOM      8  C   UNL     1      60.771  33.415  16.745  1.00  0.00     0.000 C 
BRANCH   8   9
ATOM      9  C   UNL     1      61.869  33.444  15.670  1.00  0.00     0.000 C 
BRANCH   9  10
ATOM     10  C   UNL     1      61.696  32.333  14.619  1.00  0.00     0.006 C 
BRANCH  10  11
ATOM     11  C   UNL     1      62.008  32.827  13.200  1.00  0.00     0.053 C 
BRANCH  11  12
ATOM     12  C   UNL     1      60.814  33.467  12.560  1.00  0.00     0.041 C 
ATOM     13  O   UNL     1      59.982  32.765  11.926  1.00  0.00    -0.550 OA
ATOM     14  O   UNL     1      60.635  34.842  12.641  1.00  0.00    -0.550 OA
ENDBRANCH  11  12
ENDBRANCH  10  11
ENDBRANCH   9  10
ENDBRANCH   8   9
ENDBRANCH   7   8
ENDBRANCH   6   7
ENDBRANCH   5   6
ENDBRANCH   4   5
ENDBRANCH   3   4
ENDBRANCH   2   3
ENDBRANCH   1   2
BRANCH   1  15
ATOM     15  C   UNL     1      54.779  35.995  12.749  1.00  0.00     0.000 C 
BRANCH  15  16
ATOM     16  C   UNL     1      54.460  36.995  13.869  1.00  0.00     0.000 C 
BRANCH  16  17
ATOM     17  C   UNL     1      55.552  36.975  14.950  1.00  0.00     0.000 C 
BRANCH  17  18
ATOM     18  C   UNL     1      55.025  37.362  16.343  1.00  0.00    -0.000 C 
BRANCH  18  19
ATOM     19  C   UNL     1      55.898  38.370  17.116  1.00  0.00    -0.000 C 
BRANCH  19  20
ATOM     20  C   UNL     1      56.612  37.798  18.357  1.00  0.00    -0.000 C 
BRANCH  20  21
ATOM     21  C   UNL     1      56.976  36.302  18.265  1.00  0.00    -0.000 C 
BRANCH  21  22
ATOM     22  C   UNL     1      56.283  35.402  19.304  1.00  0.00    -0.000 C 
BRANCH  22  23
ATOM     23  C   UNL     1      55.893  34.027  18.734  1.00  0.00    -0.000 C 
BRANCH  23  24
ATOM     24  C   UNL     1      54.640  34.088  17.848  1.00  0.00    -0.000 C 
BRANCH  24  25
ATOM     25  C   UNL     1      54.753  33.191  16.606  1.00  0.00    -0.003 C 
ATOM     26  C   UNL     1      53.799  33.649  15.508  1.00  0.00     0.004 C 
ENDBRANCH  24  25
ENDBRANCH  23  24
ENDBRANCH  22  23
ENDBRANCH  21  22
ENDBRANCH  20  21
ENDBRANCH  19  20
ENDBRANCH  18  19
ENDBRANCH  17  18
ENDBRANCH  16  17
ENDBRANCH  15  16
ENDBRANCH   1  15
TORSDOF 22
ENDMDL
MODEL 7
REMARK VINA RESULT:    -2.811     10.584     13.924
REMARK INTER + INTRA:         -10.636
REMARK INTER:                  -6.906
REMARK INTRA:                  -3.729
REMARK UNBOUND:                -4.210
REMARK SMILES CCCCCCCCCCCCCCCCCCCCCCCC(=O)[O-]
REMARK SMILES IDX 13 1 14 2 15 3 16 4 17 5 18 6 19 7 20 8 21 9 22 10 23 11
REMARK SMILES IDX 24 12 25 13 26 14 12 15 11 16 10 17 9 18 8 19 7 20 6 21 5 22
REMARK SMILES IDX 4 23 3 24 2 25 1 26
REMARK H PARENT
REMARK Flexibility Score: inf
ROOT
ATOM      1  C   UNL     1      53.457  50.260  14.387  1.00  0.00     0.000 C 
ENDROOT
BRANCH   1   2
ATOM      2  C   UNL     1      53.764  49.253  13.263  1.00  0.00     0.000 C 
BRANCH   2   3
ATOM      3  C   UNL     1      52.526  48.467  12.805  1.00  0.00     0.000 C 
BRANCH   3   4
ATOM      4  C   UNL     1      51.299  49.385  12.706  1.00  0.00     0.000 C 
BRANCH   4   5
ATOM      5  C   UNL     1      50.097  48.858  13.506  1.00  0.00     0.000 C 
BRANCH   5   6
ATOM      6  C   UNL     1      50.509  47.887  14.622  1.00  0.00     0.000 C 
BRANCH   6   7
ATOM      7  C   UNL     1      49.562  46.681  14.677  1.00  0.00     0.000 C 
BRANCH   7   8
ATOM      8  C   UNL     1      50.337  45.366  14.501  1.00  0.00     0.000 C 
BRANCH   8   9
ATOM      9  C   UNL     1      49.961  44.310  15.553  1.00  0.00     0.000 C 
BRANCH   9  10
ATOM     10  C   UNL     1      49.042  44.872  16.652  1.00  0.00     0.006 C 
BRANCH  10  11
ATOM     11  C   UNL     1      47.720  44.099  16.752  1.00  0.00     0.053 C 
BRANCH  11  12
ATOM     12  C   UNL     1      46.678  44.661  15.835  1.00  0.00     0.041 C 
ATOM     13  O   UNL     1      46.544  44.201  14.670  1.00  0.00    -0.550 OA
ATOM     14  O   UNL     1      45.872  45.711  16.258  1.00  0.00    -0.550 OA
ENDBRANCH  11  12
ENDBRANCH  10  11
ENDBRANCH   9  10
ENDBRANCH   8   9
ENDBRANCH   7   8
ENDBRANCH   6   7
ENDBRANCH   5   6
ENDBRANCH   4   5
ENDBRANCH   3   4
ENDBRANCH   2   3
ENDBRANCH   1   2
BRANCH   1  15
ATOM     15  C   UNL     1      53.432  49.665  15.807  1.00  0.00     0.000 C 
BRANCH  15  16
ATOM     16  C   UNL     1      54.695  48.860  16.144  1.00  0.00     0.000 C 
BRANCH  16  17
ATOM     17  C   UNL     1      54.331  47.512  16.784  1.00  0.00     0.000 C 
BRANCH  17  18
ATOM     18  C   UNL     1      53.763  46.501  15.772  1.00  0.00    -0.000 C 
BRANCH  18  19
ATOM     19  C   UNL     1      53.535  45.080  16.325  1.00  0.00    -0.000 C 
BRANCH  19  20
ATOM     20  C   UNL     1      54.602  44.591  17.326  1.00  0.00    -0.000 C 
BRANCH  20  21
ATOM     21  C   UNL     1      55.742  43.758  16.707  1.00  0.00    -0.000 C 
BRANCH  21  22
ATOM     22  C   UNL     1      57.133  44.012  17.315  1.00  0.00    -0.000 C 
BRANCH  22  23
ATOM     23  C   UNL     1      57.888  45.156  16.615  1.00  0.00    -0.000 C 
BRANCH  23  24
ATOM     24  C   UNL     1      57.390  45.404  15.183  1.00  0.00    -0.000 C 
BRANCH  24  25
ATOM     25  C   UNL     1      57.408  46.892  14.802  1.00  0.00    -0.003 C 
ATOM     26  C   UNL     1      56.798  47.113  13.422  1.00  0.00     0.004 C 
ENDBRANCH  24  25
ENDBRANCH  23  24
ENDBRANCH  22  23
ENDBRANCH  21  22
ENDBRANCH  20  21
ENDBRANCH  19  20
ENDBRANCH  18  19
ENDBRANCH  17  18
ENDBRANCH  16  17
ENDBRANCH  15  16
ENDBRANCH   1  15
TORSDOF 22
ENDMDL
MODEL 8
REMARK VINA RESULT:    -2.807      8.987     12.385
REMARK INTER + INTRA:         -10.628
REMARK INTER:                  -6.522
REMARK INTRA:                  -4.105
REMARK UNBOUND:                -4.210
REMARK SMILES CCCCCCCCCCCCCCCCCCCCCCCC(=O)[O-]
REMARK SMILES IDX 13 1 14 2 15 3 16 4 17 5 18 6 19 7 20 8 21 9 22 10 23 11
REMARK SMILES IDX 24 12 25 13 26 14 12 15 11 16 10 17 9 18 8 19 7 20 6 21 5 22
REMARK SMILES IDX 4 23 3 24 2 25 1 26
REMARK H PARENT
REMARK Flexibility Score: inf
ROOT
ATOM      1  C   UNL     1      53.302  48.127  13.013  1.00  0.00     0.000 C 
ENDROOT
BRANCH   1   2
ATOM      2  C   UNL     1      51.978  47.341  12.974  1.00  0.00     0.000 C 
BRANCH   2   3
ATOM      3  C   UNL     1      50.878  47.973  13.839  1.00  0.00     0.000 C 
BRANCH   3   4
ATOM      4  C   UNL     1      50.274  46.937  14.799  1.00  0.00     0.000 C 
BRANCH   4   5
ATOM      5  C   UNL     1      50.500  45.491  14.330  1.00  0.00     0.000 C 
BRANCH   5   6
ATOM      6  C   UNL     1      50.559  44.493  15.496  1.00  0.00     0.000 C 
BRANCH   6   7
ATOM      7  C   UNL     1      51.113  45.159  16.762  1.00  0.00     0.000 C 
BRANCH   7   8
ATOM      8  C   UNL     1      52.333  44.394  17.296  1.00  0.00     0.000 C 
BRANCH   8   9
ATOM      9  C   UNL     1      52.889  43.381  16.282  1.00  0.00     0.000 C 
BRANCH   9  10
ATOM     10  C   UNL     1      53.130  41.994  16.903  1.00  0.00     0.006 C 
BRANCH  10  11
ATOM     11  C   UNL     1      52.079  41.646  17.966  1.00  0.00     0.053 C 
BRANCH  11  12
ATOM     12  C   UNL     1      50.919  40.904  17.378  1.00  0.00     0.041 C 
ATOM     13  O   UNL     1      49.843  41.507  17.125  1.00  0.00    -0.550 OA
ATOM     14  O   UNL     1      51.018  39.540  17.135  1.00  0.00    -0.550 OA
ENDBRANCH  11  12
ENDBRANCH  10  11
ENDBRANCH   9  10
ENDBRANCH   8   9
ENDBRANCH   7   8
ENDBRANCH   6   7
ENDBRANCH   5   6
ENDBRANCH   4   5
ENDBRANCH   3   4
ENDBRANCH   2   3
ENDBRANCH   1   2
BRANCH   1  15
ATOM     15  C   UNL     1      54.464  47.413  13.730  1.00  0.00     0.000 C 
BRANCH  15  16
ATOM     16  C   UNL     1      54.024  46.685  15.008  1.00  0.00     0.000 C 
BRANCH  16  17
ATOM     17  C   UNL     1      54.040  47.637  16.214  1.00  0.00     0.000 C 
BRANCH  17  18
ATOM     18  C   UNL     1      54.987  47.170  17.334  1.00  0.00    -0.000 C 
BRANCH  18  19
ATOM     19  C   UNL     1      56.300  47.969  17.454  1.00  0.00    -0.000 C 
BRANCH  19  20
ATOM     20  C   UNL     1      57.352  47.663  16.369  1.00  0.00    -0.000 C 
BRANCH  20  21
ATOM     21  C   UNL     1      57.890  46.218  16.374  1.00  0.00    -0.000 C 
BRANCH  21  22
ATOM     22  C   UNL     1      57.436  45.354  15.184  1.00  0.00    -0.000 C 
BRANCH  22  23
ATOM     23  C   UNL     1      56.477  44.225  15.600  1.00  0.00    -0.000 C 
BRANCH  23  24
ATOM     24  C   UNL     1      57.217  42.968  16.079  1.00  0.00    -0.000 C 
BRANCH  24  25
ATOM     25  C   UNL     1      56.762  42.512  17.474  1.00  0.00    -0.003 C 
ATOM     26  C   UNL     1      57.511  43.265  18.569  1.00  0.00     0.004 C 
ENDBRANCH  24  25
ENDBRANCH  23  24
ENDBRANCH  22  23
ENDBRANCH  21  22
ENDBRANCH  20  21
ENDBRANCH  19  20
ENDBRANCH  18  19
ENDBRANCH  17  18
ENDBRANCH  16  17
ENDBRANCH  15  16
ENDBRANCH   1  15
TORSDOF 22
ENDMDL
MODEL 9
REMARK VINA RESULT:    -2.750      9.895     14.068
REMARK INTER + INTRA:         -10.497
REMARK INTER:                  -6.024
REMARK INTRA:                  -4.473
REMARK UNBOUND:                -4.210
REMARK SMILES CCCCCCCCCCCCCCCCCCCCCCCC(=O)[O-]
REMARK SMILES IDX 13 1 14 2 15 3 16 4 17 5 18 6 19 7 20 8 21 9 22 10 23 11
REMARK SMILES IDX 24 12 25 13 26 14 12 15 11 16 10 17 9 18 8 19 7 20 6 21 5 22
REMARK SMILES IDX 4 23 3 24 2 25 1 26
REMARK H PARENT
REMARK Flexibility Score: inf
ROOT
ATOM      1  C   UNL     1      53.196  48.889  13.710  1.00  0.00     0.000 C 
ENDROOT
BRANCH   1   2
ATOM      2  C   UNL     1      54.118  49.243  14.891  1.00  0.00     0.000 C 
BRANCH   2   3
ATOM      3  C   UNL     1      54.855  50.576  14.701  1.00  0.00     0.000 C 
BRANCH   3   4
ATOM      4  C   UNL     1      56.367  50.400  14.905  1.00  0.00     0.000 C 
BRANCH   4   5
ATOM      5  C   UNL     1      57.049  49.697  13.720  1.00  0.00     0.000 C 
BRANCH   5   6
ATOM      6  C   UNL     1      57.613  48.319  14.093  1.00  0.00     0.000 C 
BRANCH   6   7
ATOM      7  C   UNL     1      56.829  47.198  13.400  1.00  0.00     0.000 C 
BRANCH   7   8
ATOM      8  C   UNL     1      56.358  46.147  14.416  1.00  0.00     0.000 C 
BRANCH   8   9
ATOM      9  C   UNL     1      57.154  46.194  15.730  1.00  0.00     0.000 C 
BRANCH   9  10
ATOM     10  C   UNL     1      57.906  44.881  16.013  1.00  0.00     0.006 C 
BRANCH  10  11
ATOM     11  C   UNL     1      56.992  43.654  15.893  1.00  0.00     0.053 C 
BRANCH  11  12
ATOM     12  C   UNL     1      56.722  43.030  17.228  1.00  0.00     0.041 C 
ATOM     13  O   UNL     1      57.531  43.192  18.179  1.00  0.00    -0.550 OA
ATOM     14  O   UNL     1      55.589  42.247  17.413  1.00  0.00    -0.550 OA
ENDBRANCH  11  12
ENDBRANCH  10  11
ENDBRANCH   9  10
ENDBRANCH   8   9
ENDBRANCH   7   8
ENDBRANCH   6   7
ENDBRANCH   5   6
ENDBRANCH   4   5
ENDBRANCH   3   4
ENDBRANCH   2   3
ENDBRANCH   1   2
BRANCH   1  15
ATOM     15  C   UNL     1      53.032  47.382  13.438  1.00  0.00     0.000 C 
BRANCH  15  16
ATOM     16  C   UNL     1      51.575  46.909  13.534  1.00  0.00     0.000 C 
BRANCH  16  17
ATOM     17  C   UNL     1      50.697  47.971  14.211  1.00  0.00     0.000 C 
BRANCH  17  18
ATOM     18  C   UNL     1      50.069  47.480  15.528  1.00  0.00    -0.000 C 
BRANCH  18  19
ATOM     19  C   UNL     1      50.508  48.250  16.789  1.00  0.00    -0.000 C 
BRANCH  19  20
ATOM     20  C   UNL     1      51.360  47.438  17.785  1.00  0.00    -0.000 C 
BRANCH  20  21
ATOM     21  C   UNL     1      52.852  47.316  17.415  1.00  0.00    -0.000 C 
BRANCH  21  22
ATOM     22  C   UNL     1      53.447  45.906  17.579  1.00  0.00    -0.000 C 
BRANCH  22  23
ATOM     23  C   UNL     1      53.392  45.081  16.281  1.00  0.00    -0.000 C 
BRANCH  23  24
ATOM     24  C   UNL     1      52.530  43.817  16.421  1.00  0.00    -0.000 C 
BRANCH  24  25
ATOM     25  C   UNL     1      51.091  44.028  15.926  1.00  0.00    -0.003 C 
ATOM     26  C   UNL     1      50.108  44.050  17.091  1.00  0.00     0.004 C 
ENDBRANCH  24  25
ENDBRANCH  23  24
ENDBRANCH  22  23
ENDBRANCH  21  22
ENDBRANCH  20  21
ENDBRANCH  19  20
ENDBRANCH  18  19
ENDBRANCH  17  18
ENDBRANCH  16  17
ENDBRANCH  15  16
ENDBRANCH   1  15
TORSDOF 22
ENDMDL
