MODEL 1
REMARK VINA RESULT:    -7.918      0.000      0.000
REMARK INTER + INTRA:         -14.628
REMARK INTER:                 -12.547
REMARK INTRA:                  -2.081
REMARK UNBOUND:                -2.081
REMARK SMILES C[C@@H]1O[C@H](O[C@@H]2CC[C@]3(C)[C@@H](CC[C@]4(C)[C@H]3C=C[C@]35OC[C@@]6(CCC(C)(C)C[C@@H]63)[C@@H](O)C[C@@]54C)[C@]2(C)CO)[C@H](O)[C@@H](O[C@@H]2O[C@H](CO)[C@H](O)[C@H](O)[C@@H]2O)[C@@H]1O
REMARK SMILES IDX 1 1 2 2 54 3 41 4 39 5 4 6 3 7 55 8 42 10 43 11 52 12 44 13
REMARK SMILES IDX 50 14 45 15 48 16 53 17 51 19 46 21 47 22 49 24 5 26 6 27
REMARK SMILES IDX 7 28 35 29 8 30 11 31 36 32 9 33 12 34 10 35 16 36 13 37
REMARK SMILES IDX 14 38 17 39 15 40 33 41 18 42 19 43 32 44 34 45 29 46 20 47
REMARK SMILES IDX 30 48 22 49 28 50 21 51 23 52 25 53 24 54 26 55 27 56 37 57
REMARK SMILES IDX 38 58 31 60 40 62
REMARK H PARENT 55 9 53 18 51 20 47 23 49 25 38 59 31 61 40 63
REMARK Flexibility Score: inf
ROOT
ATOM      1  C   UNL     1      94.748 -64.313 101.342  1.00  0.00     0.041 C 
ATOM      2  C   UNL     1      93.381 -63.678 101.644  1.00  0.00     0.150 C 
ATOM      3  C   UNL     1      92.173 -64.621 101.438  1.00  0.00     0.175 C 
ATOM      4  C   UNL     1      91.936 -65.595 102.615  1.00  0.00     0.186 C 
ATOM      5  C   UNL     1      92.019 -64.808 103.945  1.00  0.00     0.202 C 
ATOM      6  C   UNL     1      93.266 -63.898 104.012  1.00  0.00     0.282 C 
ATOM      7  O   UNL     1      93.356 -63.019 102.901  1.00  0.00    -0.344 OA
ENDROOT
BRANCH   3   8
ATOM      8  O   UNL     1      92.264 -65.312 100.206  1.00  0.00    -0.388 OA
ATOM      9  H   UNL     1      92.029 -66.264 100.378  1.00  0.00     0.211 HD
ENDBRANCH   3   8
BRANCH   4  10
ATOM     10  O   UNL     1      90.741 -66.335 102.318  1.00  0.00    -0.341 OA
BRANCH  10  11
ATOM     11  C   UNL     1      90.684 -67.741 102.552  1.00  0.00     0.282 C 
ATOM     12  C   UNL     1      89.652 -68.097 103.660  1.00  0.00     0.202 C 
ATOM     13  O   UNL     1      90.385 -68.412 101.339  1.00  0.00    -0.341 OA
ATOM     14  C   UNL     1      88.229 -68.346 103.102  1.00  0.00     0.179 C 
ATOM     15  C   UNL     1      89.119 -68.075 100.774  1.00  0.00     0.178 C 
ATOM     16  C   UNL     1      88.025 -67.605 101.776  1.00  0.00     0.177 C 
BRANCH  12  17
ATOM     17  O   UNL     1      89.659 -67.141 104.691  1.00  0.00    -0.385 OA
ATOM     18  H   UNL     1      89.990 -67.584 105.510  1.00  0.00     0.211 HD
ENDBRANCH  12  17
BRANCH  14  19
ATOM     19  O   UNL     1      87.236 -67.975 104.026  1.00  0.00    -0.387 OA
ATOM     20  H   UNL     1      87.704 -67.848 104.894  1.00  0.00     0.211 HD
ENDBRANCH  14  19
BRANCH  15  21
ATOM     21  C   UNL     1      89.279 -67.121  99.579  1.00  0.00     0.191 C 
BRANCH  21  22
ATOM     22  O   UNL     1      90.602 -67.147  99.124  1.00  0.00    -0.394 OA
ATOM     23  H   UNL     1      91.161 -67.483  99.873  1.00  0.00     0.210 HD
ENDBRANCH  21  22
ENDBRANCH  15  21
BRANCH  16  24
ATOM     24  O   UNL     1      88.081 -66.216 101.971  1.00  0.00    -0.387 OA
ATOM     25  H   UNL     1      88.428 -66.066 102.889  1.00  0.00     0.211 HD
ENDBRANCH  16  24
ENDBRANCH  10  11
ENDBRANCH   4  10
BRANCH   6  26
ATOM     26  O   UNL     1      94.477 -64.645 104.153  1.00  0.00    -0.346 OA
BRANCH  26  27
ATOM     27  C   UNL     1      95.401 -64.064 105.074  1.00  0.00     0.130 C 
ATOM     28  C   UNL     1      96.367 -63.106 104.321  1.00  0.00     0.033 C 
ATOM     29  C   UNL     1      96.144 -65.197 105.901  1.00  0.00     0.020 C 
ATOM     30  C   UNL     1      97.777 -63.039 104.907  1.00  0.00     0.010 C 
ATOM     31  C   UNL     1      97.502 -65.611 105.176  1.00  0.00     0.006 C 
ATOM     32  C   UNL     1      96.365 -64.681 107.357  1.00  0.00     0.017 C 
ATOM     33  C   UNL     1      98.518 -64.416 104.886  1.00  0.00    -0.022 C 
ATOM     34  C   UNL     1      98.178 -66.866 105.838  1.00  0.00     0.005 C 
ATOM     35  C   UNL     1      99.090 -64.543 103.445  1.00  0.00     0.012 C 
ATOM     36  C   UNL     1      99.660 -64.426 105.975  1.00  0.00     0.024 C 
ATOM     37  C   UNL     1      99.698 -66.977 105.626  1.00  0.00     0.008 C 
ATOM     38  C   UNL     1     100.506 -65.758 106.198  1.00  0.00    -0.017 C 
ATOM     39  C   UNL     1     100.472 -63.166 106.136  1.00  0.00    -0.024 C 
ATOM     40  C   UNL     1     100.522 -65.957 107.766  1.00  0.00     0.013 C 
ATOM     41  C   UNL     1     102.057 -65.703 105.622  1.00  0.00     0.009 C 
ATOM     42  C   UNL     1     101.802 -63.164 106.180  1.00  0.00     0.005 C 
ATOM     43  C   UNL     1     102.636 -64.198 105.482  1.00  0.00     0.096 C 
ATOM     44  C   UNL     1     102.251 -66.434 104.230  1.00  0.00     0.043 C 
ATOM     45  C   UNL     1     102.979 -66.546 106.577  1.00  0.00     0.015 C 
ATOM     46  C   UNL     1     102.820 -63.767 103.999  1.00  0.00     0.037 C 
ATOM     47  O   UNL     1     103.937 -64.152 106.034  1.00  0.00    -0.369 OA
ATOM     48  C   UNL     1     103.571 -66.084 103.460  1.00  0.00     0.124 C 
ATOM     49  C   UNL     1     104.046 -64.592 103.669  1.00  0.00     0.026 C 
ATOM     50  C   UNL     1     103.064 -62.258 103.728  1.00  0.00     0.014 C 
ATOM     51  C   UNL     1     104.844 -64.413 104.981  1.00  0.00     0.171 C 
ATOM     52  C   UNL     1     104.836 -64.055 102.426  1.00  0.00     0.013 C 
ATOM     53  C   UNL     1     103.333 -61.978 102.212  1.00  0.00    -0.035 C 
ATOM     54  C   UNL     1     103.948 -63.222 101.498  1.00  0.00     0.007 C 
ATOM     55  C   UNL     1     104.293 -60.774 102.087  1.00  0.00     0.011 C 
ATOM     56  C   UNL     1     102.007 -61.611 101.508  1.00  0.00     0.011 C 
BRANCH  29  57
ATOM     57  C   UNL     1      95.211 -66.442 106.055  1.00  0.00     0.165 C 
BRANCH  57  58
ATOM     58  O   UNL     1      95.138 -66.875 107.388  1.00  0.00    -0.396 OA
ATOM     59  H   UNL     1      95.888 -66.429 107.865  1.00  0.00     0.210 HD
ENDBRANCH  57  58
ENDBRANCH  29  57
BRANCH  48  60
ATOM     60  O   UNL     1     104.574 -67.010 103.797  1.00  0.00    -0.392 OA
ATOM     61  H   UNL     1     105.349 -66.482 104.128  1.00  0.00     0.210 HD
ENDBRANCH  48  60
ENDBRANCH  26  27
ENDBRANCH   6  26
BRANCH   5  62
ATOM     62  O   UNL     1      92.040 -65.706 105.033  1.00  0.00    -0.385 OA
ATOM     63  H   UNL     1      92.982 -65.759 105.349  1.00  0.00     0.211 HD
ENDBRANCH   5  62
TORSDOF 14
ENDMDL
MODEL 2
REMARK VINA RESULT:    -7.542      2.349      4.364
REMARK INTER + INTRA:         -14.032
REMARK INTER:                 -12.325
REMARK INTRA:                  -1.707
REMARK UNBOUND:                -2.081
REMARK SMILES C[C@@H]1O[C@H](O[C@@H]2CC[C@]3(C)[C@@H](CC[C@]4(C)[C@H]3C=C[C@]35OC[C@@]6(CCC(C)(C)C[C@@H]63)[C@@H](O)C[C@@]54C)[C@]2(C)CO)[C@H](O)[C@@H](O[C@@H]2O[C@H](CO)[C@H](O)[C@H](O)[C@@H]2O)[C@@H]1O
REMARK SMILES IDX 1 1 2 2 54 3 41 4 39 5 4 6 3 7 55 8 42 10 43 11 52 12 44 13
REMARK SMILES IDX 50 14 45 15 48 16 53 17 51 19 46 21 47 22 49 24 5 26 6 27
REMARK SMILES IDX 7 28 35 29 8 30 11 31 36 32 9 33 12 34 10 35 16 36 13 37
REMARK SMILES IDX 14 38 17 39 15 40 33 41 18 42 19 43 32 44 34 45 29 46 20 47
REMARK SMILES IDX 30 48 22 49 28 50 21 51 23 52 25 53 24 54 26 55 27 56 37 57
REMARK SMILES IDX 38 58 31 60 40 62
REMARK H PARENT 55 9 53 18 51 20 47 23 49 25 38 59 31 61 40 63
REMARK Flexibility Score: inf
ROOT
ATOM      1  C   UNL     1      96.931 -66.247 106.665  1.00  0.00     0.041 C 
ATOM      2  C   UNL     1      96.572 -66.662 105.229  1.00  0.00     0.150 C 
ATOM      3  C   UNL     1      95.077 -66.513 104.870  1.00  0.00     0.175 C 
ATOM      4  C   UNL     1      94.664 -65.066 104.513  1.00  0.00     0.186 C 
ATOM      5  C   UNL     1      95.704 -64.472 103.533  1.00  0.00     0.202 C 
ATOM      6  C   UNL     1      97.157 -64.703 104.007  1.00  0.00     0.282 C 
ATOM      7  O   UNL     1      97.432 -66.071 104.264  1.00  0.00    -0.344 OA
ENDROOT
BRANCH   3   8
ATOM      8  O   UNL     1      94.248 -67.050 105.883  1.00  0.00    -0.388 OA
ATOM      9  H   UNL     1      93.314 -67.055 105.537  1.00  0.00     0.211 HD
ENDBRANCH   3   8
BRANCH   4  10
ATOM     10  O   UNL     1      93.282 -65.104 104.120  1.00  0.00    -0.341 OA
BRANCH  10  11
ATOM     11  C   UNL     1      92.763 -66.229 103.412  1.00  0.00     0.282 C 
ATOM     12  C   UNL     1      91.355 -66.635 103.935  1.00  0.00     0.202 C 
ATOM     13  O   UNL     1      92.730 -65.942 102.023  1.00  0.00    -0.341 OA
ATOM     14  C   UNL     1      90.204 -65.907 103.198  1.00  0.00     0.179 C 
ATOM     15  C   UNL     1      91.883 -64.850 101.666  1.00  0.00     0.178 C 
ATOM     16  C   UNL     1      90.684 -64.572 102.619  1.00  0.00     0.177 C 
BRANCH  12  17
ATOM     17  O   UNL     1      91.268 -66.492 105.331  1.00  0.00    -0.385 OA
ATOM     18  H   UNL     1      92.128 -66.124 105.650  1.00  0.00     0.211 HD
ENDBRANCH  12  17
BRANCH  14  19
ATOM     19  O   UNL     1      89.096 -65.703 104.040  1.00  0.00    -0.387 OA
ATOM     20  H   UNL     1      88.302 -66.007 103.525  1.00  0.00     0.211 HD
ENDBRANCH  14  19
BRANCH  15  21
ATOM     21  C   UNL     1      92.704 -63.588 101.359  1.00  0.00     0.191 C 
BRANCH  21  22
ATOM     22  O   UNL     1      91.846 -62.511 101.112  1.00  0.00    -0.394 OA
ATOM     23  H   UNL     1      92.230 -61.721 101.576  1.00  0.00     0.210 HD
ENDBRANCH  21  22
ENDBRANCH  15  21
BRANCH  16  24
ATOM     24  O   UNL     1      91.050 -63.689 103.645  1.00  0.00    -0.387 OA
ATOM     25  H   UNL     1      90.231 -63.190 103.905  1.00  0.00     0.211 HD
ENDBRANCH  16  24
ENDBRANCH  10  11
ENDBRANCH   4  10
BRANCH   6  26
ATOM     26  O   UNL     1      97.488 -63.907 105.148  1.00  0.00    -0.346 OA
BRANCH  26  27
ATOM     27  C   UNL     1      98.467 -62.903 104.878  1.00  0.00     0.130 C 
ATOM     28  C   UNL     1      98.659 -62.750 103.342  1.00  0.00     0.033 C 
ATOM     29  C   UNL     1      99.812 -63.218 105.659  1.00  0.00     0.020 C 
ATOM     30  C   UNL     1     100.077 -62.375 102.915  1.00  0.00     0.010 C 
ATOM     31  C   UNL     1     100.795 -64.078 104.745  1.00  0.00     0.006 C 
ATOM     32  C   UNL     1     100.441 -61.867 106.124  1.00  0.00     0.017 C 
ATOM     33  C   UNL     1     101.145 -63.440 103.325  1.00  0.00    -0.022 C 
ATOM     34  C   UNL     1     102.055 -64.590 105.534  1.00  0.00     0.005 C 
ATOM     35  C   UNL     1     101.069 -64.533 102.220  1.00  0.00     0.012 C 
ATOM     36  C   UNL     1     102.573 -62.770 103.392  1.00  0.00     0.024 C 
ATOM     37  C   UNL     1     103.290 -64.889 104.667  1.00  0.00     0.008 C 
ATOM     38  C   UNL     1     103.816 -63.644 103.868  1.00  0.00    -0.017 C 
ATOM     39  C   UNL     1     102.917 -61.772 102.316  1.00  0.00    -0.024 C 
ATOM     40  C   UNL     1     104.551 -62.735 104.932  1.00  0.00     0.013 C 
ATOM     41  C   UNL     1     104.873 -64.067 102.665  1.00  0.00     0.009 C 
ATOM     42  C   UNL     1     104.063 -61.806 101.638  1.00  0.00     0.005 C 
ATOM     43  C   UNL     1     104.814 -63.079 101.384  1.00  0.00     0.096 C 
ATOM     44  C   UNL     1     104.693 -65.553 102.147  1.00  0.00     0.043 C 
ATOM     45  C   UNL     1     106.329 -64.090 103.259  1.00  0.00     0.015 C 
ATOM     46  C   UNL     1     104.210 -63.769 100.128  1.00  0.00     0.037 C 
ATOM     47  O   UNL     1     106.133 -62.736 101.006  1.00  0.00    -0.369 OA
ATOM     48  C   UNL     1     105.375 -65.877 100.772  1.00  0.00     0.124 C 
ATOM     49  C   UNL     1     105.379 -64.659  99.767  1.00  0.00     0.026 C 
ATOM     50  C   UNL     1     103.811 -62.850  98.942  1.00  0.00     0.014 C 
ATOM     51  C   UNL     1     106.547 -63.683 100.039  1.00  0.00     0.171 C 
ATOM     52  C   UNL     1     105.354 -65.139  98.275  1.00  0.00     0.013 C 
ATOM     53  C   UNL     1     103.313 -63.678  97.710  1.00  0.00    -0.035 C 
ATOM     54  C   UNL     1     103.941 -65.106  97.686  1.00  0.00     0.007 C 
ATOM     55  C   UNL     1     103.682 -62.921  96.415  1.00  0.00     0.011 C 
ATOM     56  C   UNL     1     101.775 -63.817  97.765  1.00  0.00     0.011 C 
BRANCH  29  57
ATOM     57  C   UNL     1      99.492 -63.987 106.982  1.00  0.00     0.165 C 
BRANCH  57  58
ATOM     58  O   UNL     1      98.512 -63.330 107.741  1.00  0.00    -0.396 OA
ATOM     59  H   UNL     1      99.000 -62.826 108.446  1.00  0.00     0.210 HD
ENDBRANCH  57  58
ENDBRANCH  29  57
BRANCH  48  60
ATOM     60  O   UNL     1     106.669 -66.382 100.996  1.00  0.00    -0.392 OA
ATOM     61  H   UNL     1     106.971 -66.783 100.137  1.00  0.00     0.210 HD
ENDBRANCH  48  60
ENDBRANCH  26  27
ENDBRANCH   6  26
BRANCH   5  62
ATOM     62  O   UNL     1      95.481 -63.087 103.377  1.00  0.00    -0.385 OA
ATOM     63  H   UNL     1      95.672 -62.661 104.255  1.00  0.00     0.211 HD
ENDBRANCH   5  62
TORSDOF 14
ENDMDL
MODEL 3
REMARK VINA RESULT:    -7.306      2.180      4.103
REMARK INTER + INTRA:         -13.659
REMARK INTER:                 -11.623
REMARK INTRA:                  -2.035
REMARK UNBOUND:                -2.081
REMARK SMILES C[C@@H]1O[C@H](O[C@@H]2CC[C@]3(C)[C@@H](CC[C@]4(C)[C@H]3C=C[C@]35OC[C@@]6(CCC(C)(C)C[C@@H]63)[C@@H](O)C[C@@]54C)[C@]2(C)CO)[C@H](O)[C@@H](O[C@@H]2O[C@H](CO)[C@H](O)[C@H](O)[C@@H]2O)[C@@H]1O
REMARK SMILES IDX 1 1 2 2 54 3 41 4 39 5 4 6 3 7 55 8 42 10 43 11 52 12 44 13
REMARK SMILES IDX 50 14 45 15 48 16 53 17 51 19 46 21 47 22 49 24 5 26 6 27
REMARK SMILES IDX 7 28 35 29 8 30 11 31 36 32 9 33 12 34 10 35 16 36 13 37
REMARK SMILES IDX 14 38 17 39 15 40 33 41 18 42 19 43 32 44 34 45 29 46 20 47
REMARK SMILES IDX 30 48 22 49 28 50 21 51 23 52 25 53 24 54 26 55 27 56 37 57
REMARK SMILES IDX 38 58 31 60 40 62
REMARK H PARENT 55 9 53 18 51 20 47 23 49 25 38 59 31 61 40 63
REMARK Flexibility Score: inf
ROOT
ATOM      1  C   UNL     1      97.150 -67.357 106.473  1.00  0.00     0.041 C 
ATOM      2  C   UNL     1      96.791 -67.675 105.012  1.00  0.00     0.150 C 
ATOM      3  C   UNL     1      95.275 -67.781 104.730  1.00  0.00     0.175 C 
ATOM      4  C   UNL     1      94.575 -66.412 104.563  1.00  0.00     0.186 C 
ATOM      5  C   UNL     1      95.424 -65.523 103.623  1.00  0.00     0.202 C 
ATOM      6  C   UNL     1      96.920 -65.517 104.012  1.00  0.00     0.282 C 
ATOM      7  O   UNL     1      97.464 -66.826 104.093  1.00  0.00    -0.344 OA
ENDROOT
BRANCH   3   8
ATOM      8  O   UNL     1      94.625 -68.578 105.702  1.00  0.00    -0.388 OA
ATOM      9  H   UNL     1      94.322 -69.413 105.253  1.00  0.00     0.211 HD
ENDBRANCH   3   8
BRANCH   4  10
ATOM     10  O   UNL     1      93.205 -66.676 104.221  1.00  0.00    -0.341 OA
BRANCH  10  11
ATOM     11  C   UNL     1      92.856 -67.087 102.900  1.00  0.00     0.282 C 
ATOM     12  C   UNL     1      91.839 -68.264 102.917  1.00  0.00     0.202 C 
ATOM     13  O   UNL     1      92.345 -65.979 102.178  1.00  0.00    -0.341 OA
ATOM     14  C   UNL     1      90.365 -67.789 102.930  1.00  0.00     0.179 C 
ATOM     15  C   UNL     1      91.152 -65.418 102.723  1.00  0.00     0.178 C 
ATOM     16  C   UNL     1      90.249 -66.388 103.539  1.00  0.00     0.177 C 
BRANCH  12  17
ATOM     17  O   UNL     1      92.118 -69.165 103.959  1.00  0.00    -0.385 OA
ATOM     18  H   UNL     1      91.713 -70.035 103.721  1.00  0.00     0.211 HD
ENDBRANCH  12  17
BRANCH  14  19
ATOM     19  O   UNL     1      89.535 -68.691 103.620  1.00  0.00    -0.387 OA
ATOM     20  H   UNL     1      90.136 -69.396 103.979  1.00  0.00     0.211 HD
ENDBRANCH  14  19
BRANCH  15  21
ATOM     21  C   UNL     1      91.445 -64.107 103.471  1.00  0.00     0.191 C 
BRANCH  21  22
ATOM     22  O   UNL     1      91.946 -64.389 104.746  1.00  0.00    -0.394 OA
ATOM     23  H   UNL     1      92.731 -64.986 104.625  1.00  0.00     0.210 HD
ENDBRANCH  21  22
ENDBRANCH  15  21
BRANCH  16  24
ATOM     24  O   UNL     1      90.619 -66.403 104.893  1.00  0.00    -0.387 OA
ATOM     25  H   UNL     1      90.760 -67.354 105.144  1.00  0.00     0.211 HD
ENDBRANCH  16  24
ENDBRANCH  10  11
ENDBRANCH   4  10
BRANCH   6  26
ATOM     26  O   UNL     1      97.162 -64.802 105.226  1.00  0.00    -0.346 OA
BRANCH  26  27
ATOM     27  C   UNL     1      97.968 -63.636 105.049  1.00  0.00     0.130 C 
ATOM     28  C   UNL     1      98.215 -63.388 103.534  1.00  0.00     0.033 C 
ATOM     29  C   UNL     1      99.302 -63.752 105.902  1.00  0.00     0.020 C 
ATOM     30  C   UNL     1      99.569 -62.759 103.208  1.00  0.00     0.010 C 
ATOM     31  C   UNL     1     100.467 -64.393 105.022  1.00  0.00     0.006 C 
ATOM     32  C   UNL     1      99.662 -62.335 106.448  1.00  0.00     0.017 C 
ATOM     33  C   UNL     1     100.780 -63.645 103.648  1.00  0.00    -0.022 C 
ATOM     34  C   UNL     1     101.750 -64.718 105.869  1.00  0.00     0.005 C 
ATOM     35  C   UNL     1     100.953 -64.687 102.505  1.00  0.00     0.012 C 
ATOM     36  C   UNL     1     102.065 -62.746 103.824  1.00  0.00     0.024 C 
ATOM     37  C   UNL     1     103.064 -64.765 105.071  1.00  0.00     0.008 C 
ATOM     38  C   UNL     1     103.412 -63.416 104.347  1.00  0.00    -0.017 C 
ATOM     39  C   UNL     1     102.292 -61.659 102.804  1.00  0.00    -0.024 C 
ATOM     40  C   UNL     1     103.920 -62.443 105.484  1.00  0.00     0.013 C 
ATOM     41  C   UNL     1     104.591 -63.602 103.199  1.00  0.00     0.009 C 
ATOM     42  C   UNL     1     103.462 -61.469 102.198  1.00  0.00     0.005 C 
ATOM     43  C   UNL     1     104.434 -62.585 101.949  1.00  0.00     0.096 C 
ATOM     44  C   UNL     1     104.697 -65.073 102.622  1.00  0.00     0.043 C 
ATOM     45  C   UNL     1     105.994 -63.403 103.880  1.00  0.00     0.015 C 
ATOM     46  C   UNL     1     104.027 -63.313 100.637  1.00  0.00     0.037 C 
ATOM     47  O   UNL     1     105.693 -62.008 101.665  1.00  0.00    -0.369 OA
ATOM     48  C   UNL     1     105.500 -65.219 101.282  1.00  0.00     0.124 C 
ATOM     49  C   UNL     1     105.350 -63.976 100.320  1.00  0.00     0.026 C 
ATOM     50  C   UNL     1     103.542 -62.425  99.458  1.00  0.00     0.014 C 
ATOM     51  C   UNL     1     106.316 -62.828 100.695  1.00  0.00     0.171 C 
ATOM     52  C   UNL     1     105.489 -64.388  98.814  1.00  0.00     0.013 C 
ATOM     53  C   UNL     1     103.263 -63.271  98.172  1.00  0.00    -0.035 C 
ATOM     54  C   UNL     1     104.127 -64.571  98.140  1.00  0.00     0.007 C 
ATOM     55  C   UNL     1     103.567 -62.409  96.928  1.00  0.00     0.011 C 
ATOM     56  C   UNL     1     101.770 -63.672  98.128  1.00  0.00     0.011 C 
BRANCH  29  57
ATOM     57  C   UNL     1      99.046 -64.619 107.176  1.00  0.00     0.165 C 
BRANCH  57  58
ATOM     58  O   UNL     1      97.998 -64.105 107.955  1.00  0.00    -0.396 OA
ATOM     59  H   UNL     1      97.783 -63.212 107.572  1.00  0.00     0.210 HD
ENDBRANCH  57  58
ENDBRANCH  29  57
BRANCH  48  60
ATOM     60  O   UNL     1     106.846 -65.506 101.569  1.00  0.00    -0.392 OA
ATOM     61  H   UNL     1     107.286 -65.705 100.699  1.00  0.00     0.210 HD
ENDBRANCH  48  60
ENDBRANCH  26  27
ENDBRANCH   6  26
BRANCH   5  62
ATOM     62  O   UNL     1      94.934 -64.200 103.641  1.00  0.00    -0.385 OA
ATOM     63  H   UNL     1      94.494 -64.065 104.523  1.00  0.00     0.211 HD
ENDBRANCH   5  62
TORSDOF 14
ENDMDL
MODEL 4
REMARK VINA RESULT:    -7.304      1.480      2.124
REMARK INTER + INTRA:         -13.654
REMARK INTER:                 -12.378
REMARK INTRA:                  -1.276
REMARK UNBOUND:                -2.081
REMARK SMILES C[C@@H]1O[C@H](O[C@@H]2CC[C@]3(C)[C@@H](CC[C@]4(C)[C@H]3C=C[C@]35OC[C@@]6(CCC(C)(C)C[C@@H]63)[C@@H](O)C[C@@]54C)[C@]2(C)CO)[C@H](O)[C@@H](O[C@@H]2O[C@H](CO)[C@H](O)[C@H](O)[C@@H]2O)[C@@H]1O
REMARK SMILES IDX 1 1 2 2 54 3 41 4 39 5 4 6 3 7 55 8 42 10 43 11 52 12 44 13
REMARK SMILES IDX 50 14 45 15 48 16 53 17 51 19 46 21 47 22 49 24 5 26 6 27
REMARK SMILES IDX 7 28 35 29 8 30 11 31 36 32 9 33 12 34 10 35 16 36 13 37
REMARK SMILES IDX 14 38 17 39 15 40 33 41 18 42 19 43 32 44 34 45 29 46 20 47
REMARK SMILES IDX 30 48 22 49 28 50 21 51 23 52 25 53 24 54 26 55 27 56 37 57
REMARK SMILES IDX 38 58 31 60 40 62
REMARK H PARENT 55 9 53 18 51 20 47 23 49 25 38 59 31 61 40 63
REMARK Flexibility Score: inf
ROOT
ATOM      1  C   UNL     1      93.407 -62.838 101.375  1.00  0.00     0.041 C 
ATOM      2  C   UNL     1      92.161 -62.807 102.274  1.00  0.00     0.150 C 
ATOM      3  C   UNL     1      91.147 -63.943 102.011  1.00  0.00     0.175 C 
ATOM      4  C   UNL     1      91.537 -65.289 102.665  1.00  0.00     0.186 C 
ATOM      5  C   UNL     1      91.969 -65.032 104.128  1.00  0.00     0.202 C 
ATOM      6  C   UNL     1      92.973 -63.863 104.248  1.00  0.00     0.282 C 
ATOM      7  O   UNL     1      92.490 -62.671 103.649  1.00  0.00    -0.344 OA
ENDROOT
BRANCH   3   8
ATOM      8  O   UNL     1      90.894 -64.096 100.627  1.00  0.00    -0.388 OA
ATOM      9  H   UNL     1      91.719 -63.826 100.139  1.00  0.00     0.211 HD
ENDBRANCH   3   8
BRANCH   4  10
ATOM     10  O   UNL     1      90.465 -66.211 102.408  1.00  0.00    -0.341 OA
BRANCH  10  11
ATOM     11  C   UNL     1      90.577 -67.577 102.804  1.00  0.00     0.282 C 
ATOM     12  C   UNL     1      89.514 -67.951 103.877  1.00  0.00     0.202 C 
ATOM     13  O   UNL     1      90.468 -68.412 101.663  1.00  0.00    -0.341 OA
ATOM     14  C   UNL     1      88.186 -68.458 103.262  1.00  0.00     0.179 C 
ATOM     15  C   UNL     1      89.217 -68.320 100.981  1.00  0.00     0.178 C 
ATOM     16  C   UNL     1      87.994 -67.902 101.847  1.00  0.00     0.177 C 
BRANCH  12  17
ATOM     17  O   UNL     1      89.312 -66.896 104.785  1.00  0.00    -0.385 OA
ATOM     18  H   UNL     1      89.843 -67.091 105.595  1.00  0.00     0.211 HD
ENDBRANCH  12  17
BRANCH  14  19
ATOM     19  O   UNL     1      87.082 -68.130 104.069  1.00  0.00    -0.387 OA
ATOM     20  H   UNL     1      86.354 -67.871 103.445  1.00  0.00     0.211 HD
ENDBRANCH  14  19
BRANCH  15  21
ATOM     21  C   UNL     1      89.346 -67.491  99.694  1.00  0.00     0.191 C 
BRANCH  21  22
ATOM     22  O   UNL     1      89.236 -66.129  99.992  1.00  0.00    -0.394 OA
ATOM     23  H   UNL     1      89.373 -66.033 100.971  1.00  0.00     0.210 HD
ENDBRANCH  21  22
ENDBRANCH  15  21
BRANCH  16  24
ATOM     24  O   UNL     1      87.850 -66.507 101.877  1.00  0.00    -0.387 OA
ATOM     25  H   UNL     1      86.938 -66.301 101.541  1.00  0.00     0.211 HD
ENDBRANCH  16  24
ENDBRANCH  10  11
ENDBRANCH   4  10
BRANCH   6  26
ATOM     26  O   UNL     1      94.260 -64.197 103.722  1.00  0.00    -0.346 OA
BRANCH  26  27
ATOM     27  C   UNL     1      95.133 -64.789 104.685  1.00  0.00     0.130 C 
ATOM     28  C   UNL     1      96.053 -63.699 105.305  1.00  0.00     0.033 C 
ATOM     29  C   UNL     1      95.929 -66.001 104.039  1.00  0.00     0.020 C 
ATOM     30  C   UNL     1      97.447 -64.192 105.693  1.00  0.00     0.010 C 
ATOM     31  C   UNL     1      97.321 -65.497 103.447  1.00  0.00     0.006 C 
ATOM     32  C   UNL     1      96.096 -67.114 105.121  1.00  0.00     0.017 C 
ATOM     33  C   UNL     1      98.268 -64.732 104.477  1.00  0.00    -0.022 C 
ATOM     34  C   UNL     1      98.059 -66.611 102.619  1.00  0.00     0.005 C 
ATOM     35  C   UNL     1      98.870 -63.465 103.804  1.00  0.00     0.012 C 
ATOM     36  C   UNL     1      99.391 -65.718 104.985  1.00  0.00     0.024 C 
ATOM     37  C   UNL     1      99.586 -66.447 102.523  1.00  0.00     0.008 C 
ATOM     38  C   UNL     1     100.311 -66.459 103.916  1.00  0.00    -0.017 C 
ATOM     39  C   UNL     1     100.124 -65.338 106.246  1.00  0.00    -0.024 C 
ATOM     40  C   UNL     1     100.313 -67.970 104.381  1.00  0.00     0.013 C 
ATOM     41  C   UNL     1     101.865 -65.897 103.823  1.00  0.00     0.009 C 
ATOM     42  C   UNL     1     101.451 -65.364 106.347  1.00  0.00     0.005 C 
ATOM     43  C   UNL     1     102.356 -65.145 105.170  1.00  0.00     0.096 C 
ATOM     44  C   UNL     1     102.124 -64.927 102.599  1.00  0.00     0.043 C 
ATOM     45  C   UNL     1     102.820 -67.105 103.506  1.00  0.00     0.015 C 
ATOM     46  C   UNL     1     102.538 -63.614 104.963  1.00  0.00     0.037 C 
ATOM     47  O   UNL     1     103.643 -65.616 105.518  1.00  0.00    -0.369 OA
ATOM     48  C   UNL     1     103.433 -64.067 102.681  1.00  0.00     0.124 C 
ATOM     49  C   UNL     1     103.815 -63.640 104.152  1.00  0.00     0.026 C 
ATOM     50  C   UNL     1     102.696 -62.744 106.240  1.00  0.00     0.014 C 
ATOM     51  C   UNL     1     104.581 -64.755 104.903  1.00  0.00     0.171 C 
ATOM     52  C   UNL     1     104.592 -62.279 104.178  1.00  0.00     0.013 C 
ATOM     53  C   UNL     1     102.972 -61.244 105.888  1.00  0.00    -0.035 C 
ATOM     54  C   UNL     1     103.671 -61.099 104.500  1.00  0.00     0.007 C 
ATOM     55  C   UNL     1     103.861 -60.626 106.990  1.00  0.00     0.011 C 
ATOM     56  C   UNL     1     101.638 -60.465 105.851  1.00  0.00     0.011 C 
BRANCH  29  57
ATOM     57  C   UNL     1      95.069 -66.663 102.914  1.00  0.00     0.165 C 
BRANCH  57  58
ATOM     58  O   UNL     1      94.487 -67.865 103.342  1.00  0.00    -0.396 OA
ATOM     59  H   UNL     1      95.043 -68.185 104.103  1.00  0.00     0.210 HD
ENDBRANCH  57  58
ENDBRANCH  29  57
BRANCH  48  60
ATOM     60  O   UNL     1     104.484 -64.746 102.038  1.00  0.00    -0.392 OA
ATOM     61  H   UNL     1     104.427 -64.510 101.073  1.00  0.00     0.210 HD
ENDBRANCH  48  60
ENDBRANCH  26  27
ENDBRANCH   6  26
BRANCH   5  62
ATOM     62  O   UNL     1      92.548 -66.200 104.670  1.00  0.00    -0.385 OA
ATOM     63  H   UNL     1      92.049 -66.414 105.503  1.00  0.00     0.211 HD
ENDBRANCH   5  62
TORSDOF 14
ENDMDL
MODEL 5
REMARK VINA RESULT:    -7.290      3.521     11.779
REMARK INTER + INTRA:         -13.632
REMARK INTER:                 -11.721
REMARK INTRA:                  -1.911
REMARK UNBOUND:                -2.081
REMARK SMILES C[C@@H]1O[C@H](O[C@@H]2CC[C@]3(C)[C@@H](CC[C@]4(C)[C@H]3C=C[C@]35OC[C@@]6(CCC(C)(C)C[C@@H]63)[C@@H](O)C[C@@]54C)[C@]2(C)CO)[C@H](O)[C@@H](O[C@@H]2O[C@H](CO)[C@H](O)[C@H](O)[C@@H]2O)[C@@H]1O
REMARK SMILES IDX 1 1 2 2 54 3 41 4 39 5 4 6 3 7 55 8 42 10 43 11 52 12 44 13
REMARK SMILES IDX 50 14 45 15 48 16 53 17 51 19 46 21 47 22 49 24 5 26 6 27
REMARK SMILES IDX 7 28 35 29 8 30 11 31 36 32 9 33 12 34 10 35 16 36 13 37
REMARK SMILES IDX 14 38 17 39 15 40 33 41 18 42 19 43 32 44 34 45 29 46 20 47
REMARK SMILES IDX 30 48 22 49 28 50 21 51 23 52 25 53 24 54 26 55 27 56 37 57
REMARK SMILES IDX 38 58 31 60 40 62
REMARK H PARENT 55 9 53 18 51 20 47 23 49 25 38 59 31 61 40 63
REMARK Flexibility Score: inf
ROOT
ATOM      1  C   UNL     1     100.734 -67.992 100.300  1.00  0.00     0.041 C 
ATOM      2  C   UNL     1     102.194 -67.754 100.720  1.00  0.00     0.150 C 
ATOM      3  C   UNL     1     103.050 -67.001  99.677  1.00  0.00     0.175 C 
ATOM      4  C   UNL     1     102.839 -65.469  99.688  1.00  0.00     0.186 C 
ATOM      5  C   UNL     1     102.876 -64.966 101.151  1.00  0.00     0.202 C 
ATOM      6  C   UNL     1     101.986 -65.815 102.087  1.00  0.00     0.282 C 
ATOM      7  O   UNL     1     102.298 -67.198 102.023  1.00  0.00    -0.344 OA
ENDROOT
BRANCH   3   8
ATOM      8  O   UNL     1     102.870 -67.537  98.380  1.00  0.00    -0.388 OA
ATOM      9  H   UNL     1     103.372 -68.396  98.337  1.00  0.00     0.211 HD
ENDBRANCH   3   8
BRANCH   4  10
ATOM     10  O   UNL     1     103.759 -64.908  98.738  1.00  0.00    -0.341 OA
BRANCH  10  11
ATOM     11  C   UNL     1     104.907 -64.187  99.182  1.00  0.00     0.282 C 
ATOM     12  C   UNL     1     106.196 -64.652  98.445  1.00  0.00     0.202 C 
ATOM     13  O   UNL     1     104.691 -62.796  99.006  1.00  0.00    -0.341 OA
ATOM     14  C   UNL     1     106.465 -63.861  97.140  1.00  0.00     0.179 C 
ATOM     15  C   UNL     1     104.497 -62.395  97.651  1.00  0.00     0.178 C 
ATOM     16  C   UNL     1     105.162 -63.293  96.568  1.00  0.00     0.177 C 
BRANCH  12  17
ATOM     17  O   UNL     1     106.189 -66.042  98.233  1.00  0.00    -0.385 OA
ATOM     18  H   UNL     1     107.120 -66.363  98.314  1.00  0.00     0.211 HD
ENDBRANCH  12  17
BRANCH  14  19
ATOM     19  O   UNL     1     107.117 -64.653  96.178  1.00  0.00    -0.387 OA
ATOM     20  H   UNL     1     107.411 -65.474  96.653  1.00  0.00     0.211 HD
ENDBRANCH  14  19
BRANCH  15  21
ATOM     21  C   UNL     1     103.014 -62.114  97.361  1.00  0.00     0.191 C 
BRANCH  21  22
ATOM     22  O   UNL     1     102.275 -62.186  98.547  1.00  0.00    -0.394 OA
ATOM     23  H   UNL     1     101.323 -62.034  98.307  1.00  0.00     0.210 HD
ENDBRANCH  21  22
ENDBRANCH  15  21
BRANCH  16  24
ATOM     24  O   UNL     1     104.301 -64.328  96.173  1.00  0.00    -0.387 OA
ATOM     25  H   UNL     1     103.847 -64.657  96.993  1.00  0.00     0.211 HD
ENDBRANCH  16  24
ENDBRANCH  10  11
ENDBRANCH   4  10
BRANCH   6  26
ATOM     26  O   UNL     1     100.592 -65.609 101.845  1.00  0.00    -0.346 OA
BRANCH  26  27
ATOM     27  C   UNL     1      99.770 -65.886 102.980  1.00  0.00     0.130 C 
ATOM     28  C   UNL     1      98.874 -67.124 102.696  1.00  0.00     0.033 C 
ATOM     29  C   UNL     1      98.952 -64.591 103.399  1.00  0.00     0.020 C 
ATOM     30  C   UNL     1      97.504 -67.084 103.372  1.00  0.00     0.010 C 
ATOM     31  C   UNL     1      97.530 -64.577 102.679  1.00  0.00     0.006 C 
ATOM     32  C   UNL     1      98.845 -64.558 104.956  1.00  0.00     0.017 C 
ATOM     33  C   UNL     1      96.629 -65.872 102.914  1.00  0.00    -0.022 C 
ATOM     34  C   UNL     1      96.760 -63.224 102.896  1.00  0.00     0.005 C 
ATOM     35  C   UNL     1      95.987 -66.323 101.571  1.00  0.00     0.012 C 
ATOM     36  C   UNL     1      95.537 -65.555 104.010  1.00  0.00     0.024 C 
ATOM     37  C   UNL     1      95.229 -63.318 102.773  1.00  0.00     0.008 C 
ATOM     38  C   UNL     1      94.573 -64.305 103.803  1.00  0.00    -0.017 C 
ATOM     39  C   UNL     1      94.864 -66.730 104.672  1.00  0.00    -0.024 C 
ATOM     40  C   UNL     1      94.602 -63.551 105.192  1.00  0.00     0.013 C 
ATOM     41  C   UNL     1      93.012 -64.686 103.404  1.00  0.00     0.009 C 
ATOM     42  C   UNL     1      93.543 -66.821 104.814  1.00  0.00     0.005 C 
ATOM     43  C   UNL     1      92.581 -66.180 103.857  1.00  0.00     0.096 C 
ATOM     44  C   UNL     1      92.688 -64.530 101.861  1.00  0.00     0.043 C 
ATOM     45  C   UNL     1      92.051 -63.629 104.060  1.00  0.00     0.015 C 
ATOM     46  C   UNL     1      92.379 -67.134 102.645  1.00  0.00     0.037 C 
ATOM     47  O   UNL     1      91.316 -66.124 104.486  1.00  0.00    -0.369 OA
ATOM     48  C   UNL     1      91.378 -65.240 101.370  1.00  0.00     0.124 C 
ATOM     49  C   UNL     1      91.065 -66.585 102.135  1.00  0.00     0.026 C 
ATOM     50  C   UNL     1      92.277 -68.653 102.953  1.00  0.00     0.014 C 
ATOM     51  C   UNL     1      90.344 -66.336 103.480  1.00  0.00     0.171 C 
ATOM     52  C   UNL     1      90.281 -67.597 101.231  1.00  0.00     0.013 C 
ATOM     53  C   UNL     1      91.974 -69.485 101.663  1.00  0.00    -0.035 C 
ATOM     54  C   UNL     1      91.209 -68.639 100.598  1.00  0.00     0.007 C 
ATOM     55  C   UNL     1      91.136 -70.724 102.050  1.00  0.00     0.011 C 
ATOM     56  C   UNL     1      93.301 -69.978 101.039  1.00  0.00     0.011 C 
BRANCH  29  57
ATOM     57  C   UNL     1      99.761 -63.307 103.026  1.00  0.00     0.165 C 
BRANCH  57  58
ATOM     58  O   UNL     1     100.912 -63.168 103.817  1.00  0.00    -0.396 OA
ATOM     59  H   UNL     1     101.675 -63.096 103.183  1.00  0.00     0.210 HD
ENDBRANCH  57  58
ENDBRANCH  29  57
BRANCH  48  60
ATOM     60  O   UNL     1      90.303 -64.336 101.427  1.00  0.00    -0.392 OA
ATOM     61  H   UNL     1      89.516 -64.804 101.040  1.00  0.00     0.210 HD
ENDBRANCH  48  60
ENDBRANCH  26  27
ENDBRANCH   6  26
BRANCH   5  62
ATOM     62  O   UNL     1     102.456 -63.620 101.206  1.00  0.00    -0.385 OA
ATOM     63  H   UNL     1     101.501 -63.601 100.928  1.00  0.00     0.211 HD
ENDBRANCH   5  62
TORSDOF 14
ENDMDL
MODEL 6
REMARK VINA RESULT:    -7.253      2.555      5.127
REMARK INTER + INTRA:         -13.574
REMARK INTER:                 -11.940
REMARK INTRA:                  -1.634
REMARK UNBOUND:                -2.081
REMARK SMILES C[C@@H]1O[C@H](O[C@@H]2CC[C@]3(C)[C@@H](CC[C@]4(C)[C@H]3C=C[C@]35OC[C@@]6(CCC(C)(C)C[C@@H]63)[C@@H](O)C[C@@]54C)[C@]2(C)CO)[C@H](O)[C@@H](O[C@@H]2O[C@H](CO)[C@H](O)[C@H](O)[C@@H]2O)[C@@H]1O
REMARK SMILES IDX 1 1 2 2 54 3 41 4 39 5 4 6 3 7 55 8 42 10 43 11 52 12 44 13
REMARK SMILES IDX 50 14 45 15 48 16 53 17 51 19 46 21 47 22 49 24 5 26 6 27
REMARK SMILES IDX 7 28 35 29 8 30 11 31 36 32 9 33 12 34 10 35 16 36 13 37
REMARK SMILES IDX 14 38 17 39 15 40 33 41 18 42 19 43 32 44 34 45 29 46 20 47
REMARK SMILES IDX 30 48 22 49 28 50 21 51 23 52 25 53 24 54 26 55 27 56 37 57
REMARK SMILES IDX 38 58 31 60 40 62
REMARK H PARENT 55 9 53 18 51 20 47 23 49 25 38 59 31 61 40 63
REMARK Flexibility Score: inf
ROOT
ATOM      1  C   UNL     1      97.061 -66.374 106.319  1.00  0.00     0.041 C 
ATOM      2  C   UNL     1      96.813 -66.681 104.833  1.00  0.00     0.150 C 
ATOM      3  C   UNL     1      95.424 -66.253 104.309  1.00  0.00     0.175 C 
ATOM      4  C   UNL     1      95.322 -64.747 103.973  1.00  0.00     0.186 C 
ATOM      5  C   UNL     1      96.564 -64.328 103.150  1.00  0.00     0.202 C 
ATOM      6  C   UNL     1      97.883 -64.832 103.780  1.00  0.00     0.282 C 
ATOM      7  O   UNL     1      97.876 -66.233 104.004  1.00  0.00    -0.344 OA
ENDROOT
BRANCH   3   8
ATOM      8  O   UNL     1      94.395 -66.655 105.192  1.00  0.00    -0.388 OA
ATOM      9  H   UNL     1      94.314 -67.646 105.129  1.00  0.00     0.211 HD
ENDBRANCH   3   8
BRANCH   4  10
ATOM     10  O   UNL     1      94.015 -64.523 103.421  1.00  0.00    -0.341 OA
BRANCH  10  11
ATOM     11  C   UNL     1      93.261 -63.371 103.792  1.00  0.00     0.282 C 
ATOM     12  C   UNL     1      93.024 -62.426 102.578  1.00  0.00     0.202 C 
ATOM     13  O   UNL     1      92.032 -63.774 104.373  1.00  0.00    -0.341 OA
ATOM     14  C   UNL     1      91.729 -62.761 101.796  1.00  0.00     0.179 C 
ATOM     15  C   UNL     1      91.180 -64.515 103.500  1.00  0.00     0.178 C 
ATOM     16  C   UNL     1      91.346 -64.233 101.979  1.00  0.00     0.177 C 
BRANCH  12  17
ATOM     17  O   UNL     1      94.153 -62.376 101.742  1.00  0.00    -0.385 OA
ATOM     18  H   UNL     1      94.649 -61.548 101.955  1.00  0.00     0.211 HD
ENDBRANCH  12  17
BRANCH  14  19
ATOM     19  O   UNL     1      91.856 -62.456 100.429  1.00  0.00    -0.387 OA
ATOM     20  H   UNL     1      92.423 -63.173 100.040  1.00  0.00     0.211 HD
ENDBRANCH  14  19
BRANCH  15  21
ATOM     21  C   UNL     1      91.211 -66.015 103.834  1.00  0.00     0.191 C 
BRANCH  21  22
ATOM     22  O   UNL     1      91.626 -66.200 105.157  1.00  0.00    -0.394 OA
ATOM     23  H   UNL     1      90.978 -65.719 105.736  1.00  0.00     0.210 HD
ENDBRANCH  21  22
ENDBRANCH  15  21
BRANCH  16  24
ATOM     24  O   UNL     1      92.318 -65.073 101.413  1.00  0.00    -0.387 OA
ATOM     25  H   UNL     1      93.203 -64.727 101.702  1.00  0.00     0.211 HD
ENDBRANCH  16  24
ENDBRANCH  10  11
ENDBRANCH   4  10
BRANCH   6  26
ATOM     26  O   UNL     1      98.207 -64.138 104.988  1.00  0.00    -0.346 OA
BRANCH  26  27
ATOM     27  C   UNL     1      99.353 -63.294 104.869  1.00  0.00     0.130 C 
ATOM     28  C   UNL     1      99.535 -62.852 103.389  1.00  0.00     0.033 C 
ATOM     29  C   UNL     1     100.631 -64.008 105.482  1.00  0.00     0.020 C 
ATOM     30  C   UNL     1     100.989 -62.657 102.960  1.00  0.00     0.010 C 
ATOM     31  C   UNL     1     101.411 -64.815 104.349  1.00  0.00     0.006 C 
ATOM     32  C   UNL     1     101.516 -62.926 106.176  1.00  0.00     0.017 C 
ATOM     33  C   UNL     1     101.843 -63.961 103.073  1.00  0.00    -0.022 C 
ATOM     34  C   UNL     1     102.568 -65.705 104.934  1.00  0.00     0.005 C 
ATOM     35  C   UNL     1     101.534 -64.758 101.773  1.00  0.00     0.012 C 
ATOM     36  C   UNL     1     103.373 -63.591 103.186  1.00  0.00     0.024 C 
ATOM     37  C   UNL     1     103.703 -66.029 103.947  1.00  0.00     0.008 C 
ATOM     38  C   UNL     1     104.438 -64.758 103.391  1.00  0.00    -0.017 C 
ATOM     39  C   UNL     1     103.877 -62.465 102.320  1.00  0.00    -0.024 C 
ATOM     40  C   UNL     1     105.357 -64.248 104.572  1.00  0.00     0.013 C 
ATOM     41  C   UNL     1     105.367 -65.097 102.063  1.00  0.00     0.009 C 
ATOM     42  C   UNL     1     104.979 -62.559 101.580  1.00  0.00     0.005 C 
ATOM     43  C   UNL     1     105.468 -63.863 101.021  1.00  0.00     0.096 C 
ATOM     44  C   UNL     1     104.895 -66.378 101.261  1.00  0.00     0.043 C 
ATOM     45  C   UNL     1     106.805 -65.510 102.546  1.00  0.00     0.015 C 
ATOM     46  C   UNL     1     104.714 -64.145  99.690  1.00  0.00     0.037 C 
ATOM     47  O   UNL     1     106.819 -63.691 100.639  1.00  0.00    -0.369 OA
ATOM     48  C   UNL     1     105.471 -66.518  99.809  1.00  0.00     0.124 C 
ATOM     49  C   UNL     1     105.683 -65.133  99.079  1.00  0.00     0.026 C 
ATOM     50  C   UNL     1     104.470 -62.935  98.747  1.00  0.00     0.014 C 
ATOM     51  C   UNL     1     107.022 -64.467  99.473  1.00  0.00     0.171 C 
ATOM     52  C   UNL     1     105.533 -65.268  97.525  1.00  0.00     0.013 C 
ATOM     53  C   UNL     1     103.796 -63.374  97.405  1.00  0.00    -0.035 C 
ATOM     54  C   UNL     1     104.139 -64.854  97.046  1.00  0.00     0.007 C 
ATOM     55  C   UNL     1     104.272 -62.436  96.274  1.00  0.00     0.011 C 
ATOM     56  C   UNL     1     102.261 -63.241  97.527  1.00  0.00     0.011 C 
BRANCH  29  57
ATOM     57  C   UNL     1     100.201 -64.972 106.634  1.00  0.00     0.165 C 
BRANCH  57  58
ATOM     58  O   UNL     1      99.349 -64.339 107.552  1.00  0.00    -0.396 OA
ATOM     59  H   UNL     1      98.451 -64.747 107.421  1.00  0.00     0.210 HD
ENDBRANCH  57  58
ENDBRANCH  29  57
BRANCH  48  60
ATOM     60  O   UNL     1     106.649 -67.285  99.841  1.00  0.00    -0.392 OA
ATOM     61  H   UNL     1     107.055 -67.222  98.935  1.00  0.00     0.210 HD
ENDBRANCH  48  60
ENDBRANCH  26  27
ENDBRANCH   6  26
BRANCH   5  62
ATOM     62  O   UNL     1      96.612 -62.923 103.034  1.00  0.00    -0.385 OA
ATOM     63  H   UNL     1      97.401 -62.614 103.554  1.00  0.00     0.211 HD
ENDBRANCH   5  62
TORSDOF 14
ENDMDL
MODEL 7
REMARK VINA RESULT:    -7.105      1.849      2.730
REMARK INTER + INTRA:         -13.340
REMARK INTER:                 -11.462
REMARK INTRA:                  -1.878
REMARK UNBOUND:                -2.081
REMARK SMILES C[C@@H]1O[C@H](O[C@@H]2CC[C@]3(C)[C@@H](CC[C@]4(C)[C@H]3C=C[C@]35OC[C@@]6(CCC(C)(C)C[C@@H]63)[C@@H](O)C[C@@]54C)[C@]2(C)CO)[C@H](O)[C@@H](O[C@@H]2O[C@H](CO)[C@H](O)[C@H](O)[C@@H]2O)[C@@H]1O
REMARK SMILES IDX 1 1 2 2 54 3 41 4 39 5 4 6 3 7 55 8 42 10 43 11 52 12 44 13
REMARK SMILES IDX 50 14 45 15 48 16 53 17 51 19 46 21 47 22 49 24 5 26 6 27
REMARK SMILES IDX 7 28 35 29 8 30 11 31 36 32 9 33 12 34 10 35 16 36 13 37
REMARK SMILES IDX 14 38 17 39 15 40 33 41 18 42 19 43 32 44 34 45 29 46 20 47
REMARK SMILES IDX 30 48 22 49 28 50 21 51 23 52 25 53 24 54 26 55 27 56 37 57
REMARK SMILES IDX 38 58 31 60 40 62
REMARK H PARENT 55 9 53 18 51 20 47 23 49 25 38 59 31 61 40 63
REMARK Flexibility Score: inf
ROOT
ATOM      1  C   UNL     1      95.143 -62.009 102.136  1.00  0.00     0.041 C 
ATOM      2  C   UNL     1      93.988 -61.887 103.144  1.00  0.00     0.150 C 
ATOM      3  C   UNL     1      92.718 -62.684 102.768  1.00  0.00     0.175 C 
ATOM      4  C   UNL     1      92.805 -64.190 103.109  1.00  0.00     0.186 C 
ATOM      5  C   UNL     1      93.359 -64.351 104.545  1.00  0.00     0.202 C 
ATOM      6  C   UNL     1      94.620 -63.490 104.788  1.00  0.00     0.282 C 
ATOM      7  O   UNL     1      94.409 -62.121 104.480  1.00  0.00    -0.344 OA
ENDROOT
BRANCH   3   8
ATOM      8  O   UNL     1      92.366 -62.481 101.412  1.00  0.00    -0.388 OA
ATOM      9  H   UNL     1      93.199 -62.551 100.872  1.00  0.00     0.211 HD
ENDBRANCH   3   8
BRANCH   4  10
ATOM     10  O   UNL     1      91.531 -64.771 102.786  1.00  0.00    -0.341 OA
BRANCH  10  11
ATOM     11  C   UNL     1      91.340 -66.183 102.866  1.00  0.00     0.282 C 
ATOM     12  C   UNL     1      89.836 -66.548 103.024  1.00  0.00     0.202 C 
ATOM     13  O   UNL     1      91.899 -66.802 101.719  1.00  0.00    -0.341 OA
ATOM     14  C   UNL     1      89.114 -66.740 101.667  1.00  0.00     0.179 C 
ATOM     15  C   UNL     1      91.300 -66.411 100.485  1.00  0.00     0.178 C 
ATOM     16  C   UNL     1      89.817 -65.948 100.559  1.00  0.00     0.177 C 
BRANCH  12  17
ATOM     17  O   UNL     1      89.171 -65.630 103.855  1.00  0.00    -0.385 OA
ATOM     18  H   UNL     1      88.725 -64.967 103.274  1.00  0.00     0.211 HD
ENDBRANCH  12  17
BRANCH  14  19
ATOM     19  O   UNL     1      87.758 -66.374 101.743  1.00  0.00    -0.387 OA
ATOM     20  H   UNL     1      87.421 -66.752 102.598  1.00  0.00     0.211 HD
ENDBRANCH  14  19
BRANCH  15  21
ATOM     21  C   UNL     1      92.195 -65.422  99.722  1.00  0.00     0.191 C 
BRANCH  21  22
ATOM     22  O   UNL     1      91.488 -64.869  98.649  1.00  0.00    -0.394 OA
ATOM     23  H   UNL     1      91.944 -64.021  98.405  1.00  0.00     0.210 HD
ENDBRANCH  21  22
ENDBRANCH  15  21
BRANCH  16  24
ATOM     24  O   UNL     1      89.731 -64.569 100.804  1.00  0.00    -0.387 OA
ATOM     25  H   UNL     1      89.025 -64.211 100.204  1.00  0.00     0.211 HD
ENDBRANCH  16  24
ENDBRANCH  10  11
ENDBRANCH   4  10
BRANCH   6  26
ATOM     26  O   UNL     1      95.760 -63.988 104.082  1.00  0.00    -0.346 OA
BRANCH  26  27
ATOM     27  C   UNL     1      96.762 -64.540 104.937  1.00  0.00     0.130 C 
ATOM     28  C   UNL     1      97.666 -63.404 105.496  1.00  0.00     0.033 C 
ATOM     29  C   UNL     1      97.567 -65.681 104.182  1.00  0.00     0.020 C 
ATOM     30  C   UNL     1      99.121 -63.810 105.730  1.00  0.00     0.010 C 
ATOM     31  C   UNL     1      98.856 -65.070 103.470  1.00  0.00     0.006 C 
ATOM     32  C   UNL     1      97.914 -66.803 105.209  1.00  0.00     0.017 C 
ATOM     33  C   UNL     1      99.850 -64.265 104.424  1.00  0.00    -0.022 C 
ATOM     34  C   UNL     1      99.580 -66.112 102.541  1.00  0.00     0.005 C 
ATOM     35  C   UNL     1     100.297 -62.946 103.731  1.00  0.00     0.012 C 
ATOM     36  C   UNL     1     101.080 -65.183 104.789  1.00  0.00     0.024 C 
ATOM     37  C   UNL     1     101.075 -65.843 102.301  1.00  0.00     0.008 C 
ATOM     38  C   UNL     1     101.935 -65.836 103.615  1.00  0.00    -0.017 C 
ATOM     39  C   UNL     1     101.909 -64.783 105.983  1.00  0.00    -0.024 C 
ATOM     40  C   UNL     1     102.083 -67.354 104.033  1.00  0.00     0.013 C 
ATOM     41  C   UNL     1     103.432 -65.168 103.385  1.00  0.00     0.009 C 
ATOM     42  C   UNL     1     103.239 -64.720 105.952  1.00  0.00     0.005 C 
ATOM     43  C   UNL     1     104.005 -64.414 104.699  1.00  0.00     0.096 C 
ATOM     44  C   UNL     1     103.503 -64.155 102.170  1.00  0.00     0.043 C 
ATOM     45  C   UNL     1     104.427 -66.301 102.941  1.00  0.00     0.015 C 
ATOM     46  C   UNL     1     104.065 -62.870 104.520  1.00  0.00     0.037 C 
ATOM     47  O   UNL     1     105.348 -64.805 104.905  1.00  0.00    -0.369 OA
ATOM     48  C   UNL     1     104.755 -63.211 102.148  1.00  0.00     0.124 C 
ATOM     49  C   UNL     1     105.253 -62.791 103.586  1.00  0.00     0.026 C 
ATOM     50  C   UNL     1     104.293 -62.020 105.799  1.00  0.00     0.014 C 
ATOM     51  C   UNL     1     106.161 -63.868 104.225  1.00  0.00     0.171 C 
ATOM     52  C   UNL     1     105.938 -61.381 103.575  1.00  0.00     0.013 C 
ATOM     53  C   UNL     1     104.433 -60.498 105.465  1.00  0.00    -0.035 C 
ATOM     54  C   UNL     1     104.979 -60.274 104.020  1.00  0.00     0.007 C 
ATOM     55  C   UNL     1     105.385 -59.845 106.492  1.00  0.00     0.011 C 
ATOM     56  C   UNL     1     103.054 -59.811 105.583  1.00  0.00     0.011 C 
BRANCH  29  57
ATOM     57  C   UNL     1      96.644 -66.374 103.128  1.00  0.00     0.165 C 
BRANCH  57  58
ATOM     58  O   UNL     1      95.712 -67.230 103.734  1.00  0.00    -0.396 OA
ATOM     59  H   UNL     1      95.749 -67.032 104.708  1.00  0.00     0.210 HD
ENDBRANCH  57  58
ENDBRANCH  29  57
BRANCH  48  60
ATOM     60  O   UNL     1     105.777 -63.802 101.385  1.00  0.00    -0.392 OA
ATOM     61  H   UNL     1     105.925 -63.210 100.599  1.00  0.00     0.210 HD
ENDBRANCH  48  60
ENDBRANCH  26  27
ENDBRANCH   6  26
BRANCH   5  62
ATOM     62  O   UNL     1      93.666 -65.706 104.792  1.00  0.00    -0.385 OA
ATOM     63  H   UNL     1      93.494 -65.872 105.757  1.00  0.00     0.211 HD
ENDBRANCH   5  62
TORSDOF 14
ENDMDL
MODEL 8
REMARK VINA RESULT:    -7.080      2.722     11.762
REMARK INTER + INTRA:         -13.300
REMARK INTER:                 -10.721
REMARK INTRA:                  -2.578
REMARK UNBOUND:                -2.081
REMARK SMILES C[C@@H]1O[C@H](O[C@@H]2CC[C@]3(C)[C@@H](CC[C@]4(C)[C@H]3C=C[C@]35OC[C@@]6(CCC(C)(C)C[C@@H]63)[C@@H](O)C[C@@]54C)[C@]2(C)CO)[C@H](O)[C@@H](O[C@@H]2O[C@H](CO)[C@H](O)[C@H](O)[C@@H]2O)[C@@H]1O
REMARK SMILES IDX 1 1 2 2 54 3 41 4 39 5 4 6 3 7 55 8 42 10 43 11 52 12 44 13
REMARK SMILES IDX 50 14 45 15 48 16 53 17 51 19 46 21 47 22 49 24 5 26 6 27
REMARK SMILES IDX 7 28 35 29 8 30 11 31 36 32 9 33 12 34 10 35 16 36 13 37
REMARK SMILES IDX 14 38 17 39 15 40 33 41 18 42 19 43 32 44 34 45 29 46 20 47
REMARK SMILES IDX 30 48 22 49 28 50 21 51 23 52 25 53 24 54 26 55 27 56 37 57
REMARK SMILES IDX 38 58 31 60 40 62
REMARK H PARENT 55 9 53 18 51 20 47 23 49 25 38 59 31 61 40 63
REMARK Flexibility Score: inf
ROOT
ATOM      1  C   UNL     1     100.550 -65.602 102.999  1.00  0.00     0.041 C 
ATOM      2  C   UNL     1     101.411 -65.693 104.269  1.00  0.00     0.150 C 
ATOM      3  C   UNL     1     102.527 -64.629 104.370  1.00  0.00     0.175 C 
ATOM      4  C   UNL     1     102.028 -63.248 104.854  1.00  0.00     0.186 C 
ATOM      5  C   UNL     1     101.109 -63.447 106.083  1.00  0.00     0.202 C 
ATOM      6  C   UNL     1     100.048 -64.547 105.851  1.00  0.00     0.282 C 
ATOM      7  O   UNL     1     100.626 -65.780 105.450  1.00  0.00    -0.344 OA
ENDROOT
BRANCH   3   8
ATOM      8  O   UNL     1     103.245 -64.521 103.155  1.00  0.00    -0.388 OA
ATOM      9  H   UNL     1     102.581 -64.507 102.413  1.00  0.00     0.211 HD
ENDBRANCH   3   8
BRANCH   4  10
ATOM     10  O   UNL     1     103.182 -62.401 104.980  1.00  0.00    -0.341 OA
BRANCH  10  11
ATOM     11  C   UNL     1     103.086 -61.003 104.711  1.00  0.00     0.282 C 
ATOM     12  C   UNL     1     103.415 -60.153 105.971  1.00  0.00     0.202 C 
ATOM     13  O   UNL     1     103.940 -60.668 103.630  1.00  0.00    -0.341 OA
ATOM     14  C   UNL     1     104.921 -59.811 106.092  1.00  0.00     0.179 C 
ATOM     15  C   UNL     1     105.325 -60.908 103.875  1.00  0.00     0.178 C 
ATOM     16  C   UNL     1     105.777 -60.851 105.363  1.00  0.00     0.177 C 
BRANCH  12  17
ATOM     17  O   UNL     1     102.910 -60.753 107.138  1.00  0.00    -0.385 OA
ATOM     18  H   UNL     1     102.151 -60.204 107.454  1.00  0.00     0.211 HD
ENDBRANCH  12  17
BRANCH  14  19
ATOM     19  O   UNL     1     105.323 -59.703 107.436  1.00  0.00    -0.387 OA
ATOM     20  H   UNL     1     104.862 -60.439 107.919  1.00  0.00     0.211 HD
ENDBRANCH  14  19
BRANCH  15  21
ATOM     21  C   UNL     1     105.805 -62.179 103.156  1.00  0.00     0.191 C 
BRANCH  21  22
ATOM     22  O   UNL     1     104.860 -62.572 102.202  1.00  0.00    -0.394 OA
ATOM     23  H   UNL     1     104.211 -61.826 102.110  1.00  0.00     0.210 HD
ENDBRANCH  21  22
ENDBRANCH  15  21
BRANCH  16  24
ATOM     24  O   UNL     1     105.659 -62.108 105.975  1.00  0.00    -0.387 OA
ATOM     25  H   UNL     1     105.645 -62.785 105.248  1.00  0.00     0.211 HD
ENDBRANCH  16  24
ENDBRANCH  10  11
ENDBRANCH   4  10
BRANCH   6  26
ATOM     26  O   UNL     1      99.042 -64.143 104.918  1.00  0.00    -0.346 OA
BRANCH  26  27
ATOM     27  C   UNL     1      97.716 -64.476 105.332  1.00  0.00     0.130 C 
ATOM     28  C   UNL     1      97.396 -65.949 104.952  1.00  0.00     0.033 C 
ATOM     29  C   UNL     1      96.676 -63.427 104.749  1.00  0.00     0.020 C 
ATOM     30  C   UNL     1      95.932 -66.209 104.599  1.00  0.00     0.010 C 
ATOM     31  C   UNL     1      96.105 -63.934 103.349  1.00  0.00     0.006 C 
ATOM     32  C   UNL     1      95.559 -63.197 105.813  1.00  0.00     0.017 C 
ATOM     33  C   UNL     1      95.442 -65.385 103.364  1.00  0.00    -0.022 C 
ATOM     34  C   UNL     1      95.227 -62.847 102.629  1.00  0.00     0.005 C 
ATOM     35  C   UNL     1      95.917 -66.197 102.124  1.00  0.00     0.012 C 
ATOM     36  C   UNL     1      93.871 -65.241 103.405  1.00  0.00     0.024 C 
ATOM     37  C   UNL     1      94.192 -63.399 101.635  1.00  0.00     0.008 C 
ATOM     38  C   UNL     1      93.144 -64.370 102.287  1.00  0.00    -0.017 C 
ATOM     39  C   UNL     1      93.078 -66.449 103.834  1.00  0.00    -0.024 C 
ATOM     40  C   UNL     1      92.151 -63.443 103.094  1.00  0.00     0.013 C 
ATOM     41  C   UNL     1      92.305 -65.243 101.158  1.00  0.00     0.009 C 
ATOM     42  C   UNL     1      92.021 -66.897 103.160  1.00  0.00     0.005 C 
ATOM     43  C   UNL     1      91.870 -66.713 101.679  1.00  0.00     0.096 C 
ATOM     44  C   UNL     1      93.072 -65.419  99.783  1.00  0.00     0.043 C 
ATOM     45  C   UNL     1      91.032 -64.426 100.733  1.00  0.00     0.015 C 
ATOM     46  C   UNL     1      92.643 -67.853 100.956  1.00  0.00     0.037 C 
ATOM     47  O   UNL     1      90.512 -66.935 101.350  1.00  0.00    -0.369 OA
ATOM     48  C   UNL     1      92.521 -66.543  98.839  1.00  0.00     0.124 C 
ATOM     49  C   UNL     1      91.946 -67.792  99.615  1.00  0.00     0.026 C 
ATOM     50  C   UNL     1      92.549 -69.273 101.579  1.00  0.00     0.014 C 
ATOM     51  C   UNL     1      90.490 -67.567 100.085  1.00  0.00     0.171 C 
ATOM     52  C   UNL     1      92.093 -69.111  98.781  1.00  0.00     0.013 C 
ATOM     53  C   UNL     1      93.285 -70.339 100.701  1.00  0.00    -0.035 C 
ATOM     54  C   UNL     1      93.324 -69.920  99.198  1.00  0.00     0.007 C 
ATOM     55  C   UNL     1      92.561 -71.696 100.848  1.00  0.00     0.011 C 
ATOM     56  C   UNL     1      94.737 -70.512 101.202  1.00  0.00     0.011 C 
BRANCH  29  57
ATOM     57  C   UNL     1      97.363 -62.034 104.580  1.00  0.00     0.165 C 
BRANCH  57  58
ATOM     58  O   UNL     1      97.873 -61.554 105.796  1.00  0.00    -0.396 OA
ATOM     59  H   UNL     1      98.028 -60.580 105.666  1.00  0.00     0.210 HD
ENDBRANCH  57  58
ENDBRANCH  29  57
BRANCH  48  60
ATOM     60  O   UNL     1      91.579 -65.992  97.951  1.00  0.00    -0.392 OA
ATOM     61  H   UNL     1      91.882 -65.066  97.752  1.00  0.00     0.210 HD
ENDBRANCH  48  60
ENDBRANCH  26  27
ENDBRANCH   6  26
BRANCH   5  62
ATOM     62  O   UNL     1     100.458 -62.234 106.397  1.00  0.00    -0.385 OA
ATOM     63  H   UNL     1     100.885 -61.524 105.848  1.00  0.00     0.211 HD
ENDBRANCH   5  62
TORSDOF 14
ENDMDL
MODEL 9
REMARK VINA RESULT:    -6.982      2.567      4.468
REMARK INTER + INTRA:         -13.145
REMARK INTER:                 -10.591
REMARK INTRA:                  -2.553
REMARK UNBOUND:                -2.081
REMARK SMILES C[C@@H]1O[C@H](O[C@@H]2CC[C@]3(C)[C@@H](CC[C@]4(C)[C@H]3C=C[C@]35OC[C@@]6(CCC(C)(C)C[C@@H]63)[C@@H](O)C[C@@]54C)[C@]2(C)CO)[C@H](O)[C@@H](O[C@@H]2O[C@H](CO)[C@H](O)[C@H](O)[C@@H]2O)[C@@H]1O
REMARK SMILES IDX 1 1 2 2 54 3 41 4 39 5 4 6 3 7 55 8 42 10 43 11 52 12 44 13
REMARK SMILES IDX 50 14 45 15 48 16 53 17 51 19 46 21 47 22 49 24 5 26 6 27
REMARK SMILES IDX 7 28 35 29 8 30 11 31 36 32 9 33 12 34 10 35 16 36 13 37
REMARK SMILES IDX 14 38 17 39 15 40 33 41 18 42 19 43 32 44 34 45 29 46 20 47
REMARK SMILES IDX 30 48 22 49 28 50 21 51 23 52 25 53 24 54 26 55 27 56 37 57
REMARK SMILES IDX 38 58 31 60 40 62
REMARK H PARENT 55 9 53 18 51 20 47 23 49 25 38 59 31 61 40 63
REMARK Flexibility Score: inf
ROOT
ATOM      1  C   UNL     1      93.218 -64.321 100.247  1.00  0.00     0.041 C 
ATOM      2  C   UNL     1      91.749 -63.867 100.228  1.00  0.00     0.150 C 
ATOM      3  C   UNL     1      90.886 -64.522  99.126  1.00  0.00     0.175 C 
ATOM      4  C   UNL     1      90.399 -65.947  99.481  1.00  0.00     0.186 C 
ATOM      5  C   UNL     1      89.845 -65.944 100.926  1.00  0.00     0.202 C 
ATOM      6  C   UNL     1      90.802 -65.248 101.921  1.00  0.00     0.282 C 
ATOM      7  O   UNL     1      91.146 -63.933 101.512  1.00  0.00    -0.344 OA
ENDROOT
BRANCH   3   8
ATOM      8  O   UNL     1      91.545 -64.500  97.874  1.00  0.00    -0.388 OA
ATOM      9  H   UNL     1      92.258 -65.194  97.898  1.00  0.00     0.211 HD
ENDBRANCH   3   8
BRANCH   4  10
ATOM     10  O   UNL     1      89.546 -66.382  98.411  1.00  0.00    -0.341 OA
BRANCH  10  11
ATOM     11  C   UNL     1      90.038 -67.273  97.411  1.00  0.00     0.282 C 
ATOM     12  C   UNL     1      89.374 -68.676  97.519  1.00  0.00     0.202 C 
ATOM     13  O   UNL     1      89.832 -66.707  96.128  1.00  0.00    -0.341 OA
ATOM     14  C   UNL     1      88.074 -68.795  96.684  1.00  0.00     0.179 C 
ATOM     15  C   UNL     1      88.463 -66.485  95.792  1.00  0.00     0.178 C 
ATOM     16  C   UNL     1      87.428 -67.421  96.482  1.00  0.00     0.177 C 
BRANCH  12  17
ATOM     17  O   UNL     1      89.181 -69.049  98.861  1.00  0.00    -0.385 OA
ATOM     18  H   UNL     1      89.883 -69.703  99.095  1.00  0.00     0.211 HD
ENDBRANCH  12  17
BRANCH  14  19
ATOM     19  O   UNL     1      87.157 -69.683  97.276  1.00  0.00    -0.387 OA
ATOM     20  H   UNL     1      86.581 -70.013  96.537  1.00  0.00     0.211 HD
ENDBRANCH  14  19
BRANCH  15  21
ATOM     21  C   UNL     1      88.095 -64.998  95.913  1.00  0.00     0.191 C 
BRANCH  21  22
ATOM     22  O   UNL     1      89.252 -64.235  96.100  1.00  0.00    -0.394 OA
ATOM     23  H   UNL     1      89.997 -64.722  95.659  1.00  0.00     0.210 HD
ENDBRANCH  21  22
ENDBRANCH  15  21
BRANCH  16  24
ATOM     24  O   UNL     1      87.004 -66.886  97.708  1.00  0.00    -0.387 OA
ATOM     25  H   UNL     1      87.695 -67.120  98.381  1.00  0.00     0.211 HD
ENDBRANCH  16  24
ENDBRANCH  10  11
ENDBRANCH   4  10
BRANCH   6  26
ATOM     26  O   UNL     1      91.983 -66.016 102.167  1.00  0.00    -0.346 OA
BRANCH  26  27
ATOM     27  C   UNL     1      92.352 -66.068 103.545  1.00  0.00     0.130 C 
ATOM     28  C   UNL     1      93.040 -64.737 103.960  1.00  0.00     0.033 C 
ATOM     29  C   UNL     1      93.233 -67.357 103.834  1.00  0.00     0.020 C 
ATOM     30  C   UNL     1      94.121 -64.888 105.030  1.00  0.00     0.010 C 
ATOM     31  C   UNL     1      94.782 -67.013 103.684  1.00  0.00     0.006 C 
ATOM     32  C   UNL     1      92.865 -67.899 105.251  1.00  0.00     0.017 C 
ATOM     33  C   UNL     1      95.306 -65.802 104.580  1.00  0.00    -0.022 C 
ATOM     34  C   UNL     1      95.692 -68.293 103.759  1.00  0.00     0.005 C 
ATOM     35  C   UNL     1      96.229 -64.877 103.735  1.00  0.00     0.012 C 
ATOM     36  C   UNL     1      96.051 -66.376 105.848  1.00  0.00     0.024 C 
ATOM     37  C   UNL     1      97.140 -68.038 104.211  1.00  0.00     0.008 C 
ATOM     38  C   UNL     1      97.252 -67.402 105.642  1.00  0.00    -0.017 C 
ATOM     39  C   UNL     1      96.256 -65.438 107.011  1.00  0.00    -0.024 C 
ATOM     40  C   UNL     1      96.945 -68.576 106.655  1.00  0.00     0.013 C 
ATOM     41  C   UNL     1      98.758 -66.782 105.941  1.00  0.00     0.009 C 
ATOM     42  C   UNL     1      97.428 -65.293 107.625  1.00  0.00     0.005 C 
ATOM     43  C   UNL     1      98.739 -65.496 106.923  1.00  0.00     0.096 C 
ATOM     44  C   UNL     1      99.560 -66.387 104.633  1.00  0.00     0.043 C 
ATOM     45  C   UNL     1      99.656 -67.916 106.559  1.00  0.00     0.015 C 
ATOM     46  C   UNL     1      99.115 -64.179 106.186  1.00  0.00     0.037 C 
ATOM     47  O   UNL     1      99.739 -65.655 107.910  1.00  0.00    -0.369 OA
ATOM     48  C   UNL     1     100.798 -65.450 104.855  1.00  0.00     0.124 C 
ATOM     49  C   UNL     1     100.602 -64.417 106.033  1.00  0.00     0.026 C 
ATOM     50  C   UNL     1      98.829 -62.847 106.932  1.00  0.00     0.014 C 
ATOM     51  C   UNL     1     100.913 -65.041 107.413  1.00  0.00     0.171 C 
ATOM     52  C   UNL     1     101.417 -63.100 105.790  1.00  0.00     0.013 C 
ATOM     53  C   UNL     1      99.347 -61.610 106.125  1.00  0.00    -0.035 C 
ATOM     54  C   UNL     1     100.546 -61.987 105.201  1.00  0.00     0.007 C 
ATOM     55  C   UNL     1      99.777 -60.507 107.118  1.00  0.00     0.011 C 
ATOM     56  C   UNL     1      98.205 -61.048 105.247  1.00  0.00     0.011 C 
BRANCH  29  57
ATOM     57  C   UNL     1      92.835 -68.505 102.851  1.00  0.00     0.165 C 
BRANCH  57  58
ATOM     58  O   UNL     1      91.469 -68.814 102.937  1.00  0.00    -0.396 OA
ATOM     59  H   UNL     1      91.260 -69.365 102.136  1.00  0.00     0.210 HD
ENDBRANCH  57  58
ENDBRANCH  29  57
BRANCH  48  60
ATOM     60  O   UNL     1     101.955 -66.230 105.023  1.00  0.00    -0.392 OA
ATOM     61  H   UNL     1     102.258 -66.491 104.112  1.00  0.00     0.210 HD
ENDBRANCH  48  60
ENDBRANCH  26  27
ENDBRANCH   6  26
BRANCH   5  62
ATOM     62  O   UNL     1      89.614 -67.269 101.354  1.00  0.00    -0.385 OA
ATOM     63  H   UNL     1      90.239 -67.852 100.845  1.00  0.00     0.211 HD
ENDBRANCH   5  62
TORSDOF 14
ENDMDL
