MODEL 1
REMARK VINA RESULT:    -3.012      0.000      0.000
REMARK INTER + INTRA:          -3.664
REMARK INTER:                  -3.540
REMARK INTRA:                  -0.124
REMARK UNBOUND:                -0.124
REMARK SMILES O=C([O-])CCC(=O)[O-]
REMARK SMILES IDX 4 1 2 2 1 3 3 4 5 5 6 6 7 7 8 8
REMARK H PARENT
REMARK Flexibility Score: inf
ROOT
ATOM      1  C   UNL     1      12.228   0.769   0.075  1.00  0.00     0.059 C 
ENDROOT
BRANCH   1   2
ATOM      2  C   UNL     1      11.794   2.003  -0.649  1.00  0.00     0.042 C 
ATOM      3  O   UNL     1      11.208   2.929  -0.028  1.00  0.00    -0.550 OA
ATOM      4  O   UNL     1      12.080   2.155  -1.999  1.00  0.00    -0.550 OA
ENDBRANCH   1   2
BRANCH   1   5
ATOM      5  C   UNL     1      11.296  -0.400  -0.252  1.00  0.00     0.059 C 
BRANCH   5   6
ATOM      6  C   UNL     1      10.176  -0.469   0.735  1.00  0.00     0.042 C 
ATOM      7  O   UNL     1      10.329  -0.016   1.901  1.00  0.00    -0.550 OA
ATOM      8  O   UNL     1       8.977  -1.078   0.386  1.00  0.00    -0.550 OA
ENDBRANCH   5   6
ENDBRANCH   1   5
TORSDOF 3
ENDMDL
MODEL 2
REMARK VINA RESULT:    -2.991      0.088      3.678
REMARK INTER + INTRA:          -3.639
REMARK INTER:                  -3.508
REMARK INTRA:                  -0.131
REMARK UNBOUND:                -0.124
REMARK SMILES O=C([O-])CCC(=O)[O-]
REMARK SMILES IDX 4 1 2 2 1 3 3 4 5 5 6 6 7 7 8 8
REMARK H PARENT
REMARK Flexibility Score: inf
ROOT
ATOM      1  C   UNL     1      11.329  -0.361  -0.271  1.00  0.00     0.059 C 
ENDROOT
BRANCH   1   2
ATOM      2  C   UNL     1      10.185  -0.440   0.688  1.00  0.00     0.042 C 
ATOM      3  O   UNL     1       9.130  -1.049   0.368  1.00  0.00    -0.550 OA
ATOM      4  O   UNL     1      10.301   0.115   1.956  1.00  0.00    -0.550 OA
ENDBRANCH   1   2
BRANCH   1   5
ATOM      5  C   UNL     1      12.252   0.806   0.090  1.00  0.00     0.059 C 
BRANCH   5   6
ATOM      6  C   UNL     1      11.823   2.051  -0.618  1.00  0.00     0.042 C 
ATOM      7  O   UNL     1      11.196   2.949   0.004  1.00  0.00    -0.550 OA
ATOM      8  O   UNL     1      12.072   2.200  -1.976  1.00  0.00    -0.550 OA
ENDBRANCH   5   6
ENDBRANCH   1   5
TORSDOF 3
ENDMDL
MODEL 3
REMARK VINA RESULT:    -2.982      0.067      1.147
REMARK INTER + INTRA:          -3.628
REMARK INTER:                  -3.502
REMARK INTRA:                  -0.127
REMARK UNBOUND:                -0.124
REMARK SMILES O=C([O-])CCC(=O)[O-]
REMARK SMILES IDX 4 1 2 2 1 3 3 4 5 5 6 6 7 7 8 8
REMARK H PARENT
REMARK Flexibility Score: inf
ROOT
ATOM      1  C   UNL     1      12.271   0.742   0.037  1.00  0.00     0.059 C 
ENDROOT
BRANCH   1   2
ATOM      2  C   UNL     1      11.851   1.992  -0.666  1.00  0.00     0.042 C 
ATOM      3  O   UNL     1      12.050   2.122  -1.903  1.00  0.00    -0.550 OA
ATOM      4  O   UNL     1      11.195   2.997   0.033  1.00  0.00    -0.550 OA
ENDBRANCH   1   2
BRANCH   1   5
ATOM      5  C   UNL     1      11.312  -0.405  -0.289  1.00  0.00     0.059 C 
BRANCH   5   6
ATOM      6  C   UNL     1      10.200  -0.457   0.708  1.00  0.00     0.042 C 
ATOM      7  O   UNL     1      10.358   0.026   1.861  1.00  0.00    -0.550 OA
ATOM      8  O   UNL     1       9.003  -1.085   0.385  1.00  0.00    -0.550 OA
ENDBRANCH   5   6
ENDBRANCH   1   5
TORSDOF 3
ENDMDL
MODEL 4
REMARK VINA RESULT:    -2.825      2.034      2.562
REMARK INTER + INTRA:          -3.445
REMARK INTER:                  -3.341
REMARK INTRA:                  -0.104
REMARK UNBOUND:                -0.124
REMARK SMILES O=C([O-])CCC(=O)[O-]
REMARK SMILES IDX 4 1 2 2 1 3 3 4 5 5 6 6 7 7 8 8
REMARK H PARENT
REMARK Flexibility Score: inf
ROOT
ATOM      1  C   UNL     1      10.476   1.082   1.722  1.00  0.00     0.059 C 
ENDROOT
BRANCH   1   2
ATOM      2  C   UNL     1      10.080   2.150   0.753  1.00  0.00     0.042 C 
ATOM      3  O   UNL     1       8.868   2.320   0.457  1.00  0.00    -0.550 OA
ATOM      4  O   UNL     1      11.045   2.991   0.213  1.00  0.00    -0.550 OA
ENDBRANCH   1   2
BRANCH   1   5
ATOM      5  C   UNL     1      10.394  -0.297   1.062  1.00  0.00     0.059 C 
BRANCH   5   6
ATOM      6  C   UNL     1      11.680  -0.626   0.375  1.00  0.00     0.042 C 
ATOM      7  O   UNL     1      11.855  -0.303  -0.830  1.00  0.00    -0.550 OA
ATOM      8  O   UNL     1      12.668  -1.334   1.048  1.00  0.00    -0.550 OA
ENDBRANCH   5   6
ENDBRANCH   1   5
TORSDOF 3
ENDMDL
MODEL 5
REMARK VINA RESULT:    -2.777      2.097      2.489
REMARK INTER + INTRA:          -3.388
REMARK INTER:                  -3.319
REMARK INTRA:                  -0.069
REMARK UNBOUND:                -0.124
REMARK SMILES O=C([O-])CCC(=O)[O-]
REMARK SMILES IDX 4 1 2 2 1 3 3 4 5 5 6 6 7 7 8 8
REMARK H PARENT
REMARK Flexibility Score: inf
ROOT
ATOM      1  C   UNL     1      10.605   0.202   0.510  1.00  0.00     0.059 C 
ENDROOT
BRANCH   1   2
ATOM      2  C   UNL     1      10.411   1.640   0.153  1.00  0.00     0.042 C 
ATOM      3  O   UNL     1       9.379   2.254   0.533  1.00  0.00    -0.550 OA
ATOM      4  O   UNL     1      11.391   2.319  -0.560  1.00  0.00    -0.550 OA
ENDBRANCH   1   2
BRANCH   1   5
ATOM      5  C   UNL     1      11.867  -0.351  -0.156  1.00  0.00     0.059 C 
BRANCH   5   6
ATOM      6  C   UNL     1      12.700  -1.096   0.836  1.00  0.00     0.042 C 
ATOM      7  O   UNL     1      12.347  -1.154   2.044  1.00  0.00    -0.550 OA
ATOM      8  O   UNL     1      13.893  -1.687   0.440  1.00  0.00    -0.550 OA
ENDBRANCH   5   6
ENDBRANCH   1   5
TORSDOF 3
ENDMDL
MODEL 6
REMARK VINA RESULT:    -2.777      2.119      3.445
REMARK INTER + INTRA:          -3.387
REMARK INTER:                  -3.323
REMARK INTRA:                  -0.064
REMARK UNBOUND:                -0.124
REMARK SMILES O=C([O-])CCC(=O)[O-]
REMARK SMILES IDX 4 1 2 2 1 3 3 4 5 5 6 6 7 7 8 8
REMARK H PARENT
REMARK Flexibility Score: inf
ROOT
ATOM      1  C   UNL     1      11.987  -0.319  -0.122  1.00  0.00     0.059 C 
ENDROOT
BRANCH   1   2
ATOM      2  C   UNL     1      12.749  -1.129   0.878  1.00  0.00     0.042 C 
ATOM      3  O   UNL     1      12.320  -1.248   2.056  1.00  0.00    -0.550 OA
ATOM      4  O   UNL     1      13.907  -1.794   0.497  1.00  0.00    -0.550 OA
ENDBRANCH   1   2
BRANCH   1   5
ATOM      5  C   UNL     1      10.677   0.188   0.485  1.00  0.00     0.059 C 
BRANCH   5   6
ATOM      6  C   UNL     1      10.466   1.629   0.148  1.00  0.00     0.042 C 
ATOM      7  O   UNL     1       9.400   2.209   0.484  1.00  0.00    -0.550 OA
ATOM      8  O   UNL     1      11.425   2.320  -0.581  1.00  0.00    -0.550 OA
ENDBRANCH   5   6
ENDBRANCH   1   5
TORSDOF 3
ENDMDL
MODEL 7
REMARK VINA RESULT:    -2.721      2.151      2.517
REMARK INTER + INTRA:          -3.322
REMARK INTER:                  -3.295
REMARK INTRA:                  -0.026
REMARK UNBOUND:                -0.124
REMARK SMILES O=C([O-])CCC(=O)[O-]
REMARK SMILES IDX 4 1 2 2 1 3 3 4 5 5 6 6 7 7 8 8
REMARK H PARENT
REMARK Flexibility Score: inf
ROOT
ATOM      1  C   UNL     1      12.662   0.943   0.151  1.00  0.00     0.059 C 
ENDROOT
BRANCH   1   2
ATOM      2  C   UNL     1      11.726   1.784  -0.656  1.00  0.00     0.042 C 
ATOM      3  O   UNL     1      10.625   2.152  -0.169  1.00  0.00    -0.550 OA
ATOM      4  O   UNL     1      12.089   2.202  -1.930  1.00  0.00    -0.550 OA
ENDBRANCH   1   2
BRANCH   1   5
ATOM      5  C   UNL     1      12.293  -0.538   0.030  1.00  0.00     0.059 C 
BRANCH   5   6
ATOM      6  C   UNL     1      13.144  -1.365   0.939  1.00  0.00     0.042 C 
ATOM      7  O   UNL     1      14.163  -1.954   0.491  1.00  0.00    -0.550 OA
ATOM      8  O   UNL     1      12.785  -1.529   2.271  1.00  0.00    -0.550 OA
ENDBRANCH   5   6
ENDBRANCH   1   5
TORSDOF 3
ENDMDL
MODEL 8
REMARK VINA RESULT:    -2.699      2.132      2.564
REMARK INTER + INTRA:          -3.297
REMARK INTER:                  -3.190
REMARK INTRA:                  -0.107
REMARK UNBOUND:                -0.124
REMARK SMILES O=C([O-])CCC(=O)[O-]
REMARK SMILES IDX 4 1 2 2 1 3 3 4 5 5 6 6 7 7 8 8
REMARK H PARENT
REMARK Flexibility Score: inf
ROOT
ATOM      1  C   UNL     1      11.816  -0.354  -0.318  1.00  0.00     0.059 C 
ENDROOT
BRANCH   1   2
ATOM      2  C   UNL     1      12.990  -0.495   0.597  1.00  0.00     0.042 C 
ATOM      3  O   UNL     1      13.508   0.525   1.126  1.00  0.00    -0.550 OA
ATOM      4  O   UNL     1      13.483  -1.756   0.907  1.00  0.00    -0.550 OA
ENDBRANCH   1   2
BRANCH   1   5
ATOM      5  C   UNL     1      10.644   0.306   0.412  1.00  0.00     0.059 C 
BRANCH   5   6
ATOM      6  C   UNL     1       9.682  -0.729   0.900  1.00  0.00     0.042 C 
ATOM      7  O   UNL     1       9.822  -1.234   2.046  1.00  0.00    -0.550 OA
ATOM      8  O   UNL     1       8.659  -1.174   0.073  1.00  0.00    -0.550 OA
ENDBRANCH   5   6
ENDBRANCH   1   5
TORSDOF 3
ENDMDL
MODEL 9
REMARK VINA RESULT:    -2.604      1.689      2.240
REMARK INTER + INTRA:          -3.184
REMARK INTER:                  -3.032
REMARK INTRA:                  -0.152
REMARK UNBOUND:                -0.124
REMARK SMILES O=C([O-])CCC(=O)[O-]
REMARK SMILES IDX 4 1 2 2 1 3 3 4 5 5 6 6 7 7 8 8
REMARK H PARENT
REMARK Flexibility Score: inf
ROOT
ATOM      1  C   UNL     1      12.476   1.544   0.022  1.00  0.00     0.059 C 
ENDROOT
BRANCH   1   2
ATOM      2  C   UNL     1      12.397   2.698  -0.925  1.00  0.00     0.042 C 
ATOM      3  O   UNL     1      12.143   2.503  -2.143  1.00  0.00    -0.550 OA
ATOM      4  O   UNL     1      12.557   3.996  -0.455  1.00  0.00    -0.550 OA
ENDBRANCH   1   2
BRANCH   1   5
ATOM      5  C   UNL     1      11.137   0.805   0.079  1.00  0.00     0.059 C 
BRANCH   5   6
ATOM      6  C   UNL     1      10.158   1.559   0.921  1.00  0.00     0.042 C 
ATOM      7  O   UNL     1       9.179   2.144   0.386  1.00  0.00    -0.550 OA
ATOM      8  O   UNL     1      10.352   1.659   2.293  1.00  0.00    -0.550 OA
ENDBRANCH   5   6
ENDBRANCH   1   5
TORSDOF 3
ENDMDL
