MODEL 1
REMARK VINA RESULT:    -3.967      0.000      0.000
REMARK INTER + INTRA:          -5.544
REMARK INTER:                  -5.127
REMARK INTRA:                  -0.417
REMARK UNBOUND:                -0.417
REMARK SMILES CCO[C@H]1O[C@H](CO)[C@@H](O)[C@@H](O)[C@@H]1O
REMARK SMILES IDX 4 1 13 2 11 3 9 4 6 5 5 6 3 7 2 8 1 9 14 10 12 12 7 14 8 15
REMARK SMILES IDX 10 17
REMARK H PARENT 14 11 12 13 8 16 10 18
REMARK Flexibility Score: inf
ROOT
ATOM      1  C   UNL     1     -17.554  -5.898  16.959  1.00  0.00     0.281 C 
ATOM      2  C   UNL     1     -18.640  -4.919  16.452  1.00  0.00     0.202 C 
ATOM      3  C   UNL     1     -19.952  -5.108  17.233  1.00  0.00     0.179 C 
ATOM      4  C   UNL     1     -20.346  -6.593  17.259  1.00  0.00     0.177 C 
ATOM      5  C   UNL     1     -19.147  -7.449  17.735  1.00  0.00     0.178 C 
ATOM      6  O   UNL     1     -18.018  -7.239  16.900  1.00  0.00    -0.341 OA
ENDROOT
BRANCH   1   7
ATOM      7  O   UNL     1     -17.154  -5.577  18.285  1.00  0.00    -0.350 OA
BRANCH   7   8
ATOM      8  C   UNL     1     -15.892  -4.942  18.296  1.00  0.00     0.160 C 
ATOM      9  C   UNL     1     -14.816  -5.969  17.980  1.00  0.00     0.035 C 
ENDBRANCH   7   8
ENDBRANCH   1   7
BRANCH   2  10
ATOM     10  O   UNL     1     -18.881  -5.142  15.086  1.00  0.00    -0.385 OA
ATOM     11  H   UNL     1     -18.937  -6.126  14.961  1.00  0.00     0.211 HD
ENDBRANCH   2  10
BRANCH   3  12
ATOM     12  O   UNL     1     -19.812  -4.628  18.547  1.00  0.00    -0.387 OA
ATOM     13  H   UNL     1     -20.383  -5.198  19.124  1.00  0.00     0.211 HD
ENDBRANCH   3  12
BRANCH   5  14
ATOM     14  C   UNL     1     -19.498  -8.945  17.702  1.00  0.00     0.191 C 
BRANCH  14  15
ATOM     15  O   UNL     1     -20.576  -9.176  16.835  1.00  0.00    -0.394 OA
ATOM     16  H   UNL     1     -20.426 -10.069  16.427  1.00  0.00     0.210 HD
ENDBRANCH  14  15
ENDBRANCH   5  14
BRANCH   4  17
ATOM     17  O   UNL     1     -21.445  -6.762  18.120  1.00  0.00    -0.387 OA
ATOM     18  H   UNL     1     -21.183  -6.402  19.007  1.00  0.00     0.211 HD
ENDBRANCH   4  17
TORSDOF 7
ENDMDL
MODEL 2
REMARK VINA RESULT:    -3.678      1.576      4.365
REMARK INTER + INTRA:          -5.170
REMARK INTER:                  -4.748
REMARK INTRA:                  -0.422
REMARK UNBOUND:                -0.417
REMARK SMILES CCO[C@H]1O[C@H](CO)[C@@H](O)[C@@H](O)[C@@H]1O
REMARK SMILES IDX 4 1 13 2 11 3 9 4 6 5 5 6 3 7 2 8 1 9 14 10 12 12 7 14 8 15
REMARK SMILES IDX 10 17
REMARK H PARENT 14 11 12 13 8 16 10 18
REMARK Flexibility Score: inf
ROOT
ATOM      1  C   UNL     1     -19.664  -5.098  17.704  1.00  0.00     0.281 C 
ATOM      2  C   UNL     1     -19.448  -6.103  16.547  1.00  0.00     0.202 C 
ATOM      3  C   UNL     1     -18.381  -7.146  16.924  1.00  0.00     0.179 C 
ATOM      4  C   UNL     1     -17.118  -6.449  17.454  1.00  0.00     0.177 C 
ATOM      5  C   UNL     1     -17.498  -5.440  18.564  1.00  0.00     0.178 C 
ATOM      6  O   UNL     1     -18.436  -4.490  18.080  1.00  0.00    -0.341 OA
ENDROOT
BRANCH   1   7
ATOM      7  O   UNL     1     -20.260  -5.732  18.829  1.00  0.00    -0.350 OA
BRANCH   7   8
ATOM      8  C   UNL     1     -21.651  -5.893  18.643  1.00  0.00     0.160 C 
ATOM      9  C   UNL     1     -22.319  -4.527  18.684  1.00  0.00     0.035 C 
ENDBRANCH   7   8
ENDBRANCH   1   7
BRANCH   2  10
ATOM     10  O   UNL     1     -19.033  -5.417  15.393  1.00  0.00    -0.385 OA
ATOM     11  H   UNL     1     -19.790  -4.838  15.114  1.00  0.00     0.211 HD
ENDBRANCH   2  10
BRANCH   3  12
ATOM     12  O   UNL     1     -18.883  -8.029  17.897  1.00  0.00    -0.387 OA
ATOM     13  H   UNL     1     -18.545  -8.933  17.668  1.00  0.00     0.211 HD
ENDBRANCH   3  12
BRANCH   5  14
ATOM     14  C   UNL     1     -16.257  -4.681  19.060  1.00  0.00     0.191 C 
BRANCH  14  15
ATOM     15  O   UNL     1     -15.394  -4.403  17.990  1.00  0.00    -0.394 OA
ATOM     16  H   UNL     1     -15.582  -3.469  17.708  1.00  0.00     0.210 HD
ENDBRANCH  14  15
ENDBRANCH   5  14
BRANCH   4  17
ATOM     17  O   UNL     1     -16.231  -7.420  17.952  1.00  0.00    -0.387 OA
ATOM     18  H   UNL     1     -16.168  -8.138  17.269  1.00  0.00     0.211 HD
ENDBRANCH   4  17
TORSDOF 7
ENDMDL
MODEL 3
REMARK VINA RESULT:    -3.654      1.620      4.229
REMARK INTER + INTRA:          -5.140
REMARK INTER:                  -4.702
REMARK INTRA:                  -0.438
REMARK UNBOUND:                -0.417
REMARK SMILES CCO[C@H]1O[C@H](CO)[C@@H](O)[C@@H](O)[C@@H]1O
REMARK SMILES IDX 4 1 13 2 11 3 9 4 6 5 5 6 3 7 2 8 1 9 14 10 12 12 7 14 8 15
REMARK SMILES IDX 10 17
REMARK H PARENT 14 11 12 13 8 16 10 18
REMARK Flexibility Score: inf
ROOT
ATOM      1  C   UNL     1     -20.537  -6.579  18.029  1.00  0.00     0.281 C 
ATOM      2  C   UNL     1     -20.011  -5.155  17.732  1.00  0.00     0.202 C 
ATOM      3  C   UNL     1     -18.792  -5.208  16.794  1.00  0.00     0.179 C 
ATOM      4  C   UNL     1     -17.755  -6.210  17.326  1.00  0.00     0.177 C 
ATOM      5  C   UNL     1     -18.437  -7.567  17.625  1.00  0.00     0.178 C 
ATOM      6  O   UNL     1     -19.502  -7.400  18.551  1.00  0.00    -0.341 OA
ENDROOT
BRANCH   1   7
ATOM      7  O   UNL     1     -21.092  -7.174  16.863  1.00  0.00    -0.350 OA
BRANCH   7   8
ATOM      8  C   UNL     1     -22.491  -6.987  16.813  1.00  0.00     0.160 C 
ATOM      9  C   UNL     1     -23.140  -7.791  17.929  1.00  0.00     0.035 C 
ENDBRANCH   7   8
ENDBRANCH   1   7
BRANCH   2  10
ATOM     10  O   UNL     1     -19.640  -4.525  18.932  1.00  0.00    -0.385 OA
ATOM     11  H   UNL     1     -18.649  -4.561  18.982  1.00  0.00     0.211 HD
ENDBRANCH   2  10
BRANCH   3  12
ATOM     12  O   UNL     1     -19.190  -5.576  15.496  1.00  0.00    -0.387 OA
ATOM     13  H   UNL     1     -19.405  -6.544  15.525  1.00  0.00     0.211 HD
ENDBRANCH   3  12
BRANCH   5  14
ATOM     14  C   UNL     1     -17.431  -8.563  18.224  1.00  0.00     0.191 C 
BRANCH  14  15
ATOM     15  O   UNL     1     -16.364  -7.880  18.824  1.00  0.00    -0.394 OA
ATOM     16  H   UNL     1     -15.646  -7.817  18.140  1.00  0.00     0.210 HD
ENDBRANCH  14  15
ENDBRANCH   5  14
BRANCH   4  17
ATOM     17  O   UNL     1     -16.738  -6.371  16.368  1.00  0.00    -0.387 OA
ATOM     18  H   UNL     1     -16.617  -7.346  16.227  1.00  0.00     0.211 HD
ENDBRANCH   4  17
TORSDOF 7
ENDMDL
MODEL 4
REMARK VINA RESULT:    -3.465      1.594      2.366
REMARK INTER + INTRA:          -4.895
REMARK INTER:                  -4.443
REMARK INTRA:                  -0.451
REMARK UNBOUND:                -0.417
REMARK SMILES CCO[C@H]1O[C@H](CO)[C@@H](O)[C@@H](O)[C@@H]1O
REMARK SMILES IDX 4 1 13 2 11 3 9 4 6 5 5 6 3 7 2 8 1 9 14 10 12 12 7 14 8 15
REMARK SMILES IDX 10 17
REMARK H PARENT 14 11 12 13 8 16 10 18
REMARK Flexibility Score: inf
ROOT
ATOM      1  C   UNL     1     -18.696  -7.183  16.955  1.00  0.00     0.281 C 
ATOM      2  C   UNL     1     -18.413  -5.707  16.589  1.00  0.00     0.202 C 
ATOM      3  C   UNL     1     -18.979  -4.760  17.662  1.00  0.00     0.179 C 
ATOM      4  C   UNL     1     -20.446  -5.110  17.958  1.00  0.00     0.177 C 
ATOM      5  C   UNL     1     -20.580  -6.623  18.254  1.00  0.00     0.178 C 
ATOM      6  O   UNL     1     -20.085  -7.392  17.167  1.00  0.00    -0.341 OA
ENDROOT
BRANCH   1   7
ATOM      7  O   UNL     1     -17.961  -7.575  18.108  1.00  0.00    -0.350 OA
BRANCH   7   8
ATOM      8  C   UNL     1     -16.605  -7.810  17.791  1.00  0.00     0.160 C 
ATOM      9  C   UNL     1     -16.509  -9.040  16.901  1.00  0.00     0.035 C 
ENDBRANCH   7   8
ENDBRANCH   1   7
BRANCH   2  10
ATOM     10  O   UNL     1     -19.002  -5.403  15.350  1.00  0.00    -0.385 OA
ATOM     11  H   UNL     1     -19.984  -5.382  15.496  1.00  0.00     0.211 HD
ENDBRANCH   2  10
BRANCH   3  12
ATOM     12  O   UNL     1     -18.219  -4.848  18.842  1.00  0.00    -0.387 OA
ATOM     13  H   UNL     1     -17.984  -3.920  19.102  1.00  0.00     0.211 HD
ENDBRANCH   3  12
BRANCH   5  14
ATOM     14  C   UNL     1     -22.050  -7.006  18.485  1.00  0.00     0.191 C 
BRANCH  14  15
ATOM     15  O   UNL     1     -22.898  -6.135  17.787  1.00  0.00    -0.394 OA
ATOM     16  H   UNL     1     -22.312  -5.514  17.279  1.00  0.00     0.210 HD
ENDBRANCH  14  15
ENDBRANCH   5  14
BRANCH   4  17
ATOM     17  O   UNL     1     -20.886  -4.351  19.058  1.00  0.00    -0.387 OA
ATOM     18  H   UNL     1     -21.488  -3.644  18.706  1.00  0.00     0.211 HD
ENDBRANCH   4  17
TORSDOF 7
ENDMDL
MODEL 5
REMARK VINA RESULT:    -3.405      2.043      4.443
REMARK INTER + INTRA:          -4.818
REMARK INTER:                  -4.417
REMARK INTRA:                  -0.401
REMARK UNBOUND:                -0.417
REMARK SMILES CCO[C@H]1O[C@H](CO)[C@@H](O)[C@@H](O)[C@@H]1O
REMARK SMILES IDX 4 1 13 2 11 3 9 4 6 5 5 6 3 7 2 8 1 9 14 10 12 12 7 14 8 15
REMARK SMILES IDX 10 17
REMARK H PARENT 14 11 12 13 8 16 10 18
REMARK Flexibility Score: inf
ROOT
ATOM      1  C   UNL     1     -16.668  -8.226  17.160  1.00  0.00     0.281 C 
ATOM      2  C   UNL     1     -15.244  -7.674  16.909  1.00  0.00     0.202 C 
ATOM      3  C   UNL     1     -15.005  -6.393  17.727  1.00  0.00     0.179 C 
ATOM      4  C   UNL     1     -16.159  -5.401  17.512  1.00  0.00     0.177 C 
ATOM      5  C   UNL     1     -17.515  -6.108  17.747  1.00  0.00     0.178 C 
ATOM      6  O   UNL     1     -17.648  -7.234  16.892  1.00  0.00    -0.341 OA
ENDROOT
BRANCH   1   7
ATOM      7  O   UNL     1     -16.805  -8.701  18.494  1.00  0.00    -0.350 OA
BRANCH   7   8
ATOM      8  C   UNL     1     -17.282 -10.030  18.513  1.00  0.00     0.160 C 
ATOM      9  C   UNL     1     -18.782 -10.017  18.768  1.00  0.00     0.035 C 
ENDBRANCH   7   8
ENDBRANCH   1   7
BRANCH   2  10
ATOM     10  O   UNL     1     -15.081  -7.385  15.543  1.00  0.00    -0.385 OA
ATOM     11  H   UNL     1     -14.137  -7.102  15.420  1.00  0.00     0.211 HD
ENDBRANCH   2  10
BRANCH   3  12
ATOM     12  O   UNL     1     -14.888  -6.701  19.094  1.00  0.00    -0.387 OA
ATOM     13  H   UNL     1     -15.380  -5.996  19.591  1.00  0.00     0.211 HD
ENDBRANCH   3  12
BRANCH   5  14
ATOM     14  C   UNL     1     -18.685  -5.151  17.469  1.00  0.00     0.191 C 
BRANCH  14  15
ATOM     15  O   UNL     1     -18.273  -4.105  16.632  1.00  0.00    -0.394 OA
ATOM     16  H   UNL     1     -17.915  -3.392  17.224  1.00  0.00     0.210 HD
ENDBRANCH  14  15
ENDBRANCH   5  14
BRANCH   4  17
ATOM     17  O   UNL     1     -16.006  -4.319  18.398  1.00  0.00    -0.387 OA
ATOM     18  H   UNL     1     -15.073  -3.994  18.307  1.00  0.00     0.211 HD
ENDBRANCH   4  17
TORSDOF 7
ENDMDL
MODEL 6
REMARK VINA RESULT:    -3.205      2.174      4.897
REMARK INTER + INTRA:          -4.559
REMARK INTER:                  -4.155
REMARK INTRA:                  -0.404
REMARK UNBOUND:                -0.417
REMARK SMILES CCO[C@H]1O[C@H](CO)[C@@H](O)[C@@H](O)[C@@H]1O
REMARK SMILES IDX 4 1 13 2 11 3 9 4 6 5 5 6 3 7 2 8 1 9 14 10 12 12 7 14 8 15
REMARK SMILES IDX 10 17
REMARK H PARENT 14 11 12 13 8 16 10 18
REMARK Flexibility Score: inf
ROOT
ATOM      1  C   UNL     1     -21.060  -7.657  17.118  1.00  0.00     0.281 C 
ATOM      2  C   UNL     1     -20.938  -7.589  18.659  1.00  0.00     0.202 C 
ATOM      3  C   UNL     1     -20.680  -6.144  19.121  1.00  0.00     0.179 C 
ATOM      4  C   UNL     1     -19.516  -5.530  18.326  1.00  0.00     0.177 C 
ATOM      5  C   UNL     1     -19.755  -5.721  16.809  1.00  0.00     0.178 C 
ATOM      6  O   UNL     1     -19.912  -7.097  16.496  1.00  0.00    -0.341 OA
ENDROOT
BRANCH   1   7
ATOM      7  O   UNL     1     -22.234  -6.993  16.667  1.00  0.00    -0.350 OA
BRANCH   7   8
ATOM      8  C   UNL     1     -23.396  -7.707  17.036  1.00  0.00     0.160 C 
ATOM      9  C   UNL     1     -24.531  -6.722  17.269  1.00  0.00     0.035 C 
ENDBRANCH   7   8
ENDBRANCH   1   7
BRANCH   2  10
ATOM     10  O   UNL     1     -19.877  -8.405  19.088  1.00  0.00    -0.385 OA
ATOM     11  H   UNL     1     -19.455  -7.946  19.860  1.00  0.00     0.211 HD
ENDBRANCH   2  10
BRANCH   3  12
ATOM     12  O   UNL     1     -21.837  -5.363  18.953  1.00  0.00    -0.387 OA
ATOM     13  H   UNL     1     -21.983  -4.877  19.806  1.00  0.00     0.211 HD
ENDBRANCH   3  12
BRANCH   5  14
ATOM     14  C   UNL     1     -18.568  -5.176  15.998  1.00  0.00     0.191 C 
BRANCH  14  15
ATOM     15  O   UNL     1     -18.583  -3.774  15.991  1.00  0.00    -0.394 OA
ATOM     16  H   UNL     1     -18.220  -3.490  15.110  1.00  0.00     0.210 HD
ENDBRANCH  14  15
ENDBRANCH   5  14
BRANCH   4  17
ATOM     17  O   UNL     1     -19.415  -4.164  18.642  1.00  0.00    -0.387 OA
ATOM     18  H   UNL     1     -18.752  -3.766  18.018  1.00  0.00     0.211 HD
ENDBRANCH   4  17
TORSDOF 7
ENDMDL
MODEL 7
REMARK VINA RESULT:    -3.106      1.975      3.574
REMARK INTER + INTRA:          -4.431
REMARK INTER:                  -4.007
REMARK INTRA:                  -0.424
REMARK UNBOUND:                -0.417
REMARK SMILES CCO[C@H]1O[C@H](CO)[C@@H](O)[C@@H](O)[C@@H]1O
REMARK SMILES IDX 4 1 13 2 11 3 9 4 6 5 5 6 3 7 2 8 1 9 14 10 12 12 7 14 8 15
REMARK SMILES IDX 10 17
REMARK H PARENT 14 11 12 13 8 16 10 18
REMARK Flexibility Score: inf
ROOT
ATOM      1  C   UNL     1     -16.667  -6.963  17.465  1.00  0.00     0.281 C 
ATOM      2  C   UNL     1     -16.862  -6.359  18.877  1.00  0.00     0.202 C 
ATOM      3  C   UNL     1     -18.292  -5.816  19.044  1.00  0.00     0.179 C 
ATOM      4  C   UNL     1     -18.654  -4.899  17.865  1.00  0.00     0.177 C 
ATOM      5  C   UNL     1     -18.358  -5.618  16.527  1.00  0.00     0.178 C 
ATOM      6  O   UNL     1     -16.995  -6.013  16.461  1.00  0.00    -0.341 OA
ENDROOT
BRANCH   1   7
ATOM      7  O   UNL     1     -17.448  -8.140  17.299  1.00  0.00    -0.350 OA
BRANCH   7   8
ATOM      8  C   UNL     1     -16.720  -9.290  17.676  1.00  0.00     0.160 C 
ATOM      9  C   UNL     1     -15.789  -9.684  16.539  1.00  0.00     0.035 C 
ENDBRANCH   7   8
ENDBRANCH   1   7
BRANCH   2  10
ATOM     10  O   UNL     1     -15.946  -5.313  19.077  1.00  0.00    -0.385 OA
ATOM     11  H   UNL     1     -16.002  -4.725  18.279  1.00  0.00     0.211 HD
ENDBRANCH   2  10
BRANCH   3  12
ATOM     12  O   UNL     1     -19.212  -6.877  19.125  1.00  0.00    -0.387 OA
ATOM     13  H   UNL     1     -18.730  -7.697  18.845  1.00  0.00     0.211 HD
ENDBRANCH   3  12
BRANCH   5  14
ATOM     14  C   UNL     1     -18.648  -4.692  15.335  1.00  0.00     0.191 C 
BRANCH  14  15
ATOM     15  O   UNL     1     -18.687  -3.354  15.752  1.00  0.00    -0.394 OA
ATOM     16  H   UNL     1     -19.363  -2.899  15.183  1.00  0.00     0.210 HD
ENDBRANCH  14  15
ENDBRANCH   5  14
BRANCH   4  17
ATOM     17  O   UNL     1     -20.016  -4.558  17.950  1.00  0.00    -0.387 OA
ATOM     18  H   UNL     1     -20.499  -5.355  18.292  1.00  0.00     0.211 HD
ENDBRANCH   4  17
TORSDOF 7
ENDMDL
MODEL 8
REMARK VINA RESULT:    -3.072      3.969      6.362
REMARK INTER + INTRA:          -4.388
REMARK INTER:                  -3.972
REMARK INTRA:                  -0.416
REMARK UNBOUND:                -0.417
REMARK SMILES CCO[C@H]1O[C@H](CO)[C@@H](O)[C@@H](O)[C@@H]1O
REMARK SMILES IDX 4 1 13 2 11 3 9 4 6 5 5 6 3 7 2 8 1 9 14 10 12 12 7 14 8 15
REMARK SMILES IDX 10 17
REMARK H PARENT 14 11 12 13 8 16 10 18
REMARK Flexibility Score: inf
ROOT
ATOM      1  C   UNL     1     -11.950  -6.369  18.342  1.00  0.00     0.281 C 
ATOM      2  C   UNL     1     -12.234  -7.841  17.958  1.00  0.00     0.202 C 
ATOM      3  C   UNL     1     -13.454  -7.934  17.024  1.00  0.00     0.179 C 
ATOM      4  C   UNL     1     -14.638  -7.153  17.615  1.00  0.00     0.177 C 
ATOM      5  C   UNL     1     -14.188  -5.722  17.997  1.00  0.00     0.178 C 
ATOM      6  O   UNL     1     -13.102  -5.765  18.912  1.00  0.00    -0.341 OA
ENDROOT
BRANCH   1   7
ATOM      7  O   UNL     1     -11.512  -5.621  17.214  1.00  0.00    -0.350 OA
BRANCH   7   8
ATOM      8  C   UNL     1     -10.185  -5.956  16.866  1.00  0.00     0.160 C 
ATOM      9  C   UNL     1      -9.228  -5.231  17.798  1.00  0.00     0.035 C 
ENDBRANCH   7   8
ENDBRANCH   1   7
BRANCH   2  10
ATOM     10  O   UNL     1     -12.484  -8.594  19.118  1.00  0.00    -0.385 OA
ATOM     11  H   UNL     1     -12.437  -7.966  19.885  1.00  0.00     0.211 HD
ENDBRANCH   2  10
BRANCH   3  12
ATOM     12  O   UNL     1     -13.135  -7.428  15.752  1.00  0.00    -0.387 OA
ATOM     13  H   UNL     1     -13.736  -6.656  15.590  1.00  0.00     0.211 HD
ENDBRANCH   3  12
BRANCH   5  14
ATOM     14  C   UNL     1     -15.340  -4.945  18.655  1.00  0.00     0.191 C 
BRANCH  14  15
ATOM     15  O   UNL     1     -16.278  -4.551  17.690  1.00  0.00    -0.394 OA
ATOM     16  H   UNL     1     -15.971  -3.675  17.337  1.00  0.00     0.210 HD
ENDBRANCH  14  15
ENDBRANCH   5  14
BRANCH   4  17
ATOM     17  O   UNL     1     -15.677  -7.107  16.669  1.00  0.00    -0.387 OA
ATOM     18  H   UNL     1     -15.743  -6.169  16.349  1.00  0.00     0.211 HD
ENDBRANCH   4  17
TORSDOF 7
ENDMDL
