MODEL 1
REMARK VINA RESULT:    -2.820      0.000      0.000
REMARK INTER + INTRA:          -4.920
REMARK INTER:                  -4.303
REMARK INTRA:                  -0.617
REMARK UNBOUND:                -0.617
REMARK SMILES CC(=O)CCC=C(C)CCC=C(C)CCC=C(C)C
REMARK SMILES IDX 10 1 11 2 12 3 13 4 14 5 15 6 16 7 18 8 17 9 19 10 9 11 7 12
REMARK SMILES IDX 6 13 8 14 5 15 4 16 2 17 3 18 1 19
REMARK H PARENT
REMARK Flexibility Score: inf
ROOT
ATOM      1  C   UNL     1      25.365 -10.416   6.141  1.00  0.00     0.032 C 
ENDROOT
BRANCH   1   2
ATOM      2  C   UNL     1      25.944 -10.363   7.534  1.00  0.00    -0.028 C 
ATOM      3  C   UNL     1      26.152 -11.436   8.330  1.00  0.00    -0.077 C 
ATOM      4  C   UNL     1      26.813 -11.216   9.666  1.00  0.00     0.039 C 
BRANCH   3   5
ATOM      5  C   UNL     1      25.736 -12.844   7.942  1.00  0.00     0.034 C 
BRANCH   5   6
ATOM      6  C   UNL     1      24.377 -12.863   7.226  1.00  0.00     0.032 C 
BRANCH   6   7
ATOM      7  C   UNL     1      23.241 -13.119   8.186  1.00  0.00    -0.028 C 
ATOM      8  C   UNL     1      21.762 -11.371   7.171  1.00  0.00     0.039 C 
ATOM      9  C   UNL     1      22.051 -12.480   8.154  1.00  0.00    -0.080 C 
ATOM     10  C   UNL     1      20.993 -12.884   9.150  1.00  0.00     0.039 C 
ENDBRANCH   6   7
ENDBRANCH   5   6
ENDBRANCH   3   5
ENDBRANCH   1   2
BRANCH   1  11
ATOM     11  C   UNL     1      26.441 -10.237   5.061  1.00  0.00     0.034 C 
BRANCH  11  12
ATOM     12  C   UNL     1      26.547 -11.456   4.160  1.00  0.00    -0.077 C 
ATOM     13  C   UNL     1      26.112 -11.485   2.879  1.00  0.00    -0.028 C 
ATOM     14  C   UNL     1      27.125 -12.722   4.740  1.00  0.00     0.039 C 
BRANCH  13  15
ATOM     15  C   UNL     1      25.536 -10.316   2.111  1.00  0.00     0.035 C 
BRANCH  15  16
ATOM     16  C   UNL     1      24.030 -10.490   1.882  1.00  0.00     0.079 C 
BRANCH  16  17
ATOM     17  C   UNL     1      23.421 -11.451   2.866  1.00  0.00     0.130 C 
ATOM     18  O   UNL     1      23.097 -11.058   3.977  1.00  0.00    -0.300 OA
ATOM     19  C   UNL     1      23.238 -12.894   2.505  1.00  0.00     0.087 C 
ENDBRANCH  16  17
ENDBRANCH  15  16
ENDBRANCH  13  15
ENDBRANCH  11  12
ENDBRANCH   1  11
TORSDOF 9
ENDMDL
MODEL 2
REMARK VINA RESULT:    -2.319      1.646      3.913
REMARK INTER + INTRA:          -4.156
REMARK INTER:                  -3.703
REMARK INTRA:                  -0.453
REMARK UNBOUND:                -0.617
REMARK SMILES CC(=O)CCC=C(C)CCC=C(C)CCC=C(C)C
REMARK SMILES IDX 10 1 11 2 12 3 13 4 14 5 15 6 16 7 18 8 17 9 19 10 9 11 7 12
REMARK SMILES IDX 6 13 8 14 5 15 4 16 2 17 3 18 1 19
REMARK H PARENT
REMARK Flexibility Score: inf
ROOT
ATOM      1  C   UNL     1      23.117 -10.827   5.049  1.00  0.00     0.032 C 
ENDROOT
BRANCH   1   2
ATOM      2  C   UNL     1      22.373 -11.211   6.305  1.00  0.00    -0.028 C 
ATOM      3  C   UNL     1      22.786 -12.137   7.200  1.00  0.00    -0.077 C 
ATOM      4  C   UNL     1      21.962 -12.343   8.445  1.00  0.00     0.039 C 
BRANCH   3   5
ATOM      5  C   UNL     1      24.030 -12.984   6.997  1.00  0.00     0.034 C 
BRANCH   5   6
ATOM      6  C   UNL     1      25.265 -12.123   6.692  1.00  0.00     0.032 C 
BRANCH   6   7
ATOM      7  C   UNL     1      25.726 -11.353   7.906  1.00  0.00    -0.028 C 
ATOM      8  C   UNL     1      25.298  -9.117   6.861  1.00  0.00     0.039 C 
ATOM      9  C   UNL     1      25.717 -10.006   8.008  1.00  0.00    -0.080 C 
ATOM     10  C   UNL     1      26.160  -9.382   9.308  1.00  0.00     0.039 C 
ENDBRANCH   6   7
ENDBRANCH   5   6
ENDBRANCH   3   5
ENDBRANCH   1   2
BRANCH   1  11
ATOM     11  C   UNL     1      23.277 -12.012   4.087  1.00  0.00     0.034 C 
BRANCH  11  12
ATOM     12  C   UNL     1      23.572 -11.555   2.669  1.00  0.00    -0.077 C 
ATOM     13  C   UNL     1      24.674 -11.922   1.974  1.00  0.00    -0.028 C 
ATOM     14  C   UNL     1      22.608 -10.599   2.013  1.00  0.00     0.039 C 
BRANCH  13  15
ATOM     15  C   UNL     1      25.736 -12.892   2.441  1.00  0.00     0.035 C 
BRANCH  15  16
ATOM     16  C   UNL     1      27.125 -12.241   2.433  1.00  0.00     0.079 C 
BRANCH  16  17
ATOM     17  C   UNL     1      27.068 -10.794   2.839  1.00  0.00     0.130 C 
ATOM     18  O   UNL     1      27.009  -9.925   1.981  1.00  0.00    -0.300 OA
ATOM     19  C   UNL     1      27.114 -10.408   4.286  1.00  0.00     0.087 C 
ENDBRANCH  16  17
ENDBRANCH  15  16
ENDBRANCH  13  15
ENDBRANCH  11  12
ENDBRANCH   1  11
TORSDOF 9
ENDMDL
MODEL 3
REMARK VINA RESULT:    -2.152      1.761      5.398
REMARK INTER + INTRA:          -3.901
REMARK INTER:                  -3.240
REMARK INTRA:                  -0.662
REMARK UNBOUND:                -0.617
REMARK SMILES CC(=O)CCC=C(C)CCC=C(C)CCC=C(C)C
REMARK SMILES IDX 10 1 11 2 12 3 13 4 14 5 15 6 16 7 18 8 17 9 19 10 9 11 7 12
REMARK SMILES IDX 6 13 8 14 5 15 4 16 2 17 3 18 1 19
REMARK H PARENT
REMARK Flexibility Score: inf
ROOT
ATOM      1  C   UNL     1      24.026 -13.116   7.805  1.00  0.00     0.032 C 
ENDROOT
BRANCH   1   2
ATOM      2  C   UNL     1      23.540 -11.982   6.935  1.00  0.00    -0.028 C 
ATOM      3  C   UNL     1      23.549 -11.982   5.583  1.00  0.00    -0.077 C 
ATOM      4  C   UNL     1      22.952 -10.798   4.866  1.00  0.00     0.039 C 
BRANCH   3   5
ATOM      5  C   UNL     1      24.145 -13.110   4.761  1.00  0.00     0.034 C 
BRANCH   5   6
ATOM      6  C   UNL     1      25.676 -13.010   4.677  1.00  0.00     0.032 C 
BRANCH   6   7
ATOM      7  C   UNL     1      26.116 -11.840   3.830  1.00  0.00    -0.028 C 
ATOM      8  C   UNL     1      24.572 -12.407   1.941  1.00  0.00     0.039 C 
ATOM      9  C   UNL     1      25.609 -11.539   2.615  1.00  0.00    -0.080 C 
ATOM     10  C   UNL     1      26.115 -10.305   1.911  1.00  0.00     0.039 C 
ENDBRANCH   6   7
ENDBRANCH   5   6
ENDBRANCH   3   5
ENDBRANCH   1   2
BRANCH   1  11
ATOM     11  C   UNL     1      25.046 -12.645   8.852  1.00  0.00     0.034 C 
BRANCH  11  12
ATOM     12  C   UNL     1      26.338 -12.171   8.210  1.00  0.00    -0.077 C 
ATOM     13  C   UNL     1      26.844 -10.925   8.368  1.00  0.00    -0.028 C 
ATOM     14  C   UNL     1      27.078 -13.125   7.307  1.00  0.00     0.039 C 
BRANCH  13  15
ATOM     15  C   UNL     1      26.271  -9.841   9.253  1.00  0.00     0.035 C 
BRANCH  15  16
ATOM     16  C   UNL     1      26.109  -8.524   8.485  1.00  0.00     0.079 C 
BRANCH  16  17
ATOM     17  C   UNL     1      25.663  -8.754   7.066  1.00  0.00     0.130 C 
ATOM     18  O   UNL     1      24.469  -8.810   6.808  1.00  0.00    -0.300 OA
ATOM     19  C   UNL     1      26.670  -8.947   5.974  1.00  0.00     0.087 C 
ENDBRANCH  16  17
ENDBRANCH  15  16
ENDBRANCH  13  15
ENDBRANCH  11  12
ENDBRANCH   1  11
TORSDOF 9
ENDMDL
MODEL 4
REMARK VINA RESULT:    -1.829      1.594      5.375
REMARK INTER + INTRA:          -3.409
REMARK INTER:                  -3.894
REMARK INTRA:                   0.485
REMARK UNBOUND:                -0.617
REMARK SMILES CC(=O)CCC=C(C)CCC=C(C)CCC=C(C)C
REMARK SMILES IDX 10 1 11 2 12 3 13 4 14 5 15 6 16 7 18 8 17 9 19 10 9 11 7 12
REMARK SMILES IDX 6 13 8 14 5 15 4 16 2 17 3 18 1 19
REMARK H PARENT
REMARK Flexibility Score: inf
ROOT
ATOM      1  C   UNL     1      24.737 -10.202   5.687  1.00  0.00     0.032 C 
ENDROOT
BRANCH   1   2
ATOM      2  C   UNL     1      25.462 -11.483   5.354  1.00  0.00    -0.028 C 
ATOM      3  C   UNL     1      26.451 -11.600   4.439  1.00  0.00    -0.077 C 
ATOM      4  C   UNL     1      27.125 -12.939   4.284  1.00  0.00     0.039 C 
BRANCH   3   5
ATOM      5  C   UNL     1      26.899 -10.449   3.555  1.00  0.00     0.034 C 
BRANCH   5   6
ATOM      6  C   UNL     1      26.393 -10.605   2.113  1.00  0.00     0.032 C 
BRANCH   6   7
ATOM      7  C   UNL     1      24.888 -10.514   2.033  1.00  0.00    -0.028 C 
ATOM      8  C   UNL     1      24.574 -12.996   1.917  1.00  0.00     0.039 C 
ATOM      9  C   UNL     1      24.058 -11.578   1.976  1.00  0.00    -0.080 C 
ATOM     10  C   UNL     1      22.571 -11.327   1.952  1.00  0.00     0.039 C 
ENDBRANCH   6   7
ENDBRANCH   5   6
ENDBRANCH   3   5
ENDBRANCH   1   2
BRANCH   1  11
ATOM     11  C   UNL     1      25.145  -9.647   7.059  1.00  0.00     0.034 C 
BRANCH  11  12
ATOM     12  C   UNL     1      25.855 -10.690   7.904  1.00  0.00    -0.077 C 
ATOM     13  C   UNL     1      25.390 -11.947   8.094  1.00  0.00    -0.028 C 
ATOM     14  C   UNL     1      27.125 -10.291   8.611  1.00  0.00     0.039 C 
BRANCH  13  15
ATOM     15  C   UNL     1      24.159 -12.546   7.450  1.00  0.00     0.035 C 
BRANCH  15  16
ATOM     16  C   UNL     1      23.155 -13.021   8.506  1.00  0.00     0.079 C 
BRANCH  16  17
ATOM     17  C   UNL     1      21.766 -12.512   8.228  1.00  0.00     0.130 C 
ATOM     18  O   UNL     1      20.824 -12.931   8.884  1.00  0.00    -0.300 OA
ATOM     19  C   UNL     1      21.527 -11.518   7.133  1.00  0.00     0.087 C 
ENDBRANCH  16  17
ENDBRANCH  15  16
ENDBRANCH  13  15
ENDBRANCH  11  12
ENDBRANCH   1  11
TORSDOF 9
ENDMDL
MODEL 5
REMARK VINA RESULT:    -1.782      1.569      4.521
REMARK INTER + INTRA:          -3.336
REMARK INTER:                  -5.150
REMARK INTRA:                   1.813
REMARK UNBOUND:                -0.617
REMARK SMILES CC(=O)CCC=C(C)CCC=C(C)CCC=C(C)C
REMARK SMILES IDX 10 1 11 2 12 3 13 4 14 5 15 6 16 7 18 8 17 9 19 10 9 11 7 12
REMARK SMILES IDX 6 13 8 14 5 15 4 16 2 17 3 18 1 19
REMARK H PARENT
REMARK Flexibility Score: inf
ROOT
ATOM      1  C   UNL     1      25.354 -10.545   2.781  1.00  0.00     0.032 C 
ENDROOT
BRANCH   1   2
ATOM      2  C   UNL     1      24.237 -11.449   2.317  1.00  0.00    -0.028 C 
ATOM      3  C   UNL     1      23.421 -12.155   3.132  1.00  0.00    -0.077 C 
ATOM      4  C   UNL     1      22.303 -12.949   2.507  1.00  0.00     0.039 C 
BRANCH   3   5
ATOM      5  C   UNL     1      23.592 -12.194   4.640  1.00  0.00     0.034 C 
BRANCH   5   6
ATOM      6  C   UNL     1      23.024 -10.935   5.313  1.00  0.00     0.032 C 
BRANCH   6   7
ATOM      7  C   UNL     1      22.005 -11.276   6.373  1.00  0.00    -0.028 C 
ATOM      8  C   UNL     1      23.647 -12.527   7.791  1.00  0.00     0.039 C 
ATOM      9  C   UNL     1      22.275 -11.963   7.504  1.00  0.00    -0.080 C 
ATOM     10  C   UNL     1      21.160 -12.181   8.495  1.00  0.00     0.039 C 
ENDBRANCH   6   7
ENDBRANCH   5   6
ENDBRANCH   3   5
ENDBRANCH   1   2
BRANCH   1  11
ATOM     11  C   UNL     1      25.741 -10.808   4.243  1.00  0.00     0.034 C 
BRANCH  11  12
ATOM     12  C   UNL     1      26.614 -12.043   4.384  1.00  0.00    -0.077 C 
ATOM     13  C   UNL     1      27.121 -12.475   5.563  1.00  0.00    -0.028 C 
ATOM     14  C   UNL     1      26.975 -12.807   3.136  1.00  0.00     0.039 C 
BRANCH  13  15
ATOM     15  C   UNL     1      26.850 -11.869   6.921  1.00  0.00     0.035 C 
BRANCH  15  16
ATOM     16  C   UNL     1      26.874 -10.337   6.861  1.00  0.00     0.079 C 
BRANCH  16  17
ATOM     17  C   UNL     1      25.996  -9.721   7.917  1.00  0.00     0.130 C 
ATOM     18  O   UNL     1      24.955  -9.167   7.592  1.00  0.00    -0.300 OA
ATOM     19  C   UNL     1      26.402  -9.755   9.358  1.00  0.00     0.087 C 
ENDBRANCH  16  17
ENDBRANCH  15  16
ENDBRANCH  13  15
ENDBRANCH  11  12
ENDBRANCH   1  11
TORSDOF 9
ENDMDL
MODEL 6
REMARK VINA RESULT:    -1.641      1.850      3.621
REMARK INTER + INTRA:          -3.121
REMARK INTER:                  -3.082
REMARK INTRA:                  -0.039
REMARK UNBOUND:                -0.617
REMARK SMILES CC(=O)CCC=C(C)CCC=C(C)CCC=C(C)C
REMARK SMILES IDX 10 1 11 2 12 3 13 4 14 5 15 6 16 7 18 8 17 9 19 10 9 11 7 12
REMARK SMILES IDX 6 13 8 14 5 15 4 16 2 17 3 18 1 19
REMARK H PARENT
REMARK Flexibility Score: inf
ROOT
ATOM      1  C   UNL     1      24.033 -10.178   6.984  1.00  0.00     0.032 C 
ENDROOT
BRANCH   1   2
ATOM      2  C   UNL     1      25.039  -9.051   6.977  1.00  0.00    -0.028 C 
ATOM      3  C   UNL     1      26.209  -9.061   6.301  1.00  0.00    -0.077 C 
ATOM      4  C   UNL     1      27.064  -7.819   6.338  1.00  0.00     0.039 C 
BRANCH   3   5
ATOM      5  C   UNL     1      26.705 -10.266   5.522  1.00  0.00     0.034 C 
BRANCH   5   6
ATOM      6  C   UNL     1      27.123 -11.415   6.452  1.00  0.00     0.032 C 
BRANCH   6   7
ATOM      7  C   UNL     1      27.125 -10.991   7.902  1.00  0.00    -0.028 C 
ATOM      8  C   UNL     1      26.087 -13.125   8.705  1.00  0.00     0.039 C 
ATOM      9  C   UNL     1      26.692 -11.758   8.926  1.00  0.00    -0.080 C 
ATOM     10  C   UNL     1      26.806 -11.214  10.327  1.00  0.00     0.039 C 
ENDBRANCH   6   7
ENDBRANCH   5   6
ENDBRANCH   3   5
ENDBRANCH   1   2
BRANCH   1  11
ATOM     11  C   UNL     1      23.596 -10.571   5.567  1.00  0.00     0.034 C 
BRANCH  11  12
ATOM     12  C   UNL     1      23.636 -12.075   5.358  1.00  0.00    -0.077 C 
ATOM     13  C   UNL     1      23.533 -12.670   4.147  1.00  0.00    -0.028 C 
ATOM     14  C   UNL     1      23.749 -12.960   6.573  1.00  0.00     0.039 C 
BRANCH  13  15
ATOM     15  C   UNL     1      23.446 -11.960   2.814  1.00  0.00     0.035 C 
BRANCH  15  16
ATOM     16  C   UNL     1      24.426 -10.783   2.746  1.00  0.00     0.079 C 
BRANCH  16  17
ATOM     17  C   UNL     1      25.787 -11.214   2.270  1.00  0.00     0.130 C 
ATOM     18  O   UNL     1      26.623 -10.370   1.984  1.00  0.00    -0.300 OA
ATOM     19  C   UNL     1      26.113 -12.668   2.116  1.00  0.00     0.087 C 
ENDBRANCH  16  17
ENDBRANCH  15  16
ENDBRANCH  13  15
ENDBRANCH  11  12
ENDBRANCH   1  11
TORSDOF 9
ENDMDL
MODEL 7
REMARK VINA RESULT:    -0.918      1.278      2.050
REMARK INTER + INTRA:          -2.018
REMARK INTER:                  -1.574
REMARK INTRA:                  -0.444
REMARK UNBOUND:                -0.617
REMARK SMILES CC(=O)CCC=C(C)CCC=C(C)CCC=C(C)C
REMARK SMILES IDX 10 1 11 2 12 3 13 4 14 5 15 6 16 7 18 8 17 9 19 10 9 11 7 12
REMARK SMILES IDX 6 13 8 14 5 15 4 16 2 17 3 18 1 19
REMARK H PARENT
REMARK Flexibility Score: inf
ROOT
ATOM      1  C   UNL     1      26.100  -9.505   5.110  1.00  0.00     0.032 C 
ENDROOT
BRANCH   1   2
ATOM      2  C   UNL     1      26.476  -9.331   6.562  1.00  0.00    -0.028 C 
ATOM      3  C   UNL     1      26.498 -10.322   7.481  1.00  0.00    -0.077 C 
ATOM      4  C   UNL     1      26.975  -9.993   8.873  1.00  0.00     0.039 C 
BRANCH   3   5
ATOM      5  C   UNL     1      26.052 -11.742   7.178  1.00  0.00     0.034 C 
BRANCH   5   6
ATOM      6  C   UNL     1      24.816 -12.140   7.999  1.00  0.00     0.032 C 
BRANCH   6   7
ATOM      7  C   UNL     1      23.541 -11.616   7.383  1.00  0.00    -0.028 C 
ATOM      8  C   UNL     1      22.063 -13.061   8.796  1.00  0.00     0.039 C 
ATOM      9  C   UNL     1      22.299 -11.997   7.751  1.00  0.00    -0.080 C 
ATOM     10  C   UNL     1      21.119 -11.343   7.077  1.00  0.00     0.039 C 
ENDBRANCH   6   7
ENDBRANCH   5   6
ENDBRANCH   3   5
ENDBRANCH   1   2
BRANCH   1  11
ATOM     11  C   UNL     1      27.125 -10.353   4.344  1.00  0.00     0.034 C 
BRANCH  11  12
ATOM     12  C   UNL     1      26.719 -10.561   2.895  1.00  0.00    -0.077 C 
ATOM     13  C   UNL     1      26.126 -11.687   2.435  1.00  0.00    -0.028 C 
ATOM     14  C   UNL     1      27.037  -9.472   1.903  1.00  0.00     0.039 C 
BRANCH  13  15
ATOM     15  C   UNL     1      25.698 -12.871   3.272  1.00  0.00     0.035 C 
BRANCH  15  16
ATOM     16  C   UNL     1      24.210 -12.790   3.630  1.00  0.00     0.079 C 
BRANCH  16  17
ATOM     17  C   UNL     1      23.404 -12.151   2.532  1.00  0.00     0.130 C 
ATOM     18  O   UNL     1      22.629 -12.832   1.875  1.00  0.00    -0.300 OA
ATOM     19  C   UNL     1      23.565 -10.695   2.219  1.00  0.00     0.087 C 
ENDBRANCH  16  17
ENDBRANCH  15  16
ENDBRANCH  13  15
ENDBRANCH  11  12
ENDBRANCH   1  11
TORSDOF 9
ENDMDL
MODEL 8
REMARK VINA RESULT:    -0.899      1.587      4.178
REMARK INTER + INTRA:          -1.990
REMARK INTER:                  -1.213
REMARK INTRA:                  -0.777
REMARK UNBOUND:                -0.617
REMARK SMILES CC(=O)CCC=C(C)CCC=C(C)CCC=C(C)C
REMARK SMILES IDX 10 1 11 2 12 3 13 4 14 5 15 6 16 7 18 8 17 9 19 10 9 11 7 12
REMARK SMILES IDX 6 13 8 14 5 15 4 16 2 17 3 18 1 19
REMARK H PARENT
REMARK Flexibility Score: inf
ROOT
ATOM      1  C   UNL     1      25.090 -12.131   7.270  1.00  0.00     0.032 C 
ENDROOT
BRANCH   1   2
ATOM      2  C   UNL     1      25.938 -12.707   8.379  1.00  0.00    -0.028 C 
ATOM      3  C   UNL     1      26.341 -12.031   9.478  1.00  0.00    -0.077 C 
ATOM      4  C   UNL     1      27.119 -12.779  10.530  1.00  0.00     0.039 C 
BRANCH   3   5
ATOM      5  C   UNL     1      26.060 -10.554   9.689  1.00  0.00     0.034 C 
BRANCH   5   6
ATOM      6  C   UNL     1      27.115  -9.668   9.009  1.00  0.00     0.032 C 
BRANCH   6   7
ATOM      7  C   UNL     1      27.122  -9.855   7.510  1.00  0.00    -0.028 C 
ATOM      8  C   UNL     1      25.442  -8.043   7.104  1.00  0.00     0.039 C 
ATOM      9  C   UNL     1      26.401  -9.114   6.642  1.00  0.00    -0.080 C 
ATOM     10  C   UNL     1      26.555  -9.387   5.166  1.00  0.00     0.039 C 
ENDBRANCH   6   7
ENDBRANCH   5   6
ENDBRANCH   3   5
ENDBRANCH   1   2
BRANCH   1  11
ATOM     11  C   UNL     1      23.756 -12.874   7.117  1.00  0.00     0.034 C 
BRANCH  11  12
ATOM     12  C   UNL     1      22.657 -11.963   6.597  1.00  0.00    -0.077 C 
ATOM     13  C   UNL     1      22.488 -11.659   5.288  1.00  0.00    -0.028 C 
ATOM     14  C   UNL     1      21.731 -11.320   7.597  1.00  0.00     0.039 C 
BRANCH  13  15
ATOM     15  C   UNL     1      23.288 -12.223   4.136  1.00  0.00     0.035 C 
BRANCH  15  16
ATOM     16  C   UNL     1      24.450 -11.296   3.760  1.00  0.00     0.079 C 
BRANCH  16  17
ATOM     17  C   UNL     1      25.602 -12.056   3.160  1.00  0.00     0.130 C 
ATOM     18  O   UNL     1      25.946 -11.828   2.010  1.00  0.00    -0.300 OA
ATOM     19  C   UNL     1      26.311 -13.112   3.953  1.00  0.00     0.087 C 
ENDBRANCH  16  17
ENDBRANCH  15  16
ENDBRANCH  13  15
ENDBRANCH  11  12
ENDBRANCH   1  11
TORSDOF 9
ENDMDL
MODEL 9
REMARK VINA RESULT:    -0.789      1.426      2.244
REMARK INTER + INTRA:          -1.822
REMARK INTER:                  -3.219
REMARK INTRA:                   1.398
REMARK UNBOUND:                -0.617
REMARK SMILES CC(=O)CCC=C(C)CCC=C(C)CCC=C(C)C
REMARK SMILES IDX 10 1 11 2 12 3 13 4 14 5 15 6 16 7 18 8 17 9 19 10 9 11 7 12
REMARK SMILES IDX 6 13 8 14 5 15 4 16 2 17 3 18 1 19
REMARK H PARENT
REMARK Flexibility Score: inf
ROOT
ATOM      1  C   UNL     1      24.090 -10.151   6.099  1.00  0.00     0.032 C 
ENDROOT
BRANCH   1   2
ATOM      2  C   UNL     1      25.120  -9.647   7.081  1.00  0.00    -0.028 C 
ATOM      3  C   UNL     1      25.872 -10.429   7.887  1.00  0.00    -0.077 C 
ATOM      4  C   UNL     1      26.912  -9.768   8.754  1.00  0.00     0.039 C 
BRANCH   3   5
ATOM      5  C   UNL     1      25.704 -11.936   7.968  1.00  0.00     0.034 C 
BRANCH   5   6
ATOM      6  C   UNL     1      24.440 -12.410   7.234  1.00  0.00     0.032 C 
BRANCH   6   7
ATOM      7  C   UNL     1      23.358 -12.834   8.198  1.00  0.00    -0.028 C 
ATOM      8  C   UNL     1      21.625 -11.343   7.175  1.00  0.00     0.039 C 
ATOM      9  C   UNL     1      22.083 -12.387   8.165  1.00  0.00    -0.080 C 
ATOM     10  C   UNL     1      21.102 -12.944   9.166  1.00  0.00     0.039 C 
ENDBRANCH   6   7
ENDBRANCH   5   6
ENDBRANCH   3   5
ENDBRANCH   1   2
BRANCH   1  11
ATOM     11  C   UNL     1      24.429  -9.760   4.654  1.00  0.00     0.034 C 
BRANCH  11  12
ATOM     12  C   UNL     1      24.124 -10.883   3.677  1.00  0.00    -0.077 C 
ATOM     13  C   UNL     1      24.717 -11.008   2.466  1.00  0.00    -0.028 C 
ATOM     14  C   UNL     1      23.067 -11.888   4.054  1.00  0.00     0.039 C 
BRANCH  13  15
ATOM     15  C   UNL     1      25.818 -10.125   1.921  1.00  0.00     0.035 C 
BRANCH  15  16
ATOM     16  C   UNL     1      27.125 -10.324   2.698  1.00  0.00     0.079 C 
BRANCH  16  17
ATOM     17  C   UNL     1      27.100 -11.580   3.525  1.00  0.00     0.130 C 
ATOM     18  O   UNL     1      27.092 -11.502   4.745  1.00  0.00    -0.300 OA
ATOM     19  C   UNL     1      27.115 -12.925   2.866  1.00  0.00     0.087 C 
ENDBRANCH  16  17
ENDBRANCH  15  16
ENDBRANCH  13  15
ENDBRANCH  11  12
ENDBRANCH   1  11
TORSDOF 9
ENDMDL
