MODEL 1
REMARK VINA RESULT:    -4.259      0.000      0.000
REMARK INTER + INTRA:          -9.631
REMARK INTER:                  -7.744
REMARK INTRA:                  -1.886
REMARK UNBOUND:                -1.886
REMARK SMILES CCCCCCCCCCCCCCCC(=O)[O-]
REMARK SMILES IDX 9 1 10 2 11 3 12 4 13 5 14 6 15 7 16 8 17 9 18 10 8 11 7 12
REMARK SMILES IDX 6 13 5 14 4 15 3 16 2 17 1 18
REMARK H PARENT
REMARK Flexibility Score: inf
ROOT
ATOM      1  C   UNL     1     -10.820  -7.128 -11.167  1.00  0.00     0.000 C 
ENDROOT
BRANCH   1   2
ATOM      2  C   UNL     1     -10.156  -7.830 -12.361  1.00  0.00     0.000 C 
BRANCH   2   3
ATOM      3  C   UNL     1     -10.577  -7.225 -13.711  1.00  0.00     0.000 C 
BRANCH   3   4
ATOM      4  C   UNL     1      -9.374  -6.812 -14.576  1.00  0.00     0.000 C 
BRANCH   4   5
ATOM      5  C   UNL     1      -8.028  -7.109 -13.899  1.00  0.00     0.000 C 
BRANCH   5   6
ATOM      6  C   UNL     1      -7.053  -5.935 -14.079  1.00  0.00     0.006 C 
BRANCH   6   7
ATOM      7  C   UNL     1      -7.726  -4.578 -13.833  1.00  0.00     0.053 C 
BRANCH   7   8
ATOM      8  C   UNL     1      -6.751  -3.554 -13.339  1.00  0.00     0.041 C 
ATOM      9  O   UNL     1      -7.156  -2.420 -12.971  1.00  0.00    -0.550 OA
ATOM     10  O   UNL     1      -5.400  -3.864 -13.252  1.00  0.00    -0.550 OA
ENDBRANCH   7   8
ENDBRANCH   6   7
ENDBRANCH   5   6
ENDBRANCH   4   5
ENDBRANCH   3   4
ENDBRANCH   2   3
ENDBRANCH   1   2
BRANCH   1  11
ATOM     11  C   UNL     1      -9.801  -6.646 -10.118  1.00  0.00     0.000 C 
BRANCH  11  12
ATOM     12  C   UNL     1      -8.476  -7.422 -10.179  1.00  0.00    -0.000 C 
BRANCH  12  13
ATOM     13  C   UNL     1      -7.256  -6.496 -10.323  1.00  0.00    -0.000 C 
BRANCH  13  14
ATOM     14  C   UNL     1      -7.630  -5.007 -10.228  1.00  0.00    -0.000 C 
BRANCH  14  15
ATOM     15  C   UNL     1      -6.407  -4.105  -9.985  1.00  0.00    -0.000 C 
BRANCH  15  16
ATOM     16  C   UNL     1      -6.206  -3.768  -8.499  1.00  0.00    -0.000 C 
BRANCH  16  17
ATOM     17  C   UNL     1      -4.802  -4.132  -7.994  1.00  0.00    -0.003 C 
ATOM     18  C   UNL     1      -4.737  -5.594  -7.562  1.00  0.00     0.004 C 
ENDBRANCH  16  17
ENDBRANCH  15  16
ENDBRANCH  14  15
ENDBRANCH  13  14
ENDBRANCH  12  13
ENDBRANCH  11  12
ENDBRANCH   1  11
TORSDOF 14
ENDMDL
MODEL 2
REMARK VINA RESULT:    -4.084     13.403     15.683
REMARK INTER + INTRA:          -9.313
REMARK INTER:                  -8.069
REMARK INTRA:                  -1.245
REMARK UNBOUND:                -1.886
REMARK SMILES CCCCCCCCCCCCCCCC(=O)[O-]
REMARK SMILES IDX 9 1 10 2 11 3 12 4 13 5 14 6 15 7 16 8 17 9 18 10 8 11 7 12
REMARK SMILES IDX 6 13 5 14 4 15 3 16 2 17 1 18
REMARK H PARENT
REMARK Flexibility Score: inf
ROOT
ATOM      1  C   UNL     1       4.351  -1.964 -14.860  1.00  0.00     0.000 C 
ENDROOT
BRANCH   1   2
ATOM      2  C   UNL     1       3.620  -1.135 -13.792  1.00  0.00     0.000 C 
BRANCH   2   3
ATOM      3  C   UNL     1       4.388   0.141 -13.407  1.00  0.00     0.000 C 
BRANCH   3   4
ATOM      4  C   UNL     1       5.703   0.299 -14.188  1.00  0.00     0.000 C 
BRANCH   4   5
ATOM      5  C   UNL     1       6.945   0.116 -13.304  1.00  0.00     0.000 C 
BRANCH   5   6
ATOM      6  C   UNL     1       7.813   1.384 -13.308  1.00  0.00     0.006 C 
BRANCH   6   7
ATOM      7  C   UNL     1       8.782   1.430 -12.120  1.00  0.00     0.053 C 
BRANCH   7   8
ATOM      8  C   UNL     1       8.539   2.624 -11.248  1.00  0.00     0.041 C 
ATOM      9  O   UNL     1       8.862   2.595 -10.032  1.00  0.00    -0.550 OA
ATOM     10  O   UNL     1       7.990   3.780 -11.788  1.00  0.00    -0.550 OA
ENDBRANCH   7   8
ENDBRANCH   6   7
ENDBRANCH   5   6
ENDBRANCH   4   5
ENDBRANCH   3   4
ENDBRANCH   2   3
ENDBRANCH   1   2
BRANCH   1  11
ATOM     11  C   UNL     1       4.808  -3.338 -14.337  1.00  0.00     0.000 C 
BRANCH  11  12
ATOM     12  C   UNL     1       5.147  -3.318 -12.838  1.00  0.00    -0.000 C 
BRANCH  12  13
ATOM     13  C   UNL     1       6.467  -4.044 -12.523  1.00  0.00    -0.000 C 
BRANCH  13  14
ATOM     14  C   UNL     1       7.473  -3.145 -11.785  1.00  0.00    -0.000 C 
BRANCH  14  15
ATOM     15  C   UNL     1       8.690  -3.927 -11.259  1.00  0.00    -0.000 C 
BRANCH  15  16
ATOM     16  C   UNL     1       8.295  -5.252 -10.587  1.00  0.00    -0.000 C 
BRANCH  16  17
ATOM     17  C   UNL     1       8.807  -5.359  -9.142  1.00  0.00    -0.003 C 
ATOM     18  C   UNL     1       8.361  -4.157  -8.313  1.00  0.00     0.004 C 
ENDBRANCH  16  17
ENDBRANCH  15  16
ENDBRANCH  14  15
ENDBRANCH  13  14
ENDBRANCH  12  13
ENDBRANCH  11  12
ENDBRANCH   1  11
TORSDOF 14
ENDMDL
MODEL 3
REMARK VINA RESULT:    -4.039      0.805      1.598
REMARK INTER + INTRA:          -9.231
REMARK INTER:                  -7.423
REMARK INTRA:                  -1.808
REMARK UNBOUND:                -1.886
REMARK SMILES CCCCCCCCCCCCCCCC(=O)[O-]
REMARK SMILES IDX 9 1 10 2 11 3 12 4 13 5 14 6 15 7 16 8 17 9 18 10 8 11 7 12
REMARK SMILES IDX 6 13 5 14 4 15 3 16 2 17 1 18
REMARK H PARENT
REMARK Flexibility Score: inf
ROOT
ATOM      1  C   UNL     1     -10.311  -7.150 -12.721  1.00  0.00     0.000 C 
ENDROOT
BRANCH   1   2
ATOM      2  C   UNL     1      -9.841  -8.124 -13.811  1.00  0.00     0.000 C 
BRANCH   2   3
ATOM      3  C   UNL     1      -8.455  -7.760 -14.372  1.00  0.00     0.000 C 
BRANCH   3   4
ATOM      4  C   UNL     1      -7.344  -7.862 -13.314  1.00  0.00     0.000 C 
BRANCH   4   5
ATOM      5  C   UNL     1      -6.393  -6.657 -13.335  1.00  0.00     0.000 C 
BRANCH   5   6
ATOM      6  C   UNL     1      -6.823  -5.637 -14.400  1.00  0.00     0.006 C 
BRANCH   6   7
ATOM      7  C   UNL     1      -7.568  -4.441 -13.793  1.00  0.00     0.053 C 
BRANCH   7   8
ATOM      8  C   UNL     1      -6.628  -3.464 -13.157  1.00  0.00     0.041 C 
ATOM      9  O   UNL     1      -7.079  -2.480 -12.512  1.00  0.00    -0.550 OA
ATOM     10  O   UNL     1      -5.256  -3.659 -13.244  1.00  0.00    -0.550 OA
ENDBRANCH   7   8
ENDBRANCH   6   7
ENDBRANCH   5   6
ENDBRANCH   4   5
ENDBRANCH   3   4
ENDBRANCH   2   3
ENDBRANCH   1   2
BRANCH   1  11
ATOM     11  C   UNL     1     -10.620  -7.854 -11.387  1.00  0.00     0.000 C 
BRANCH  11  12
ATOM     12  C   UNL     1      -9.919  -7.192 -10.191  1.00  0.00    -0.000 C 
BRANCH  12  13
ATOM     13  C   UNL     1      -8.591  -7.881  -9.832  1.00  0.00    -0.000 C 
BRANCH  13  14
ATOM     14  C   UNL     1      -7.390  -6.923  -9.904  1.00  0.00    -0.000 C 
BRANCH  14  15
ATOM     15  C   UNL     1      -7.805  -5.477 -10.229  1.00  0.00    -0.000 C 
BRANCH  15  16
ATOM     16  C   UNL     1      -6.767  -4.445  -9.761  1.00  0.00    -0.000 C 
BRANCH  16  17
ATOM     17  C   UNL     1      -5.713  -5.050  -8.820  1.00  0.00    -0.003 C 
ATOM     18  C   UNL     1      -5.142  -3.989  -7.883  1.00  0.00     0.004 C 
ENDBRANCH  16  17
ENDBRANCH  15  16
ENDBRANCH  14  15
ENDBRANCH  13  14
ENDBRANCH  12  13
ENDBRANCH  11  12
ENDBRANCH   1  11
TORSDOF 14
ENDMDL
MODEL 4
REMARK VINA RESULT:    -4.027      0.784      1.462
REMARK INTER + INTRA:          -9.209
REMARK INTER:                  -7.147
REMARK INTRA:                  -2.062
REMARK UNBOUND:                -1.886
REMARK SMILES CCCCCCCCCCCCCCCC(=O)[O-]
REMARK SMILES IDX 9 1 10 2 11 3 12 4 13 5 14 6 15 7 16 8 17 9 18 10 8 11 7 12
REMARK SMILES IDX 6 13 5 14 4 15 3 16 2 17 1 18
REMARK H PARENT
REMARK Flexibility Score: inf
ROOT
ATOM      1  C   UNL     1     -10.887  -7.023 -11.858  1.00  0.00     0.000 C 
ENDROOT
BRANCH   1   2
ATOM      2  C   UNL     1     -11.116  -8.010 -13.013  1.00  0.00     0.000 C 
BRANCH   2   3
ATOM      3  C   UNL     1     -10.090  -7.841 -14.147  1.00  0.00     0.000 C 
BRANCH   3   4
ATOM      4  C   UNL     1      -9.055  -6.743 -13.850  1.00  0.00     0.000 C 
BRANCH   4   5
ATOM      5  C   UNL     1      -7.610  -7.256 -13.918  1.00  0.00     0.000 C 
BRANCH   5   6
ATOM      6  C   UNL     1      -6.610  -6.116 -13.669  1.00  0.00     0.006 C 
BRANCH   6   7
ATOM      7  C   UNL     1      -7.232  -4.734 -13.913  1.00  0.00     0.053 C 
BRANCH   7   8
ATOM      8  C   UNL     1      -6.428  -3.642 -13.277  1.00  0.00     0.041 C 
ATOM      9  O   UNL     1      -5.171  -3.658 -13.348  1.00  0.00    -0.550 OA
ATOM     10  O   UNL     1      -7.068  -2.589 -12.636  1.00  0.00    -0.550 OA
ENDBRANCH   7   8
ENDBRANCH   6   7
ENDBRANCH   5   6
ENDBRANCH   4   5
ENDBRANCH   3   4
ENDBRANCH   2   3
ENDBRANCH   1   2
BRANCH   1  11
ATOM     11  C   UNL     1     -11.017  -7.686 -10.475  1.00  0.00     0.000 C 
BRANCH  11  12
ATOM     12  C   UNL     1      -9.750  -7.526  -9.620  1.00  0.00    -0.000 C 
BRANCH  12  13
ATOM     13  C   UNL     1      -8.478  -7.967 -10.363  1.00  0.00    -0.000 C 
BRANCH  13  14
ATOM     14  C   UNL     1      -7.317  -6.973 -10.190  1.00  0.00    -0.000 C 
BRANCH  14  15
ATOM     15  C   UNL     1      -7.755  -5.512 -10.394  1.00  0.00    -0.000 C 
BRANCH  15  16
ATOM     16  C   UNL     1      -6.783  -4.509  -9.750  1.00  0.00    -0.000 C 
BRANCH  16  17
ATOM     17  C   UNL     1      -5.818  -5.175  -8.757  1.00  0.00    -0.003 C 
ATOM     18  C   UNL     1      -5.034  -4.128  -7.970  1.00  0.00     0.004 C 
ENDBRANCH  16  17
ENDBRANCH  15  16
ENDBRANCH  14  15
ENDBRANCH  13  14
ENDBRANCH  12  13
ENDBRANCH  11  12
ENDBRANCH   1  11
TORSDOF 14
ENDMDL
MODEL 5
REMARK VINA RESULT:    -3.617      2.523      4.259
REMARK INTER + INTRA:          -8.463
REMARK INTER:                  -7.173
REMARK INTRA:                  -1.289
REMARK UNBOUND:                -1.886
REMARK SMILES CCCCCCCCCCCCCCCC(=O)[O-]
REMARK SMILES IDX 9 1 10 2 11 3 12 4 13 5 14 6 15 7 16 8 17 9 18 10 8 11 7 12
REMARK SMILES IDX 6 13 5 14 4 15 3 16 2 17 1 18
REMARK H PARENT
REMARK Flexibility Score: inf
ROOT
ATOM      1  C   UNL     1      -7.025  -5.115 -14.512  1.00  0.00     0.000 C 
ENDROOT
BRANCH   1   2
ATOM      2  C   UNL     1      -8.443  -5.558 -14.119  1.00  0.00     0.000 C 
BRANCH   2   3
ATOM      3  C   UNL     1      -8.658  -7.071 -14.293  1.00  0.00     0.000 C 
BRANCH   3   4
ATOM      4  C   UNL     1      -9.080  -7.762 -12.986  1.00  0.00     0.000 C 
BRANCH   4   5
ATOM      5  C   UNL     1     -10.602  -7.938 -12.873  1.00  0.00     0.000 C 
BRANCH   5   6
ATOM      6  C   UNL     1     -11.025  -8.119 -11.407  1.00  0.00     0.006 C 
BRANCH   6   7
ATOM      7  C   UNL     1     -10.020  -7.496 -10.430  1.00  0.00     0.053 C 
BRANCH   7   8
ATOM      8  C   UNL     1     -10.705  -6.745  -9.330  1.00  0.00     0.041 C 
ATOM      9  O   UNL     1     -11.028  -5.539  -9.493  1.00  0.00    -0.550 OA
ATOM     10  O   UNL     1     -11.018  -7.386  -8.138  1.00  0.00    -0.550 OA
ENDBRANCH   7   8
ENDBRANCH   6   7
ENDBRANCH   5   6
ENDBRANCH   4   5
ENDBRANCH   3   4
ENDBRANCH   2   3
ENDBRANCH   1   2
BRANCH   1  11
ATOM     11  C   UNL     1      -6.192  -4.648 -13.304  1.00  0.00     0.000 C 
BRANCH  11  12
ATOM     12  C   UNL     1      -6.632  -3.273 -12.778  1.00  0.00    -0.000 C 
BRANCH  12  13
ATOM     13  C   UNL     1      -6.897  -3.279 -11.263  1.00  0.00    -0.000 C 
BRANCH  13  14
ATOM     14  C   UNL     1      -7.168  -4.690 -10.716  1.00  0.00    -0.000 C 
BRANCH  14  15
ATOM     15  C   UNL     1      -6.285  -5.035  -9.503  1.00  0.00    -0.000 C 
BRANCH  15  16
ATOM     16  C   UNL     1      -5.894  -3.793  -8.685  1.00  0.00    -0.000 C 
BRANCH  16  17
ATOM     17  C   UNL     1      -4.752  -4.072  -7.696  1.00  0.00    -0.003 C 
ATOM     18  C   UNL     1      -4.594  -5.570  -7.450  1.00  0.00     0.004 C 
ENDBRANCH  16  17
ENDBRANCH  15  16
ENDBRANCH  14  15
ENDBRANCH  13  14
ENDBRANCH  12  13
ENDBRANCH  11  12
ENDBRANCH   1  11
TORSDOF 14
ENDMDL
MODEL 6
REMARK VINA RESULT:    -3.345      1.036      1.521
REMARK INTER + INTRA:          -7.969
REMARK INTER:                  -6.486
REMARK INTRA:                  -1.483
REMARK UNBOUND:                -1.886
REMARK SMILES CCCCCCCCCCCCCCCC(=O)[O-]
REMARK SMILES IDX 9 1 10 2 11 3 12 4 13 5 14 6 15 7 16 8 17 9 18 10 8 11 7 12
REMARK SMILES IDX 6 13 5 14 4 15 3 16 2 17 1 18
REMARK H PARENT
REMARK Flexibility Score: inf
ROOT
ATOM      1  C   UNL     1      -9.840  -8.125 -10.894  1.00  0.00     0.000 C 
ENDROOT
BRANCH   1   2
ATOM      2  C   UNL     1      -8.944  -8.027 -12.138  1.00  0.00     0.000 C 
BRANCH   2   3
ATOM      3  C   UNL     1      -7.446  -8.118 -11.796  1.00  0.00     0.000 C 
BRANCH   3   4
ATOM      4  C   UNL     1      -6.546  -7.634 -12.945  1.00  0.00     0.000 C 
BRANCH   4   5
ATOM      5  C   UNL     1      -7.337  -7.306 -14.220  1.00  0.00     0.000 C 
BRANCH   5   6
ATOM      6  C   UNL     1      -7.133  -5.840 -14.630  1.00  0.00     0.006 C 
BRANCH   6   7
ATOM      7  C   UNL     1      -7.704  -4.862 -13.595  1.00  0.00     0.053 C 
BRANCH   7   8
ATOM      8  C   UNL     1      -6.713  -3.801 -13.225  1.00  0.00     0.041 C 
ATOM      9  O   UNL     1      -7.111  -2.660 -12.869  1.00  0.00    -0.550 OA
ATOM     10  O   UNL     1      -5.354  -4.082 -13.240  1.00  0.00    -0.550 OA
ENDBRANCH   7   8
ENDBRANCH   6   7
ENDBRANCH   5   6
ENDBRANCH   4   5
ENDBRANCH   3   4
ENDBRANCH   2   3
ENDBRANCH   1   2
BRANCH   1  11
ATOM     11  C   UNL     1     -10.632  -6.831 -10.628  1.00  0.00     0.000 C 
BRANCH  11  12
ATOM     12  C   UNL     1      -9.975  -5.944  -9.560  1.00  0.00    -0.000 C 
BRANCH  12  13
ATOM     13  C   UNL     1      -8.876  -5.037 -10.141  1.00  0.00    -0.000 C 
BRANCH  13  14
ATOM     14  C   UNL     1      -7.464  -5.473  -9.716  1.00  0.00    -0.000 C 
BRANCH  14  15
ATOM     15  C   UNL     1      -6.428  -4.344  -9.861  1.00  0.00    -0.000 C 
BRANCH  15  16
ATOM     16  C   UNL     1      -6.087  -3.678  -8.518  1.00  0.00    -0.000 C 
BRANCH  16  17
ATOM     17  C   UNL     1      -4.717  -4.110  -7.974  1.00  0.00    -0.003 C 
ATOM     18  C   UNL     1      -4.732  -5.578  -7.555  1.00  0.00     0.004 C 
ENDBRANCH  16  17
ENDBRANCH  15  16
ENDBRANCH  14  15
ENDBRANCH  13  14
ENDBRANCH  12  13
ENDBRANCH  11  12
ENDBRANCH   1  11
TORSDOF 14
ENDMDL
MODEL 7
REMARK VINA RESULT:    -3.188      2.129      4.675
REMARK INTER + INTRA:          -7.683
REMARK INTER:                  -6.132
REMARK INTRA:                  -1.551
REMARK UNBOUND:                -1.886
REMARK SMILES CCCCCCCCCCCCCCCC(=O)[O-]
REMARK SMILES IDX 9 1 10 2 11 3 12 4 13 5 14 6 15 7 16 8 17 9 18 10 8 11 7 12
REMARK SMILES IDX 6 13 5 14 4 15 3 16 2 17 1 18
REMARK H PARENT
REMARK Flexibility Score: inf
ROOT
ATOM      1  C   UNL     1     -10.871  -7.502 -11.270  1.00  0.00     0.000 C 
ENDROOT
BRANCH   1   2
ATOM      2  C   UNL     1     -10.001  -6.815 -10.206  1.00  0.00     0.000 C 
BRANCH   2   3
ATOM      3  C   UNL     1      -8.688  -7.571  -9.939  1.00  0.00     0.000 C 
BRANCH   3   4
ATOM      4  C   UNL     1      -7.443  -6.714 -10.219  1.00  0.00     0.000 C 
BRANCH   4   5
ATOM      5  C   UNL     1      -7.784  -5.240 -10.480  1.00  0.00     0.000 C 
BRANCH   5   6
ATOM      6  C   UNL     1      -7.274  -4.348  -9.338  1.00  0.00     0.006 C 
BRANCH   6   7
ATOM      7  C   UNL     1      -5.760  -4.111  -9.417  1.00  0.00     0.053 C 
BRANCH   7   8
ATOM      8  C   UNL     1      -5.095  -4.318  -8.090  1.00  0.00     0.041 C 
ATOM      9  O   UNL     1      -4.787  -3.328  -7.376  1.00  0.00    -0.550 OA
ATOM     10  O   UNL     1      -4.848  -5.603  -7.628  1.00  0.00    -0.550 OA
ENDBRANCH   7   8
ENDBRANCH   6   7
ENDBRANCH   5   6
ENDBRANCH   4   5
ENDBRANCH   3   4
ENDBRANCH   2   3
ENDBRANCH   1   2
BRANCH   1  11
ATOM     11  C   UNL     1     -10.343  -7.285 -12.700  1.00  0.00     0.000 C 
BRANCH  11  12
ATOM     12  C   UNL     1      -9.072  -8.097 -12.992  1.00  0.00    -0.000 C 
BRANCH  12  13
ATOM     13  C   UNL     1      -8.299  -7.565 -14.211  1.00  0.00    -0.000 C 
BRANCH  13  14
ATOM     14  C   UNL     1      -8.847  -6.220 -14.717  1.00  0.00    -0.000 C 
BRANCH  14  15
ATOM     15  C   UNL     1      -8.130  -5.013 -14.085  1.00  0.00    -0.000 C 
BRANCH  15  16
ATOM     16  C   UNL     1      -6.626  -5.260 -13.882  1.00  0.00    -0.000 C 
BRANCH  16  17
ATOM     17  C   UNL     1      -5.890  -4.021 -13.348  1.00  0.00    -0.003 C 
ATOM     18  C   UNL     1      -6.876  -2.917 -12.977  1.00  0.00     0.004 C 
ENDBRANCH  16  17
ENDBRANCH  15  16
ENDBRANCH  14  15
ENDBRANCH  13  14
ENDBRANCH  12  13
ENDBRANCH  11  12
ENDBRANCH   1  11
TORSDOF 14
ENDMDL
MODEL 8
REMARK VINA RESULT:    -2.735      1.374      2.404
REMARK INTER + INTRA:          -6.860
REMARK INTER:                  -5.834
REMARK INTRA:                  -1.026
REMARK UNBOUND:                -1.886
REMARK SMILES CCCCCCCCCCCCCCCC(=O)[O-]
REMARK SMILES IDX 9 1 10 2 11 3 12 4 13 5 14 6 15 7 16 8 17 9 18 10 8 11 7 12
REMARK SMILES IDX 6 13 5 14 4 15 3 16 2 17 1 18
REMARK H PARENT
REMARK Flexibility Score: inf
ROOT
ATOM      1  C   UNL     1      -8.781  -7.605 -10.015  1.00  0.00     0.000 C 
ENDROOT
BRANCH   1   2
ATOM      2  C   UNL     1     -10.119  -6.871 -10.194  1.00  0.00     0.000 C 
BRANCH   2   3
ATOM      3  C   UNL     1     -11.125  -7.675 -11.037  1.00  0.00     0.000 C 
BRANCH   3   4
ATOM      4  C   UNL     1     -10.543  -8.115 -12.391  1.00  0.00     0.000 C 
BRANCH   4   5
ATOM      5  C   UNL     1     -10.972  -7.199 -13.546  1.00  0.00     0.000 C 
BRANCH   5   6
ATOM      6  C   UNL     1     -10.033  -7.361 -14.752  1.00  0.00     0.006 C 
BRANCH   6   7
ATOM      7  C   UNL     1      -8.555  -7.260 -14.355  1.00  0.00     0.053 C 
BRANCH   7   8
ATOM      8  C   UNL     1      -8.003  -5.890 -14.608  1.00  0.00     0.041 C 
ATOM      9  O   UNL     1      -8.743  -4.878 -14.489  1.00  0.00    -0.550 OA
ATOM     10  O   UNL     1      -6.664  -5.729 -14.939  1.00  0.00    -0.550 OA
ENDBRANCH   7   8
ENDBRANCH   6   7
ENDBRANCH   5   6
ENDBRANCH   4   5
ENDBRANCH   3   4
ENDBRANCH   2   3
ENDBRANCH   1   2
BRANCH   1  11
ATOM     11  C   UNL     1      -7.622  -6.917 -10.760  1.00  0.00     0.000 C 
BRANCH  11  12
ATOM     12  C   UNL     1      -8.022  -5.554 -11.347  1.00  0.00    -0.000 C 
BRANCH  12  13
ATOM     13  C   UNL     1      -6.880  -4.525 -11.278  1.00  0.00    -0.000 C 
BRANCH  13  14
ATOM     14  C   UNL     1      -6.894  -3.714  -9.971  1.00  0.00    -0.000 C 
BRANCH  14  15
ATOM     15  C   UNL     1      -6.278  -4.484  -8.790  1.00  0.00    -0.000 C 
BRANCH  15  16
ATOM     16  C   UNL     1      -5.269  -3.639  -7.995  1.00  0.00    -0.000 C 
BRANCH  16  17
ATOM     17  C   UNL     1      -4.032  -4.443  -7.567  1.00  0.00    -0.003 C 
ATOM     18  C   UNL     1      -4.416  -5.863  -7.159  1.00  0.00     0.004 C 
ENDBRANCH  16  17
ENDBRANCH  15  16
ENDBRANCH  14  15
ENDBRANCH  13  14
ENDBRANCH  12  13
ENDBRANCH  11  12
ENDBRANCH   1  11
TORSDOF 14
ENDMDL
