MODEL 1
REMARK VINA RESULT:    -7.277      0.000      0.000
REMARK INTER + INTRA:          -9.728
REMARK INTER:                  -9.191
REMARK INTRA:                  -0.537
REMARK UNBOUND:                -0.537
REMARK SMILES Oc1ccc(CCc2cc(O)cc(O)c2)cc1
REMARK SMILES IDX 6 1 5 2 4 3 3 4 2 5 16 6 17 7 1 8 7 10 8 11 15 12 9 13 13 14
REMARK SMILES IDX 10 15 12 16 14 17 11 19
REMARK H PARENT 1 9 14 18 11 20
REMARK Flexibility Score: inf
ROOT
ATOM      1  C   UNL     1       1.651  29.645  79.461  1.00  0.00     0.040 C 
ENDROOT
BRANCH   1   2
ATOM      2  C   UNL     1       2.468  28.391  79.313  1.00  0.00    -0.047 A 
ATOM      3  C   UNL     1       3.571  28.362  78.443  1.00  0.00     0.007 A 
ATOM      4  C   UNL     1       4.350  27.206  78.331  1.00  0.00     0.046 A 
ATOM      5  C   UNL     1       4.042  26.073  79.091  1.00  0.00     0.115 A 
ATOM      6  C   UNL     1       2.170  27.255  80.085  1.00  0.00     0.007 A 
ATOM      7  C   UNL     1       2.951  26.101  79.970  1.00  0.00     0.046 A 
BRANCH   5   8
ATOM      8  O   UNL     1       4.826  24.928  78.968  1.00  0.00    -0.508 OA
ATOM      9  H   UNL     1       4.414  24.020  78.790  1.00  0.00     0.293 HD
ENDBRANCH   5   8
ENDBRANCH   1   2
BRANCH   1  10
ATOM     10  C   UNL     1       2.502  30.881  79.157  1.00  0.00     0.040 C 
BRANCH  10  11
ATOM     11  C   UNL     1       1.831  31.744  78.121  1.00  0.00    -0.040 A 
ATOM     12  C   UNL     1       1.223  31.159  76.999  1.00  0.00     0.050 A 
ATOM     13  C   UNL     1       1.758  33.135  78.299  1.00  0.00     0.050 A 
ATOM     14  C   UNL     1       0.570  31.958  76.051  1.00  0.00     0.119 A 
ATOM     15  C   UNL     1       1.106  33.935  77.354  1.00  0.00     0.119 A 
ATOM     16  C   UNL     1       0.515  33.344  76.229  1.00  0.00     0.092 A 
BRANCH  14  17
ATOM     17  O   UNL     1      -0.029  31.386  74.931  1.00  0.00    -0.508 OA
ATOM     18  H   UNL     1       0.420  30.640  74.414  1.00  0.00     0.293 HD
ENDBRANCH  14  17
BRANCH  15  19
ATOM     19  O   UNL     1       1.049  35.314  77.544  1.00  0.00    -0.508 OA
ATOM     20  H   UNL     1       0.271  35.750  78.024  1.00  0.00     0.293 HD
ENDBRANCH  15  19
ENDBRANCH  10  11
ENDBRANCH   1  10
TORSDOF 6
ENDMDL
MODEL 2
REMARK VINA RESULT:    -7.276      1.024      2.480
REMARK INTER + INTRA:          -9.727
REMARK INTER:                  -9.222
REMARK INTRA:                  -0.505
REMARK UNBOUND:                -0.537
REMARK SMILES Oc1ccc(CCc2cc(O)cc(O)c2)cc1
REMARK SMILES IDX 6 1 5 2 4 3 3 4 2 5 16 6 17 7 1 8 7 10 8 11 15 12 9 13 13 14
REMARK SMILES IDX 10 15 12 16 14 17 11 19
REMARK H PARENT 1 9 14 18 11 20
REMARK Flexibility Score: inf
ROOT
ATOM      1  C   UNL     1       1.659  29.798  79.783  1.00  0.00     0.040 C 
ENDROOT
BRANCH   1   2
ATOM      2  C   UNL     1       1.981  28.330  79.720  1.00  0.00    -0.047 A 
ATOM      3  C   UNL     1       2.131  27.586  80.902  1.00  0.00     0.007 A 
ATOM      4  C   UNL     1       2.398  26.215  80.843  1.00  0.00     0.046 A 
ATOM      5  C   UNL     1       2.508  25.572  79.605  1.00  0.00     0.115 A 
ATOM      6  C   UNL     1       2.079  27.678  78.479  1.00  0.00     0.007 A 
ATOM      7  C   UNL     1       2.346  26.306  78.423  1.00  0.00     0.046 A 
BRANCH   5   8
ATOM      8  O   UNL     1       2.775  24.205  79.561  1.00  0.00    -0.508 OA
ATOM      9  H   UNL     1       3.532  23.796  80.096  1.00  0.00     0.293 HD
ENDBRANCH   5   8
ENDBRANCH   1   2
BRANCH   1  10
ATOM     10  C   UNL     1       2.627  30.599  78.908  1.00  0.00     0.040 C 
BRANCH  10  11
ATOM     11  C   UNL     1       1.872  31.532  77.998  1.00  0.00    -0.040 A 
ATOM     12  C   UNL     1       1.844  32.910  78.263  1.00  0.00     0.050 A 
ATOM     13  C   UNL     1       1.236  31.037  76.847  1.00  0.00     0.050 A 
ATOM     14  C   UNL     1       1.168  33.783  77.399  1.00  0.00     0.119 A 
ATOM     15  C   UNL     1       0.562  31.906  75.984  1.00  0.00     0.119 A 
ATOM     16  C   UNL     1       0.527  33.279  76.263  1.00  0.00     0.092 A 
BRANCH  14  17
ATOM     17  O   UNL     1       1.131  35.151  77.658  1.00  0.00    -0.508 OA
ATOM     18  H   UNL     1       0.283  35.607  77.975  1.00  0.00     0.293 HD
ENDBRANCH  14  17
BRANCH  15  19
ATOM     19  O   UNL     1      -0.068  31.396  74.850  1.00  0.00    -0.508 OA
ATOM     20  H   UNL     1       0.414  30.773  74.213  1.00  0.00     0.293 HD
ENDBRANCH  15  19
ENDBRANCH  10  11
ENDBRANCH   1  10
TORSDOF 6
ENDMDL
MODEL 3
REMARK VINA RESULT:    -7.116     13.613     14.760
REMARK INTER + INTRA:          -9.525
REMARK INTER:                  -9.008
REMARK INTRA:                  -0.518
REMARK UNBOUND:                -0.537
REMARK SMILES Oc1ccc(CCc2cc(O)cc(O)c2)cc1
REMARK SMILES IDX 6 1 5 2 4 3 3 4 2 5 16 6 17 7 1 8 7 10 8 11 15 12 9 13 13 14
REMARK SMILES IDX 10 15 12 16 14 17 11 19
REMARK H PARENT 1 9 14 18 11 20
REMARK Flexibility Score: inf
ROOT
ATOM      1  C   UNL     1       6.446  29.253  91.349  1.00  0.00     0.040 C 
ENDROOT
BRANCH   1   2
ATOM      2  C   UNL     1       7.657  30.044  90.935  1.00  0.00    -0.047 A 
ATOM      3  C   UNL     1       8.824  30.015  91.716  1.00  0.00     0.007 A 
ATOM      4  C   UNL     1       9.960  30.724  91.313  1.00  0.00     0.046 A 
ATOM      5  C   UNL     1       9.945  31.459  90.123  1.00  0.00     0.115 A 
ATOM      6  C   UNL     1       7.651  30.772  89.733  1.00  0.00     0.007 A 
ATOM      7  C   UNL     1       8.789  31.480  89.333  1.00  0.00     0.046 A 
BRANCH   5   8
ATOM      8  O   UNL     1      11.084  32.161  89.734  1.00  0.00    -0.508 OA
ATOM      9  H   UNL     1      11.042  32.895  89.037  1.00  0.00     0.293 HD
ENDBRANCH   5   8
ENDBRANCH   1   2
BRANCH   1  10
ATOM     10  C   UNL     1       6.012  29.638  92.766  1.00  0.00     0.040 C 
BRANCH  10  11
ATOM     11  C   UNL     1       4.644  30.268  92.748  1.00  0.00    -0.040 A 
ATOM     12  C   UNL     1       3.494  29.464  92.791  1.00  0.00     0.050 A 
ATOM     13  C   UNL     1       4.509  31.666  92.745  1.00  0.00     0.050 A 
ATOM     14  C   UNL     1       2.221  30.050  92.807  1.00  0.00     0.119 A 
ATOM     15  C   UNL     1       3.240  32.253  92.761  1.00  0.00     0.119 A 
ATOM     16  C   UNL     1       2.097  31.443  92.790  1.00  0.00     0.092 A 
BRANCH  14  17
ATOM     17  O   UNL     1       1.075  29.259  92.843  1.00  0.00    -0.508 OA
ATOM     18  H   UNL     1       0.519  29.171  93.685  1.00  0.00     0.293 HD
ENDBRANCH  14  17
BRANCH  15  19
ATOM     19  O   UNL     1       3.126  33.642  92.752  1.00  0.00    -0.508 OA
ATOM     20  H   UNL     1       2.453  34.113  92.160  1.00  0.00     0.293 HD
ENDBRANCH  15  19
ENDBRANCH  10  11
ENDBRANCH   1  10
TORSDOF 6
ENDMDL
MODEL 4
REMARK VINA RESULT:    -7.109     13.593     14.862
REMARK INTER + INTRA:          -9.516
REMARK INTER:                  -8.983
REMARK INTRA:                  -0.534
REMARK UNBOUND:                -0.537
REMARK SMILES Oc1ccc(CCc2cc(O)cc(O)c2)cc1
REMARK SMILES IDX 6 1 5 2 4 3 3 4 2 5 16 6 17 7 1 8 7 10 8 11 15 12 9 13 13 14
REMARK SMILES IDX 10 15 12 16 14 17 11 19
REMARK H PARENT 1 9 14 18 11 20
REMARK Flexibility Score: inf
ROOT
ATOM      1  C   UNL     1       6.355  29.235  91.312  1.00  0.00     0.040 C 
ENDROOT
BRANCH   1   2
ATOM      2  C   UNL     1       7.579  30.023  90.931  1.00  0.00    -0.047 A 
ATOM      3  C   UNL     1       8.727  29.985  91.739  1.00  0.00     0.007 A 
ATOM      4  C   UNL     1       9.875  30.690  91.367  1.00  0.00     0.046 A 
ATOM      5  C   UNL     1       9.892  31.432  90.181  1.00  0.00     0.115 A 
ATOM      6  C   UNL     1       7.604  30.757  89.733  1.00  0.00     0.007 A 
ATOM      7  C   UNL     1       8.754  31.462  89.363  1.00  0.00     0.046 A 
BRANCH   5   8
ATOM      8  O   UNL     1      11.043  32.131  89.822  1.00  0.00    -0.508 OA
ATOM      9  H   UNL     1      11.637  32.565  90.518  1.00  0.00     0.293 HD
ENDBRANCH   5   8
ENDBRANCH   1   2
BRANCH   1  10
ATOM     10  C   UNL     1       5.943  29.546  92.754  1.00  0.00     0.040 C 
BRANCH  10  11
ATOM     11  C   UNL     1       4.597  30.219  92.786  1.00  0.00    -0.040 A 
ATOM     12  C   UNL     1       4.505  31.620  92.774  1.00  0.00     0.050 A 
ATOM     13  C   UNL     1       3.421  29.451  92.771  1.00  0.00     0.050 A 
ATOM     14  C   UNL     1       3.252  32.247  92.770  1.00  0.00     0.119 A 
ATOM     15  C   UNL     1       2.169  30.074  92.767  1.00  0.00     0.119 A 
ATOM     16  C   UNL     1       2.087  31.473  92.770  1.00  0.00     0.092 A 
BRANCH  14  17
ATOM     17  O   UNL     1       3.153  33.637  92.765  1.00  0.00    -0.508 OA
ATOM     18  H   UNL     1       2.254  34.103  92.745  1.00  0.00     0.293 HD
ENDBRANCH  14  17
BRANCH  15  19
ATOM     19  O   UNL     1       1.014  29.295  92.758  1.00  0.00    -0.508 OA
ATOM     20  H   UNL     1       0.888  28.528  93.407  1.00  0.00     0.293 HD
ENDBRANCH  15  19
ENDBRANCH  10  11
ENDBRANCH   1  10
TORSDOF 6
ENDMDL
MODEL 5
REMARK VINA RESULT:    -7.049      1.220      2.074
REMARK INTER + INTRA:          -9.440
REMARK INTER:                  -8.980
REMARK INTRA:                  -0.460
REMARK UNBOUND:                -0.537
REMARK SMILES Oc1ccc(CCc2cc(O)cc(O)c2)cc1
REMARK SMILES IDX 6 1 5 2 4 3 3 4 2 5 16 6 17 7 1 8 7 10 8 11 15 12 9 13 13 14
REMARK SMILES IDX 10 15 12 16 14 17 11 19
REMARK H PARENT 1 9 14 18 11 20
REMARK Flexibility Score: inf
ROOT
ATOM      1  C   UNL     1       1.846  29.939  79.535  1.00  0.00     0.040 C 
ENDROOT
BRANCH   1   2
ATOM      2  C   UNL     1       2.556  28.627  79.338  1.00  0.00    -0.047 A 
ATOM      3  C   UNL     1       3.652  28.537  78.464  1.00  0.00     0.007 A 
ATOM      4  C   UNL     1       4.332  27.326  78.307  1.00  0.00     0.046 A 
ATOM      5  C   UNL     1       3.929  26.195  79.026  1.00  0.00     0.115 A 
ATOM      6  C   UNL     1       2.163  27.492  80.068  1.00  0.00     0.007 A 
ATOM      7  C   UNL     1       2.845  26.281  79.909  1.00  0.00     0.046 A 
BRANCH   5   8
ATOM      8  O   UNL     1       4.615  24.994  78.859  1.00  0.00    -0.508 OA
ATOM      9  H   UNL     1       4.784  24.367  79.637  1.00  0.00     0.293 HD
ENDBRANCH   5   8
ENDBRANCH   1   2
BRANCH   1  10
ATOM     10  C   UNL     1       1.040  30.307  78.285  1.00  0.00     0.040 C 
BRANCH  10  11
ATOM     11  C   UNL     1       1.085  31.793  78.046  1.00  0.00    -0.040 A 
ATOM     12  C   UNL     1       2.146  32.559  78.554  1.00  0.00     0.050 A 
ATOM     13  C   UNL     1       0.097  32.414  77.264  1.00  0.00     0.050 A 
ATOM     14  C   UNL     1       2.206  33.938  78.304  1.00  0.00     0.119 A 
ATOM     15  C   UNL     1       0.155  33.789  77.013  1.00  0.00     0.119 A 
ATOM     16  C   UNL     1       1.210  34.549  77.536  1.00  0.00     0.092 A 
BRANCH  14  17
ATOM     17  O   UNL     1       3.251  34.706  78.811  1.00  0.00    -0.508 OA
ATOM     18  H   UNL     1       3.601  34.569  79.752  1.00  0.00     0.293 HD
ENDBRANCH  14  17
BRANCH  15  19
ATOM     19  O   UNL     1      -0.837  34.388  76.240  1.00  0.00    -0.508 OA
ATOM     20  H   UNL     1      -0.919  35.396  76.173  1.00  0.00     0.293 HD
ENDBRANCH  15  19
ENDBRANCH  10  11
ENDBRANCH   1  10
TORSDOF 6
ENDMDL
MODEL 6
REMARK VINA RESULT:    -7.044      2.928      4.365
REMARK INTER + INTRA:          -9.434
REMARK INTER:                  -8.788
REMARK INTRA:                  -0.646
REMARK UNBOUND:                -0.537
REMARK SMILES Oc1ccc(CCc2cc(O)cc(O)c2)cc1
REMARK SMILES IDX 6 1 5 2 4 3 3 4 2 5 16 6 17 7 1 8 7 10 8 11 15 12 9 13 13 14
REMARK SMILES IDX 10 15 12 16 14 17 11 19
REMARK H PARENT 1 9 14 18 11 20
REMARK Flexibility Score: inf
ROOT
ATOM      1  C   UNL     1       2.868  25.668  80.206  1.00  0.00     0.040 C 
ENDROOT
BRANCH   1   2
ATOM      2  C   UNL     1       4.276  25.558  80.726  1.00  0.00    -0.047 A 
ATOM      3  C   UNL     1       5.367  25.668  79.849  1.00  0.00     0.007 A 
ATOM      4  C   UNL     1       6.675  25.599  80.338  1.00  0.00     0.046 A 
ATOM      5  C   UNL     1       6.906  25.429  81.707  1.00  0.00     0.115 A 
ATOM      6  C   UNL     1       4.512  25.401  82.102  1.00  0.00     0.007 A 
ATOM      7  C   UNL     1       5.821  25.332  82.589  1.00  0.00     0.046 A 
BRANCH   5   8
ATOM      8  O   UNL     1       8.214  25.361  82.180  1.00  0.00    -0.508 OA
ATOM      9  H   UNL     1       8.941  25.968  81.819  1.00  0.00     0.293 HD
ENDBRANCH   5   8
ENDBRANCH   1   2
BRANCH   1  10
ATOM     10  C   UNL     1       2.832  26.508  78.925  1.00  0.00     0.040 C 
BRANCH  10  11
ATOM     11  C   UNL     1       2.491  27.940  79.241  1.00  0.00    -0.040 A 
ATOM     12  C   UNL     1       2.821  28.961  78.337  1.00  0.00     0.050 A 
ATOM     13  C   UNL     1       1.789  28.257  80.416  1.00  0.00     0.050 A 
ATOM     14  C   UNL     1       2.474  30.291  78.615  1.00  0.00     0.119 A 
ATOM     15  C   UNL     1       1.442  29.583  80.695  1.00  0.00     0.119 A 
ATOM     16  C   UNL     1       1.788  30.599  79.795  1.00  0.00     0.092 A 
BRANCH  14  17
ATOM     17  O   UNL     1       2.804  31.312  77.726  1.00  0.00    -0.508 OA
ATOM     18  H   UNL     1       3.139  31.111  76.791  1.00  0.00     0.293 HD
ENDBRANCH  14  17
BRANCH  15  19
ATOM     19  O   UNL     1       0.752  29.879  81.869  1.00  0.00    -0.508 OA
ATOM     20  H   UNL     1       0.687  30.828  82.219  1.00  0.00     0.293 HD
ENDBRANCH  15  19
ENDBRANCH  10  11
ENDBRANCH   1  10
TORSDOF 6
ENDMDL
MODEL 7
REMARK VINA RESULT:    -7.019      2.957      4.576
REMARK INTER + INTRA:          -9.403
REMARK INTER:                  -8.745
REMARK INTRA:                  -0.658
REMARK UNBOUND:                -0.537
REMARK SMILES Oc1ccc(CCc2cc(O)cc(O)c2)cc1
REMARK SMILES IDX 6 1 5 2 4 3 3 4 2 5 16 6 17 7 1 8 7 10 8 11 15 12 9 13 13 14
REMARK SMILES IDX 10 15 12 16 14 17 11 19
REMARK H PARENT 1 9 14 18 11 20
REMARK Flexibility Score: inf
ROOT
ATOM      1  C   UNL     1       2.824  25.507  80.404  1.00  0.00     0.040 C 
ENDROOT
BRANCH   1   2
ATOM      2  C   UNL     1       4.264  25.429  80.832  1.00  0.00    -0.047 A 
ATOM      3  C   UNL     1       5.292  25.507  79.878  1.00  0.00     0.007 A 
ATOM      4  C   UNL     1       6.631  25.467  80.279  1.00  0.00     0.046 A 
ATOM      5  C   UNL     1       6.956  25.359  81.635  1.00  0.00     0.115 A 
ATOM      6  C   UNL     1       4.595  25.333  82.194  1.00  0.00     0.007 A 
ATOM      7  C   UNL     1       5.935  25.294  82.592  1.00  0.00     0.046 A 
BRANCH   5   8
ATOM      8  O   UNL     1       8.294  25.319  82.020  1.00  0.00    -0.508 OA
ATOM      9  H   UNL     1       9.019  25.005  81.386  1.00  0.00     0.293 HD
ENDBRANCH   5   8
ENDBRANCH   1   2
BRANCH   1  10
ATOM     10  C   UNL     1       2.694  26.286  79.092  1.00  0.00     0.040 C 
BRANCH  10  11
ATOM     11  C   UNL     1       2.381  27.733  79.364  1.00  0.00    -0.040 A 
ATOM     12  C   UNL     1       1.766  28.109  80.569  1.00  0.00     0.050 A 
ATOM     13  C   UNL     1       2.753  28.724  78.441  1.00  0.00     0.050 A 
ATOM     14  C   UNL     1       1.504  29.460  80.839  1.00  0.00     0.119 A 
ATOM     15  C   UNL     1       2.492  30.072  78.707  1.00  0.00     0.119 A 
ATOM     16  C   UNL     1       1.865  30.438  79.906  1.00  0.00     0.092 A 
BRANCH  14  17
ATOM     17  O   UNL     1       0.888  29.840  82.029  1.00  0.00    -0.508 OA
ATOM     18  H   UNL     1       0.010  30.346  82.033  1.00  0.00     0.293 HD
ENDBRANCH  14  17
BRANCH  15  19
ATOM     19  O   UNL     1       2.863  31.040  77.776  1.00  0.00    -0.508 OA
ATOM     20  H   UNL     1       2.733  32.028  77.959  1.00  0.00     0.293 HD
ENDBRANCH  15  19
ENDBRANCH  10  11
ENDBRANCH   1  10
TORSDOF 6
ENDMDL
MODEL 8
REMARK VINA RESULT:    -6.902      1.952      6.995
REMARK INTER + INTRA:          -9.254
REMARK INTER:                  -8.787
REMARK INTRA:                  -0.467
REMARK UNBOUND:                -0.537
REMARK SMILES Oc1ccc(CCc2cc(O)cc(O)c2)cc1
REMARK SMILES IDX 6 1 5 2 4 3 3 4 2 5 16 6 17 7 1 8 7 10 8 11 15 12 9 13 13 14
REMARK SMILES IDX 10 15 12 16 14 17 11 19
REMARK H PARENT 1 9 14 18 11 20
REMARK Flexibility Score: inf
ROOT
ATOM      1  C   UNL     1       2.812  29.257  78.368  1.00  0.00     0.040 C 
ENDROOT
BRANCH   1   2
ATOM      2  C   UNL     1       2.064  30.334  77.630  1.00  0.00    -0.047 A 
ATOM      3  C   UNL     1       1.370  30.031  76.447  1.00  0.00     0.007 A 
ATOM      4  C   UNL     1       0.648  31.025  75.779  1.00  0.00     0.046 A 
ATOM      5  C   UNL     1       0.605  32.327  76.289  1.00  0.00     0.115 A 
ATOM      6  C   UNL     1       2.007  31.639  78.147  1.00  0.00     0.007 A 
ATOM      7  C   UNL     1       1.284  32.631  77.477  1.00  0.00     0.046 A 
BRANCH   5   8
ATOM      8  O   UNL     1      -0.118  33.307  75.613  1.00  0.00    -0.508 OA
ATOM      9  H   UNL     1      -0.880  33.804  76.057  1.00  0.00     0.293 HD
ENDBRANCH   5   8
ENDBRANCH   1   2
BRANCH   1  10
ATOM     10  C   UNL     1       2.715  27.925  77.619  1.00  0.00     0.040 C 
BRANCH  10  11
ATOM     11  C   UNL     1       2.376  26.807  78.570  1.00  0.00    -0.040 A 
ATOM     12  C   UNL     1       1.636  25.700  78.125  1.00  0.00     0.050 A 
ATOM     13  C   UNL     1       2.846  26.836  79.893  1.00  0.00     0.050 A 
ATOM     14  C   UNL     1       1.348  24.643  79.001  1.00  0.00     0.119 A 
ATOM     15  C   UNL     1       2.561  25.783  80.768  1.00  0.00     0.119 A 
ATOM     16  C   UNL     1       1.809  24.689  80.321  1.00  0.00     0.092 A 
BRANCH  14  17
ATOM     17  O   UNL     1       0.609  23.545  78.569  1.00  0.00    -0.508 OA
ATOM     18  H   UNL     1      -0.347  23.399  78.871  1.00  0.00     0.293 HD
ENDBRANCH  14  17
BRANCH  15  19
ATOM     19  O   UNL     1       3.030  25.833  82.079  1.00  0.00    -0.508 OA
ATOM     20  H   UNL     1       2.771  25.131  82.761  1.00  0.00     0.293 HD
ENDBRANCH  15  19
ENDBRANCH  10  11
ENDBRANCH   1  10
TORSDOF 6
ENDMDL
MODEL 9
REMARK VINA RESULT:    -6.865      1.974      7.246
REMARK INTER + INTRA:          -9.208
REMARK INTER:                  -8.737
REMARK INTRA:                  -0.471
REMARK UNBOUND:                -0.537
REMARK SMILES Oc1ccc(CCc2cc(O)cc(O)c2)cc1
REMARK SMILES IDX 6 1 5 2 4 3 3 4 2 5 16 6 17 7 1 8 7 10 8 11 15 12 9 13 13 14
REMARK SMILES IDX 10 15 12 16 14 17 11 19
REMARK H PARENT 1 9 14 18 11 20
REMARK Flexibility Score: inf
ROOT
ATOM      1  C   UNL     1       2.782  29.241  78.458  1.00  0.00     0.040 C 
ENDROOT
BRANCH   1   2
ATOM      2  C   UNL     1       2.015  30.304  77.720  1.00  0.00    -0.047 A 
ATOM      3  C   UNL     1       1.970  31.618  78.215  1.00  0.00     0.007 A 
ATOM      4  C   UNL     1       1.285  32.613  77.512  1.00  0.00     0.046 A 
ATOM      5  C   UNL     1       0.647  32.310  76.304  1.00  0.00     0.115 A 
ATOM      6  C   UNL     1       1.386  30.006  76.500  1.00  0.00     0.007 A 
ATOM      7  C   UNL     1       0.701  31.004  75.798  1.00  0.00     0.046 A 
BRANCH   5   8
ATOM      8  O   UNL     1      -0.032  33.311  75.614  1.00  0.00    -0.508 OA
ATOM      9  H   UNL     1      -0.923  33.135  75.165  1.00  0.00     0.293 HD
ENDBRANCH   5   8
ENDBRANCH   1   2
BRANCH   1  10
ATOM     10  C   UNL     1       2.731  27.914  77.695  1.00  0.00     0.040 C 
BRANCH  10  11
ATOM     11  C   UNL     1       2.407  26.778  78.629  1.00  0.00    -0.040 A 
ATOM     12  C   UNL     1       2.832  26.820  79.966  1.00  0.00     0.050 A 
ATOM     13  C   UNL     1       1.628  25.697  78.186  1.00  0.00     0.050 A 
ATOM     14  C   UNL     1       2.503  25.779  80.846  1.00  0.00     0.119 A 
ATOM     15  C   UNL     1       1.298  24.658  79.062  1.00  0.00     0.119 A 
ATOM     16  C   UNL     1       1.739  24.699  80.391  1.00  0.00     0.092 A 
BRANCH  14  17
ATOM     17  O   UNL     1       2.928  25.809  82.172  1.00  0.00    -0.508 OA
ATOM     18  H   UNL     1       2.268  25.875  82.938  1.00  0.00     0.293 HD
ENDBRANCH  14  17
BRANCH  15  19
ATOM     19  O   UNL     1       0.529  23.590  78.602  1.00  0.00    -0.508 OA
ATOM     20  H   UNL     1       0.936  22.677  78.440  1.00  0.00     0.293 HD
ENDBRANCH  15  19
ENDBRANCH  10  11
ENDBRANCH   1  10
TORSDOF 6
ENDMDL
