MODEL 1
REMARK VINA RESULT:    -5.112      0.000      0.000
REMARK INTER + INTRA:          -5.425
REMARK INTER:                  -5.411
REMARK INTRA:                  -0.014
REMARK UNBOUND:                -0.014
REMARK SMILES O=Cc1ccccc1
REMARK SMILES IDX 6 1 5 2 4 3 3 4 8 5 7 6 2 7 1 8
REMARK H PARENT
REMARK Flexibility Score: inf
ROOT
ATOM      1  C   UNL     1     -14.321  -0.336 -10.305  1.00  0.00     0.000 A 
ATOM      2  C   UNL     1     -15.081   0.793  -9.988  1.00  0.00     0.001 A 
ATOM      3  C   UNL     1     -14.456   1.946  -9.503  1.00  0.00     0.011 A 
ATOM      4  C   UNL     1     -13.062   1.977  -9.330  1.00  0.00     0.014 A 
ATOM      5  C   UNL     1     -12.304   0.838  -9.650  1.00  0.00     0.011 A 
ATOM      6  C   UNL     1     -12.934  -0.314 -10.136  1.00  0.00     0.001 A 
ENDROOT
BRANCH   4   7
ATOM      7  C   UNL     1     -12.419   3.202  -8.816  1.00  0.00     0.260 C 
ATOM      8  O   UNL     1     -13.107   4.172  -8.402  1.00  0.00    -0.298 OA
ENDBRANCH   4   7
TORSDOF 1
ENDMDL
MODEL 2
REMARK VINA RESULT:    -5.083      0.096      1.715
REMARK INTER + INTRA:          -5.395
REMARK INTER:                  -5.382
REMARK INTRA:                  -0.013
REMARK UNBOUND:                -0.014
REMARK SMILES O=Cc1ccccc1
REMARK SMILES IDX 6 1 5 2 4 3 3 4 8 5 7 6 2 7 1 8
REMARK H PARENT
REMARK Flexibility Score: inf
ROOT
ATOM      1  C   UNL     1     -14.312  -0.323 -10.275  1.00  0.00     0.000 A 
ATOM      2  C   UNL     1     -12.929  -0.252 -10.091  1.00  0.00     0.001 A 
ATOM      3  C   UNL     1     -12.343   0.928  -9.621  1.00  0.00     0.011 A 
ATOM      4  C   UNL     1     -13.140   2.048  -9.333  1.00  0.00     0.014 A 
ATOM      5  C   UNL     1     -14.531   1.970  -9.521  1.00  0.00     0.011 A 
ATOM      6  C   UNL     1     -15.112   0.787  -9.992  1.00  0.00     0.001 A 
ENDROOT
BRANCH   4   7
ATOM      7  C   UNL     1     -12.506   3.285  -8.838  1.00  0.00     0.260 C 
ATOM      8  O   UNL     1     -13.185   4.183  -8.275  1.00  0.00    -0.298 OA
ENDBRANCH   4   7
TORSDOF 1
ENDMDL
MODEL 3
REMARK VINA RESULT:    -5.082      2.369      3.175
REMARK INTER + INTRA:          -5.393
REMARK INTER:                  -5.385
REMARK INTRA:                  -0.009
REMARK UNBOUND:                -0.014
REMARK SMILES O=Cc1ccccc1
REMARK SMILES IDX 6 1 5 2 4 3 3 4 8 5 7 6 2 7 1 8
REMARK H PARENT
REMARK Flexibility Score: inf
ROOT
ATOM      1  C   UNL     1     -14.990   1.035  -9.935  1.00  0.00     0.000 A 
ATOM      2  C   UNL     1     -13.879   1.723  -9.442  1.00  0.00     0.001 A 
ATOM      3  C   UNL     1     -12.610   1.138  -9.500  1.00  0.00     0.011 A 
ATOM      4  C   UNL     1     -12.444  -0.142 -10.053  1.00  0.00     0.014 A 
ATOM      5  C   UNL     1     -13.567  -0.829 -10.547  1.00  0.00     0.011 A 
ATOM      6  C   UNL     1     -14.835  -0.240 -10.486  1.00  0.00     0.001 A 
ENDROOT
BRANCH   4   7
ATOM      7  C   UNL     1     -11.098  -0.745 -10.106  1.00  0.00     0.260 C 
ATOM      8  O   UNL     1     -10.667  -1.456  -9.160  1.00  0.00    -0.298 OA
ENDBRANCH   4   7
TORSDOF 1
ENDMDL
MODEL 4
REMARK VINA RESULT:    -4.658      2.681      4.128
REMARK INTER + INTRA:          -4.945
REMARK INTER:                  -4.934
REMARK INTRA:                  -0.010
REMARK UNBOUND:                -0.014
REMARK SMILES O=Cc1ccccc1
REMARK SMILES IDX 6 1 5 2 4 3 3 4 8 5 7 6 2 7 1 8
REMARK H PARENT
REMARK Flexibility Score: inf
ROOT
ATOM      1  C   UNL     1     -12.971   1.811  -9.362  1.00  0.00     0.000 A 
ATOM      2  C   UNL     1     -12.268   0.648  -9.688  1.00  0.00     0.001 A 
ATOM      3  C   UNL     1     -12.948  -0.463 -10.198  1.00  0.00     0.011 A 
ATOM      4  C   UNL     1     -14.339  -0.417 -10.385  1.00  0.00     0.014 A 
ATOM      5  C   UNL     1     -15.039   0.756 -10.055  1.00  0.00     0.011 A 
ATOM      6  C   UNL     1     -14.355   1.865  -9.545  1.00  0.00     0.001 A 
ENDROOT
BRANCH   4   7
ATOM      7  C   UNL     1     -15.040  -1.598 -10.924  1.00  0.00     0.260 C 
ATOM      8  O   UNL     1     -14.918  -2.729 -10.384  1.00  0.00    -0.298 OA
ENDBRANCH   4   7
TORSDOF 1
ENDMDL
MODEL 5
REMARK VINA RESULT:    -4.352      2.055      3.842
REMARK INTER + INTRA:          -4.621
REMARK INTER:                  -4.609
REMARK INTRA:                  -0.012
REMARK UNBOUND:                -0.014
REMARK SMILES O=Cc1ccccc1
REMARK SMILES IDX 6 1 5 2 4 3 3 4 8 5 7 6 2 7 1 8
REMARK H PARENT
REMARK Flexibility Score: inf
ROOT
ATOM      1  C   UNL     1     -12.464   3.956  -8.425  1.00  0.00     0.000 A 
ATOM      2  C   UNL     1     -11.959   2.783  -8.990  1.00  0.00     0.001 A 
ATOM      3  C   UNL     1     -12.830   1.758  -9.375  1.00  0.00     0.011 A 
ATOM      4  C   UNL     1     -14.216   1.901  -9.195  1.00  0.00     0.014 A 
ATOM      5  C   UNL     1     -14.717   3.085  -8.625  1.00  0.00     0.011 A 
ATOM      6  C   UNL     1     -13.841   4.107  -8.241  1.00  0.00     0.001 A 
ENDROOT
BRANCH   4   7
ATOM      7  C   UNL     1     -15.120   0.811  -9.605  1.00  0.00     0.260 C 
ATOM      8  O   UNL     1     -14.953   0.204 -10.696  1.00  0.00    -0.298 OA
ENDBRANCH   4   7
TORSDOF 1
ENDMDL
MODEL 6
REMARK VINA RESULT:    -4.134      7.870      8.899
REMARK INTER + INTRA:          -4.389
REMARK INTER:                  -4.378
REMARK INTRA:                  -0.011
REMARK UNBOUND:                -0.014
REMARK SMILES O=Cc1ccccc1
REMARK SMILES IDX 6 1 5 2 4 3 3 4 8 5 7 6 2 7 1 8
REMARK H PARENT
REMARK Flexibility Score: inf
ROOT
ATOM      1  C   UNL     1     -11.859  -7.291  -5.276  1.00  0.00     0.000 A 
ATOM      2  C   UNL     1     -11.299  -7.998  -6.343  1.00  0.00     0.001 A 
ATOM      3  C   UNL     1     -10.635  -7.314  -7.367  1.00  0.00     0.011 A 
ATOM      4  C   UNL     1     -10.527  -5.914  -7.330  1.00  0.00     0.014 A 
ATOM      5  C   UNL     1     -11.093  -5.209  -6.253  1.00  0.00     0.011 A 
ATOM      6  C   UNL     1     -11.757  -5.898  -5.232  1.00  0.00     0.001 A 
ENDROOT
BRANCH   4   7
ATOM      7  C   UNL     1      -9.823  -5.209  -8.418  1.00  0.00     0.260 C 
ATOM      8  O   UNL     1      -9.041  -4.253  -8.173  1.00  0.00    -0.298 OA
ENDBRANCH   4   7
TORSDOF 1
ENDMDL
MODEL 7
REMARK VINA RESULT:    -4.133      7.853      8.800
REMARK INTER + INTRA:          -4.389
REMARK INTER:                  -4.378
REMARK INTRA:                  -0.011
REMARK UNBOUND:                -0.014
REMARK SMILES O=Cc1ccccc1
REMARK SMILES IDX 6 1 5 2 4 3 3 4 8 5 7 6 2 7 1 8
REMARK H PARENT
REMARK Flexibility Score: inf
ROOT
ATOM      1  C   UNL     1     -11.858  -7.290  -5.271  1.00  0.00     0.000 A 
ATOM      2  C   UNL     1     -11.752  -5.898  -5.227  1.00  0.00     0.001 A 
ATOM      3  C   UNL     1     -11.090  -5.212  -6.250  1.00  0.00     0.011 A 
ATOM      4  C   UNL     1     -10.527  -5.916  -7.327  1.00  0.00     0.014 A 
ATOM      5  C   UNL     1     -10.637  -7.317  -7.364  1.00  0.00     0.011 A 
ATOM      6  C   UNL     1     -11.300  -7.999  -6.338  1.00  0.00     0.001 A 
ENDROOT
BRANCH   4   7
ATOM      7  C   UNL     1      -9.831  -5.177  -8.397  1.00  0.00     0.260 C 
ATOM      8  O   UNL     1      -9.027  -4.245  -8.128  1.00  0.00    -0.298 OA
ENDBRANCH   4   7
TORSDOF 1
ENDMDL
MODEL 8
REMARK VINA RESULT:    -3.742     15.635     16.779
REMARK INTER + INTRA:          -3.975
REMARK INTER:                  -3.961
REMARK INTRA:                  -0.014
REMARK UNBOUND:                -0.014
REMARK SMILES O=Cc1ccccc1
REMARK SMILES IDX 6 1 5 2 4 3 3 4 8 5 7 6 2 7 1 8
REMARK H PARENT
REMARK Flexibility Score: inf
ROOT
ATOM      1  C   UNL     1     -11.723   3.470   6.514  1.00  0.00     0.000 A 
ATOM      2  C   UNL     1     -11.476   4.244   5.378  1.00  0.00     0.001 A 
ATOM      3  C   UNL     1     -10.584   5.319   5.442  1.00  0.00     0.011 A 
ATOM      4  C   UNL     1      -9.932   5.628   6.647  1.00  0.00     0.014 A 
ATOM      5  C   UNL     1     -10.185   4.844   7.786  1.00  0.00     0.011 A 
ATOM      6  C   UNL     1     -11.080   3.770   7.717  1.00  0.00     0.001 A 
ENDROOT
BRANCH   4   7
ATOM      7  C   UNL     1      -8.994   6.765   6.697  1.00  0.00     0.260 C 
ATOM      8  O   UNL     1      -8.985   7.642   5.792  1.00  0.00    -0.298 OA
ENDBRANCH   4   7
TORSDOF 1
ENDMDL
MODEL 9
REMARK VINA RESULT:    -3.659      7.903      9.113
REMARK INTER + INTRA:          -3.887
REMARK INTER:                  -3.874
REMARK INTRA:                  -0.013
REMARK UNBOUND:                -0.014
REMARK SMILES O=Cc1ccccc1
REMARK SMILES IDX 6 1 5 2 4 3 3 4 8 5 7 6 2 7 1 8
REMARK H PARENT
REMARK Flexibility Score: inf
ROOT
ATOM      1  C   UNL     1     -10.489  -4.626  -8.301  1.00  0.00     0.000 A 
ATOM      2  C   UNL     1     -10.748  -4.475  -6.937  1.00  0.00     0.001 A 
ATOM      3  C   UNL     1     -11.025  -5.595  -6.147  1.00  0.00     0.011 A 
ATOM      4  C   UNL     1     -11.046  -6.878  -6.718  1.00  0.00     0.014 A 
ATOM      5  C   UNL     1     -10.784  -7.022  -8.092  1.00  0.00     0.011 A 
ATOM      6  C   UNL     1     -10.508  -5.899  -8.879  1.00  0.00     0.001 A 
ENDROOT
BRANCH   4   7
ATOM      7  C   UNL     1     -11.340  -8.048  -5.870  1.00  0.00     0.260 C 
ATOM      8  O   UNL     1     -11.987  -7.927  -4.797  1.00  0.00    -0.298 OA
ENDBRANCH   4   7
TORSDOF 1
ENDMDL
