MODEL 1
REMARK VINA RESULT:    -4.386      0.000      0.000
REMARK INTER + INTRA:          -6.509
REMARK INTER:                  -6.181
REMARK INTRA:                  -0.328
REMARK UNBOUND:                -0.328
REMARK SMILES CCCCCCCCC(=O)[O-]
REMARK SMILES IDX 6 1 7 2 8 3 9 4 10 5 11 6 5 7 4 8 3 9 2 10 1 11
REMARK H PARENT
REMARK Flexibility Score: inf
ROOT
ATOM      1  C   UNL     1      11.307 -14.445 -22.590  1.00  0.00     0.000 C 
ENDROOT
BRANCH   1   2
ATOM      2  C   UNL     1      10.517 -15.497 -21.798  1.00  0.00     0.006 C 
BRANCH   2   3
ATOM      3  C   UNL     1       9.687 -14.840 -20.691  1.00  0.00     0.053 C 
BRANCH   3   4
ATOM      4  C   UNL     1      10.562 -14.440 -19.546  1.00  0.00     0.041 C 
ATOM      5  O   UNL     1      11.108 -15.321 -18.829  1.00  0.00    -0.550 OA
ATOM      6  O   UNL     1      10.816 -13.098 -19.300  1.00  0.00    -0.550 OA
ENDBRANCH   3   4
ENDBRANCH   2   3
ENDBRANCH   1   2
BRANCH   1   7
ATOM      7  C   UNL     1      10.414 -13.607 -23.518  1.00  0.00     0.000 C 
BRANCH   7   8
ATOM      8  C   UNL     1      10.389 -12.120 -23.132  1.00  0.00    -0.000 C 
BRANCH   8   9
ATOM      9  C   UNL     1       9.411 -11.340 -24.024  1.00  0.00    -0.000 C 
BRANCH   9  10
ATOM     10  C   UNL     1      10.031 -10.057 -24.599  1.00  0.00    -0.003 C 
ATOM     11  C   UNL     1       9.078  -8.863 -24.547  1.00  0.00     0.004 C 
ENDBRANCH   9  10
ENDBRANCH   8   9
ENDBRANCH   7   8
ENDBRANCH   1   7
TORSDOF 7
ENDMDL
MODEL 2
REMARK VINA RESULT:    -4.287      2.457      4.349
REMARK INTER + INTRA:          -6.369
REMARK INTER:                  -5.791
REMARK INTRA:                  -0.578
REMARK UNBOUND:                -0.328
REMARK SMILES CCCCCCCCC(=O)[O-]
REMARK SMILES IDX 6 1 7 2 8 3 9 4 10 5 11 6 5 7 4 8 3 9 2 10 1 11
REMARK H PARENT
REMARK Flexibility Score: inf
ROOT
ATOM      1  C   UNL     1      10.936 -13.970 -22.925  1.00  0.00     0.000 C 
ENDROOT
BRANCH   1   2
ATOM      2  C   UNL     1       9.996 -13.589 -21.772  1.00  0.00     0.006 C 
BRANCH   2   3
ATOM      3  C   UNL     1       9.885 -14.729 -20.755  1.00  0.00     0.053 C 
BRANCH   3   4
ATOM      4  C   UNL     1      10.657 -14.402 -19.516  1.00  0.00     0.041 C 
ATOM      5  O   UNL     1      10.782 -13.205 -19.144  1.00  0.00    -0.550 OA
ATOM      6  O   UNL     1      11.195 -15.423 -18.743  1.00  0.00    -0.550 OA
ENDBRANCH   3   4
ENDBRANCH   2   3
ENDBRANCH   1   2
BRANCH   1   7
ATOM      7  C   UNL     1      10.180 -14.354 -24.206  1.00  0.00     0.000 C 
BRANCH   7   8
ATOM      8  C   UNL     1       9.906 -15.862 -24.304  1.00  0.00    -0.000 C 
BRANCH   8   9
ATOM      9  C   UNL     1      11.119 -16.601 -24.891  1.00  0.00    -0.000 C 
BRANCH   9  10
ATOM     10  C   UNL     1      11.898 -17.394 -23.829  1.00  0.00    -0.003 C 
ATOM     11  C   UNL     1      11.033 -17.786 -22.632  1.00  0.00     0.004 C 
ENDBRANCH   9  10
ENDBRANCH   8   9
ENDBRANCH   7   8
ENDBRANCH   1   7
TORSDOF 7
ENDMDL
MODEL 3
REMARK VINA RESULT:    -4.167      2.131      3.051
REMARK INTER + INTRA:          -6.200
REMARK INTER:                  -5.565
REMARK INTRA:                  -0.635
REMARK UNBOUND:                -0.328
REMARK SMILES CCCCCCCCC(=O)[O-]
REMARK SMILES IDX 6 1 7 2 8 3 9 4 10 5 11 6 5 7 4 8 3 9 2 10 1 11
REMARK H PARENT
REMARK Flexibility Score: inf
ROOT
ATOM      1  C   UNL     1      11.070 -14.005 -22.912  1.00  0.00     0.000 C 
ENDROOT
BRANCH   1   2
ATOM      2  C   UNL     1      10.050 -13.594 -21.839  1.00  0.00     0.006 C 
BRANCH   2   3
ATOM      3  C   UNL     1       9.862 -14.709 -20.807  1.00  0.00     0.053 C 
BRANCH   3   4
ATOM      4  C   UNL     1      10.628 -14.403 -19.559  1.00  0.00     0.041 C 
ATOM      5  O   UNL     1      10.770 -13.210 -19.179  1.00  0.00    -0.550 OA
ATOM      6  O   UNL     1      11.143 -15.437 -18.788  1.00  0.00    -0.550 OA
ENDBRANCH   3   4
ENDBRANCH   2   3
ENDBRANCH   1   2
BRANCH   1   7
ATOM      7  C   UNL     1      10.976 -15.493 -23.281  1.00  0.00     0.000 C 
BRANCH   7   8
ATOM      8  C   UNL     1      10.504 -15.717 -24.725  1.00  0.00    -0.000 C 
BRANCH   8   9
ATOM      9  C   UNL     1       8.970 -15.760 -24.799  1.00  0.00    -0.000 C 
BRANCH   9  10
ATOM     10  C   UNL     1       8.402 -14.782 -25.841  1.00  0.00    -0.003 C 
ATOM     11  C   UNL     1       8.312 -13.348 -25.319  1.00  0.00     0.004 C 
ENDBRANCH   9  10
ENDBRANCH   8   9
ENDBRANCH   7   8
ENDBRANCH   1   7
TORSDOF 7
ENDMDL
MODEL 4
REMARK VINA RESULT:    -4.108      1.110      1.591
REMARK INTER + INTRA:          -6.117
REMARK INTER:                  -5.633
REMARK INTRA:                  -0.484
REMARK UNBOUND:                -0.328
REMARK SMILES CCCCCCCCC(=O)[O-]
REMARK SMILES IDX 6 1 7 2 8 3 9 4 10 5 11 6 5 7 4 8 3 9 2 10 1 11
REMARK H PARENT
REMARK Flexibility Score: inf
ROOT
ATOM      1  C   UNL     1      10.069 -15.800 -23.100  1.00  0.00     0.000 C 
ENDROOT
BRANCH   1   2
ATOM      2  C   UNL     1      10.833 -15.331 -21.852  1.00  0.00     0.006 C 
BRANCH   2   3
ATOM      3  C   UNL     1       9.866 -14.869 -20.759  1.00  0.00     0.053 C 
BRANCH   3   4
ATOM      4  C   UNL     1      10.613 -14.524 -19.509  1.00  0.00     0.041 C 
ATOM      5  O   UNL     1      11.132 -15.435 -18.810  1.00  0.00    -0.550 OA
ATOM      6  O   UNL     1      10.780 -13.196 -19.143  1.00  0.00    -0.550 OA
ENDBRANCH   3   4
ENDBRANCH   2   3
ENDBRANCH   1   2
BRANCH   1   7
ATOM      7  C   UNL     1      10.338 -14.915 -24.327  1.00  0.00     0.000 C 
BRANCH   7   8
ATOM      8  C   UNL     1       9.051 -14.337 -24.934  1.00  0.00    -0.000 C 
BRANCH   8   9
ATOM      9  C   UNL     1       8.724 -12.966 -24.321  1.00  0.00    -0.000 C 
BRANCH   9  10
ATOM     10  C   UNL     1       9.980 -12.114 -24.078  1.00  0.00    -0.003 C 
ATOM     11  C   UNL     1       9.846 -10.693 -24.622  1.00  0.00     0.004 C 
ENDBRANCH   9  10
ENDBRANCH   8   9
ENDBRANCH   7   8
ENDBRANCH   1   7
TORSDOF 7
ENDMDL
MODEL 5
REMARK VINA RESULT:    -4.100      2.641      5.007
REMARK INTER + INTRA:          -6.105
REMARK INTER:                  -5.510
REMARK INTRA:                  -0.595
REMARK UNBOUND:                -0.328
REMARK SMILES CCCCCCCCC(=O)[O-]
REMARK SMILES IDX 6 1 7 2 8 3 9 4 10 5 11 6 5 7 4 8 3 9 2 10 1 11
REMARK H PARENT
REMARK Flexibility Score: inf
ROOT
ATOM      1  C   UNL     1      10.916 -14.599 -23.224  1.00  0.00     0.000 C 
ENDROOT
BRANCH   1   2
ATOM      2  C   UNL     1       9.616 -14.143 -22.544  1.00  0.00     0.006 C 
BRANCH   2   3
ATOM      3  C   UNL     1       9.568 -14.610 -21.086  1.00  0.00     0.053 C 
BRANCH   3   4
ATOM      4  C   UNL     1      10.188 -13.587 -20.187  1.00  0.00     0.041 C 
ATOM      5  O   UNL     1      10.022 -12.359 -20.416  1.00  0.00    -0.550 OA
ATOM      6  O   UNL     1      10.907 -13.988 -19.069  1.00  0.00    -0.550 OA
ENDBRANCH   3   4
ENDBRANCH   2   3
ENDBRANCH   1   2
BRANCH   1   7
ATOM      7  C   UNL     1      10.718 -15.837 -24.113  1.00  0.00     0.000 C 
BRANCH   7   8
ATOM      8  C   UNL     1      11.621 -17.010 -23.704  1.00  0.00    -0.000 C 
BRANCH   8   9
ATOM      9  C   UNL     1      10.949 -17.866 -22.619  1.00  0.00    -0.000 C 
BRANCH   9  10
ATOM     10  C   UNL     1       9.431 -17.989 -22.820  1.00  0.00    -0.003 C 
ATOM     11  C   UNL     1       8.829 -19.179 -22.075  1.00  0.00     0.004 C 
ENDBRANCH   9  10
ENDBRANCH   8   9
ENDBRANCH   7   8
ENDBRANCH   1   7
TORSDOF 7
ENDMDL
MODEL 6
REMARK VINA RESULT:    -3.962      3.170      5.388
REMARK INTER + INTRA:          -5.911
REMARK INTER:                  -5.369
REMARK INTRA:                  -0.543
REMARK UNBOUND:                -0.328
REMARK SMILES CCCCCCCCC(=O)[O-]
REMARK SMILES IDX 6 1 7 2 8 3 9 4 10 5 11 6 5 7 4 8 3 9 2 10 1 11
REMARK H PARENT
REMARK Flexibility Score: inf
ROOT
ATOM      1  C   UNL     1       9.573 -14.114 -23.982  1.00  0.00     0.000 C 
ENDROOT
BRANCH   1   2
ATOM      2  C   UNL     1       9.027 -12.743 -23.557  1.00  0.00     0.006 C 
BRANCH   2   3
ATOM      3  C   UNL     1      10.122 -11.675 -23.615  1.00  0.00     0.053 C 
BRANCH   3   4
ATOM      4  C   UNL     1       9.662 -10.494 -24.409  1.00  0.00     0.041 C 
ATOM      5  O   UNL     1      10.139 -10.276 -25.555  1.00  0.00    -0.550 OA
ATOM      6  O   UNL     1       8.670  -9.662 -23.907  1.00  0.00    -0.550 OA
ENDBRANCH   3   4
ENDBRANCH   2   3
ENDBRANCH   1   2
BRANCH   1   7
ATOM      7  C   UNL     1      10.922 -14.445 -23.326  1.00  0.00     0.000 C 
BRANCH   7   8
ATOM      8  C   UNL     1      10.920 -15.809 -22.620  1.00  0.00    -0.000 C 
BRANCH   8   9
ATOM      9  C   UNL     1      10.040 -15.771 -21.360  1.00  0.00    -0.000 C 
BRANCH   9  10
ATOM     10  C   UNL     1      10.737 -15.085 -20.174  1.00  0.00    -0.003 C 
ATOM     11  C   UNL     1      10.231 -13.664 -19.931  1.00  0.00     0.004 C 
ENDBRANCH   9  10
ENDBRANCH   8   9
ENDBRANCH   7   8
ENDBRANCH   1   7
TORSDOF 7
ENDMDL
MODEL 7
REMARK VINA RESULT:    -3.937     16.695     18.239
REMARK INTER + INTRA:          -5.876
REMARK INTER:                  -5.447
REMARK INTRA:                  -0.429
REMARK UNBOUND:                -0.328
REMARK SMILES CCCCCCCCC(=O)[O-]
REMARK SMILES IDX 6 1 7 2 8 3 9 4 10 5 11 6 5 7 4 8 3 9 2 10 1 11
REMARK H PARENT
REMARK Flexibility Score: inf
ROOT
ATOM      1  C   UNL     1      24.534  -2.534 -27.822  1.00  0.00     0.000 C 
ENDROOT
BRANCH   1   2
ATOM      2  C   UNL     1      25.698  -2.371 -26.833  1.00  0.00     0.006 C 
BRANCH   2   3
ATOM      3  C   UNL     1      25.335  -2.947 -25.461  1.00  0.00     0.053 C 
BRANCH   3   4
ATOM      4  C   UNL     1      26.341  -2.529 -24.435  1.00  0.00     0.041 C 
ATOM      5  O   UNL     1      27.533  -2.298 -24.773  1.00  0.00    -0.550 OA
ATOM      6  O   UNL     1      25.952  -2.346 -23.115  1.00  0.00    -0.550 OA
ENDBRANCH   3   4
ENDBRANCH   2   3
ENDBRANCH   1   2
BRANCH   1   7
ATOM      7  C   UNL     1      24.663  -3.798 -28.688  1.00  0.00     0.000 C 
BRANCH   7   8
ATOM      8  C   UNL     1      23.314  -4.491 -28.930  1.00  0.00    -0.000 C 
BRANCH   8   9
ATOM      9  C   UNL     1      23.320  -5.916 -28.356  1.00  0.00    -0.000 C 
BRANCH   9  10
ATOM     10  C   UNL     1      23.253  -5.934 -26.820  1.00  0.00    -0.003 C 
ATOM     11  C   UNL     1      23.251  -7.349 -26.245  1.00  0.00     0.004 C 
ENDBRANCH   9  10
ENDBRANCH   8   9
ENDBRANCH   7   8
ENDBRANCH   1   7
TORSDOF 7
ENDMDL
MODEL 8
REMARK VINA RESULT:    -3.914      3.727      4.943
REMARK INTER + INTRA:          -5.844
REMARK INTER:                  -5.207
REMARK INTRA:                  -0.636
REMARK UNBOUND:                -0.328
REMARK SMILES CCCCCCCCC(=O)[O-]
REMARK SMILES IDX 6 1 7 2 8 3 9 4 10 5 11 6 5 7 4 8 3 9 2 10 1 11
REMARK H PARENT
REMARK Flexibility Score: inf
ROOT
ATOM      1  C   UNL     1       9.178 -15.879 -23.195  1.00  0.00     0.000 C 
ENDROOT
BRANCH   1   2
ATOM      2  C   UNL     1       9.375 -17.370 -23.505  1.00  0.00     0.006 C 
BRANCH   2   3
ATOM      3  C   UNL     1      10.403 -17.995 -22.558  1.00  0.00     0.053 C 
BRANCH   3   4
ATOM      4  C   UNL     1      11.546 -18.572 -23.333  1.00  0.00     0.041 C 
ATOM      5  O   UNL     1      11.544 -19.792 -23.650  1.00  0.00    -0.550 OA
ATOM      6  O   UNL     1      12.589 -17.755 -23.747  1.00  0.00    -0.550 OA
ENDBRANCH   3   4
ENDBRANCH   2   3
ENDBRANCH   1   2
BRANCH   1   7
ATOM      7  C   UNL     1      10.386 -15.023 -23.606  1.00  0.00     0.000 C 
BRANCH   7   8
ATOM      8  C   UNL     1      11.064 -14.341 -22.408  1.00  0.00    -0.000 C 
BRANCH   8   9
ATOM      9  C   UNL     1      10.038 -13.564 -21.568  1.00  0.00    -0.000 C 
BRANCH   9  10
ATOM     10  C   UNL     1      10.202 -13.810 -20.060  1.00  0.00    -0.003 C 
ATOM     11  C   UNL     1      10.892 -15.138 -19.749  1.00  0.00     0.004 C 
ENDBRANCH   9  10
ENDBRANCH   8   9
ENDBRANCH   7   8
ENDBRANCH   1   7
TORSDOF 7
ENDMDL
MODEL 9
REMARK VINA RESULT:    -3.851      2.802      4.592
REMARK INTER + INTRA:          -5.755
REMARK INTER:                  -5.434
REMARK INTRA:                  -0.321
REMARK UNBOUND:                -0.328
REMARK SMILES CCCCCCCCC(=O)[O-]
REMARK SMILES IDX 6 1 7 2 8 3 9 4 10 5 11 6 5 7 4 8 3 9 2 10 1 11
REMARK H PARENT
REMARK Flexibility Score: inf
ROOT
ATOM      1  C   UNL     1      11.040 -15.391 -22.842  1.00  0.00     0.000 C 
ENDROOT
BRANCH   1   2
ATOM      2  C   UNL     1      10.465 -14.241 -22.002  1.00  0.00     0.006 C 
BRANCH   2   3
ATOM      3  C   UNL     1       9.796 -14.772 -20.731  1.00  0.00     0.053 C 
BRANCH   3   4
ATOM      4  C   UNL     1      10.625 -14.449 -19.528  1.00  0.00     0.041 C 
ATOM      5  O   UNL     1      10.795 -13.251 -19.178  1.00  0.00    -0.550 OA
ATOM      6  O   UNL     1      11.169 -15.473 -18.763  1.00  0.00    -0.550 OA
ENDBRANCH   3   4
ENDBRANCH   2   3
ENDBRANCH   1   2
BRANCH   1   7
ATOM      7  C   UNL     1      10.113 -16.616 -22.882  1.00  0.00     0.000 C 
BRANCH   7   8
ATOM      8  C   UNL     1      10.580 -17.678 -23.890  1.00  0.00    -0.000 C 
BRANCH   8   9
ATOM      9  C   UNL     1      11.515 -17.062 -24.941  1.00  0.00    -0.000 C 
BRANCH   9  10
ATOM     10  C   UNL     1      10.882 -17.019 -26.341  1.00  0.00    -0.003 C 
ATOM     11  C   UNL     1      11.892 -17.289 -27.456  1.00  0.00     0.004 C 
ENDBRANCH   9  10
ENDBRANCH   8   9
ENDBRANCH   7   8
ENDBRANCH   1   7
TORSDOF 7
ENDMDL
