MODEL 1
REMARK VINA RESULT:    -5.222      0.000      0.000
REMARK INTER + INTRA:          -9.134
REMARK INTER:                  -7.359
REMARK INTRA:                  -1.775
REMARK UNBOUND:                -1.775
REMARK SMILES OCC1=C[C@@H](O)[C@H]2C=CO[C@@H](O[C@@H]3O[C@@H](CO)[C@@H](O)[C@@H](O)[C@@H]3O)[C@@H]12
REMARK SMILES IDX 12 1 11 2 8 3 9 4 7 5 10 6 24 7 5 8 3 9 4 10 6 11 2 13 1 14
REMARK SMILES IDX 13 16 22 17 14 18 20 19 15 20 18 21 23 22 21 24 16 26 17 27
REMARK SMILES IDX 19 29
REMARK H PARENT 6 12 1 15 23 23 21 25 17 28 19 30
REMARK Flexibility Score: inf
ROOT
ATOM      1  O   UNL     1      64.264   3.316   1.809  1.00  0.00    -0.310 OA
ENDROOT
BRANCH   1   2
ATOM      2  C   UNL     1      63.454   4.410   2.207  1.00  0.00     0.316 C 
ATOM      3  C   UNL     1      64.044   4.248   4.999  1.00  0.00     0.018 C 
ATOM      4  C   UNL     1      64.676   5.128   4.222  1.00  0.00     0.186 C 
ATOM      5  C   UNL     1      62.762   3.580   4.557  1.00  0.00     0.061 C 
ATOM      6  O   UNL     1      64.248   5.361   2.915  1.00  0.00    -0.472 OA
ATOM      7  C   UNL     1      62.303   3.918   3.115  1.00  0.00     0.096 C 
ATOM      8  C   UNL     1      62.782   2.038   4.639  1.00  0.00     0.145 C 
ATOM      9  C   UNL     1      61.728   2.623   2.626  1.00  0.00    -0.036 C 
ATOM     10  C   UNL     1      62.007   1.606   3.436  1.00  0.00     0.007 C 
BRANCH   8  11
ATOM     11  O   UNL     1      64.082   1.496   4.632  1.00  0.00    -0.388 OA
ATOM     12  H   UNL     1      64.592   1.924   3.898  1.00  0.00     0.211 HD
ENDBRANCH   8  11
BRANCH   9  13
ATOM     13  C   UNL     1      60.969   2.470   1.339  1.00  0.00     0.187 C 
BRANCH  13  14
ATOM     14  O   UNL     1      61.804   1.904   0.367  1.00  0.00    -0.392 OA
ATOM     15  H   UNL     1      62.121   1.041   0.744  1.00  0.00     0.211 HD
ENDBRANCH  13  14
ENDBRANCH   9  13
ENDBRANCH   1   2
BRANCH   1  16
ATOM     16  C   UNL     1      64.836   3.540   0.536  1.00  0.00     0.286 C 
ATOM     17  C   UNL     1      65.603   2.270   0.127  1.00  0.00     0.202 C 
ATOM     18  O   UNL     1      63.802   3.810  -0.395  1.00  0.00    -0.341 OA
ATOM     19  C   UNL     1      66.252   2.462  -1.261  1.00  0.00     0.179 C 
ATOM     20  C   UNL     1      64.300   4.121  -1.691  1.00  0.00     0.178 C 
ATOM     21  C   UNL     1      65.218   3.007  -2.275  1.00  0.00     0.177 C 
BRANCH  17  22
ATOM     22  O   UNL     1      64.723   1.175   0.072  1.00  0.00    -0.385 OA
ATOM     23  H   UNL     1      63.894   1.440   0.550  1.00  0.00     0.211 HD
ENDBRANCH  17  22
BRANCH  19  24
ATOM     24  O   UNL     1      67.411   3.267  -1.245  1.00  0.00    -0.387 OA
ATOM     25  H   UNL     1      67.907   3.173  -2.095  1.00  0.00     0.211 HD
ENDBRANCH  19  24
BRANCH  20  26
ATOM     26  C   UNL     1      64.821   5.575  -1.797  1.00  0.00     0.191 C 
BRANCH  26  27
ATOM     27  O   UNL     1      66.213   5.644  -1.936  1.00  0.00    -0.394 OA
ATOM     28  H   UNL     1      66.547   4.712  -2.006  1.00  0.00     0.210 HD
ENDBRANCH  26  27
ENDBRANCH  20  26
BRANCH  21  29
ATOM     29  O   UNL     1      65.849   3.456  -3.448  1.00  0.00    -0.387 OA
ATOM     30  H   UNL     1      66.293   2.668  -3.858  1.00  0.00     0.211 HD
ENDBRANCH  21  29
ENDBRANCH   1  16
TORSDOF 10
ENDMDL
MODEL 2
REMARK VINA RESULT:    -5.121      1.825      5.869
REMARK INTER + INTRA:          -8.992
REMARK INTER:                  -7.178
REMARK INTRA:                  -1.814
REMARK UNBOUND:                -1.775
REMARK SMILES OCC1=C[C@@H](O)[C@H]2C=CO[C@@H](O[C@@H]3O[C@@H](CO)[C@@H](O)[C@@H](O)[C@@H]3O)[C@@H]12
REMARK SMILES IDX 12 1 11 2 8 3 9 4 7 5 10 6 24 7 5 8 3 9 4 10 6 11 2 13 1 14
REMARK SMILES IDX 13 16 22 17 14 18 20 19 15 20 18 21 23 22 21 24 16 26 17 27
REMARK SMILES IDX 19 29
REMARK H PARENT 6 12 1 15 23 23 21 25 17 28 19 30
REMARK Flexibility Score: inf
ROOT
ATOM      1  O   UNL     1      64.821   4.549   1.126  1.00  0.00    -0.310 OA
ENDROOT
BRANCH   1   2
ATOM      2  C   UNL     1      65.933   3.853   0.587  1.00  0.00     0.316 C 
ATOM      3  C   UNL     1      67.419   6.170  -0.184  1.00  0.00     0.018 C 
ATOM      4  C   UNL     1      67.699   5.532   0.953  1.00  0.00     0.186 C 
ATOM      5  C   UNL     1      66.601   5.519  -1.275  1.00  0.00     0.061 C 
ATOM      6  O   UNL     1      67.129   4.288   1.231  1.00  0.00    -0.472 OA
ATOM      7  C   UNL     1      66.039   4.115  -0.934  1.00  0.00     0.096 C 
ATOM      8  C   UNL     1      65.390   6.351  -1.750  1.00  0.00     0.145 C 
ATOM      9  C   UNL     1      64.691   4.117  -1.590  1.00  0.00    -0.036 C 
ATOM     10  C   UNL     1      64.332   5.327  -2.008  1.00  0.00     0.007 C 
BRANCH   8  11
ATOM     11  O   UNL     1      64.961   7.302  -0.803  1.00  0.00    -0.388 OA
ATOM     12  H   UNL     1      65.678   7.411  -0.128  1.00  0.00     0.211 HD
ENDBRANCH   8  11
BRANCH   9  13
ATOM     13  C   UNL     1      63.814   2.904  -1.715  1.00  0.00     0.187 C 
BRANCH  13  14
ATOM     14  O   UNL     1      62.839   2.925  -0.709  1.00  0.00    -0.392 OA
ATOM     15  H   UNL     1      63.133   3.611  -0.054  1.00  0.00     0.211 HD
ENDBRANCH  13  14
ENDBRANCH   9  13
ENDBRANCH   1   2
BRANCH   1  16
ATOM     16  C   UNL     1      64.287   3.871   2.245  1.00  0.00     0.286 C 
ATOM     17  C   UNL     1      62.953   4.540   2.617  1.00  0.00     0.202 C 
ATOM     18  O   UNL     1      64.078   2.511   1.905  1.00  0.00    -0.341 OA
ATOM     19  C   UNL     1      62.325   3.836   3.840  1.00  0.00     0.179 C 
ATOM     20  C   UNL     1      63.609   1.739   3.005  1.00  0.00     0.178 C 
ATOM     21  C   UNL     1      62.301   2.303   3.633  1.00  0.00     0.177 C 
BRANCH  17  22
ATOM     22  O   UNL     1      62.058   4.459   1.536  1.00  0.00    -0.385 OA
ATOM     23  H   UNL     1      62.572   4.670   0.713  1.00  0.00     0.211 HD
ENDBRANCH  17  22
BRANCH  19  24
ATOM     24  O   UNL     1      62.938   4.167   5.068  1.00  0.00    -0.387 OA
ATOM     25  H   UNL     1      62.419   3.794   5.822  1.00  0.00     0.211 HD
ENDBRANCH  19  24
BRANCH  20  26
ATOM     26  C   UNL     1      64.741   1.353   3.988  1.00  0.00     0.191 C 
BRANCH  26  27
ATOM     27  O   UNL     1      64.659   2.039   5.207  1.00  0.00    -0.394 OA
ATOM     28  H   UNL     1      64.985   1.423   5.913  1.00  0.00     0.210 HD
ENDBRANCH  26  27
ENDBRANCH  20  26
BRANCH  21  29
ATOM     29  O   UNL     1      62.007   1.636   4.835  1.00  0.00    -0.387 OA
ATOM     30  H   UNL     1      61.957   0.667   4.623  1.00  0.00     0.211 HD
ENDBRANCH  21  29
ENDBRANCH   1  16
TORSDOF 10
ENDMDL
MODEL 3
REMARK VINA RESULT:    -5.012      4.028      5.930
REMARK INTER + INTRA:          -8.838
REMARK INTER:                  -7.545
REMARK INTRA:                  -1.293
REMARK UNBOUND:                -1.775
REMARK SMILES OCC1=C[C@@H](O)[C@H]2C=CO[C@@H](O[C@@H]3O[C@@H](CO)[C@@H](O)[C@@H](O)[C@@H]3O)[C@@H]12
REMARK SMILES IDX 12 1 11 2 8 3 9 4 7 5 10 6 24 7 5 8 3 9 4 10 6 11 2 13 1 14
REMARK SMILES IDX 13 16 22 17 14 18 20 19 15 20 18 21 23 22 21 24 16 26 17 27
REMARK SMILES IDX 19 29
REMARK H PARENT 6 12 1 15 23 23 21 25 17 28 19 30
REMARK Flexibility Score: inf
ROOT
ATOM      1  O   UNL     1      62.980  -0.192   1.205  1.00  0.00    -0.310 OA
ENDROOT
BRANCH   1   2
ATOM      2  C   UNL     1      61.764   0.538   1.159  1.00  0.00     0.316 C 
ATOM      3  C   UNL     1      62.907   3.100   1.704  1.00  0.00     0.018 C 
ATOM      4  C   UNL     1      62.619   2.738   0.454  1.00  0.00     0.186 C 
ATOM      5  C   UNL     1      62.318   2.375   2.893  1.00  0.00     0.061 C 
ATOM      6  O   UNL     1      61.871   1.587   0.199  1.00  0.00    -0.472 OA
ATOM      7  C   UNL     1      61.450   1.137   2.550  1.00  0.00     0.096 C 
ATOM      8  C   UNL     1      63.360   1.884   3.922  1.00  0.00     0.145 C 
ATOM      9  C   UNL     1      61.775   0.175   3.653  1.00  0.00    -0.036 C 
ATOM     10  C   UNL     1      62.819   0.567   4.377  1.00  0.00     0.007 C 
BRANCH   8  11
ATOM     11  O   UNL     1      64.654   1.748   3.385  1.00  0.00    -0.388 OA
ATOM     12  H   UNL     1      65.246   2.405   3.833  1.00  0.00     0.211 HD
ENDBRANCH   8  11
BRANCH   9  13
ATOM     13  C   UNL     1      61.044  -1.116   3.887  1.00  0.00     0.187 C 
BRANCH  13  14
ATOM     14  O   UNL     1      61.957  -2.179   3.880  1.00  0.00    -0.392 OA
ATOM     15  H   UNL     1      62.837  -1.786   3.639  1.00  0.00     0.211 HD
ENDBRANCH  13  14
ENDBRANCH   9  13
ENDBRANCH   1   2
BRANCH   1  16
ATOM     16  C   UNL     1      62.854  -1.437   0.548  1.00  0.00     0.286 C 
ATOM     17  C   UNL     1      63.581  -1.340  -0.805  1.00  0.00     0.202 C 
ATOM     18  O   UNL     1      63.442  -2.446   1.351  1.00  0.00    -0.341 OA
ATOM     19  C   UNL     1      63.472  -2.678  -1.568  1.00  0.00     0.179 C 
ATOM     20  C   UNL     1      63.291  -3.746   0.793  1.00  0.00     0.178 C 
ATOM     21  C   UNL     1      63.863  -3.861  -0.650  1.00  0.00     0.177 C 
BRANCH  17  22
ATOM     22  O   UNL     1      64.939  -1.042  -0.598  1.00  0.00    -0.385 OA
ATOM     23  H   UNL     1      64.979  -0.245  -0.007  1.00  0.00     0.211 HD
ENDBRANCH  17  22
BRANCH  19  24
ATOM     24  O   UNL     1      62.209  -2.898  -2.159  1.00  0.00    -0.387 OA
ATOM     25  H   UNL     1      61.518  -3.008  -1.460  1.00  0.00     0.211 HD
ENDBRANCH  19  24
BRANCH  20  26
ATOM     26  C   UNL     1      61.879  -4.336   1.029  1.00  0.00     0.191 C 
BRANCH  26  27
ATOM     27  O   UNL     1      61.907  -5.701   1.345  1.00  0.00    -0.394 OA
ATOM     28  H   UNL     1      60.972  -6.029   1.308  1.00  0.00     0.210 HD
ENDBRANCH  26  27
ENDBRANCH  20  26
BRANCH  21  29
ATOM     29  O   UNL     1      63.497  -5.089  -1.227  1.00  0.00    -0.387 OA
ATOM     30  H   UNL     1      62.530  -5.221  -1.038  1.00  0.00     0.211 HD
ENDBRANCH  21  29
ENDBRANCH   1  16
TORSDOF 10
ENDMDL
MODEL 4
REMARK VINA RESULT:    -4.888      2.801      6.542
REMARK INTER + INTRA:          -8.664
REMARK INTER:                  -6.989
REMARK INTRA:                  -1.675
REMARK UNBOUND:                -1.775
REMARK SMILES OCC1=C[C@@H](O)[C@H]2C=CO[C@@H](O[C@@H]3O[C@@H](CO)[C@@H](O)[C@@H](O)[C@@H]3O)[C@@H]12
REMARK SMILES IDX 12 1 11 2 8 3 9 4 7 5 10 6 24 7 5 8 3 9 4 10 6 11 2 13 1 14
REMARK SMILES IDX 13 16 22 17 14 18 20 19 15 20 18 21 23 22 21 24 16 26 17 27
REMARK SMILES IDX 19 29
REMARK H PARENT 6 12 1 15 23 23 21 25 17 28 19 30
REMARK Flexibility Score: inf
ROOT
ATOM      1  O   UNL     1      63.617   0.658   1.024  1.00  0.00    -0.310 OA
ENDROOT
BRANCH   1   2
ATOM      2  C   UNL     1      62.683   0.996   0.011  1.00  0.00     0.316 C 
ATOM      3  C   UNL     1      64.608   1.541  -2.030  1.00  0.00     0.018 C 
ATOM      4  C   UNL     1      63.981   0.366  -1.986  1.00  0.00     0.186 C 
ATOM      5  C   UNL     1      64.087   2.744  -1.278  1.00  0.00     0.061 C 
ATOM      6  O   UNL     1      62.895   0.169  -1.131  1.00  0.00    -0.472 OA
ATOM      7  C   UNL     1      62.845   2.482  -0.387  1.00  0.00     0.096 C 
ATOM      8  C   UNL     1      65.125   3.423  -0.359  1.00  0.00     0.145 C 
ATOM      9  C   UNL     1      63.092   3.352   0.808  1.00  0.00    -0.036 C 
ATOM     10  C   UNL     1      64.328   3.839   0.835  1.00  0.00     0.007 C 
BRANCH   8  11
ATOM     11  O   UNL     1      66.188   2.574   0.006  1.00  0.00    -0.388 OA
ATOM     12  H   UNL     1      66.693   3.008   0.741  1.00  0.00     0.211 HD
ENDBRANCH   8  11
BRANCH   9  13
ATOM     13  C   UNL     1      62.079   3.604   1.889  1.00  0.00     0.187 C 
BRANCH  13  14
ATOM     14  O   UNL     1      62.423   2.872   3.033  1.00  0.00    -0.392 OA
ATOM     15  H   UNL     1      63.052   3.442   3.548  1.00  0.00     0.211 HD
ENDBRANCH  13  14
ENDBRANCH   9  13
ENDBRANCH   1   2
BRANCH   1  16
ATOM     16  C   UNL     1      63.074  -0.287   1.925  1.00  0.00     0.286 C 
ATOM     17  C   UNL     1      64.010  -0.379   3.142  1.00  0.00     0.202 C 
ATOM     18  O   UNL     1      61.785   0.144   2.327  1.00  0.00    -0.341 OA
ATOM     19  C   UNL     1      63.463  -1.403   4.161  1.00  0.00     0.179 C 
ATOM     20  C   UNL     1      61.137  -0.792   3.180  1.00  0.00     0.178 C 
ATOM     21  C   UNL     1      61.967  -1.136   4.451  1.00  0.00     0.177 C 
BRANCH  17  22
ATOM     22  O   UNL     1      64.109   0.876   3.767  1.00  0.00    -0.385 OA
ATOM     23  H   UNL     1      64.610   1.473   3.150  1.00  0.00     0.211 HD
ENDBRANCH  17  22
BRANCH  19  24
ATOM     24  O   UNL     1      63.668  -2.749   3.786  1.00  0.00    -0.387 OA
ATOM     25  H   UNL     1      62.905  -3.076   3.249  1.00  0.00     0.211 HD
ENDBRANCH  19  24
BRANCH  20  26
ATOM     26  C   UNL     1      60.531  -1.986   2.404  1.00  0.00     0.191 C 
BRANCH  26  27
ATOM     27  O   UNL     1      59.456  -2.582   3.077  1.00  0.00    -0.394 OA
ATOM     28  H   UNL     1      59.101  -3.297   2.488  1.00  0.00     0.210 HD
ENDBRANCH  26  27
ENDBRANCH  20  26
BRANCH  21  29
ATOM     29  O   UNL     1      61.386  -2.215   5.140  1.00  0.00    -0.387 OA
ATOM     30  H   UNL     1      61.603  -2.095   6.102  1.00  0.00     0.211 HD
ENDBRANCH  21  29
ENDBRANCH   1  16
TORSDOF 10
ENDMDL
MODEL 5
REMARK VINA RESULT:    -4.874      1.364      1.740
REMARK INTER + INTRA:          -8.644
REMARK INTER:                  -6.958
REMARK INTRA:                  -1.686
REMARK UNBOUND:                -1.775
REMARK SMILES OCC1=C[C@@H](O)[C@H]2C=CO[C@@H](O[C@@H]3O[C@@H](CO)[C@@H](O)[C@@H](O)[C@@H]3O)[C@@H]12
REMARK SMILES IDX 12 1 11 2 8 3 9 4 7 5 10 6 24 7 5 8 3 9 4 10 6 11 2 13 1 14
REMARK SMILES IDX 13 16 22 17 14 18 20 19 15 20 18 21 23 22 21 24 16 26 17 27
REMARK SMILES IDX 19 29
REMARK H PARENT 6 12 1 15 23 23 21 25 17 28 19 30
REMARK Flexibility Score: inf
ROOT
ATOM      1  O   UNL     1      63.736   2.604   1.710  1.00  0.00    -0.310 OA
ENDROOT
BRANCH   1   2
ATOM      2  C   UNL     1      62.421   3.135   1.755  1.00  0.00     0.316 C 
ATOM      3  C   UNL     1      62.000   2.710   4.550  1.00  0.00     0.018 C 
ATOM      4  C   UNL     1      62.360   3.910   4.093  1.00  0.00     0.186 C 
ATOM      5  C   UNL     1      61.439   1.650   3.631  1.00  0.00     0.061 C 
ATOM      6  O   UNL     1      62.361   4.181   2.723  1.00  0.00    -0.472 OA
ATOM      7  C   UNL     1      61.410   2.025   2.126  1.00  0.00     0.096 C 
ATOM      8  C   UNL     1      62.162   0.288   3.709  1.00  0.00     0.145 C 
ATOM      9  C   UNL     1      61.736   0.730   1.445  1.00  0.00    -0.036 C 
ATOM     10  C   UNL     1      62.163  -0.198   2.296  1.00  0.00     0.007 C 
BRANCH   8  11
ATOM     11  O   UNL     1      63.471   0.379   4.220  1.00  0.00    -0.388 OA
ATOM     12  H   UNL     1      63.488  -0.058   5.109  1.00  0.00     0.211 HD
ENDBRANCH   8  11
BRANCH   9  13
ATOM     13  C   UNL     1      61.646   0.513  -0.039  1.00  0.00     0.187 C 
BRANCH  13  14
ATOM     14  O   UNL     1      62.936   0.460  -0.583  1.00  0.00    -0.392 OA
ATOM     15  H   UNL     1      63.537   0.182   0.157  1.00  0.00     0.211 HD
ENDBRANCH  13  14
ENDBRANCH   9  13
ENDBRANCH   1   2
BRANCH   1  16
ATOM     16  C   UNL     1      64.508   3.236   0.709  1.00  0.00     0.286 C 
ATOM     17  C   UNL     1      65.837   2.471   0.577  1.00  0.00     0.202 C 
ATOM     18  O   UNL     1      63.797   3.201  -0.517  1.00  0.00    -0.341 OA
ATOM     19  C   UNL     1      66.724   3.124  -0.506  1.00  0.00     0.179 C 
ATOM     20  C   UNL     1      64.477   3.885  -1.563  1.00  0.00     0.178 C 
ATOM     21  C   UNL     1      65.918   3.348  -1.807  1.00  0.00     0.177 C 
BRANCH  17  22
ATOM     22  O   UNL     1      65.587   1.135   0.217  1.00  0.00    -0.385 OA
ATOM     23  H   UNL     1      65.702   0.584   1.035  1.00  0.00     0.211 HD
ENDBRANCH  17  22
BRANCH  19  24
ATOM     24  O   UNL     1      67.348   4.320  -0.090  1.00  0.00    -0.387 OA
ATOM     25  H   UNL     1      67.419   4.345   0.895  1.00  0.00     0.211 HD
ENDBRANCH  19  24
BRANCH  20  26
ATOM     26  C   UNL     1      64.314   5.422  -1.475  1.00  0.00     0.191 C 
BRANCH  26  27
ATOM     27  O   UNL     1      64.361   6.045  -2.729  1.00  0.00    -0.394 OA
ATOM     28  H   UNL     1      64.063   5.377  -3.399  1.00  0.00     0.210 HD
ENDBRANCH  26  27
ENDBRANCH  20  26
BRANCH  21  29
ATOM     29  O   UNL     1      66.611   4.192  -2.692  1.00  0.00    -0.387 OA
ATOM     30  H   UNL     1      67.275   3.628  -3.169  1.00  0.00     0.211 HD
ENDBRANCH  21  29
ENDBRANCH   1  16
TORSDOF 10
ENDMDL
MODEL 6
REMARK VINA RESULT:    -4.861      1.628      6.138
REMARK INTER + INTRA:          -8.625
REMARK INTER:                  -6.827
REMARK INTRA:                  -1.798
REMARK UNBOUND:                -1.775
REMARK SMILES OCC1=C[C@@H](O)[C@H]2C=CO[C@@H](O[C@@H]3O[C@@H](CO)[C@@H](O)[C@@H](O)[C@@H]3O)[C@@H]12
REMARK SMILES IDX 12 1 11 2 8 3 9 4 7 5 10 6 24 7 5 8 3 9 4 10 6 11 2 13 1 14
REMARK SMILES IDX 13 16 22 17 14 18 20 19 15 20 18 21 23 22 21 24 16 26 17 27
REMARK SMILES IDX 19 29
REMARK H PARENT 6 12 1 15 23 23 21 25 17 28 19 30
REMARK Flexibility Score: inf
ROOT
ATOM      1  O   UNL     1      65.025   2.883   0.141  1.00  0.00    -0.310 OA
ENDROOT
BRANCH   1   2
ATOM      2  C   UNL     1      64.272   2.651  -1.039  1.00  0.00     0.316 C 
ATOM      3  C   UNL     1      66.352   1.336  -2.494  1.00  0.00     0.018 C 
ATOM      4  C   UNL     1      65.407   0.630  -1.872  1.00  0.00     0.186 C 
ATOM      5  C   UNL     1      66.176   2.809  -2.783  1.00  0.00     0.061 C 
ATOM      6  O   UNL     1      64.278   1.258  -1.344  1.00  0.00    -0.472 OA
ATOM      7  C   UNL     1      64.877   3.444  -2.221  1.00  0.00     0.096 C 
ATOM      8  C   UNL     1      67.330   3.702  -2.279  1.00  0.00     0.145 C 
ATOM      9  C   UNL     1      65.320   4.813  -1.801  1.00  0.00    -0.036 C 
ATOM     10  C   UNL     1      66.643   4.944  -1.809  1.00  0.00     0.007 C 
BRANCH   8  11
ATOM     11  O   UNL     1      68.082   3.112  -1.245  1.00  0.00    -0.388 OA
ATOM     12  H   UNL     1      67.621   2.281  -0.962  1.00  0.00     0.211 HD
ENDBRANCH   8  11
BRANCH   9  13
ATOM     13  C   UNL     1      64.384   5.903  -1.363  1.00  0.00     0.187 C 
BRANCH  13  14
ATOM     14  O   UNL     1      64.457   6.053   0.028  1.00  0.00    -0.392 OA
ATOM     15  H   UNL     1      65.415   5.945   0.267  1.00  0.00     0.211 HD
ENDBRANCH  13  14
ENDBRANCH   9  13
ENDBRANCH   1   2
BRANCH   1  16
ATOM     16  C   UNL     1      64.195   2.884   1.285  1.00  0.00     0.286 C 
ATOM     17  C   UNL     1      65.017   3.419   2.471  1.00  0.00     0.202 C 
ATOM     18  O   UNL     1      63.076   3.720   1.045  1.00  0.00    -0.341 OA
ATOM     19  C   UNL     1      64.155   3.439   3.752  1.00  0.00     0.179 C 
ATOM     20  C   UNL     1      62.150   3.717   2.125  1.00  0.00     0.178 C 
ATOM     21  C   UNL     1      62.795   4.124   3.483  1.00  0.00     0.177 C 
BRANCH  17  22
ATOM     22  O   UNL     1      65.458   4.726   2.197  1.00  0.00    -0.385 OA
ATOM     23  H   UNL     1      65.483   5.214   3.061  1.00  0.00     0.211 HD
ENDBRANCH  17  22
BRANCH  19  24
ATOM     24  O   UNL     1      63.969   2.167   4.337  1.00  0.00    -0.387 OA
ATOM     25  H   UNL     1      64.575   2.053   5.110  1.00  0.00     0.211 HD
ENDBRANCH  19  24
BRANCH  20  26
ATOM     26  C   UNL     1      61.249   2.459   2.134  1.00  0.00     0.191 C 
BRANCH  26  27
ATOM     27  O   UNL     1      61.553   1.581   3.183  1.00  0.00    -0.394 OA
ATOM     28  H   UNL     1      62.504   1.730   3.424  1.00  0.00     0.210 HD
ENDBRANCH  26  27
ENDBRANCH  20  26
BRANCH  21  29
ATOM     29  O   UNL     1      61.897   3.896   4.540  1.00  0.00    -0.387 OA
ATOM     30  H   UNL     1      61.622   4.787   4.883  1.00  0.00     0.211 HD
ENDBRANCH  21  29
ENDBRANCH   1  16
TORSDOF 10
ENDMDL
MODEL 7
REMARK VINA RESULT:    -4.844      3.505      6.333
REMARK INTER + INTRA:          -8.601
REMARK INTER:                  -6.928
REMARK INTRA:                  -1.673
REMARK UNBOUND:                -1.775
REMARK SMILES OCC1=C[C@@H](O)[C@H]2C=CO[C@@H](O[C@@H]3O[C@@H](CO)[C@@H](O)[C@@H](O)[C@@H]3O)[C@@H]12
REMARK SMILES IDX 12 1 11 2 8 3 9 4 7 5 10 6 24 7 5 8 3 9 4 10 6 11 2 13 1 14
REMARK SMILES IDX 13 16 22 17 14 18 20 19 15 20 18 21 23 22 21 24 16 26 17 27
REMARK SMILES IDX 19 29
REMARK H PARENT 6 12 1 15 23 23 21 25 17 28 19 30
REMARK Flexibility Score: inf
ROOT
ATOM      1  O   UNL     1      63.702   0.638   0.686  1.00  0.00    -0.310 OA
ENDROOT
BRANCH   1   2
ATOM      2  C   UNL     1      65.104   0.708   0.476  1.00  0.00     0.316 C 
ATOM      3  C   UNL     1      65.438   3.379   1.438  1.00  0.00     0.018 C 
ATOM      4  C   UNL     1      65.710   2.336   2.223  1.00  0.00     0.186 C 
ATOM      5  C   UNL     1      65.315   3.229  -0.061  1.00  0.00     0.061 C 
ATOM      6  O   UNL     1      65.755   1.043   1.700  1.00  0.00    -0.472 OA
ATOM      7  C   UNL     1      65.429   1.777  -0.593  1.00  0.00     0.096 C 
ATOM      8  C   UNL     1      64.005   3.792  -0.655  1.00  0.00     0.145 C 
ATOM      9  C   UNL     1      64.443   1.749  -1.722  1.00  0.00    -0.036 C 
ATOM     10  C   UNL     1      63.660   2.824  -1.740  1.00  0.00     0.007 C 
BRANCH   8  11
ATOM     11  O   UNL     1      62.964   3.895   0.288  1.00  0.00    -0.388 OA
ATOM     12  H   UNL     1      63.326   4.332   1.101  1.00  0.00     0.211 HD
ENDBRANCH   8  11
BRANCH   9  13
ATOM     13  C   UNL     1      64.309   0.612  -2.695  1.00  0.00     0.187 C 
BRANCH  13  14
ATOM     14  O   UNL     1      63.196  -0.168  -2.353  1.00  0.00    -0.392 OA
ATOM     15  H   UNL     1      62.490   0.469  -2.064  1.00  0.00     0.211 HD
ENDBRANCH  13  14
ENDBRANCH   9  13
ENDBRANCH   1   2
BRANCH   1  16
ATOM     16  C   UNL     1      63.318  -0.645   1.139  1.00  0.00     0.286 C 
ATOM     17  C   UNL     1      61.782  -0.728   1.091  1.00  0.00     0.202 C 
ATOM     18  O   UNL     1      63.890  -1.627   0.292  1.00  0.00    -0.341 OA
ATOM     19  C   UNL     1      61.306  -2.113   1.581  1.00  0.00     0.179 C 
ATOM     20  C   UNL     1      63.611  -2.953   0.726  1.00  0.00     0.178 C 
ATOM     21  C   UNL     1      62.087  -3.241   0.865  1.00  0.00     0.177 C 
BRANCH  17  22
ATOM     22  O   UNL     1      61.333  -0.530  -0.226  1.00  0.00    -0.385 OA
ATOM     23  H   UNL     1      62.023  -0.908  -0.832  1.00  0.00     0.211 HD
ENDBRANCH  17  22
BRANCH  19  24
ATOM     24  O   UNL     1      61.363  -2.275   2.982  1.00  0.00    -0.387 OA
ATOM     25  H   UNL     1      61.868  -3.093   3.213  1.00  0.00     0.211 HD
ENDBRANCH  19  24
BRANCH  20  26
ATOM     26  C   UNL     1      64.511  -3.397   1.904  1.00  0.00     0.191 C 
BRANCH  26  27
ATOM     27  O   UNL     1      64.685  -4.786   1.960  1.00  0.00    -0.394 OA
ATOM     28  H   UNL     1      64.848  -5.099   1.033  1.00  0.00     0.210 HD
ENDBRANCH  26  27
ENDBRANCH  20  26
BRANCH  21  29
ATOM     29  O   UNL     1      61.878  -4.479   1.497  1.00  0.00    -0.387 OA
ATOM     30  H   UNL     1      62.320  -5.169   0.935  1.00  0.00     0.211 HD
ENDBRANCH  21  29
ENDBRANCH   1  16
TORSDOF 10
ENDMDL
MODEL 8
REMARK VINA RESULT:    -4.803      1.687      3.646
REMARK INTER + INTRA:          -8.544
REMARK INTER:                  -6.746
REMARK INTRA:                  -1.799
REMARK UNBOUND:                -1.775
REMARK SMILES OCC1=C[C@@H](O)[C@H]2C=CO[C@@H](O[C@@H]3O[C@@H](CO)[C@@H](O)[C@@H](O)[C@@H]3O)[C@@H]12
REMARK SMILES IDX 12 1 11 2 8 3 9 4 7 5 10 6 24 7 5 8 3 9 4 10 6 11 2 13 1 14
REMARK SMILES IDX 13 16 22 17 14 18 20 19 15 20 18 21 23 22 21 24 16 26 17 27
REMARK SMILES IDX 19 29
REMARK H PARENT 6 12 1 15 23 23 21 25 17 28 19 30
REMARK Flexibility Score: inf
ROOT
ATOM      1  O   UNL     1      63.593   3.583   2.323  1.00  0.00    -0.310 OA
ENDROOT
BRANCH   1   2
ATOM      2  C   UNL     1      63.916   2.227   2.585  1.00  0.00     0.316 C 
ATOM      3  C   UNL     1      61.585   1.636   4.131  1.00  0.00     0.018 C 
ATOM      4  C   UNL     1      61.650   1.296   2.843  1.00  0.00     0.186 C 
ATOM      5  C   UNL     1      62.827   1.987   4.919  1.00  0.00     0.061 C 
ATOM      6  O   UNL     1      62.853   1.387   2.141  1.00  0.00    -0.472 OA
ATOM      7  C   UNL     1      64.144   2.018   4.101  1.00  0.00     0.096 C 
ATOM      8  C   UNL     1      62.757   3.344   5.651  1.00  0.00     0.145 C 
ATOM      9  C   UNL     1      64.898   3.161   4.710  1.00  0.00    -0.036 C 
ATOM     10  C   UNL     1      64.143   3.889   5.527  1.00  0.00     0.007 C 
BRANCH   8  11
ATOM     11  O   UNL     1      61.808   4.228   5.100  1.00  0.00    -0.388 OA
ATOM     12  H   UNL     1      60.911   3.961   5.427  1.00  0.00     0.211 HD
ENDBRANCH   8  11
BRANCH   9  13
ATOM     13  C   UNL     1      66.330   3.489   4.396  1.00  0.00     0.187 C 
BRANCH  13  14
ATOM     14  O   UNL     1      66.379   4.596   3.539  1.00  0.00    -0.392 OA
ATOM     15  H   UNL     1      65.776   5.279   3.934  1.00  0.00     0.211 HD
ENDBRANCH  13  14
ENDBRANCH   9  13
ENDBRANCH   1   2
BRANCH   1  16
ATOM     16  C   UNL     1      64.067   3.985   1.053  1.00  0.00     0.286 C 
ATOM     17  C   UNL     1      63.801   5.492   0.898  1.00  0.00     0.202 C 
ATOM     18  O   UNL     1      65.457   3.719   0.972  1.00  0.00    -0.341 OA
ATOM     19  C   UNL     1      64.299   5.985  -0.478  1.00  0.00     0.179 C 
ATOM     20  C   UNL     1      65.998   4.028  -0.307  1.00  0.00     0.178 C 
ATOM     21  C   UNL     1      65.746   5.503  -0.737  1.00  0.00     0.177 C 
BRANCH  17  22
ATOM     22  O   UNL     1      64.473   6.203   1.908  1.00  0.00    -0.385 OA
ATOM     23  H   UNL     1      64.264   7.165   1.779  1.00  0.00     0.211 HD
ENDBRANCH  17  22
BRANCH  19  24
ATOM     24  O   UNL     1      63.453   5.632  -1.552  1.00  0.00    -0.387 OA
ATOM     25  H   UNL     1      63.361   4.650  -1.608  1.00  0.00     0.211 HD
ENDBRANCH  19  24
BRANCH  20  26
ATOM     26  C   UNL     1      65.696   2.936  -1.362  1.00  0.00     0.191 C 
BRANCH  26  27
ATOM     27  O   UNL     1      64.724   3.332  -2.291  1.00  0.00    -0.394 OA
ATOM     28  H   UNL     1      63.952   2.718  -2.188  1.00  0.00     0.210 HD
ENDBRANCH  26  27
ENDBRANCH  20  26
BRANCH  21  29
ATOM     29  O   UNL     1      66.107   5.689  -2.083  1.00  0.00    -0.387 OA
ATOM     30  H   UNL     1      65.298   5.502  -2.629  1.00  0.00     0.211 HD
ENDBRANCH  21  29
ENDBRANCH   1  16
TORSDOF 10
ENDMDL
MODEL 9
REMARK VINA RESULT:    -4.788      2.774      4.560
REMARK INTER + INTRA:          -8.523
REMARK INTER:                  -6.771
REMARK INTRA:                  -1.751
REMARK UNBOUND:                -1.775
REMARK SMILES OCC1=C[C@@H](O)[C@H]2C=CO[C@@H](O[C@@H]3O[C@@H](CO)[C@@H](O)[C@@H](O)[C@@H]3O)[C@@H]12
REMARK SMILES IDX 12 1 11 2 8 3 9 4 7 5 10 6 24 7 5 8 3 9 4 10 6 11 2 13 1 14
REMARK SMILES IDX 13 16 22 17 14 18 20 19 15 20 18 21 23 22 21 24 16 26 17 27
REMARK SMILES IDX 19 29
REMARK H PARENT 6 12 1 15 23 23 21 25 17 28 19 30
REMARK Flexibility Score: inf
ROOT
ATOM      1  O   UNL     1      65.411   3.957   0.526  1.00  0.00    -0.310 OA
ENDROOT
BRANCH   1   2
ATOM      2  C   UNL     1      66.624   4.483   0.013  1.00  0.00     0.316 C 
ATOM      3  C   UNL     1      67.427   5.827   2.405  1.00  0.00     0.018 C 
ATOM      4  C   UNL     1      67.932   4.632   2.096  1.00  0.00     0.186 C 
ATOM      5  C   UNL     1      66.728   6.681   1.372  1.00  0.00     0.061 C 
ATOM      6  O   UNL     1      67.712   4.069   0.838  1.00  0.00    -0.472 OA
ATOM      7  C   UNL     1      66.561   6.028  -0.024  1.00  0.00     0.096 C 
ATOM      8  C   UNL     1      65.318   7.158   1.784  1.00  0.00     0.145 C 
ATOM      9  C   UNL     1      65.215   6.516  -0.471  1.00  0.00    -0.036 C 
ATOM     10  C   UNL     1      64.537   7.103   0.511  1.00  0.00     0.007 C 
BRANCH   8  11
ATOM     11  O   UNL     1      64.727   6.357   2.781  1.00  0.00    -0.388 OA
ATOM     12  H   UNL     1      63.795   6.161   2.508  1.00  0.00     0.211 HD
ENDBRANCH   8  11
BRANCH   9  13
ATOM     13  C   UNL     1      64.664   6.318  -1.854  1.00  0.00     0.187 C 
BRANCH  13  14
ATOM     14  O   UNL     1      63.612   5.394  -1.811  1.00  0.00    -0.392 OA
ATOM     15  H   UNL     1      62.826   5.886  -1.455  1.00  0.00     0.211 HD
ENDBRANCH  13  14
ENDBRANCH   9  13
ENDBRANCH   1   2
BRANCH   1  16
ATOM     16  C   UNL     1      65.050   2.764  -0.141  1.00  0.00     0.286 C 
ATOM     17  C   UNL     1      63.606   2.411   0.259  1.00  0.00     0.202 C 
ATOM     18  O   UNL     1      65.136   2.971  -1.540  1.00  0.00    -0.341 OA
ATOM     19  C   UNL     1      63.160   1.110  -0.443  1.00  0.00     0.179 C 
ATOM     20  C   UNL     1      64.858   1.791  -2.286  1.00  0.00     0.178 C 
ATOM     21  C   UNL     1      63.467   1.175  -1.957  1.00  0.00     0.177 C 
BRANCH  17  22
ATOM     22  O   UNL     1      62.738   3.452  -0.115  1.00  0.00    -0.385 OA
ATOM     23  H   UNL     1      62.028   3.505   0.577  1.00  0.00     0.211 HD
ENDBRANCH  17  22
BRANCH  19  24
ATOM     24  O   UNL     1      63.702  -0.062   0.128  1.00  0.00    -0.387 OA
ATOM     25  H   UNL     1      62.990  -0.732   0.277  1.00  0.00     0.211 HD
ENDBRANCH  19  24
BRANCH  20  26
ATOM     26  C   UNL     1      66.058   0.814  -2.324  1.00  0.00     0.191 C 
BRANCH  26  27
ATOM     27  O   UNL     1      65.843  -0.341  -1.560  1.00  0.00    -0.394 OA
ATOM     28  H   UNL     1      64.877  -0.558  -1.624  1.00  0.00     0.210 HD
ENDBRANCH  26  27
ENDBRANCH  20  26
BRANCH  21  29
ATOM     29  O   UNL     1      63.338  -0.091  -2.554  1.00  0.00    -0.387 OA
ATOM     30  H   UNL     1      62.388  -0.188  -2.825  1.00  0.00     0.211 HD
ENDBRANCH  21  29
ENDBRANCH   1  16
TORSDOF 10
ENDMDL
