MODEL 1
REMARK VINA RESULT:     0.000      0.000      0.000
REMARK INTER + INTRA:          -3.126
REMARK INTER:                   0.000
REMARK INTRA:                  -3.126
REMARK UNBOUND:                -3.126
REMARK SMILES O=C([O-])CCCCCCCCCCCCCCC(=O)[O-]
REMARK SMILES IDX 10 1 9 2 8 3 7 4 6 5 5 6 4 7 2 8 1 9 3 10 11 11 12 12 13 13
REMARK SMILES IDX 14 14 15 15 16 16 17 17 18 18 19 19 20 20
REMARK H PARENT
REMARK Flexibility Score: inf
ROOT
ATOM      1  C   UNL     1     170.870 188.547 181.338  1.00  0.00     0.000 C 
ENDROOT
BRANCH   1   2
ATOM      2  C   UNL     1     171.756 188.287 182.567  1.00  0.00     0.000 C 
BRANCH   2   3
ATOM      3  C   UNL     1     172.587 189.519 182.966  1.00  0.00     0.000 C 
BRANCH   3   4
ATOM      4  C   UNL     1     172.338 189.953 184.421  1.00  0.00     0.000 C 
BRANCH   4   5
ATOM      5  C   UNL     1     172.101 191.467 184.552  1.00  0.00     0.000 C 
BRANCH   5   6
ATOM      6  C   UNL     1     172.209 192.200 183.205  1.00  0.00     0.006 C 
BRANCH   6   7
ATOM      7  C   UNL     1     171.374 193.488 183.162  1.00  0.00     0.053 C 
BRANCH   7   8
ATOM      8  C   UNL     1     171.208 193.954 181.751  1.00  0.00     0.041 C 
ATOM      9  O   UNL     1     172.126 193.767 180.909  1.00  0.00    -0.550 OA
ATOM     10  O   UNL     1     170.021 194.554 181.352  1.00  0.00    -0.550 OA
ENDBRANCH   7   8
ENDBRANCH   6   7
ENDBRANCH   5   6
ENDBRANCH   4   5
ENDBRANCH   3   4
ENDBRANCH   2   3
ENDBRANCH   1   2
BRANCH   1  11
ATOM     11  C   UNL     1     171.287 189.804 180.559  1.00  0.00     0.000 C 
BRANCH  11  12
ATOM     12  C   UNL     1     170.092 190.743 180.354  1.00  0.00     0.000 C 
BRANCH  12  13
ATOM     13  C   UNL     1     168.889 190.296 181.194  1.00  0.00     0.000 C 
BRANCH  13  14
ATOM     14  C   UNL     1     168.473 191.388 182.185  1.00  0.00     0.000 C 
BRANCH  14  15
ATOM     15  C   UNL     1     168.641 190.908 183.635  1.00  0.00     0.000 C 
BRANCH  15  16
ATOM     16  C   UNL     1     168.245 189.432 183.825  1.00  0.00     0.006 C 
BRANCH  16  17
ATOM     17  C   UNL     1     168.933 188.740 185.012  1.00  0.00     0.053 C 
BRANCH  17  18
ATOM     18  C   UNL     1     168.709 189.477 186.297  1.00  0.00     0.041 C 
ATOM     19  O   UNL     1     167.549 189.578 186.776  1.00  0.00    -0.550 OA
ATOM     20  O   UNL     1     169.778 190.080 186.948  1.00  0.00    -0.550 OA
ENDBRANCH  17  18
ENDBRANCH  16  17
ENDBRANCH  15  16
ENDBRANCH  14  15
ENDBRANCH  13  14
ENDBRANCH  12  13
ENDBRANCH  11  12
ENDBRANCH   1  11
TORSDOF 15
ENDMDL
MODEL 2
REMARK VINA RESULT:     0.001      5.447      8.366
REMARK INTER + INTRA:          -3.123
REMARK INTER:                   0.000
REMARK INTRA:                  -3.123
REMARK UNBOUND:                -3.126
REMARK SMILES O=C([O-])CCCCCCCCCCCCCCC(=O)[O-]
REMARK SMILES IDX 10 1 9 2 8 3 7 4 6 5 5 6 4 7 2 8 1 9 3 10 11 11 12 12 13 13
REMARK SMILES IDX 14 14 15 15 16 16 17 17 18 18 19 19 20 20
REMARK H PARENT
REMARK Flexibility Score: inf
ROOT
ATOM      1  C   UNL     1     167.924 189.834 187.366  1.00  0.00     0.000 C 
ENDROOT
BRANCH   1   2
ATOM      2  C   UNL     1     167.867 188.331 187.052  1.00  0.00     0.000 C 
BRANCH   2   3
ATOM      3  C   UNL     1     166.658 187.637 187.705  1.00  0.00     0.000 C 
BRANCH   3   4
ATOM      4  C   UNL     1     165.580 187.245 186.681  1.00  0.00     0.000 C 
BRANCH   4   5
ATOM      5  C   UNL     1     164.166 187.656 187.127  1.00  0.00     0.000 C 
BRANCH   5   6
ATOM      6  C   UNL     1     164.075 187.906 188.641  1.00  0.00     0.006 C 
BRANCH   6   7
ATOM      7  C   UNL     1     163.186 189.107 188.992  1.00  0.00     0.053 C 
BRANCH   7   8
ATOM      8  C   UNL     1     161.831 188.949 188.378  1.00  0.00     0.041 C 
ATOM      9  O   UNL     1     161.075 188.012 188.745  1.00  0.00    -0.550 OA
ATOM     10  O   UNL     1     161.384 189.865 187.435  1.00  0.00    -0.550 OA
ENDBRANCH   7   8
ENDBRANCH   6   7
ENDBRANCH   5   6
ENDBRANCH   4   5
ENDBRANCH   3   4
ENDBRANCH   2   3
ENDBRANCH   1   2
BRANCH   1  11
ATOM     11  C   UNL     1     167.130 190.210 188.626  1.00  0.00     0.000 C 
BRANCH  11  12
ATOM     12  C   UNL     1     166.082 191.284 188.314  1.00  0.00     0.000 C 
BRANCH  12  13
ATOM     13  C   UNL     1     165.971 191.524 186.803  1.00  0.00     0.000 C 
BRANCH  13  14
ATOM     14  C   UNL     1     164.539 191.284 186.311  1.00  0.00     0.000 C 
BRANCH  14  15
ATOM     15  C   UNL     1     164.537 190.514 184.981  1.00  0.00     0.000 C 
BRANCH  15  16
ATOM     16  C   UNL     1     165.917 190.498 184.298  1.00  0.00     0.006 C 
BRANCH  16  17
ATOM     17  C   UNL     1     166.322 189.131 183.723  1.00  0.00     0.053 C 
BRANCH  17  18
ATOM     18  C   UNL     1     165.239 188.536 182.877  1.00  0.00     0.041 C 
ATOM     19  O   UNL     1     164.698 187.449 183.212  1.00  0.00    -0.550 OA
ATOM     20  O   UNL     1     164.849 189.166 181.702  1.00  0.00    -0.550 OA
ENDBRANCH  17  18
ENDBRANCH  16  17
ENDBRANCH  15  16
ENDBRANCH  14  15
ENDBRANCH  13  14
ENDBRANCH  12  13
ENDBRANCH  11  12
ENDBRANCH   1  11
TORSDOF 15
ENDMDL
MODEL 3
REMARK VINA RESULT:     0.019      4.836      7.173
REMARK INTER + INTRA:          -3.090
REMARK INTER:                   0.000
REMARK INTRA:                  -3.090
REMARK UNBOUND:                -3.126
REMARK SMILES O=C([O-])CCCCCCCCCCCCCCC(=O)[O-]
REMARK SMILES IDX 10 1 9 2 8 3 7 4 6 5 5 6 4 7 2 8 1 9 3 10 11 11 12 12 13 13
REMARK SMILES IDX 14 14 15 15 16 16 17 17 18 18 19 19 20 20
REMARK H PARENT
REMARK Flexibility Score: inf
ROOT
ATOM      1  C   UNL     1     165.387 193.743 186.471  1.00  0.00     0.000 C 
ENDROOT
BRANCH   1   2
ATOM      2  C   UNL     1     166.124 193.281 187.738  1.00  0.00     0.000 C 
BRANCH   2   3
ATOM      3  C   UNL     1     167.094 192.117 187.466  1.00  0.00     0.000 C 
BRANCH   3   4
ATOM      4  C   UNL     1     166.558 190.770 187.979  1.00  0.00     0.000 C 
BRANCH   4   5
ATOM      5  C   UNL     1     166.790 189.624 186.980  1.00  0.00     0.000 C 
BRANCH   5   6
ATOM      6  C   UNL     1     167.660 190.050 185.786  1.00  0.00     0.006 C 
BRANCH   6   7
ATOM      7  C   UNL     1     167.241 189.371 184.474  1.00  0.00     0.053 C 
BRANCH   7   8
ATOM      8  C   UNL     1     167.563 187.911 184.518  1.00  0.00     0.041 C 
ATOM      9  O   UNL     1     166.699 187.060 184.180  1.00  0.00    -0.550 OA
ATOM     10  O   UNL     1     168.834 187.490 184.888  1.00  0.00    -0.550 OA
ENDBRANCH   7   8
ENDBRANCH   6   7
ENDBRANCH   5   6
ENDBRANCH   4   5
ENDBRANCH   3   4
ENDBRANCH   2   3
ENDBRANCH   1   2
BRANCH   1  11
ATOM     11  C   UNL     1     166.139 193.381 185.180  1.00  0.00     0.000 C 
BRANCH  11  12
ATOM     12  C   UNL     1     165.251 192.554 184.242  1.00  0.00     0.000 C 
BRANCH  12  13
ATOM     13  C   UNL     1     163.936 192.164 184.929  1.00  0.00     0.000 C 
BRANCH  13  14
ATOM     14  C   UNL     1     163.779 190.641 184.993  1.00  0.00     0.000 C 
BRANCH  14  15
ATOM     15  C   UNL     1     163.208 190.204 186.351  1.00  0.00     0.000 C 
BRANCH  15  16
ATOM     16  C   UNL     1     162.613 191.376 187.154  1.00  0.00     0.006 C 
BRANCH  16  17
ATOM     17  C   UNL     1     163.006 191.389 188.639  1.00  0.00     0.053 C 
BRANCH  17  18
ATOM     18  C   UNL     1     162.739 190.072 189.301  1.00  0.00     0.041 C 
ATOM     19  O   UNL     1     161.556 189.688 189.496  1.00  0.00    -0.550 OA
ATOM     20  O   UNL     1     163.799 189.282 189.730  1.00  0.00    -0.550 OA
ENDBRANCH  17  18
ENDBRANCH  16  17
ENDBRANCH  15  16
ENDBRANCH  14  15
ENDBRANCH  13  14
ENDBRANCH  12  13
ENDBRANCH  11  12
ENDBRANCH   1  11
TORSDOF 15
ENDMDL
MODEL 4
REMARK VINA RESULT:     0.019      4.050      6.916
REMARK INTER + INTRA:          -3.090
REMARK INTER:                   0.000
REMARK INTRA:                  -3.090
REMARK UNBOUND:                -3.126
REMARK SMILES O=C([O-])CCCCCCCCCCCCCCC(=O)[O-]
REMARK SMILES IDX 10 1 9 2 8 3 7 4 6 5 5 6 4 7 2 8 1 9 3 10 11 11 12 12 13 13
REMARK SMILES IDX 14 14 15 15 16 16 17 17 18 18 19 19 20 20
REMARK H PARENT
REMARK Flexibility Score: inf
ROOT
ATOM      1  C   UNL     1     175.259 188.305 188.472  1.00  0.00     0.000 C 
ENDROOT
BRANCH   1   2
ATOM      2  C   UNL     1     174.395 187.461 187.522  1.00  0.00     0.000 C 
BRANCH   2   3
ATOM      3  C   UNL     1     174.422 187.987 186.075  1.00  0.00     0.000 C 
BRANCH   3   4
ATOM      4  C   UNL     1     173.018 188.082 185.455  1.00  0.00     0.000 C 
BRANCH   4   5
ATOM      5  C   UNL     1     171.988 187.207 186.190  1.00  0.00     0.000 C 
BRANCH   5   6
ATOM      6  C   UNL     1     170.615 187.888 186.312  1.00  0.00     0.006 C 
BRANCH   6   7
ATOM      7  C   UNL     1     170.393 188.970 185.246  1.00  0.00     0.053 C 
BRANCH   7   8
ATOM      8  C   UNL     1     169.328 189.924 185.686  1.00  0.00     0.041 C 
ATOM      9  O   UNL     1     168.609 190.508 184.833  1.00  0.00    -0.550 OA
ATOM     10  O   UNL     1     169.098 190.133 187.039  1.00  0.00    -0.550 OA
ENDBRANCH   7   8
ENDBRANCH   6   7
ENDBRANCH   5   6
ENDBRANCH   4   5
ENDBRANCH   3   4
ENDBRANCH   2   3
ENDBRANCH   1   2
BRANCH   1  11
ATOM     11  C   UNL     1     174.422 189.153 189.442  1.00  0.00     0.000 C 
BRANCH  11  12
ATOM     12  C   UNL     1     172.955 188.707 189.435  1.00  0.00     0.000 C 
BRANCH  12  13
ATOM     13  C   UNL     1     172.024 189.879 189.097  1.00  0.00     0.000 C 
BRANCH  13  14
ATOM     14  C   UNL     1     172.820 191.083 188.581  1.00  0.00     0.000 C 
BRANCH  14  15
ATOM     15  C   UNL     1     172.463 191.392 187.118  1.00  0.00     0.000 C 
BRANCH  15  16
ATOM     16  C   UNL     1     173.703 191.654 186.244  1.00  0.00     0.006 C 
BRANCH  16  17
ATOM     17  C   UNL     1     175.000 191.880 187.036  1.00  0.00     0.053 C 
BRANCH  17  18
ATOM     18  C   UNL     1     176.184 191.259 186.361  1.00  0.00     0.041 C 
ATOM     19  O   UNL     1     176.161 191.032 185.123  1.00  0.00    -0.550 OA
ATOM     20  O   UNL     1     177.301 190.903 187.105  1.00  0.00    -0.550 OA
ENDBRANCH  17  18
ENDBRANCH  16  17
ENDBRANCH  15  16
ENDBRANCH  14  15
ENDBRANCH  13  14
ENDBRANCH  12  13
ENDBRANCH  11  12
ENDBRANCH   1  11
TORSDOF 15
ENDMDL
MODEL 5
REMARK VINA RESULT:     0.020      6.095      8.077
REMARK INTER + INTRA:          -3.088
REMARK INTER:                   0.000
REMARK INTRA:                  -3.088
REMARK UNBOUND:                -3.126
REMARK SMILES O=C([O-])CCCCCCCCCCCCCCC(=O)[O-]
REMARK SMILES IDX 10 1 9 2 8 3 7 4 6 5 5 6 4 7 2 8 1 9 3 10 11 11 12 12 13 13
REMARK SMILES IDX 14 14 15 15 16 16 17 17 18 18 19 19 20 20
REMARK H PARENT
REMARK Flexibility Score: inf
ROOT
ATOM      1  C   UNL     1     165.030 189.327 183.894  1.00  0.00     0.000 C 
ENDROOT
BRANCH   1   2
ATOM      2  C   UNL     1     165.643 187.980 184.309  1.00  0.00     0.000 C 
BRANCH   2   3
ATOM      3  C   UNL     1     164.578 186.950 184.726  1.00  0.00     0.000 C 
BRANCH   3   4
ATOM      4  C   UNL     1     163.162 187.351 184.280  1.00  0.00     0.000 C 
BRANCH   4   5
ATOM      5  C   UNL     1     162.603 186.423 183.188  1.00  0.00     0.000 C 
BRANCH   5   6
ATOM      6  C   UNL     1     162.115 187.195 181.951  1.00  0.00     0.006 C 
BRANCH   6   7
ATOM      7  C   UNL     1     161.773 188.659 182.262  1.00  0.00     0.053 C 
BRANCH   7   8
ATOM      8  C   UNL     1     161.948 189.506 181.042  1.00  0.00     0.041 C 
ATOM      9  O   UNL     1     162.205 190.733 181.154  1.00  0.00    -0.550 OA
ATOM     10  O   UNL     1     161.874 188.930 179.780  1.00  0.00    -0.550 OA
ENDBRANCH   7   8
ENDBRANCH   6   7
ENDBRANCH   5   6
ENDBRANCH   4   5
ENDBRANCH   3   4
ENDBRANCH   2   3
ENDBRANCH   1   2
BRANCH   1  11
ATOM     11  C   UNL     1     165.413 189.740 182.465  1.00  0.00     0.000 C 
BRANCH  11  12
ATOM     12  C   UNL     1     166.083 188.580 181.720  1.00  0.00     0.000 C 
BRANCH  12  13
ATOM     13  C   UNL     1     165.406 188.330 180.366  1.00  0.00     0.000 C 
BRANCH  13  14
ATOM     14  C   UNL     1     165.279 186.829 180.083  1.00  0.00     0.000 C 
BRANCH  14  15
ATOM     15  C   UNL     1     165.860 186.000 181.239  1.00  0.00     0.000 C 
BRANCH  15  16
ATOM     16  C   UNL     1     165.207 184.611 181.365  1.00  0.00     0.006 C 
BRANCH  16  17
ATOM     17  C   UNL     1     165.365 183.961 182.749  1.00  0.00     0.053 C 
BRANCH  17  18
ATOM     18  C   UNL     1     166.802 183.855 183.157  1.00  0.00     0.041 C 
ATOM     19  O   UNL     1     167.227 184.497 184.153  1.00  0.00    -0.550 OA
ATOM     20  O   UNL     1     167.679 183.071 182.418  1.00  0.00    -0.550 OA
ENDBRANCH  17  18
ENDBRANCH  16  17
ENDBRANCH  15  16
ENDBRANCH  14  15
ENDBRANCH  13  14
ENDBRANCH  12  13
ENDBRANCH  11  12
ENDBRANCH   1  11
TORSDOF 15
ENDMDL
MODEL 6
REMARK VINA RESULT:     0.021      2.720      4.755
REMARK INTER + INTRA:          -3.086
REMARK INTER:                   0.000
REMARK INTRA:                  -3.086
REMARK UNBOUND:                -3.126
REMARK SMILES O=C([O-])CCCCCCCCCCCCCCC(=O)[O-]
REMARK SMILES IDX 10 1 9 2 8 3 7 4 6 5 5 6 4 7 2 8 1 9 3 10 11 11 12 12 13 13
REMARK SMILES IDX 14 14 15 15 16 16 17 17 18 18 19 19 20 20
REMARK H PARENT
REMARK Flexibility Score: inf
ROOT
ATOM      1  C   UNL     1     170.745 187.501 185.741  1.00  0.00     0.000 C 
ENDROOT
BRANCH   1   2
ATOM      2  C   UNL     1     170.880 188.687 186.709  1.00  0.00     0.000 C 
BRANCH   2   3
ATOM      3  C   UNL     1     171.583 189.897 186.067  1.00  0.00     0.000 C 
BRANCH   3   4
ATOM      4  C   UNL     1     170.871 191.225 186.375  1.00  0.00     0.000 C 
BRANCH   4   5
ATOM      5  C   UNL     1     169.953 191.131 187.606  1.00  0.00     0.000 C 
BRANCH   5   6
ATOM      6  C   UNL     1     168.567 191.748 187.356  1.00  0.00     0.006 C 
BRANCH   6   7
ATOM      7  C   UNL     1     168.614 192.941 186.391  1.00  0.00     0.053 C 
BRANCH   7   8
ATOM      8  C   UNL     1     167.259 193.196 185.812  1.00  0.00     0.041 C 
ATOM      9  O   UNL     1     166.347 192.336 185.931  1.00  0.00    -0.550 OA
ATOM     10  O   UNL     1     166.988 194.404 185.182  1.00  0.00    -0.550 OA
ENDBRANCH   7   8
ENDBRANCH   6   7
ENDBRANCH   5   6
ENDBRANCH   4   5
ENDBRANCH   3   4
ENDBRANCH   2   3
ENDBRANCH   1   2
BRANCH   1  11
ATOM     11  C   UNL     1     169.296 187.266 185.287  1.00  0.00     0.000 C 
BRANCH  11  12
ATOM     12  C   UNL     1     168.318 188.107 186.116  1.00  0.00     0.000 C 
BRANCH  12  13
ATOM     13  C   UNL     1     167.437 188.979 185.213  1.00  0.00     0.000 C 
BRANCH  13  14
ATOM     14  C   UNL     1     168.041 189.105 183.810  1.00  0.00     0.000 C 
BRANCH  14  15
ATOM     15  C   UNL     1     168.567 190.528 183.563  1.00  0.00     0.000 C 
BRANCH  15  16
ATOM     16  C   UNL     1     169.914 190.545 182.818  1.00  0.00     0.006 C 
BRANCH  16  17
ATOM     17  C   UNL     1     170.368 189.173 182.298  1.00  0.00     0.053 C 
BRANCH  17  18
ATOM     18  C   UNL     1     171.842 188.968 182.469  1.00  0.00     0.041 C 
ATOM     19  O   UNL     1     172.317 187.804 182.538  1.00  0.00    -0.550 OA
ATOM     20  O   UNL     1     172.687 190.065 182.585  1.00  0.00    -0.550 OA
ENDBRANCH  17  18
ENDBRANCH  16  17
ENDBRANCH  15  16
ENDBRANCH  14  15
ENDBRANCH  13  14
ENDBRANCH  12  13
ENDBRANCH  11  12
ENDBRANCH   1  11
TORSDOF 15
ENDMDL
MODEL 7
REMARK VINA RESULT:     0.021      3.532      6.350
REMARK INTER + INTRA:          -3.086
REMARK INTER:                   0.000
REMARK INTRA:                  -3.086
REMARK UNBOUND:                -3.126
REMARK SMILES O=C([O-])CCCCCCCCCCCCCCC(=O)[O-]
REMARK SMILES IDX 10 1 9 2 8 3 7 4 6 5 5 6 4 7 2 8 1 9 3 10 11 11 12 12 13 13
REMARK SMILES IDX 14 14 15 15 16 16 17 17 18 18 19 19 20 20
REMARK H PARENT
REMARK Flexibility Score: inf
ROOT
ATOM      1  C   UNL     1     169.419 193.836 181.169  1.00  0.00     0.000 C 
ENDROOT
BRANCH   1   2
ATOM      2  C   UNL     1     169.088 195.291 181.537  1.00  0.00     0.000 C 
BRANCH   2   3
ATOM      3  C   UNL     1     168.246 195.400 182.820  1.00  0.00     0.000 C 
BRANCH   3   4
ATOM      4  C   UNL     1     168.205 194.082 183.613  1.00  0.00     0.000 C 
BRANCH   4   5
ATOM      5  C   UNL     1     168.930 194.185 184.966  1.00  0.00     0.000 C 
BRANCH   5   6
ATOM      6  C   UNL     1     169.863 192.991 185.227  1.00  0.00     0.006 C 
BRANCH   6   7
ATOM      7  C   UNL     1     169.604 191.816 184.274  1.00  0.00     0.053 C 
BRANCH   7   8
ATOM      8  C   UNL     1     170.892 191.156 183.898  1.00  0.00     0.041 C 
ATOM      9  O   UNL     1     171.898 191.257 184.647  1.00  0.00    -0.550 OA
ATOM     10  O   UNL     1     170.969 190.389 182.743  1.00  0.00    -0.550 OA
ENDBRANCH   7   8
ENDBRANCH   6   7
ENDBRANCH   5   6
ENDBRANCH   4   5
ENDBRANCH   3   4
ENDBRANCH   2   3
ENDBRANCH   1   2
BRANCH   1  11
ATOM     11  C   UNL     1     170.931 193.572 181.089  1.00  0.00     0.000 C 
BRANCH  11  12
ATOM     12  C   UNL     1     171.726 194.778 181.600  1.00  0.00     0.000 C 
BRANCH  12  13
ATOM     13  C   UNL     1     172.376 194.477 182.956  1.00  0.00     0.000 C 
BRANCH  13  14
ATOM     14  C   UNL     1     172.197 195.650 183.926  1.00  0.00     0.000 C 
BRANCH  14  15
ATOM     15  C   UNL     1     172.037 196.974 183.164  1.00  0.00     0.000 C 
BRANCH  15  16
ATOM     16  C   UNL     1     170.883 197.839 183.705  1.00  0.00     0.006 C 
BRANCH  16  17
ATOM     17  C   UNL     1     170.452 197.493 185.139  1.00  0.00     0.053 C 
BRANCH  17  18
ATOM     18  C   UNL     1     169.198 198.210 185.535  1.00  0.00     0.041 C 
ATOM     19  O   UNL     1     168.116 197.577 185.654  1.00  0.00    -0.550 OA
ATOM     20  O   UNL     1     169.218 199.583 185.743  1.00  0.00    -0.550 OA
ENDBRANCH  17  18
ENDBRANCH  16  17
ENDBRANCH  15  16
ENDBRANCH  14  15
ENDBRANCH  13  14
ENDBRANCH  12  13
ENDBRANCH  11  12
ENDBRANCH   1  11
TORSDOF 15
ENDMDL
MODEL 8
REMARK VINA RESULT:     0.024     10.471     13.979
REMARK INTER + INTRA:          -3.080
REMARK INTER:                   0.000
REMARK INTRA:                  -3.080
REMARK UNBOUND:                -3.126
REMARK SMILES O=C([O-])CCCCCCCCCCCCCCC(=O)[O-]
REMARK SMILES IDX 10 1 9 2 8 3 7 4 6 5 5 6 4 7 2 8 1 9 3 10 11 11 12 12 13 13
REMARK SMILES IDX 14 14 15 15 16 16 17 17 18 18 19 19 20 20
REMARK H PARENT
REMARK Flexibility Score: inf
ROOT
ATOM      1  C   UNL     1     163.720 186.378 189.982  1.00  0.00     0.000 C 
ENDROOT
BRANCH   1   2
ATOM      2  C   UNL     1     162.637 186.582 191.053  1.00  0.00     0.000 C 
BRANCH   2   3
ATOM      3  C   UNL     1     161.415 187.350 190.519  1.00  0.00     0.000 C 
BRANCH   3   4
ATOM      4  C   UNL     1     160.086 186.649 190.851  1.00  0.00     0.000 C 
BRANCH   4   5
ATOM      5  C   UNL     1     160.251 185.541 191.905  1.00  0.00     0.000 C 
BRANCH   5   6
ATOM      6  C   UNL     1     159.068 184.559 191.918  1.00  0.00     0.006 C 
BRANCH   6   7
ATOM      7  C   UNL     1     159.498 183.116 192.217  1.00  0.00     0.053 C 
BRANCH   7   8
ATOM      8  C   UNL     1     160.196 183.044 193.538  1.00  0.00     0.041 C 
ATOM      9  O   UNL     1     159.569 183.294 194.601  1.00  0.00    -0.550 OA
ATOM     10  O   UNL     1     161.527 182.653 193.601  1.00  0.00    -0.550 OA
ENDBRANCH   7   8
ENDBRANCH   6   7
ENDBRANCH   5   6
ENDBRANCH   4   5
ENDBRANCH   3   4
ENDBRANCH   2   3
ENDBRANCH   1   2
BRANCH   1  11
ATOM     11  C   UNL     1     164.044 184.895 189.738  1.00  0.00     0.000 C 
BRANCH  11  12
ATOM     12  C   UNL     1     163.389 184.009 190.804  1.00  0.00     0.000 C 
BRANCH  12  13
ATOM     13  C   UNL     1     162.548 182.901 190.157  1.00  0.00     0.000 C 
BRANCH  13  14
ATOM     14  C   UNL     1     162.138 183.282 188.731  1.00  0.00     0.000 C 
BRANCH  14  15
ATOM     15  C   UNL     1     160.642 183.629 188.662  1.00  0.00     0.000 C 
BRANCH  15  16
ATOM     16  C   UNL     1     160.342 184.785 187.691  1.00  0.00     0.006 C 
BRANCH  16  17
ATOM     17  C   UNL     1     161.586 185.388 187.021  1.00  0.00     0.053 C 
BRANCH  17  18
ATOM     18  C   UNL     1     161.515 186.883 186.950  1.00  0.00     0.041 C 
ATOM     19  O   UNL     1     160.404 187.470 187.026  1.00  0.00    -0.550 OA
ATOM     20  O   UNL     1     162.675 187.626 186.770  1.00  0.00    -0.550 OA
ENDBRANCH  17  18
ENDBRANCH  16  17
ENDBRANCH  15  16
ENDBRANCH  14  15
ENDBRANCH  13  14
ENDBRANCH  12  13
ENDBRANCH  11  12
ENDBRANCH   1  11
TORSDOF 15
ENDMDL
MODEL 9
REMARK VINA RESULT:     0.027      4.072      5.920
REMARK INTER + INTRA:          -3.075
REMARK INTER:                   0.000
REMARK INTRA:                  -3.075
REMARK UNBOUND:                -3.126
REMARK SMILES O=C([O-])CCCCCCCCCCCCCCC(=O)[O-]
REMARK SMILES IDX 10 1 9 2 8 3 7 4 6 5 5 6 4 7 2 8 1 9 3 10 11 11 12 12 13 13
REMARK SMILES IDX 14 14 15 15 16 16 17 17 18 18 19 19 20 20
REMARK H PARENT
REMARK Flexibility Score: inf
ROOT
ATOM      1  C   UNL     1     169.161 189.896 184.821  1.00  0.00     0.000 C 
ENDROOT
BRANCH   1   2
ATOM      2  C   UNL     1     168.264 189.056 185.744  1.00  0.00     0.000 C 
BRANCH   2   3
ATOM      3  C   UNL     1     166.771 189.390 185.580  1.00  0.00     0.000 C 
BRANCH   3   4
ATOM      4  C   UNL     1     166.132 189.898 186.884  1.00  0.00     0.000 C 
BRANCH   4   5
ATOM      5  C   UNL     1     165.379 191.226 186.693  1.00  0.00     0.000 C 
BRANCH   5   6
ATOM      6  C   UNL     1     165.173 191.579 185.211  1.00  0.00     0.006 C 
BRANCH   6   7
ATOM      7  C   UNL     1     165.154 193.094 184.960  1.00  0.00     0.053 C 
BRANCH   7   8
ATOM      8  C   UNL     1     163.998 193.725 185.668  1.00  0.00     0.041 C 
ATOM      9  O   UNL     1     164.183 194.710 186.429  1.00  0.00    -0.550 OA
ATOM     10  O   UNL     1     162.710 193.254 185.452  1.00  0.00    -0.550 OA
ENDBRANCH   7   8
ENDBRANCH   6   7
ENDBRANCH   5   6
ENDBRANCH   4   5
ENDBRANCH   3   4
ENDBRANCH   2   3
ENDBRANCH   1   2
BRANCH   1  11
ATOM     11  C   UNL     1     168.380 190.568 183.682  1.00  0.00     0.000 C 
BRANCH  11  12
ATOM     12  C   UNL     1     168.581 192.088 183.702  1.00  0.00     0.000 C 
BRANCH  12  13
ATOM     13  C   UNL     1     169.420 192.517 184.912  1.00  0.00     0.000 C 
BRANCH  13  14
ATOM     14  C   UNL     1     168.704 193.605 185.720  1.00  0.00     0.000 C 
BRANCH  14  15
ATOM     15  C   UNL     1     168.399 193.120 187.146  1.00  0.00     0.000 C 
BRANCH  15  16
ATOM     16  C   UNL     1     169.490 192.189 187.706  1.00  0.00     0.006 C 
BRANCH  16  17
ATOM     17  C   UNL     1     168.987 191.185 188.756  1.00  0.00     0.053 C 
BRANCH  17  18
ATOM     18  C   UNL     1     168.196 191.854 189.837  1.00  0.00     0.041 C 
ATOM     19  O   UNL     1     168.761 192.640 190.642  1.00  0.00    -0.550 OA
ATOM     20  O   UNL     1     166.840 191.585 189.974  1.00  0.00    -0.550 OA
ENDBRANCH  17  18
ENDBRANCH  16  17
ENDBRANCH  15  16
ENDBRANCH  14  15
ENDBRANCH  13  14
ENDBRANCH  12  13
ENDBRANCH  11  12
ENDBRANCH   1  11
TORSDOF 15
ENDMDL
