MODEL 1
REMARK VINA RESULT:    -3.824      0.000      0.000
REMARK INTER + INTRA:          -6.918
REMARK INTER:                  -6.060
REMARK INTRA:                  -0.858
REMARK UNBOUND:                -0.858
REMARK SMILES CCCCCCCCCCCC(=O)[O-]
REMARK SMILES IDX 7 1 8 2 9 3 10 4 11 5 12 6 13 7 14 8 6 9 5 10 4 11 3 12 2 13
REMARK SMILES IDX 1 14
REMARK H PARENT
REMARK Flexibility Score: inf
ROOT
ATOM      1  C   UNL     1     -21.803   2.713 -24.960  1.00  0.00     0.000 C 
ENDROOT
BRANCH   1   2
ATOM      2  C   UNL     1     -22.028   2.149 -26.371  1.00  0.00     0.000 C 
BRANCH   2   3
ATOM      3  C   UNL     1     -20.839   2.411 -27.310  1.00  0.00     0.000 C 
BRANCH   3   4
ATOM      4  C   UNL     1     -20.263   1.120 -27.911  1.00  0.00     0.006 C 
BRANCH   4   5
ATOM      5  C   UNL     1     -20.589  -0.089 -27.028  1.00  0.00     0.053 C 
BRANCH   5   6
ATOM      6  C   UNL     1     -19.444  -0.396 -26.116  1.00  0.00     0.041 C 
ATOM      7  O   UNL     1     -18.501  -1.133 -26.509  1.00  0.00    -0.550 OA
ATOM      8  O   UNL     1     -19.393   0.172 -24.849  1.00  0.00    -0.550 OA
ENDBRANCH   5   6
ENDBRANCH   4   5
ENDBRANCH   3   4
ENDBRANCH   2   3
ENDBRANCH   1   2
BRANCH   1   9
ATOM      9  C   UNL     1     -20.624   3.697 -24.945  1.00  0.00     0.000 C 
BRANCH   9  10
ATOM     10  C   UNL     1     -19.847   3.668 -23.619  1.00  0.00    -0.000 C 
BRANCH  10  11
ATOM     11  C   UNL     1     -20.645   3.008 -22.481  1.00  0.00    -0.000 C 
BRANCH  11  12
ATOM     12  C   UNL     1     -21.273   4.036 -21.525  1.00  0.00    -0.000 C 
BRANCH  12  13
ATOM     13  C   UNL     1     -20.576   4.073 -20.158  1.00  0.00    -0.003 C 
ATOM     14  C   UNL     1     -19.709   2.834 -19.950  1.00  0.00     0.004 C 
ENDBRANCH  12  13
ENDBRANCH  11  12
ENDBRANCH  10  11
ENDBRANCH   9  10
ENDBRANCH   1   9
TORSDOF 10
ENDMDL
MODEL 2
REMARK VINA RESULT:    -3.703      1.618      2.655
REMARK INTER + INTRA:          -6.726
REMARK INTER:                  -5.198
REMARK INTRA:                  -1.528
REMARK UNBOUND:                -0.858
REMARK SMILES CCCCCCCCCCCC(=O)[O-]
REMARK SMILES IDX 7 1 8 2 9 3 10 4 11 5 12 6 13 7 14 8 6 9 5 10 4 11 3 12 2 13
REMARK SMILES IDX 1 14
REMARK H PARENT
REMARK Flexibility Score: inf
ROOT
ATOM      1  C   UNL     1     -23.737   2.727 -25.843  1.00  0.00     0.000 C 
ENDROOT
BRANCH   1   2
ATOM      2  C   UNL     1     -22.625   3.309 -26.728  1.00  0.00     0.000 C 
BRANCH   2   3
ATOM      3  C   UNL     1     -21.704   2.226 -27.311  1.00  0.00     0.000 C 
BRANCH   3   4
ATOM      4  C   UNL     1     -21.389   1.110 -26.303  1.00  0.00     0.006 C 
BRANCH   4   5
ATOM      5  C   UNL     1     -20.552   0.004 -26.954  1.00  0.00     0.053 C 
BRANCH   5   6
ATOM      6  C   UNL     1     -19.428  -0.401 -26.054  1.00  0.00     0.041 C 
ATOM      7  O   UNL     1     -19.441  -0.075 -24.838  1.00  0.00    -0.550 OA
ATOM      8  O   UNL     1     -18.391  -1.182 -26.548  1.00  0.00    -0.550 OA
ENDBRANCH   5   6
ENDBRANCH   4   5
ENDBRANCH   3   4
ENDBRANCH   2   3
ENDBRANCH   1   2
BRANCH   1   9
ATOM      9  C   UNL     1     -23.815   3.473 -24.502  1.00  0.00     0.000 C 
BRANCH   9  10
ATOM     10  C   UNL     1     -22.500   4.183 -24.144  1.00  0.00    -0.000 C 
BRANCH  10  11
ATOM     11  C   UNL     1     -21.689   3.425 -23.078  1.00  0.00    -0.000 C 
BRANCH  11  12
ATOM     12  C   UNL     1     -20.241   3.154 -23.520  1.00  0.00    -0.000 C 
BRANCH  12  13
ATOM     13  C   UNL     1     -19.723   4.200 -24.517  1.00  0.00    -0.003 C 
ATOM     14  C   UNL     1     -18.688   3.594 -25.461  1.00  0.00     0.004 C 
ENDBRANCH  12  13
ENDBRANCH  11  12
ENDBRANCH  10  11
ENDBRANCH   9  10
ENDBRANCH   1   9
TORSDOF 10
ENDMDL
MODEL 3
REMARK VINA RESULT:    -3.611     11.530     13.225
REMARK INTER + INTRA:          -6.580
REMARK INTER:                  -5.317
REMARK INTRA:                  -1.264
REMARK UNBOUND:                -0.858
REMARK SMILES CCCCCCCCCCCC(=O)[O-]
REMARK SMILES IDX 7 1 8 2 9 3 10 4 11 5 12 6 13 7 14 8 6 9 5 10 4 11 3 12 2 13
REMARK SMILES IDX 1 14
REMARK H PARENT
REMARK Flexibility Score: inf
ROOT
ATOM      1  C   UNL     1      -9.472  -2.232 -27.591  1.00  0.00     0.000 C 
ENDROOT
BRANCH   1   2
ATOM      2  C   UNL     1      -8.316  -1.922 -26.628  1.00  0.00     0.000 C 
BRANCH   2   3
ATOM      3  C   UNL     1      -7.739  -3.185 -25.968  1.00  0.00     0.000 C 
BRANCH   3   4
ATOM      4  C   UNL     1      -7.848  -3.155 -24.436  1.00  0.00     0.006 C 
BRANCH   4   5
ATOM      5  C   UNL     1      -7.712  -1.725 -23.905  1.00  0.00     0.053 C 
BRANCH   5   6
ATOM      6  C   UNL     1      -6.530  -1.612 -22.996  1.00  0.00     0.041 C 
ATOM      7  O   UNL     1      -5.878  -2.641 -22.676  1.00  0.00    -0.550 OA
ATOM      8  O   UNL     1      -6.117  -0.365 -22.543  1.00  0.00    -0.550 OA
ENDBRANCH   5   6
ENDBRANCH   4   5
ENDBRANCH   3   4
ENDBRANCH   2   3
ENDBRANCH   1   2
BRANCH   1   9
ATOM      9  C   UNL     1     -10.659  -1.288 -27.341  1.00  0.00     0.000 C 
BRANCH   9  10
ATOM     10  C   UNL     1     -10.283  -0.087 -26.460  1.00  0.00    -0.000 C 
BRANCH  10  11
ATOM     11  C   UNL     1     -10.166   1.221 -27.261  1.00  0.00    -0.000 C 
BRANCH  11  12
ATOM     12  C   UNL     1      -8.896   2.016 -26.913  1.00  0.00    -0.000 C 
BRANCH  12  13
ATOM     13  C   UNL     1      -8.258   1.559 -25.593  1.00  0.00    -0.003 C 
ATOM     14  C   UNL     1      -6.751   1.373 -25.747  1.00  0.00     0.004 C 
ENDBRANCH  12  13
ENDBRANCH  11  12
ENDBRANCH  10  11
ENDBRANCH   9  10
ENDBRANCH   1   9
TORSDOF 10
ENDMDL
MODEL 4
REMARK VINA RESULT:    -3.606     12.559     14.451
REMARK INTER + INTRA:          -6.572
REMARK INTER:                  -5.285
REMARK INTRA:                  -1.288
REMARK UNBOUND:                -0.858
REMARK SMILES CCCCCCCCCCCC(=O)[O-]
REMARK SMILES IDX 7 1 8 2 9 3 10 4 11 5 12 6 13 7 14 8 6 9 5 10 4 11 3 12 2 13
REMARK SMILES IDX 1 14
REMARK H PARENT
REMARK Flexibility Score: inf
ROOT
ATOM      1  C   UNL     1      -6.358  -2.805 -24.420  1.00  0.00     0.000 C 
ENDROOT
BRANCH   1   2
ATOM      2  C   UNL     1      -6.338  -2.247 -22.989  1.00  0.00     0.000 C 
BRANCH   2   3
ATOM      3  C   UNL     1      -7.148  -0.949 -22.848  1.00  0.00     0.000 C 
BRANCH   3   4
ATOM      4  C   UNL     1      -6.426   0.269 -23.444  1.00  0.00     0.006 C 
BRANCH   4   5
ATOM      5  C   UNL     1      -5.644   1.025 -22.365  1.00  0.00     0.053 C 
BRANCH   5   6
ATOM      6  C   UNL     1      -6.059   2.461 -22.326  1.00  0.00     0.041 C 
ATOM      7  O   UNL     1      -6.957   2.882 -23.102  1.00  0.00    -0.550 OA
ATOM      8  O   UNL     1      -5.488   3.325 -21.399  1.00  0.00    -0.550 OA
ENDBRANCH   5   6
ENDBRANCH   4   5
ENDBRANCH   3   4
ENDBRANCH   2   3
ENDBRANCH   1   2
BRANCH   1   9
ATOM      9  C   UNL     1      -7.740  -3.383 -24.763  1.00  0.00     0.000 C 
BRANCH   9  10
ATOM     10  C   UNL     1      -8.294  -2.842 -26.090  1.00  0.00    -0.000 C 
BRANCH  10  11
ATOM     11  C   UNL     1      -7.494  -1.639 -26.619  1.00  0.00    -0.000 C 
BRANCH  11  12
ATOM     12  C   UNL     1      -8.323  -0.344 -26.645  1.00  0.00    -0.000 C 
BRANCH  12  13
ATOM     13  C   UNL     1      -9.786  -0.571 -26.235  1.00  0.00    -0.003 C 
ATOM     14  C   UNL     1     -10.084   0.073 -24.884  1.00  0.00     0.004 C 
ENDBRANCH  12  13
ENDBRANCH  11  12
ENDBRANCH  10  11
ENDBRANCH   9  10
ENDBRANCH   1   9
TORSDOF 10
ENDMDL
MODEL 5
REMARK VINA RESULT:    -3.558     11.457     13.457
REMARK INTER + INTRA:          -6.497
REMARK INTER:                  -5.408
REMARK INTRA:                  -1.089
REMARK UNBOUND:                -0.858
REMARK SMILES CCCCCCCCCCCC(=O)[O-]
REMARK SMILES IDX 7 1 8 2 9 3 10 4 11 5 12 6 13 7 14 8 6 9 5 10 4 11 3 12 2 13
REMARK SMILES IDX 1 14
REMARK H PARENT
REMARK Flexibility Score: inf
ROOT
ATOM      1  C   UNL     1     -10.705  -0.107 -25.455  1.00  0.00     0.000 C 
ENDROOT
BRANCH   1   2
ATOM      2  C   UNL     1      -9.368  -0.168 -24.703  1.00  0.00     0.000 C 
BRANCH   2   3
ATOM      3  C   UNL     1      -8.356   0.873 -25.208  1.00  0.00     0.000 C 
BRANCH   3   4
ATOM      4  C   UNL     1      -6.948   0.661 -24.631  1.00  0.00     0.006 C 
BRANCH   4   5
ATOM      5  C   UNL     1      -6.661  -0.830 -24.423  1.00  0.00     0.053 C 
BRANCH   5   6
ATOM      6  C   UNL     1      -6.242  -1.091 -23.012  1.00  0.00     0.041 C 
ATOM      7  O   UNL     1      -6.433  -0.220 -22.123  1.00  0.00    -0.550 OA
ATOM      8  O   UNL     1      -5.687  -2.318 -22.667  1.00  0.00    -0.550 OA
ENDBRANCH   5   6
ENDBRANCH   4   5
ENDBRANCH   3   4
ENDBRANCH   2   3
ENDBRANCH   1   2
BRANCH   1   9
ATOM      9  C   UNL     1     -10.482   0.198 -26.944  1.00  0.00     0.000 C 
BRANCH   9  10
ATOM     10  C   UNL     1     -10.527  -1.065 -27.819  1.00  0.00    -0.000 C 
BRANCH  10  11
ATOM     11  C   UNL     1      -9.138  -1.695 -28.019  1.00  0.00    -0.000 C 
BRANCH  11  12
ATOM     12  C   UNL     1      -9.053  -3.126 -27.461  1.00  0.00    -0.000 C 
BRANCH  12  13
ATOM     13  C   UNL     1      -7.961  -3.279 -26.392  1.00  0.00    -0.003 C 
ATOM     14  C   UNL     1      -8.246  -4.471 -25.483  1.00  0.00     0.004 C 
ENDBRANCH  12  13
ENDBRANCH  11  12
ENDBRANCH  10  11
ENDBRANCH   9  10
ENDBRANCH   1   9
TORSDOF 10
ENDMDL
MODEL 6
REMARK VINA RESULT:    -3.501     12.063     13.689
REMARK INTER + INTRA:          -6.407
REMARK INTER:                  -5.100
REMARK INTRA:                  -1.307
REMARK UNBOUND:                -0.858
REMARK SMILES CCCCCCCCCCCC(=O)[O-]
REMARK SMILES IDX 7 1 8 2 9 3 10 4 11 5 12 6 13 7 14 8 6 9 5 10 4 11 3 12 2 13
REMARK SMILES IDX 1 14
REMARK H PARENT
REMARK Flexibility Score: inf
ROOT
ATOM      1  C   UNL     1      -6.927  -0.723 -22.531  1.00  0.00     0.000 C 
ENDROOT
BRANCH   1   2
ATOM      2  C   UNL     1      -6.332  -1.986 -23.174  1.00  0.00     0.000 C 
BRANCH   2   3
ATOM      3  C   UNL     1      -7.365  -2.776 -23.993  1.00  0.00     0.000 C 
BRANCH   3   4
ATOM      4  C   UNL     1      -7.053  -2.778 -25.497  1.00  0.00     0.006 C 
BRANCH   4   5
ATOM      5  C   UNL     1      -8.084  -3.606 -26.269  1.00  0.00     0.053 C 
BRANCH   5   6
ATOM      6  C   UNL     1      -7.953  -5.057 -25.929  1.00  0.00     0.041 C 
ATOM      7  O   UNL     1      -6.831  -5.624 -25.998  1.00  0.00    -0.550 OA
ATOM      8  O   UNL     1      -9.060  -5.770 -25.487  1.00  0.00    -0.550 OA
ENDBRANCH   5   6
ENDBRANCH   4   5
ENDBRANCH   3   4
ENDBRANCH   2   3
ENDBRANCH   1   2
BRANCH   1   9
ATOM      9  C   UNL     1      -6.099   0.518 -22.896  1.00  0.00     0.000 C 
BRANCH   9  10
ATOM     10  C   UNL     1      -6.236   0.905 -24.378  1.00  0.00    -0.000 C 
BRANCH  10  11
ATOM     11  C   UNL     1      -7.626   1.470 -24.715  1.00  0.00    -0.000 C 
BRANCH  11  12
ATOM     12  C   UNL     1      -8.413   0.568 -25.680  1.00  0.00    -0.000 C 
BRANCH  12  13
ATOM     13  C   UNL     1      -9.659  -0.049 -25.028  1.00  0.00    -0.003 C 
ATOM     14  C   UNL     1     -10.845  -0.037 -25.988  1.00  0.00     0.004 C 
ENDBRANCH  12  13
ENDBRANCH  11  12
ENDBRANCH  10  11
ENDBRANCH   9  10
ENDBRANCH   1   9
TORSDOF 10
ENDMDL
MODEL 7
REMARK VINA RESULT:    -3.467     11.918     13.821
REMARK INTER + INTRA:          -6.352
REMARK INTER:                  -5.021
REMARK INTRA:                  -1.331
REMARK UNBOUND:                -0.858
REMARK SMILES CCCCCCCCCCCC(=O)[O-]
REMARK SMILES IDX 7 1 8 2 9 3 10 4 11 5 12 6 13 7 14 8 6 9 5 10 4 11 3 12 2 13
REMARK SMILES IDX 1 14
REMARK H PARENT
REMARK Flexibility Score: inf
ROOT
ATOM      1  C   UNL     1      -5.981   0.198 -23.124  1.00  0.00     0.000 C 
ENDROOT
BRANCH   1   2
ATOM      2  C   UNL     1      -6.595   1.040 -24.252  1.00  0.00     0.000 C 
BRANCH   2   3
ATOM      3  C   UNL     1      -6.312   0.460 -25.647  1.00  0.00     0.000 C 
BRANCH   3   4
ATOM      4  C   UNL     1      -7.595   0.124 -26.422  1.00  0.00     0.006 C 
BRANCH   4   5
ATOM      5  C   UNL     1      -8.787   0.917 -25.878  1.00  0.00     0.053 C 
BRANCH   5   6
ATOM      6  C   UNL     1      -9.922  -0.001 -25.551  1.00  0.00     0.041 C 
ATOM      7  O   UNL     1     -10.260  -0.188 -24.353  1.00  0.00    -0.550 OA
ATOM      8  O   UNL     1     -10.639  -0.611 -26.573  1.00  0.00    -0.550 OA
ENDBRANCH   5   6
ENDBRANCH   4   5
ENDBRANCH   3   4
ENDBRANCH   2   3
ENDBRANCH   1   2
BRANCH   1   9
ATOM      9  C   UNL     1      -6.853  -1.030 -22.821  1.00  0.00     0.000 C 
BRANCH   9  10
ATOM     10  C   UNL     1      -6.092  -2.353 -22.998  1.00  0.00    -0.000 C 
BRANCH  10  11
ATOM     11  C   UNL     1      -6.450  -3.070 -24.312  1.00  0.00    -0.000 C 
BRANCH  11  12
ATOM     12  C   UNL     1      -7.962  -3.069 -24.592  1.00  0.00    -0.000 C 
BRANCH  12  13
ATOM     13  C   UNL     1      -8.317  -3.762 -25.916  1.00  0.00    -0.003 C 
ATOM     14  C   UNL     1      -8.035  -5.260 -25.843  1.00  0.00     0.004 C 
ENDBRANCH  12  13
ENDBRANCH  11  12
ENDBRANCH  10  11
ENDBRANCH   9  10
ENDBRANCH   1   9
TORSDOF 10
ENDMDL
MODEL 8
REMARK VINA RESULT:    -3.393     12.810     14.738
REMARK INTER + INTRA:          -6.236
REMARK INTER:                  -4.914
REMARK INTRA:                  -1.322
REMARK UNBOUND:                -0.858
REMARK SMILES CCCCCCCCCCCC(=O)[O-]
REMARK SMILES IDX 7 1 8 2 9 3 10 4 11 5 12 6 13 7 14 8 6 9 5 10 4 11 3 12 2 13
REMARK SMILES IDX 1 14
REMARK H PARENT
REMARK Flexibility Score: inf
ROOT
ATOM      1  C   UNL     1      -7.085  -1.042 -22.939  1.00  0.00     0.000 C 
ENDROOT
BRANCH   1   2
ATOM      2  C   UNL     1      -8.448  -1.117 -23.642  1.00  0.00     0.000 C 
BRANCH   2   3
ATOM      3  C   UNL     1      -8.606  -0.056 -24.744  1.00  0.00     0.000 C 
BRANCH   3   4
ATOM      4  C   UNL     1      -7.329   0.770 -24.957  1.00  0.00     0.006 C 
BRANCH   4   5
ATOM      5  C   UNL     1      -7.523   2.212 -24.477  1.00  0.00     0.053 C 
BRANCH   5   6
ATOM      6  C   UNL     1      -6.431   2.601 -23.531  1.00  0.00     0.041 C 
ATOM      7  O   UNL     1      -6.697   2.857 -22.327  1.00  0.00    -0.550 OA
ATOM      8  O   UNL     1      -5.112   2.632 -23.967  1.00  0.00    -0.550 OA
ENDBRANCH   5   6
ENDBRANCH   4   5
ENDBRANCH   3   4
ENDBRANCH   2   3
ENDBRANCH   1   2
BRANCH   1   9
ATOM      9  C   UNL     1      -6.317  -2.364 -23.094  1.00  0.00     0.000 C 
BRANCH   9  10
ATOM     10  C   UNL     1      -5.337  -2.343 -24.277  1.00  0.00    -0.000 C 
BRANCH  10  11
ATOM     11  C   UNL     1      -5.960  -2.897 -25.571  1.00  0.00    -0.000 C 
BRANCH  11  12
ATOM     12  C   UNL     1      -6.611  -4.276 -25.370  1.00  0.00    -0.000 C 
BRANCH  12  13
ATOM     13  C   UNL     1      -8.121  -4.261 -25.649  1.00  0.00    -0.003 C 
ATOM     14  C   UNL     1      -8.473  -3.226 -26.713  1.00  0.00     0.004 C 
ENDBRANCH  12  13
ENDBRANCH  11  12
ENDBRANCH  10  11
ENDBRANCH   9  10
ENDBRANCH   1   9
TORSDOF 10
ENDMDL
MODEL 9
REMARK VINA RESULT:    -3.389      2.796      5.661
REMARK INTER + INTRA:          -6.228
REMARK INTER:                  -4.981
REMARK INTRA:                  -1.248
REMARK UNBOUND:                -0.858
REMARK SMILES CCCCCCCCCCCC(=O)[O-]
REMARK SMILES IDX 7 1 8 2 9 3 10 4 11 5 12 6 13 7 14 8 6 9 5 10 4 11 3 12 2 13
REMARK SMILES IDX 1 14
REMARK H PARENT
REMARK Flexibility Score: inf
ROOT
ATOM      1  C   UNL     1     -22.533   3.362 -24.630  1.00  0.00     0.000 C 
ENDROOT
BRANCH   1   2
ATOM      2  C   UNL     1     -21.351   4.291 -24.945  1.00  0.00     0.000 C 
BRANCH   2   3
ATOM      3  C   UNL     1     -20.301   4.315 -23.823  1.00  0.00     0.000 C 
BRANCH   3   4
ATOM      4  C   UNL     1     -20.735   3.514 -22.587  1.00  0.00     0.006 C 
BRANCH   4   5
ATOM      5  C   UNL     1     -21.210   4.447 -21.468  1.00  0.00     0.053 C 
BRANCH   5   6
ATOM      6  C   UNL     1     -20.840   3.891 -20.130  1.00  0.00     0.041 C 
ATOM      7  O   UNL     1     -21.478   4.239 -19.102  1.00  0.00    -0.550 OA
ATOM      8  O   UNL     1     -19.823   2.951 -20.024  1.00  0.00    -0.550 OA
ENDBRANCH   5   6
ENDBRANCH   4   5
ENDBRANCH   3   4
ENDBRANCH   2   3
ENDBRANCH   1   2
BRANCH   1   9
ATOM      9  C   UNL     1     -22.810   2.412 -25.806  1.00  0.00     0.000 C 
BRANCH   9  10
ATOM     10  C   UNL     1     -21.531   2.020 -26.562  1.00  0.00    -0.000 C 
BRANCH  10  11
ATOM     11  C   UNL     1     -20.767   0.874 -25.877  1.00  0.00    -0.000 C 
BRANCH  11  12
ATOM     12  C   UNL     1     -19.262   1.164 -25.745  1.00  0.00    -0.000 C 
BRANCH  12  13
ATOM     13  C   UNL     1     -18.790   2.277 -26.692  1.00  0.00    -0.003 C 
ATOM     14  C   UNL     1     -17.662   3.090 -26.065  1.00  0.00     0.004 C 
ENDBRANCH  12  13
ENDBRANCH  11  12
ENDBRANCH  10  11
ENDBRANCH   9  10
ENDBRANCH   1   9
TORSDOF 10
ENDMDL
