MODEL 1
REMARK VINA RESULT:    -3.697      0.000      0.000
REMARK INTER + INTRA:          -4.382
REMARK INTER:                  -4.346
REMARK INTRA:                  -0.036
REMARK UNBOUND:                -0.036
REMARK SMILES O=C([O-])CCC(=O)[O-]
REMARK SMILES IDX 4 1 2 2 1 3 3 4 5 5 6 6 7 7 8 8
REMARK H PARENT
REMARK Flexibility Score: inf
ROOT
ATOM      1  C   UNL     1      61.460 -27.066  -2.403  1.00  0.00     0.059 C 
ENDROOT
BRANCH   1   2
ATOM      2  C   UNL     1      61.719 -25.821  -3.191  1.00  0.00     0.042 C 
ATOM      3  O   UNL     1      62.832 -25.649  -3.753  1.00  0.00    -0.550 OA
ATOM      4  O   UNL     1      60.749 -24.830  -3.265  1.00  0.00    -0.550 OA
ENDBRANCH   1   2
BRANCH   1   5
ATOM      5  C   UNL     1      62.777 -27.744  -2.024  1.00  0.00     0.059 C 
BRANCH   5   6
ATOM      6  C   UNL     1      62.567 -28.702  -0.895  1.00  0.00     0.042 C 
ATOM      7  O   UNL     1      63.514 -28.975  -0.111  1.00  0.00    -0.550 OA
ATOM      8  O   UNL     1      61.312 -29.258  -0.678  1.00  0.00    -0.550 OA
ENDBRANCH   5   6
ENDBRANCH   1   5
TORSDOF 3
ENDMDL
MODEL 2
REMARK VINA RESULT:    -3.692      0.070      4.131
REMARK INTER + INTRA:          -4.375
REMARK INTER:                  -4.340
REMARK INTRA:                  -0.036
REMARK UNBOUND:                -0.036
REMARK SMILES O=C([O-])CCC(=O)[O-]
REMARK SMILES IDX 4 1 2 2 1 3 3 4 5 5 6 6 7 7 8 8
REMARK H PARENT
REMARK Flexibility Score: inf
ROOT
ATOM      1  C   UNL     1      62.813 -27.702  -2.050  1.00  0.00     0.059 C 
ENDROOT
BRANCH   1   2
ATOM      2  C   UNL     1      62.622 -28.664  -0.921  1.00  0.00     0.042 C 
ATOM      3  O   UNL     1      63.583 -28.942  -0.156  1.00  0.00    -0.550 OA
ATOM      4  O   UNL     1      61.396 -29.292  -0.741  1.00  0.00    -0.550 OA
ENDBRANCH   1   2
BRANCH   1   5
ATOM      5  C   UNL     1      61.484 -27.048  -2.427  1.00  0.00     0.059 C 
BRANCH   5   6
ATOM      6  C   UNL     1      61.720 -25.792  -3.204  1.00  0.00     0.042 C 
ATOM      7  O   UNL     1      62.816 -25.610  -3.796  1.00  0.00    -0.550 OA
ATOM      8  O   UNL     1      60.713 -24.841  -3.313  1.00  0.00    -0.550 OA
ENDBRANCH   5   6
ENDBRANCH   1   5
TORSDOF 3
ENDMDL
MODEL 3
REMARK VINA RESULT:    -3.680      0.126      4.255
REMARK INTER + INTRA:          -4.362
REMARK INTER:                  -4.324
REMARK INTRA:                  -0.038
REMARK UNBOUND:                -0.036
REMARK SMILES O=C([O-])CCC(=O)[O-]
REMARK SMILES IDX 4 1 2 2 1 3 3 4 5 5 6 6 7 7 8 8
REMARK H PARENT
REMARK Flexibility Score: inf
ROOT
ATOM      1  C   UNL     1      62.681 -27.736  -2.126  1.00  0.00     0.059 C 
ENDROOT
BRANCH   1   2
ATOM      2  C   UNL     1      62.480 -28.710  -1.008  1.00  0.00     0.042 C 
ATOM      3  O   UNL     1      61.369 -29.282  -0.858  1.00  0.00    -0.550 OA
ATOM      4  O   UNL     1      63.506 -28.950  -0.103  1.00  0.00    -0.550 OA
ENDBRANCH   1   2
BRANCH   1   5
ATOM      5  C   UNL     1      61.377 -26.999  -2.434  1.00  0.00     0.059 C 
BRANCH   5   6
ATOM      6  C   UNL     1      61.650 -25.761  -3.227  1.00  0.00     0.042 C 
ATOM      7  O   UNL     1      62.751 -25.621  -3.823  1.00  0.00    -0.550 OA
ATOM      8  O   UNL     1      60.672 -24.782  -3.348  1.00  0.00    -0.550 OA
ENDBRANCH   5   6
ENDBRANCH   1   5
TORSDOF 3
ENDMDL
MODEL 4
REMARK VINA RESULT:    -3.669      0.107      1.149
REMARK INTER + INTRA:          -4.349
REMARK INTER:                  -4.310
REMARK INTRA:                  -0.038
REMARK UNBOUND:                -0.036
REMARK SMILES O=C([O-])CCC(=O)[O-]
REMARK SMILES IDX 4 1 2 2 1 3 3 4 5 5 6 6 7 7 8 8
REMARK H PARENT
REMARK Flexibility Score: inf
ROOT
ATOM      1  C   UNL     1      61.374 -26.985  -2.391  1.00  0.00     0.059 C 
ENDROOT
BRANCH   1   2
ATOM      2  C   UNL     1      61.651 -25.775  -3.225  1.00  0.00     0.042 C 
ATOM      3  O   UNL     1      62.774 -25.628  -3.775  1.00  0.00    -0.550 OA
ATOM      4  O   UNL     1      60.686 -24.784  -3.356  1.00  0.00    -0.550 OA
ENDBRANCH   1   2
BRANCH   1   5
ATOM      5  C   UNL     1      62.669 -27.741  -2.097  1.00  0.00     0.059 C 
BRANCH   5   6
ATOM      6  C   UNL     1      62.474 -28.693  -0.960  1.00  0.00     0.042 C 
ATOM      7  O   UNL     1      61.370 -29.278  -0.806  1.00  0.00    -0.550 OA
ATOM      8  O   UNL     1      63.527 -28.970  -0.096  1.00  0.00    -0.550 OA
ENDBRANCH   5   6
ENDBRANCH   1   5
TORSDOF 3
ENDMDL
MODEL 5
REMARK VINA RESULT:    -3.631      1.453      1.564
REMARK INTER + INTRA:          -4.304
REMARK INTER:                  -4.193
REMARK INTRA:                  -0.111
REMARK UNBOUND:                -0.036
REMARK SMILES O=C([O-])CCC(=O)[O-]
REMARK SMILES IDX 4 1 2 2 1 3 3 4 5 5 6 6 7 7 8 8
REMARK H PARENT
REMARK Flexibility Score: inf
ROOT
ATOM      1  C   UNL     1      63.611 -27.368  -1.587  1.00  0.00     0.059 C 
ENDROOT
BRANCH   1   2
ATOM      2  C   UNL     1      63.172 -26.517  -2.737  1.00  0.00     0.042 C 
ATOM      3  O   UNL     1      63.949 -26.313  -3.707  1.00  0.00    -0.550 OA
ATOM      4  O   UNL     1      61.923 -25.909  -2.715  1.00  0.00    -0.550 OA
ENDBRANCH   1   2
BRANCH   1   5
ATOM      5  C   UNL     1      63.020 -28.773  -1.705  1.00  0.00     0.059 C 
BRANCH   5   6
ATOM      6  C   UNL     1      61.746 -28.872  -0.929  1.00  0.00     0.042 C 
ATOM      7  O   UNL     1      61.776 -29.050   0.317  1.00  0.00    -0.550 OA
ATOM      8  O   UNL     1      60.524 -28.720  -1.574  1.00  0.00    -0.550 OA
ENDBRANCH   5   6
ENDBRANCH   1   5
TORSDOF 3
ENDMDL
MODEL 6
REMARK VINA RESULT:    -3.580      1.560      3.978
REMARK INTER + INTRA:          -4.244
REMARK INTER:                  -4.204
REMARK INTRA:                  -0.040
REMARK UNBOUND:                -0.036
REMARK SMILES O=C([O-])CCC(=O)[O-]
REMARK SMILES IDX 4 1 2 2 1 3 3 4 5 5 6 6 7 7 8 8
REMARK H PARENT
REMARK Flexibility Score: inf
ROOT
ATOM      1  C   UNL     1      61.951 -28.803  -1.122  1.00  0.00     0.059 C 
ENDROOT
BRANCH   1   2
ATOM      2  C   UNL     1      60.776 -29.116  -0.251  1.00  0.00     0.042 C 
ATOM      3  O   UNL     1      60.909 -29.155   1.001  1.00  0.00    -0.550 OA
ATOM      4  O   UNL     1      59.545 -29.411  -0.823  1.00  0.00    -0.550 OA
ENDBRANCH   1   2
BRANCH   1   5
ATOM      5  C   UNL     1      61.620 -27.655  -2.076  1.00  0.00     0.059 C 
BRANCH   5   6
ATOM      6  C   UNL     1      62.820 -26.788  -2.289  1.00  0.00     0.042 C 
ATOM      7  O   UNL     1      63.945 -27.144  -1.848  1.00  0.00    -0.550 OA
ATOM      8  O   UNL     1      62.707 -25.609  -3.015  1.00  0.00    -0.550 OA
ENDBRANCH   5   6
ENDBRANCH   1   5
TORSDOF 3
ENDMDL
MODEL 7
REMARK VINA RESULT:    -3.575      1.230      4.231
REMARK INTER + INTRA:          -4.238
REMARK INTER:                  -4.204
REMARK INTRA:                  -0.035
REMARK UNBOUND:                -0.036
REMARK SMILES O=C([O-])CCC(=O)[O-]
REMARK SMILES IDX 4 1 2 2 1 3 3 4 5 5 6 6 7 7 8 8
REMARK H PARENT
REMARK Flexibility Score: inf
ROOT
ATOM      1  C   UNL     1      61.671 -27.382  -2.304  1.00  0.00     0.059 C 
ENDROOT
BRANCH   1   2
ATOM      2  C   UNL     1      62.808 -28.101  -1.648  1.00  0.00     0.042 C 
ATOM      3  O   UNL     1      63.972 -27.625  -1.701  1.00  0.00    -0.550 OA
ATOM      4  O   UNL     1      62.590 -29.320  -1.020  1.00  0.00    -0.550 OA
ENDBRANCH   1   2
BRANCH   1   5
ATOM      5  C   UNL     1      62.169 -26.115  -2.999  1.00  0.00     0.059 C 
BRANCH   5   6
ATOM      6  C   UNL     1      61.044 -25.430  -3.708  1.00  0.00     0.042 C 
ATOM      7  O   UNL     1      60.181 -24.786  -3.053  1.00  0.00    -0.550 OA
ATOM      8  O   UNL     1      60.972 -25.462  -5.095  1.00  0.00    -0.550 OA
ENDBRANCH   5   6
ENDBRANCH   1   5
TORSDOF 3
ENDMDL
MODEL 8
REMARK VINA RESULT:    -3.484      1.917      2.996
REMARK INTER + INTRA:          -4.131
REMARK INTER:                  -4.090
REMARK INTRA:                  -0.041
REMARK UNBOUND:                -0.036
REMARK SMILES O=C([O-])CCC(=O)[O-]
REMARK SMILES IDX 4 1 2 2 1 3 3 4 5 5 6 6 7 7 8 8
REMARK H PARENT
REMARK Flexibility Score: inf
ROOT
ATOM      1  C   UNL     1      61.634 -27.762  -1.977  1.00  0.00     0.059 C 
ENDROOT
BRANCH   1   2
ATOM      2  C   UNL     1      63.112 -27.659  -2.181  1.00  0.00     0.042 C 
ATOM      3  O   UNL     1      63.891 -28.440  -1.574  1.00  0.00    -0.550 OA
ATOM      4  O   UNL     1      63.633 -26.669  -3.005  1.00  0.00    -0.550 OA
ENDBRANCH   1   2
BRANCH   1   5
ATOM      5  C   UNL     1      61.305 -28.903  -1.013  1.00  0.00     0.059 C 
BRANCH   5   6
ATOM      6  C   UNL     1      59.824 -29.041  -0.851  1.00  0.00     0.042 C 
ATOM      7  O   UNL     1      59.049 -28.184  -1.354  1.00  0.00    -0.550 OA
ATOM      8  O   UNL     1      59.296 -30.140  -0.186  1.00  0.00    -0.550 OA
ENDBRANCH   5   6
ENDBRANCH   1   5
TORSDOF 3
ENDMDL
MODEL 9
REMARK VINA RESULT:    -3.427      1.379      1.824
REMARK INTER + INTRA:          -4.065
REMARK INTER:                  -4.027
REMARK INTRA:                  -0.038
REMARK UNBOUND:                -0.036
REMARK SMILES O=C([O-])CCC(=O)[O-]
REMARK SMILES IDX 4 1 2 2 1 3 3 4 5 5 6 6 7 7 8 8
REMARK H PARENT
REMARK Flexibility Score: inf
ROOT
ATOM      1  C   UNL     1      61.799 -26.346  -2.733  1.00  0.00     0.059 C 
ENDROOT
BRANCH   1   2
ATOM      2  C   UNL     1      60.467 -25.906  -3.252  1.00  0.00     0.042 C 
ATOM      3  O   UNL     1      60.225 -24.681  -3.415  1.00  0.00    -0.550 OA
ATOM      4  O   UNL     1      59.476 -26.845  -3.510  1.00  0.00    -0.550 OA
ENDBRANCH   1   2
BRANCH   1   5
ATOM      5  C   UNL     1      61.688 -27.717  -2.066  1.00  0.00     0.059 C 
BRANCH   5   6
ATOM      6  C   UNL     1      63.020 -28.157  -1.546  1.00  0.00     0.042 C 
ATOM      7  O   UNL     1      64.040 -27.444  -1.737  1.00  0.00    -0.550 OA
ATOM      8  O   UNL     1      63.127 -29.330  -0.810  1.00  0.00    -0.550 OA
ENDBRANCH   5   6
ENDBRANCH   1   5
TORSDOF 3
ENDMDL
