MODEL 1
REMARK VINA RESULT:     1.974      0.000      0.000
REMARK INTER + INTRA:           3.074
REMARK INTER:                   2.436
REMARK INTRA:                   0.638
REMARK UNBOUND:                 0.638
REMARK SMILES C=C1[C@@H]2CC[C@H]3[C@@H]2C(C)(C)CCC[C@@]13C
REMARK SMILES IDX 14 1 6 2 7 3 3 4 2 5 1 6 4 7 5 8 15 9 8 10 9 11 10 12 11 13
REMARK SMILES IDX 13 15 12 16
REMARK H PARENT
REMARK Flexibility Score: 80.00
ROOT
ATOM      1  C   UNL     1       7.461   7.408  12.464  1.00  0.00    -0.008 C 
ATOM      2  C   UNL     1       6.877   5.995  12.067  1.00  0.00     0.003 C 
ATOM      3  C   UNL     1       5.624   5.829  12.952  1.00  0.00     0.006 C 
ATOM      4  C   UNL     1       6.376   6.140  14.247  1.00  0.00     0.019 C 
ATOM      5  C   UNL     1       7.048   7.442  13.915  1.00  0.00    -0.068 C 
ATOM      6  C   UNL     1       7.313   8.417  14.792  1.00  0.00     0.009 C 
ATOM      7  C   UNL     1       7.476   5.053  14.215  1.00  0.00     0.008 C 
ATOM      8  C   UNL     1       7.750   4.876  12.700  1.00  0.00     0.005 C 
ATOM      9  C   UNL     1       9.006   7.499  12.331  1.00  0.00     0.016 C 
ENDROOT
BRANCH   3  10
ATOM     10  C   UNL     1       4.293   6.623  12.598  1.00  0.00    -0.032 C 
ATOM     11  C   UNL     1       3.282   5.612  11.992  1.00  0.00     0.011 C 
ATOM     12  C   UNL     1       3.619   7.197  13.872  1.00  0.00     0.011 C 
BRANCH  10  13
ATOM     13  C   UNL     1       4.459   7.734  11.522  1.00  0.00     0.007 CG0
ATOM     14  G   UNL     1       5.389   8.887  11.892  1.00  0.00     0.000 G0
ENDBRANCH  10  13
ENDBRANCH   3  10
BRANCH   1  15
ATOM     15  C   UNL     1       6.855   8.565  11.627  1.00  0.00     0.011 C 
BRANCH  15  16
ATOM     16  C   UNL     1       5.389   8.888  11.896  1.00  0.00     0.001 CG0
ATOM     17  G   UNL     1       4.460   7.733  11.528  1.00  0.00     0.000 G0
ENDBRANCH  15  16
ENDBRANCH   1  15
TORSDOF 0
ENDMDL
MODEL 2
REMARK VINA RESULT:     3.331      1.185      3.059
REMARK INTER + INTRA:           4.748
REMARK INTER:                   4.125
REMARK INTRA:                   0.624
REMARK UNBOUND:                 0.638
REMARK SMILES C=C1[C@@H]2CC[C@H]3[C@@H]2C(C)(C)CCC[C@@]13C
REMARK SMILES IDX 14 1 6 2 7 3 3 4 2 5 1 6 4 7 5 8 15 9 8 10 9 11 10 12 11 13
REMARK SMILES IDX 13 15 12 16
REMARK H PARENT
REMARK Flexibility Score: 80.00
ROOT
ATOM      1  C   UNL     1       6.764   5.860  13.471  1.00  0.00    -0.008 C 
ATOM      2  C   UNL     1       6.448   7.190  14.264  1.00  0.00     0.003 C 
ATOM      3  C   UNL     1       6.160   8.237  13.168  1.00  0.00     0.006 C 
ATOM      4  C   UNL     1       7.458   7.948  12.412  1.00  0.00     0.019 C 
ATOM      5  C   UNL     1       7.395   6.457  12.239  1.00  0.00    -0.068 C 
ATOM      6  C   UNL     1       7.904   5.781  11.201  1.00  0.00     0.009 C 
ATOM      7  C   UNL     1       8.507   8.220  13.517  1.00  0.00     0.008 C 
ATOM      8  C   UNL     1       7.770   7.793  14.812  1.00  0.00     0.005 C 
ATOM      9  C   UNL     1       7.765   4.926  14.204  1.00  0.00     0.016 C 
ENDROOT
BRANCH   3  10
ATOM     10  C   UNL     1       4.772   8.214  12.394  1.00  0.00    -0.032 C 
ATOM     11  C   UNL     1       3.901   9.378  12.943  1.00  0.00     0.011 C 
ATOM     12  C   UNL     1       4.960   8.492  10.880  1.00  0.00     0.011 C 
BRANCH  10  13
ATOM     13  C   UNL     1       3.922   6.929  12.610  1.00  0.00     0.007 CG0
ATOM     14  G   UNL     1       4.562   5.621  12.149  1.00  0.00     0.000 G0
ENDBRANCH  10  13
ENDBRANCH   3  10
BRANCH   1  15
ATOM     15  C   UNL     1       5.492   5.025  13.166  1.00  0.00     0.011 C 
BRANCH  15  16
ATOM     16  C   UNL     1       4.531   5.622  12.142  1.00  0.00     0.001 CG0
ATOM     17  G   UNL     1       3.936   6.950  12.604  1.00  0.00     0.000 G0
ENDBRANCH  15  16
ENDBRANCH   1  15
TORSDOF 0
ENDMDL
MODEL 3
REMARK VINA RESULT:     4.203      1.607      3.767
REMARK INTER + INTRA:           5.824
REMARK INTER:                   5.175
REMARK INTRA:                   0.649
REMARK UNBOUND:                 0.638
REMARK SMILES C=C1[C@@H]2CC[C@H]3[C@@H]2C(C)(C)CCC[C@@]13C
REMARK SMILES IDX 14 1 6 2 7 3 3 4 2 5 1 6 4 7 5 8 15 9 8 10 9 11 10 12 11 13
REMARK SMILES IDX 13 15 12 16
REMARK H PARENT
REMARK Flexibility Score: 80.00
ROOT
ATOM      1  C   UNL     1       5.008   7.628  13.504  1.00  0.00    -0.008 C 
ATOM      2  C   UNL     1       5.280   6.072  13.548  1.00  0.00     0.003 C 
ATOM      3  C   UNL     1       6.130   5.790  12.292  1.00  0.00     0.006 C 
ATOM      4  C   UNL     1       5.147   6.487  11.350  1.00  0.00     0.019 C 
ATOM      5  C   UNL     1       4.975   7.826  12.010  1.00  0.00    -0.068 C 
ATOM      6  C   UNL     1       4.739   8.976  11.367  1.00  0.00     0.009 C 
ATOM      7  C   UNL     1       3.853   5.687  11.632  1.00  0.00     0.008 C 
ATOM      8  C   UNL     1       3.994   5.309  13.128  1.00  0.00     0.005 C 
ATOM      9  C   UNL     1       3.652   8.037  14.143  1.00  0.00     0.016 C 
ENDROOT
BRANCH   3  10
ATOM     10  C   UNL     1       7.668   6.191  12.269  1.00  0.00    -0.032 C 
ATOM     11  C   UNL     1       8.502   4.886  12.399  1.00  0.00     0.011 C 
ATOM     12  C   UNL     1       8.069   6.825  10.912  1.00  0.00     0.011 C 
BRANCH  10  13
ATOM     13  C   UNL     1       8.129   7.092  13.449  1.00  0.00     0.007 CG0
ATOM     14  G   UNL     1       7.458   8.461  13.544  1.00  0.00     0.000 G0
ENDBRANCH  10  13
ENDBRANCH   3  10
BRANCH   1  15
ATOM     15  C   UNL     1       6.118   8.452  14.208  1.00  0.00     0.011 C 
BRANCH  15  16
ATOM     16  C   UNL     1       7.479   8.467  13.518  1.00  0.00     0.001 CG0
ATOM     17  G   UNL     1       8.111   7.079  13.446  1.00  0.00     0.000 G0
ENDBRANCH  15  16
ENDBRANCH   1  15
TORSDOF 0
ENDMDL
MODEL 4
REMARK VINA RESULT:     4.399      1.706      4.180
REMARK INTER + INTRA:           6.065
REMARK INTER:                   5.436
REMARK INTRA:                   0.629
REMARK UNBOUND:                 0.638
REMARK SMILES C=C1[C@@H]2CC[C@H]3[C@@H]2C(C)(C)CCC[C@@]13C
REMARK SMILES IDX 14 1 6 2 7 3 3 4 2 5 1 6 4 7 5 8 15 9 8 10 9 11 10 12 11 13
REMARK SMILES IDX 13 15 12 16
REMARK H PARENT
REMARK Flexibility Score: 80.00
ROOT
ATOM      1  C   UNL     1       4.898   6.438  12.578  1.00  0.00    -0.008 C 
ATOM      2  C   UNL     1       5.901   7.271  11.685  1.00  0.00     0.003 C 
ATOM      3  C   UNL     1       6.607   8.220  12.675  1.00  0.00     0.006 C 
ATOM      4  C   UNL     1       5.295   8.750  13.257  1.00  0.00     0.019 C 
ATOM      5  C   UNL     1       4.578   7.481  13.620  1.00  0.00    -0.068 C 
ATOM      6  C   UNL     1       3.727   7.343  14.644  1.00  0.00     0.009 C 
ATOM      7  C   UNL     1       4.610   9.297  11.983  1.00  0.00     0.008 C 
ATOM      8  C   UNL     1       5.111   8.336  10.875  1.00  0.00     0.005 C 
ATOM      9  C   UNL     1       3.613   6.002  11.823  1.00  0.00     0.016 C 
ENDROOT
BRANCH   3  10
ATOM     10  C   UNL     1       7.734   7.658  13.645  1.00  0.00    -0.032 C 
ATOM     11  C   UNL     1       9.110   8.130  13.100  1.00  0.00     0.011 C 
ATOM     12  C   UNL     1       7.606   8.256  15.070  1.00  0.00     0.011 C 
BRANCH  10  13
ATOM     13  C   UNL     1       7.828   6.107  13.712  1.00  0.00     0.007 CG0
ATOM     14  G   UNL     1       6.595   5.387  14.252  1.00  0.00     0.000 G0
ENDBRANCH  10  13
ENDBRANCH   3  10
BRANCH   1  15
ATOM     15  C   UNL     1       5.543   5.157  13.170  1.00  0.00     0.011 C 
BRANCH  15  16
ATOM     16  C   UNL     1       6.612   5.379  14.236  1.00  0.00     0.001 CG0
ATOM     17  G   UNL     1       7.834   6.115  13.693  1.00  0.00     0.000 G0
ENDBRANCH  15  16
ENDBRANCH   1  15
TORSDOF 0
ENDMDL
MODEL 5
REMARK VINA RESULT:     4.762      1.819      3.423
REMARK INTER + INTRA:           6.514
REMARK INTER:                   5.878
REMARK INTRA:                   0.636
REMARK UNBOUND:                 0.638
REMARK SMILES C=C1[C@@H]2CC[C@H]3[C@@H]2C(C)(C)CCC[C@@]13C
REMARK SMILES IDX 14 1 6 2 7 3 3 4 2 5 1 6 4 7 5 8 15 9 8 10 9 11 10 12 11 13
REMARK SMILES IDX 13 15 12 16
REMARK H PARENT
REMARK Flexibility Score: 80.00
ROOT
ATOM      1  C   UNL     1       7.239   7.520  13.253  1.00  0.00    -0.008 C 
ATOM      2  C   UNL     1       5.751   7.897  13.627  1.00  0.00     0.003 C 
ATOM      3  C   UNL     1       4.887   7.151  12.589  1.00  0.00     0.006 C 
ATOM      4  C   UNL     1       5.664   7.709  11.395  1.00  0.00     0.019 C 
ATOM      5  C   UNL     1       7.083   7.372  11.760  1.00  0.00    -0.068 C 
ATOM      6  C   UNL     1       8.055   7.085  10.885  1.00  0.00     0.009 C 
ATOM      7  C   UNL     1       5.498   9.230  11.623  1.00  0.00     0.008 C 
ATOM      8  C   UNL     1       5.453   9.350  13.167  1.00  0.00     0.005 C 
ATOM      9  C   UNL     1       8.264   8.636  13.590  1.00  0.00     0.016 C 
ENDROOT
BRANCH   3  10
ATOM     10  C   UNL     1       4.662   5.583  12.725  1.00  0.00    -0.032 C 
ATOM     11  C   UNL     1       3.212   5.353  13.233  1.00  0.00     0.011 C 
ATOM     12  C   UNL     1       4.754   4.875  11.349  1.00  0.00     0.011 C 
BRANCH  10  13
ATOM     13  C   UNL     1       5.579   4.876  13.764  1.00  0.00     0.007 CG0
ATOM     14  G   UNL     1       7.079   4.950  13.488  1.00  0.00     0.000 G0
ENDBRANCH  10  13
ENDBRANCH   3  10
BRANCH   1  15
ATOM     15  C   UNL     1       7.723   6.221  13.950  1.00  0.00     0.011 C 
BRANCH  15  16
ATOM     16  C   UNL     1       7.079   4.924  13.469  1.00  0.00     0.001 CG0
ATOM     17  G   UNL     1       5.582   4.871  13.766  1.00  0.00     0.000 G0
ENDBRANCH  15  16
ENDBRANCH   1  15
TORSDOF 0
ENDMDL
