MODEL 1
REMARK VINA RESULT:    -2.888      0.000      0.000
REMARK INTER + INTRA:          -3.659
REMARK INTER:                  -3.394
REMARK INTRA:                  -0.264
REMARK UNBOUND:                -0.264
REMARK SMILES O=c1cc(-c2ccc(O)c(O)c2)oc2cc(O)cc(O)c12
REMARK SMILES IDX 4 1 3 2 2 3 1 4 21 5 19 6 18 7 16 8 15 9 14 10 13 11 5 12
REMARK SMILES IDX 6 13 7 14 8 15 12 16 10 17 9 18 11 20 20 22 17 24
REMARK H PARENT 9 19 11 21 20 23 17 25
REMARK Flexibility Score: inf
ROOT
ATOM      1  C   UNL     1      -9.618 -21.661  19.521  1.00  0.00     0.138 A 
ATOM      2  C   UNL     1     -10.501 -21.174  18.547  1.00  0.00     0.100 A 
ATOM      3  C   UNL     1     -10.076 -21.068  17.222  1.00  0.00     0.197 A 
ATOM      4  O   UNL     1     -10.909 -20.681  16.362  1.00  0.00    -0.289 OA
ATOM      5  C   UNL     1      -8.749 -21.418  16.878  1.00  0.00     0.107 A 
ATOM      6  C   UNL     1      -8.194 -21.319  15.566  1.00  0.00     0.134 A 
ATOM      7  C   UNL     1      -6.896 -21.788  15.328  1.00  0.00     0.093 A 
ATOM      8  C   UNL     1      -6.112 -22.299  16.363  1.00  0.00     0.123 A 
ATOM      9  C   UNL     1      -6.627 -22.354  17.659  1.00  0.00     0.094 A 
ATOM     10  C   UNL     1      -7.930 -21.926  17.922  1.00  0.00     0.146 A 
ATOM     11  O   UNL     1      -8.387 -22.012  19.167  1.00  0.00    -0.456 OA
ENDROOT
BRANCH   1  12
ATOM     12  C   UNL     1     -10.016 -21.791  20.946  1.00  0.00     0.021 A 
ATOM     13  C   UNL     1     -10.009 -23.035  21.607  1.00  0.00     0.016 A 
ATOM     14  C   UNL     1     -10.379 -23.124  22.951  1.00  0.00     0.051 A 
ATOM     15  C   UNL     1     -10.754 -21.976  23.660  1.00  0.00     0.157 A 
ATOM     16  C   UNL     1     -10.381 -20.642  21.669  1.00  0.00     0.062 A 
ATOM     17  C   UNL     1     -10.753 -20.730  23.016  1.00  0.00     0.158 A 
BRANCH  15  18
ATOM     18  O   UNL     1     -11.125 -22.071  25.002  1.00  0.00    -0.504 OA
ATOM     19  H   UNL     1     -12.088 -22.223  25.276  1.00  0.00     0.293 HD
ENDBRANCH  15  18
BRANCH  17  20
ATOM     20  O   UNL     1     -11.117 -19.567  23.694  1.00  0.00    -0.504 OA
ATOM     21  H   UNL     1     -11.847 -19.560  24.398  1.00  0.00     0.293 HD
ENDBRANCH  17  20
ENDBRANCH   1  12
BRANCH   6  22
ATOM     22  O   UNL     1      -8.859 -20.752  14.474  1.00  0.00    -0.507 OA
ATOM     23  H   UNL     1      -8.455 -20.606  13.562  1.00  0.00     0.293 HD
ENDBRANCH   6  22
BRANCH   8  24
ATOM     24  O   UNL     1      -4.820 -22.743  16.091  1.00  0.00    -0.508 OA
ATOM     25  H   UNL     1      -4.200 -23.052  16.831  1.00  0.00     0.293 HD
ENDBRANCH   8  24
TORSDOF 5
ENDMDL
MODEL 2
REMARK VINA RESULT:    -2.546      1.441      3.092
REMARK INTER + INTRA:          -3.257
REMARK INTER:                  -2.965
REMARK INTRA:                  -0.292
REMARK UNBOUND:                -0.264
REMARK SMILES O=c1cc(-c2ccc(O)c(O)c2)oc2cc(O)cc(O)c12
REMARK SMILES IDX 4 1 3 2 2 3 1 4 21 5 19 6 18 7 16 8 15 9 14 10 13 11 5 12
REMARK SMILES IDX 6 13 7 14 8 15 12 16 10 17 9 18 11 20 20 22 17 24
REMARK H PARENT 9 19 11 21 20 23 17 25
REMARK Flexibility Score: inf
ROOT
ATOM      1  C   UNL     1      -8.459 -22.458  20.242  1.00  0.00     0.138 A 
ATOM      2  C   UNL     1      -7.140 -22.890  20.044  1.00  0.00     0.100 A 
ATOM      3  C   UNL     1      -6.560 -22.778  18.780  1.00  0.00     0.197 A 
ATOM      4  O   UNL     1      -5.356 -23.123  18.648  1.00  0.00    -0.289 OA
ATOM      5  C   UNL     1      -7.317 -22.264  17.700  1.00  0.00     0.107 A 
ATOM      6  C   UNL     1      -6.842 -22.136  16.360  1.00  0.00     0.134 A 
ATOM      7  C   UNL     1      -7.651 -21.521  15.397  1.00  0.00     0.093 A 
ATOM      8  C   UNL     1      -8.938 -21.082  15.709  1.00  0.00     0.123 A 
ATOM      9  C   UNL     1      -9.431 -21.248  17.003  1.00  0.00     0.094 A 
ATOM     10  C   UNL     1      -8.636 -21.826  17.995  1.00  0.00     0.146 A 
ATOM     11  O   UNL     1      -9.138 -21.950  19.219  1.00  0.00    -0.456 OA
ENDROOT
BRANCH   1  12
ATOM     12  C   UNL     1      -9.127 -22.556  21.565  1.00  0.00     0.021 A 
ATOM     13  C   UNL     1     -10.524 -22.450  21.699  1.00  0.00     0.016 A 
ATOM     14  C   UNL     1     -11.124 -22.557  22.956  1.00  0.00     0.051 A 
ATOM     15  C   UNL     1     -10.344 -22.779  24.098  1.00  0.00     0.157 A 
ATOM     16  C   UNL     1      -8.352 -22.793  22.714  1.00  0.00     0.062 A 
ATOM     17  C   UNL     1      -8.951 -22.899  23.974  1.00  0.00     0.158 A 
BRANCH  15  18
ATOM     18  O   UNL     1     -10.948 -22.883  25.350  1.00  0.00    -0.504 OA
ATOM     19  H   UNL     1     -10.584 -22.390  26.157  1.00  0.00     0.293 HD
ENDBRANCH  15  18
BRANCH  17  20
ATOM     20  O   UNL     1      -8.145 -23.125  25.090  1.00  0.00    -0.504 OA
ATOM     21  H   UNL     1      -7.424 -23.836  25.098  1.00  0.00     0.293 HD
ENDBRANCH  17  20
ENDBRANCH   1  12
BRANCH   6  22
ATOM     22  O   UNL     1      -5.603 -22.611  15.918  1.00  0.00    -0.507 OA
ATOM     23  H   UNL     1      -4.955 -23.144  16.476  1.00  0.00     0.293 HD
ENDBRANCH   6  22
BRANCH   8  24
ATOM     24  O   UNL     1      -9.720 -20.488  14.721  1.00  0.00    -0.508 OA
ATOM     25  H   UNL     1      -9.721 -20.832  13.767  1.00  0.00     0.293 HD
ENDBRANCH   8  24
TORSDOF 5
ENDMDL
MODEL 3
REMARK VINA RESULT:    -1.292      1.865      7.263
REMARK INTER + INTRA:          -1.783
REMARK INTER:                  -1.522
REMARK INTRA:                  -0.262
REMARK UNBOUND:                -0.264
REMARK SMILES O=c1cc(-c2ccc(O)c(O)c2)oc2cc(O)cc(O)c12
REMARK SMILES IDX 4 1 3 2 2 3 1 4 21 5 19 6 18 7 16 8 15 9 14 10 13 11 5 12
REMARK SMILES IDX 6 13 7 14 8 15 12 16 10 17 9 18 11 20 20 22 17 24
REMARK H PARENT 9 19 11 21 20 23 17 25
REMARK Flexibility Score: inf
ROOT
ATOM      1  C   UNL     1     -10.276 -20.832  18.902  1.00  0.00     0.138 A 
ATOM      2  C   UNL     1     -10.620 -22.029  19.546  1.00  0.00     0.100 A 
ATOM      3  C   UNL     1     -10.760 -22.049  20.934  1.00  0.00     0.197 A 
ATOM      4  O   UNL     1     -11.125 -23.125  21.477  1.00  0.00    -0.289 OA
ATOM      5  C   UNL     1     -10.518 -20.874  21.685  1.00  0.00     0.107 A 
ATOM      6  C   UNL     1     -10.596 -20.785  23.107  1.00  0.00     0.134 A 
ATOM      7  C   UNL     1     -10.431 -19.542  23.731  1.00  0.00     0.093 A 
ATOM      8  C   UNL     1     -10.134 -18.398  22.992  1.00  0.00     0.123 A 
ATOM      9  C   UNL     1     -10.005 -18.482  21.605  1.00  0.00     0.094 A 
ATOM     10  C   UNL     1     -10.198 -19.701  20.950  1.00  0.00     0.146 A 
ATOM     11  O   UNL     1     -10.084 -19.734  19.626  1.00  0.00    -0.456 OA
ENDROOT
BRANCH   1  12
ATOM     12  C   UNL     1     -10.111 -20.753  17.428  1.00  0.00     0.021 A 
ATOM     13  C   UNL     1     -11.108 -20.205  16.599  1.00  0.00     0.016 A 
ATOM     14  C   UNL     1     -10.919 -20.135  15.217  1.00  0.00     0.051 A 
ATOM     15  C   UNL     1      -9.732 -20.602  14.639  1.00  0.00     0.157 A 
ATOM     16  C   UNL     1      -8.916 -21.207  16.842  1.00  0.00     0.062 A 
ATOM     17  C   UNL     1      -8.726 -21.138  15.457  1.00  0.00     0.158 A 
BRANCH  15  18
ATOM     18  O   UNL     1      -9.550 -20.532  13.258  1.00  0.00    -0.504 OA
ATOM     19  H   UNL     1      -9.759 -21.318  12.655  1.00  0.00     0.293 HD
ENDBRANCH  15  18
BRANCH  17  20
ATOM     20  O   UNL     1      -7.530 -21.609  14.914  1.00  0.00    -0.504 OA
ATOM     21  H   UNL     1      -7.141 -22.509  15.169  1.00  0.00     0.293 HD
ENDBRANCH  17  20
ENDBRANCH   1  12
BRANCH   6  22
ATOM     22  O   UNL     1     -10.809 -21.880  23.951  1.00  0.00    -0.507 OA
ATOM     23  H   UNL     1     -11.030 -22.813  23.643  1.00  0.00     0.293 HD
ENDBRANCH   6  22
BRANCH   8  24
ATOM     24  O   UNL     1      -9.962 -17.181  23.648  1.00  0.00    -0.508 OA
ATOM     25  H   UNL     1     -10.735 -16.711  24.105  1.00  0.00     0.293 HD
ENDBRANCH   8  24
TORSDOF 5
ENDMDL
MODEL 4
REMARK VINA RESULT:    -0.460     10.908     14.758
REMARK INTER + INTRA:          -0.806
REMARK INTER:                  -0.521
REMARK INTRA:                  -0.284
REMARK UNBOUND:                -0.264
REMARK SMILES O=c1cc(-c2ccc(O)c(O)c2)oc2cc(O)cc(O)c12
REMARK SMILES IDX 4 1 3 2 2 3 1 4 21 5 19 6 18 7 16 8 15 9 14 10 13 11 5 12
REMARK SMILES IDX 6 13 7 14 8 15 12 16 10 17 9 18 11 20 20 22 17 24
REMARK H PARENT 9 19 11 21 20 23 17 25
REMARK Flexibility Score: inf
ROOT
ATOM      1  C   UNL     1       3.966 -22.581  14.715  1.00  0.00     0.138 A 
ATOM      2  C   UNL     1       4.957 -22.571  15.707  1.00  0.00     0.100 A 
ATOM      3  C   UNL     1       6.300 -22.664  15.341  1.00  0.00     0.197 A 
ATOM      4  O   UNL     1       7.168 -22.595  16.251  1.00  0.00    -0.289 OA
ATOM      5  C   UNL     1       6.651 -22.804  13.977  1.00  0.00     0.107 A 
ATOM      6  C   UNL     1       7.986 -22.943  13.489  1.00  0.00     0.134 A 
ATOM      7  C   UNL     1       8.216 -22.976  12.108  1.00  0.00     0.093 A 
ATOM      8  C   UNL     1       7.159 -22.935  11.200  1.00  0.00     0.123 A 
ATOM      9  C   UNL     1       5.846 -22.850  11.667  1.00  0.00     0.094 A 
ATOM     10  C   UNL     1       5.586 -22.780  13.037  1.00  0.00     0.146 A 
ATOM     11  O   UNL     1       4.323 -22.683  13.439  1.00  0.00    -0.456 OA
ENDROOT
BRANCH   1  12
ATOM     12  C   UNL     1       2.521 -22.488  15.047  1.00  0.00     0.021 A 
ATOM     13  C   UNL     1       1.539 -23.124  14.264  1.00  0.00     0.016 A 
ATOM     14  C   UNL     1       0.188 -23.027  14.608  1.00  0.00     0.051 A 
ATOM     15  C   UNL     1      -0.205 -22.302  15.740  1.00  0.00     0.157 A 
ATOM     16  C   UNL     1       2.120 -21.774  16.190  1.00  0.00     0.062 A 
ATOM     17  C   UNL     1       0.767 -21.675  16.535  1.00  0.00     0.158 A 
BRANCH  15  18
ATOM     18  O   UNL     1      -1.554 -22.206  16.078  1.00  0.00    -0.504 OA
ATOM     19  H   UNL     1      -2.280 -22.566  15.469  1.00  0.00     0.293 HD
ENDBRANCH  15  18
BRANCH  17  20
ATOM     20  O   UNL     1       0.410 -20.949  17.671  1.00  0.00    -0.504 OA
ATOM     21  H   UNL     1      -0.543 -20.651  17.842  1.00  0.00     0.293 HD
ENDBRANCH  17  20
ENDBRANCH   1  12
BRANCH   6  22
ATOM     22  O   UNL     1       9.111 -23.073  14.310  1.00  0.00    -0.507 OA
ATOM     23  H   UNL     1       9.249 -23.803  14.991  1.00  0.00     0.293 HD
ENDBRANCH   6  22
BRANCH   8  24
ATOM     24  O   UNL     1       7.425 -22.985   9.833  1.00  0.00    -0.508 OA
ATOM     25  H   UNL     1       6.678 -23.014   9.149  1.00  0.00     0.293 HD
ENDBRANCH   8  24
TORSDOF 5
ENDMDL
MODEL 5
REMARK VINA RESULT:    -0.399     15.753     17.483
REMARK INTER + INTRA:          -0.734
REMARK INTER:                  -0.440
REMARK INTRA:                  -0.293
REMARK UNBOUND:                -0.264
REMARK SMILES O=c1cc(-c2ccc(O)c(O)c2)oc2cc(O)cc(O)c12
REMARK SMILES IDX 4 1 3 2 2 3 1 4 21 5 19 6 18 7 16 8 15 9 14 10 13 11 5 12
REMARK SMILES IDX 6 13 7 14 8 15 12 16 10 17 9 18 11 20 20 22 17 24
REMARK H PARENT 9 19 11 21 20 23 17 25
REMARK Flexibility Score: inf
ROOT
ATOM      1  C   UNL     1       6.730 -22.496  13.092  1.00  0.00     0.138 A 
ATOM      2  C   UNL     1       5.377 -22.689  12.778  1.00  0.00     0.100 A 
ATOM      3  C   UNL     1       5.000 -22.896  11.451  1.00  0.00     0.197 A 
ATOM      4  O   UNL     1       3.785 -23.122  11.209  1.00  0.00    -0.289 OA
ATOM      5  C   UNL     1       5.977 -22.872  10.428  1.00  0.00     0.107 A 
ATOM      6  C   UNL     1       5.705 -23.036   9.036  1.00  0.00     0.134 A 
ATOM      7  C   UNL     1       6.769 -23.092   8.126  1.00  0.00     0.093 A 
ATOM      8  C   UNL     1       8.088 -22.933   8.549  1.00  0.00     0.123 A 
ATOM      9  C   UNL     1       8.363 -22.722   9.900  1.00  0.00     0.094 A 
ATOM     10  C   UNL     1       7.327 -22.695  10.837  1.00  0.00     0.146 A 
ATOM     11  O   UNL     1       7.633 -22.509  12.117  1.00  0.00    -0.456 OA
ENDROOT
BRANCH   1  12
ATOM     12  C   UNL     1       7.188 -22.269  14.486  1.00  0.00     0.021 A 
ATOM     13  C   UNL     1       8.553 -22.285  14.829  1.00  0.00     0.016 A 
ATOM     14  C   UNL     1       8.954 -22.058  16.149  1.00  0.00     0.051 A 
ATOM     15  C   UNL     1       8.002 -21.804  17.144  1.00  0.00     0.157 A 
ATOM     16  C   UNL     1       6.240 -22.000  15.489  1.00  0.00     0.062 A 
ATOM     17  C   UNL     1       6.639 -21.773  16.811  1.00  0.00     0.158 A 
BRANCH  15  18
ATOM     18  O   UNL     1       8.407 -21.580  18.460  1.00  0.00    -0.504 OA
ATOM     19  H   UNL     1       8.328 -22.299  19.169  1.00  0.00     0.293 HD
ENDBRANCH  15  18
BRANCH  17  20
ATOM     20  O   UNL     1       5.666 -21.519  17.778  1.00  0.00    -0.504 OA
ATOM     21  H   UNL     1       5.006 -20.755  17.689  1.00  0.00     0.293 HD
ENDBRANCH  17  20
ENDBRANCH   1  12
BRANCH   6  22
ATOM     22  O   UNL     1       4.419 -23.125   8.494  1.00  0.00    -0.507 OA
ATOM     23  H   UNL     1       3.573 -22.837   8.960  1.00  0.00     0.293 HD
ENDBRANCH   6  22
BRANCH   8  24
ATOM     24  O   UNL     1       9.119 -22.980   7.613  1.00  0.00    -0.508 OA
ATOM     25  H   UNL     1       9.640 -23.832   7.441  1.00  0.00     0.293 HD
ENDBRANCH   8  24
TORSDOF 5
ENDMDL
MODEL 6
REMARK VINA RESULT:    -0.049     10.851     14.647
REMARK INTER + INTRA:          -0.322
REMARK INTER:                  -0.013
REMARK INTRA:                  -0.308
REMARK UNBOUND:                -0.264
REMARK SMILES O=c1cc(-c2ccc(O)c(O)c2)oc2cc(O)cc(O)c12
REMARK SMILES IDX 4 1 3 2 2 3 1 4 21 5 19 6 18 7 16 8 15 9 14 10 13 11 5 12
REMARK SMILES IDX 6 13 7 14 8 15 12 16 10 17 9 18 11 20 20 22 17 24
REMARK H PARENT 9 19 11 21 20 23 17 25
REMARK Flexibility Score: inf
ROOT
ATOM      1  C   UNL     1       3.837 -22.450  14.596  1.00  0.00     0.138 A 
ATOM      2  C   UNL     1       4.286 -22.646  13.282  1.00  0.00     0.100 A 
ATOM      3  C   UNL     1       5.655 -22.660  13.016  1.00  0.00     0.197 A 
ATOM      4  O   UNL     1       6.027 -22.894  11.836  1.00  0.00    -0.289 OA
ATOM      5  C   UNL     1       6.580 -22.441  14.064  1.00  0.00     0.107 A 
ATOM      6  C   UNL     1       7.998 -22.399  13.906  1.00  0.00     0.134 A 
ATOM      7  C   UNL     1       8.816 -22.272  15.036  1.00  0.00     0.093 A 
ATOM      8  C   UNL     1       8.268 -22.128  16.310  1.00  0.00     0.123 A 
ATOM      9  C   UNL     1       6.882 -22.117  16.471  1.00  0.00     0.094 A 
ATOM     10  C   UNL     1       6.040 -22.276  15.368  1.00  0.00     0.146 A 
ATOM     11  O   UNL     1       4.726 -22.277  15.568  1.00  0.00    -0.456 OA
ENDROOT
BRANCH   1  12
ATOM     12  C   UNL     1       2.392 -22.423  14.936  1.00  0.00     0.021 A 
ATOM     13  C   UNL     1       1.438 -23.125  14.174  1.00  0.00     0.016 A 
ATOM     14  C   UNL     1       0.086 -23.088  14.525  1.00  0.00     0.051 A 
ATOM     15  C   UNL     1      -0.336 -22.359  15.643  1.00  0.00     0.157 A 
ATOM     16  C   UNL     1       1.961 -21.704  16.065  1.00  0.00     0.062 A 
ATOM     17  C   UNL     1       0.607 -21.666  16.417  1.00  0.00     0.158 A 
BRANCH  15  18
ATOM     18  O   UNL     1      -1.687 -22.324  15.988  1.00  0.00    -0.504 OA
ATOM     19  H   UNL     1      -1.992 -22.422  16.949  1.00  0.00     0.293 HD
ENDBRANCH  15  18
BRANCH  17  20
ATOM     20  O   UNL     1       0.221 -20.933  17.540  1.00  0.00    -0.504 OA
ATOM     21  H   UNL     1      -0.709 -21.006  17.936  1.00  0.00     0.293 HD
ENDBRANCH  17  20
ENDBRANCH   1  12
BRANCH   6  22
ATOM     22  O   UNL     1       8.650 -22.454  12.670  1.00  0.00    -0.507 OA
ATOM     23  H   UNL     1       8.911 -23.301  12.190  1.00  0.00     0.293 HD
ENDBRANCH   6  22
BRANCH   8  24
ATOM     24  O   UNL     1       9.112 -21.989  17.409  1.00  0.00    -0.508 OA
ATOM     25  H   UNL     1       9.881 -22.629  17.571  1.00  0.00     0.293 HD
ENDBRANCH   8  24
TORSDOF 5
ENDMDL
MODEL 7
REMARK VINA RESULT:     0.058     10.877     14.652
REMARK INTER + INTRA:          -0.196
REMARK INTER:                   0.092
REMARK INTRA:                  -0.288
REMARK UNBOUND:                -0.264
REMARK SMILES O=c1cc(-c2ccc(O)c(O)c2)oc2cc(O)cc(O)c12
REMARK SMILES IDX 4 1 3 2 2 3 1 4 21 5 19 6 18 7 16 8 15 9 14 10 13 11 5 12
REMARK SMILES IDX 6 13 7 14 8 15 12 16 10 17 9 18 11 20 20 22 17 24
REMARK H PARENT 9 19 11 21 20 23 17 25
REMARK Flexibility Score: inf
ROOT
ATOM      1  C   UNL     1       3.996 -22.290  15.599  1.00  0.00     0.138 A 
ATOM      2  C   UNL     1       4.732 -21.987  16.754  1.00  0.00     0.100 A 
ATOM      3  C   UNL     1       6.126 -21.977  16.700  1.00  0.00     0.197 A 
ATOM      4  O   UNL     1       6.756 -21.647  17.739  1.00  0.00    -0.289 OA
ATOM      5  C   UNL     1       6.788 -22.307  15.494  1.00  0.00     0.107 A 
ATOM      6  C   UNL     1       8.205 -22.363  15.331  1.00  0.00     0.134 A 
ATOM      7  C   UNL     1       8.745 -22.606  14.061  1.00  0.00     0.093 A 
ATOM      8  C   UNL     1       7.922 -22.852  12.963  1.00  0.00     0.123 A 
ATOM      9  C   UNL     1       6.535 -22.850  13.121  1.00  0.00     0.094 A 
ATOM     10  C   UNL     1       5.966 -22.576  14.367  1.00  0.00     0.146 A 
ATOM     11  O   UNL     1       4.641 -22.566  14.470  1.00  0.00    -0.456 OA
ENDROOT
BRANCH   1  12
ATOM     12  C   UNL     1       2.512 -22.318  15.598  1.00  0.00     0.021 A 
ATOM     13  C   UNL     1       1.786 -23.111  14.689  1.00  0.00     0.016 A 
ATOM     14  C   UNL     1       0.389 -23.125  14.720  1.00  0.00     0.051 A 
ATOM     15  C   UNL     1      -0.307 -22.356  15.662  1.00  0.00     0.157 A 
ATOM     16  C   UNL     1       1.806 -21.560  16.550  1.00  0.00     0.062 A 
ATOM     17  C   UNL     1       0.407 -21.572  16.582  1.00  0.00     0.158 A 
BRANCH  15  18
ATOM     18  O   UNL     1      -1.701 -22.371  15.687  1.00  0.00    -0.504 OA
ATOM     19  H   UNL     1      -2.233 -21.604  16.080  1.00  0.00     0.293 HD
ENDBRANCH  15  18
BRANCH  17  20
ATOM     20  O   UNL     1      -0.255 -20.798  17.535  1.00  0.00    -0.504 OA
ATOM     21  H   UNL     1       0.215 -20.065  18.053  1.00  0.00     0.293 HD
ENDBRANCH  17  20
ENDBRANCH   1  12
BRANCH   6  22
ATOM     22  O   UNL     1       9.121 -22.212  16.376  1.00  0.00    -0.507 OA
ATOM     23  H   UNL     1       9.254 -22.868  17.129  1.00  0.00     0.293 HD
ENDBRANCH   6  22
BRANCH   8  24
ATOM     24  O   UNL     1       8.494 -23.105  11.718  1.00  0.00    -0.508 OA
ATOM     25  H   UNL     1       9.157 -22.463  11.299  1.00  0.00     0.293 HD
ENDBRANCH   8  24
TORSDOF 5
ENDMDL
