MODEL 1
REMARK VINA RESULT:    -5.133      0.000      0.000
REMARK INTER + INTRA:         -17.087
REMARK INTER:                 -12.935
REMARK INTRA:                  -4.152
REMARK UNBOUND:                -4.152
REMARK SMILES CCCCCCCCCCCCCCCCCCCCCCCCCCCC(=O)[O-]
REMARK SMILES IDX 15 1 16 2 17 3 18 4 19 5 20 6 21 7 22 8 23 9 24 10 25 11
REMARK SMILES IDX 26 12 27 13 28 14 29 15 30 16 14 17 13 18 12 19 11 20 10 21
REMARK SMILES IDX 9 22 8 23 7 24 6 25 5 26 4 27 3 28 2 29 1 30
REMARK H PARENT
REMARK Flexibility Score: inf
ROOT
ATOM      1  C   UNL     1     -20.831  41.311  90.652  1.00  0.00     0.000 C 
ENDROOT
BRANCH   1   2
ATOM      2  C   UNL     1     -20.473  40.771  92.048  1.00  0.00     0.000 C 
BRANCH   2   3
ATOM      3  C   UNL     1     -19.569  39.529  91.991  1.00  0.00     0.000 C 
BRANCH   3   4
ATOM      4  C   UNL     1     -18.333  39.741  91.099  1.00  0.00     0.000 C 
BRANCH   4   5
ATOM      5  C   UNL     1     -18.220  38.676  89.997  1.00  0.00     0.000 C 
BRANCH   5   6
ATOM      6  C   UNL     1     -19.468  37.779  89.914  1.00  0.00     0.000 C 
BRANCH   6   7
ATOM      7  C   UNL     1     -19.898  37.515  88.456  1.00  0.00     0.000 C 
BRANCH   7   8
ATOM      8  C   UNL     1     -19.883  38.774  87.570  1.00  0.00     0.000 C 
BRANCH   8   9
ATOM      9  C   UNL     1     -21.239  39.501  87.542  1.00  0.00     0.000 C 
BRANCH   9  10
ATOM     10  C   UNL     1     -21.138  40.916  86.950  1.00  0.00     0.000 C 
BRANCH  10  11
ATOM     11  C   UNL     1     -19.716  41.495  87.044  1.00  0.00     0.000 C 
BRANCH  11  12
ATOM     12  C   UNL     1     -19.478  42.654  86.058  1.00  0.00     0.006 C 
BRANCH  12  13
ATOM     13  C   UNL     1     -20.138  43.979  86.471  1.00  0.00     0.053 C 
BRANCH  13  14
ATOM     14  C   UNL     1     -20.210  44.950  85.331  1.00  0.00     0.041 C 
ATOM     15  O   UNL     1     -21.327  45.345  84.904  1.00  0.00    -0.550 OA
ATOM     16  O   UNL     1     -19.042  45.444  84.763  1.00  0.00    -0.550 OA
ENDBRANCH  13  14
ENDBRANCH  12  13
ENDBRANCH  11  12
ENDBRANCH  10  11
ENDBRANCH   9  10
ENDBRANCH   8   9
ENDBRANCH   7   8
ENDBRANCH   6   7
ENDBRANCH   5   6
ENDBRANCH   4   5
ENDBRANCH   3   4
ENDBRANCH   2   3
ENDBRANCH   1   2
BRANCH   1  17
ATOM     17  C   UNL     1     -22.099  42.192  90.680  1.00  0.00     0.000 C 
BRANCH  17  18
ATOM     18  C   UNL     1     -22.107  43.295  89.608  1.00  0.00     0.000 C 
BRANCH  18  19
ATOM     19  C   UNL     1     -23.355  43.249  88.712  1.00  0.00     0.000 C 
BRANCH  19  20
ATOM     20  C   UNL     1     -23.391  44.391  87.685  1.00  0.00     0.000 C 
BRANCH  20  21
ATOM     21  C   UNL     1     -22.929  45.734  88.273  1.00  0.00     0.000 C 
BRANCH  21  22
ATOM     22  C   UNL     1     -23.758  46.892  87.707  1.00  0.00    -0.000 C 
BRANCH  22  23
ATOM     23  C   UNL     1     -24.840  46.379  86.747  1.00  0.00    -0.000 C 
BRANCH  23  24
ATOM     24  C   UNL     1     -26.181  46.103  87.450  1.00  0.00    -0.000 C 
BRANCH  24  25
ATOM     25  C   UNL     1     -26.459  47.040  88.645  1.00  0.00    -0.000 C 
BRANCH  25  26
ATOM     26  C   UNL     1     -26.908  46.267  89.898  1.00  0.00    -0.000 C 
BRANCH  26  27
ATOM     27  C   UNL     1     -25.811  45.344  90.458  1.00  0.00    -0.000 C 
BRANCH  27  28
ATOM     28  C   UNL     1     -26.302  43.959  90.920  1.00  0.00    -0.000 C 
BRANCH  28  29
ATOM     29  C   UNL     1     -27.396  43.378  90.012  1.00  0.00    -0.003 C 
ATOM     30  C   UNL     1     -28.549  42.813  90.834  1.00  0.00     0.004 C 
ENDBRANCH  28  29
ENDBRANCH  27  28
ENDBRANCH  26  27
ENDBRANCH  25  26
ENDBRANCH  24  25
ENDBRANCH  23  24
ENDBRANCH  22  23
ENDBRANCH  21  22
ENDBRANCH  20  21
ENDBRANCH  19  20
ENDBRANCH  18  19
ENDBRANCH  17  18
ENDBRANCH   1  17
TORSDOF 26
ENDMDL
MODEL 2
REMARK VINA RESULT:    -5.132      4.342     10.159
REMARK INTER + INTRA:         -17.085
REMARK INTER:                 -14.854
REMARK INTRA:                  -2.231
REMARK UNBOUND:                -4.152
REMARK SMILES CCCCCCCCCCCCCCCCCCCCCCCCCCCC(=O)[O-]
REMARK SMILES IDX 15 1 16 2 17 3 18 4 19 5 20 6 21 7 22 8 23 9 24 10 25 11
REMARK SMILES IDX 26 12 27 13 28 14 29 15 30 16 14 17 13 18 12 19 11 20 10 21
REMARK SMILES IDX 9 22 8 23 7 24 6 25 5 26 4 27 3 28 2 29 1 30
REMARK H PARENT
REMARK Flexibility Score: inf
ROOT
ATOM      1  C   UNL     1     -19.863  42.347  86.237  1.00  0.00     0.000 C 
ENDROOT
BRANCH   1   2
ATOM      2  C   UNL     1     -19.169  43.612  85.701  1.00  0.00     0.000 C 
BRANCH   2   3
ATOM      3  C   UNL     1     -19.849  44.908  86.170  1.00  0.00     0.000 C 
BRANCH   3   4
ATOM      4  C   UNL     1     -20.099  45.895  85.015  1.00  0.00     0.000 C 
BRANCH   4   5
ATOM      5  C   UNL     1     -21.516  46.488  85.051  1.00  0.00     0.000 C 
BRANCH   5   6
ATOM      6  C   UNL     1     -22.405  45.827  86.121  1.00  0.00     0.000 C 
BRANCH   6   7
ATOM      7  C   UNL     1     -23.536  46.763  86.597  1.00  0.00     0.000 C 
BRANCH   7   8
ATOM      8  C   UNL     1     -23.947  46.538  88.063  1.00  0.00     0.000 C 
BRANCH   8   9
ATOM      9  C   UNL     1     -23.810  45.071  88.503  1.00  0.00     0.000 C 
BRANCH   9  10
ATOM     10  C   UNL     1     -25.035  44.575  89.289  1.00  0.00     0.000 C 
BRANCH  10  11
ATOM     11  C   UNL     1     -26.057  45.694  89.558  1.00  0.00     0.000 C 
BRANCH  11  12
ATOM     12  C   UNL     1     -27.085  45.314  90.639  1.00  0.00     0.006 C 
BRANCH  12  13
ATOM     13  C   UNL     1     -26.973  43.864  91.136  1.00  0.00     0.053 C 
BRANCH  13  14
ATOM     14  C   UNL     1     -28.081  43.003  90.612  1.00  0.00     0.041 C 
ATOM     15  O   UNL     1     -29.003  42.619  91.380  1.00  0.00    -0.550 OA
ATOM     16  O   UNL     1     -28.114  42.652  89.268  1.00  0.00    -0.550 OA
ENDBRANCH  13  14
ENDBRANCH  12  13
ENDBRANCH  11  12
ENDBRANCH  10  11
ENDBRANCH   9  10
ENDBRANCH   8   9
ENDBRANCH   7   8
ENDBRANCH   6   7
ENDBRANCH   5   6
ENDBRANCH   4   5
ENDBRANCH   3   4
ENDBRANCH   2   3
ENDBRANCH   1   2
BRANCH   1  17
ATOM     17  C   UNL     1     -21.015  42.687  87.207  1.00  0.00     0.000 C 
BRANCH  17  18
ATOM     18  C   UNL     1     -21.378  41.536  88.162  1.00  0.00     0.000 C 
BRANCH  18  19
ATOM     19  C   UNL     1     -21.372  40.163  87.471  1.00  0.00     0.000 C 
BRANCH  19  20
ATOM     20  C   UNL     1     -20.672  39.081  88.308  1.00  0.00     0.000 C 
BRANCH  20  21
ATOM     21  C   UNL     1     -19.823  38.125  87.455  1.00  0.00     0.000 C 
BRANCH  21  22
ATOM     22  C   UNL     1     -20.286  38.142  85.994  1.00  0.00    -0.000 C 
BRANCH  22  23
ATOM     23  C   UNL     1     -19.112  38.418  85.045  1.00  0.00    -0.000 C 
BRANCH  23  24
ATOM     24  C   UNL     1     -18.978  37.359  83.936  1.00  0.00    -0.000 C 
BRANCH  24  25
ATOM     25  C   UNL     1     -17.563  37.278  83.325  1.00  0.00    -0.000 C 
BRANCH  25  26
ATOM     26  C   UNL     1     -17.206  35.851  82.870  1.00  0.00    -0.000 C 
BRANCH  26  27
ATOM     27  C   UNL     1     -16.974  35.746  81.352  1.00  0.00    -0.000 C 
BRANCH  27  28
ATOM     28  C   UNL     1     -17.378  36.994  80.546  1.00  0.00    -0.000 C 
BRANCH  28  29
ATOM     29  C   UNL     1     -18.730  36.836  79.835  1.00  0.00    -0.003 C 
ATOM     30  C   UNL     1     -18.661  37.358  78.403  1.00  0.00     0.004 C 
ENDBRANCH  28  29
ENDBRANCH  27  28
ENDBRANCH  26  27
ENDBRANCH  25  26
ENDBRANCH  24  25
ENDBRANCH  23  24
ENDBRANCH  22  23
ENDBRANCH  21  22
ENDBRANCH  20  21
ENDBRANCH  19  20
ENDBRANCH  18  19
ENDBRANCH  17  18
ENDBRANCH   1  17
TORSDOF 26
ENDMDL
MODEL 3
REMARK VINA RESULT:    -5.071      2.976      4.269
REMARK INTER + INTRA:         -16.931
REMARK INTER:                 -13.467
REMARK INTRA:                  -3.464
REMARK UNBOUND:                -4.152
REMARK SMILES CCCCCCCCCCCCCCCCCCCCCCCCCCCC(=O)[O-]
REMARK SMILES IDX 15 1 16 2 17 3 18 4 19 5 20 6 21 7 22 8 23 9 24 10 25 11
REMARK SMILES IDX 26 12 27 13 28 14 29 15 30 16 14 17 13 18 12 19 11 20 10 21
REMARK SMILES IDX 9 22 8 23 7 24 6 25 5 26 4 27 3 28 2 29 1 30
REMARK H PARENT
REMARK Flexibility Score: inf
ROOT
ATOM      1  C   UNL     1     -20.963  42.306  86.986  1.00  0.00     0.000 C 
ENDROOT
BRANCH   1   2
ATOM      2  C   UNL     1     -20.562  42.616  88.440  1.00  0.00     0.000 C 
BRANCH   2   3
ATOM      3  C   UNL     1     -21.403  41.840  89.465  1.00  0.00     0.000 C 
BRANCH   3   4
ATOM      4  C   UNL     1     -20.536  41.022  90.440  1.00  0.00     0.000 C 
BRANCH   4   5
ATOM      5  C   UNL     1     -19.131  40.749  89.881  1.00  0.00     0.000 C 
BRANCH   5   6
ATOM      6  C   UNL     1     -18.656  39.310  90.155  1.00  0.00     0.000 C 
BRANCH   6   7
ATOM      7  C   UNL     1     -19.745  38.266  89.833  1.00  0.00     0.000 C 
BRANCH   7   8
ATOM      8  C   UNL     1     -19.776  37.844  88.353  1.00  0.00     0.000 C 
BRANCH   8   9
ATOM      9  C   UNL     1     -20.851  38.587  87.542  1.00  0.00     0.000 C 
BRANCH   9  10
ATOM     10  C   UNL     1     -20.443  38.797  86.075  1.00  0.00     0.000 C 
BRANCH  10  11
ATOM     11  C   UNL     1     -19.375  37.791  85.609  1.00  0.00     0.000 C 
BRANCH  11  12
ATOM     12  C   UNL     1     -19.355  37.609  84.081  1.00  0.00     0.006 C 
BRANCH  12  13
ATOM     13  C   UNL     1     -18.391  36.519  83.587  1.00  0.00     0.053 C 
BRANCH  13  14
ATOM     14  C   UNL     1     -17.272  37.087  82.768  1.00  0.00     0.041 C 
ATOM     15  O   UNL     1     -17.371  37.148  81.513  1.00  0.00    -0.550 OA
ATOM     16  O   UNL     1     -16.134  37.582  83.392  1.00  0.00    -0.550 OA
ENDBRANCH  13  14
ENDBRANCH  12  13
ENDBRANCH  11  12
ENDBRANCH  10  11
ENDBRANCH   9  10
ENDBRANCH   8   9
ENDBRANCH   7   8
ENDBRANCH   6   7
ENDBRANCH   5   6
ENDBRANCH   4   5
ENDBRANCH   3   4
ENDBRANCH   2   3
ENDBRANCH   1   2
BRANCH   1  17
ATOM     17  C   UNL     1     -19.849  42.685  85.986  1.00  0.00     0.000 C 
BRANCH  17  18
ATOM     18  C   UNL     1     -19.612  44.200  85.871  1.00  0.00     0.000 C 
BRANCH  18  19
ATOM     19  C   UNL     1     -20.589  44.885  84.902  1.00  0.00     0.000 C 
BRANCH  19  20
ATOM     20  C   UNL     1     -21.713  45.641  85.629  1.00  0.00     0.000 C 
BRANCH  20  21
ATOM     21  C   UNL     1     -21.292  46.136  87.021  1.00  0.00     0.000 C 
BRANCH  21  22
ATOM     22  C   UNL     1     -22.492  46.172  87.974  1.00  0.00    -0.000 C 
BRANCH  22  23
ATOM     23  C   UNL     1     -23.459  45.015  87.688  1.00  0.00    -0.000 C 
BRANCH  23  24
ATOM     24  C   UNL     1     -24.937  45.441  87.747  1.00  0.00    -0.000 C 
BRANCH  24  25
ATOM     25  C   UNL     1     -25.713  44.824  88.930  1.00  0.00    -0.000 C 
BRANCH  25  26
ATOM     26  C   UNL     1     -24.939  43.674  89.598  1.00  0.00    -0.000 C 
BRANCH  26  27
ATOM     27  C   UNL     1     -25.247  43.535  91.100  1.00  0.00    -0.000 C 
BRANCH  27  28
ATOM     28  C   UNL     1     -26.654  44.000  91.518  1.00  0.00    -0.000 C 
BRANCH  28  29
ATOM     29  C   UNL     1     -27.636  42.836  91.715  1.00  0.00    -0.003 C 
ATOM     30  C   UNL     1     -28.787  42.913  90.718  1.00  0.00     0.004 C 
ENDBRANCH  28  29
ENDBRANCH  27  28
ENDBRANCH  26  27
ENDBRANCH  25  26
ENDBRANCH  24  25
ENDBRANCH  23  24
ENDBRANCH  22  23
ENDBRANCH  21  22
ENDBRANCH  20  21
ENDBRANCH  19  20
ENDBRANCH  18  19
ENDBRANCH  17  18
ENDBRANCH   1  17
TORSDOF 26
ENDMDL
MODEL 4
REMARK VINA RESULT:    -5.015      3.996      8.988
REMARK INTER + INTRA:         -16.789
REMARK INTER:                 -14.032
REMARK INTRA:                  -2.758
REMARK UNBOUND:                -4.152
REMARK SMILES CCCCCCCCCCCCCCCCCCCCCCCCCCCC(=O)[O-]
REMARK SMILES IDX 15 1 16 2 17 3 18 4 19 5 20 6 21 7 22 8 23 9 24 10 25 11
REMARK SMILES IDX 26 12 27 13 28 14 29 15 30 16 14 17 13 18 12 19 11 20 10 21
REMARK SMILES IDX 9 22 8 23 7 24 6 25 5 26 4 27 3 28 2 29 1 30
REMARK H PARENT
REMARK Flexibility Score: inf
ROOT
ATOM      1  C   UNL     1     -18.209  38.173  90.538  1.00  0.00     0.000 C 
ENDROOT
BRANCH   1   2
ATOM      2  C   UNL     1     -18.514  39.026  91.783  1.00  0.00     0.000 C 
BRANCH   2   3
ATOM      3  C   UNL     1     -20.020  39.256  91.991  1.00  0.00     0.000 C 
BRANCH   3   4
ATOM      4  C   UNL     1     -20.409  40.742  91.887  1.00  0.00     0.000 C 
BRANCH   4   5
ATOM      5  C   UNL     1     -21.041  41.085  90.529  1.00  0.00     0.000 C 
BRANCH   5   6
ATOM      6  C   UNL     1     -19.993  41.481  89.473  1.00  0.00     0.000 C 
BRANCH   6   7
ATOM      7  C   UNL     1     -20.624  42.225  88.278  1.00  0.00     0.000 C 
BRANCH   7   8
ATOM      8  C   UNL     1     -22.055  41.764  87.950  1.00  0.00     0.000 C 
BRANCH   8   9
ATOM      9  C   UNL     1     -23.087  42.900  88.055  1.00  0.00     0.000 C 
BRANCH   9  10
ATOM     10  C   UNL     1     -22.435  44.265  88.328  1.00  0.00     0.000 C 
BRANCH  10  11
ATOM     11  C   UNL     1     -22.746  45.298  87.230  1.00  0.00     0.000 C 
BRANCH  11  12
ATOM     12  C   UNL     1     -21.477  45.922  86.623  1.00  0.00     0.006 C 
BRANCH  12  13
ATOM     13  C   UNL     1     -20.251  44.995  86.631  1.00  0.00     0.053 C 
BRANCH  13  14
ATOM     14  C   UNL     1     -19.859  44.570  85.248  1.00  0.00     0.041 C 
ATOM     15  O   UNL     1     -18.989  43.675  85.082  1.00  0.00    -0.550 OA
ATOM     16  O   UNL     1     -20.480  45.139  84.143  1.00  0.00    -0.550 OA
ENDBRANCH  13  14
ENDBRANCH  12  13
ENDBRANCH  11  12
ENDBRANCH  10  11
ENDBRANCH   9  10
ENDBRANCH   8   9
ENDBRANCH   7   8
ENDBRANCH   6   7
ENDBRANCH   5   6
ENDBRANCH   4   5
ENDBRANCH   3   4
ENDBRANCH   2   3
ENDBRANCH   1   2
BRANCH   1  17
ATOM     17  C   UNL     1     -19.494  37.614  89.890  1.00  0.00     0.000 C 
BRANCH  17  18
ATOM     18  C   UNL     1     -19.491  37.686  88.353  1.00  0.00     0.000 C 
BRANCH  18  19
ATOM     19  C   UNL     1     -20.755  38.350  87.784  1.00  0.00     0.000 C 
BRANCH  19  20
ATOM     20  C   UNL     1     -20.521  38.984  86.404  1.00  0.00     0.000 C 
BRANCH  20  21
ATOM     21  C   UNL     1     -20.266  37.939  85.305  1.00  0.00     0.000 C 
BRANCH  21  22
ATOM     22  C   UNL     1     -18.854  38.090  84.728  1.00  0.00    -0.000 C 
BRANCH  22  23
ATOM     23  C   UNL     1     -18.502  36.908  83.815  1.00  0.00    -0.000 C 
BRANCH  23  24
ATOM     24  C   UNL     1     -17.340  36.057  84.359  1.00  0.00    -0.000 C 
BRANCH  24  25
ATOM     25  C   UNL     1     -16.801  35.023  83.347  1.00  0.00    -0.000 C 
BRANCH  25  26
ATOM     26  C   UNL     1     -16.839  35.550  81.901  1.00  0.00    -0.000 C 
BRANCH  26  27
ATOM     27  C   UNL     1     -17.783  34.740  80.993  1.00  0.00    -0.000 C 
BRANCH  27  28
ATOM     28  C   UNL     1     -18.014  35.343  79.596  1.00  0.00    -0.000 C 
BRANCH  28  29
ATOM     29  C   UNL     1     -18.729  36.702  79.640  1.00  0.00    -0.003 C 
ATOM     30  C   UNL     1     -18.743  37.361  78.264  1.00  0.00     0.004 C 
ENDBRANCH  28  29
ENDBRANCH  27  28
ENDBRANCH  26  27
ENDBRANCH  25  26
ENDBRANCH  24  25
ENDBRANCH  23  24
ENDBRANCH  22  23
ENDBRANCH  21  22
ENDBRANCH  20  21
ENDBRANCH  19  20
ENDBRANCH  18  19
ENDBRANCH  17  18
ENDBRANCH   1  17
TORSDOF 26
ENDMDL
MODEL 5
REMARK VINA RESULT:    -5.000      3.508      9.300
REMARK INTER + INTRA:         -16.751
REMARK INTER:                 -14.127
REMARK INTRA:                  -2.624
REMARK UNBOUND:                -4.152
REMARK SMILES CCCCCCCCCCCCCCCCCCCCCCCCCCCC(=O)[O-]
REMARK SMILES IDX 15 1 16 2 17 3 18 4 19 5 20 6 21 7 22 8 23 9 24 10 25 11
REMARK SMILES IDX 26 12 27 13 28 14 29 15 30 16 14 17 13 18 12 19 11 20 10 21
REMARK SMILES IDX 9 22 8 23 7 24 6 25 5 26 4 27 3 28 2 29 1 30
REMARK H PARENT
REMARK Flexibility Score: inf
ROOT
ATOM      1  C   UNL     1     -20.618  42.698  88.212  1.00  0.00     0.000 C 
ENDROOT
BRANCH   1   2
ATOM      2  C   UNL     1     -20.636  42.286  86.729  1.00  0.00     0.000 C 
BRANCH   2   3
ATOM      3  C   UNL     1     -19.570  43.016  85.896  1.00  0.00     0.000 C 
BRANCH   3   4
ATOM      4  C   UNL     1     -19.727  44.547  85.949  1.00  0.00     0.000 C 
BRANCH   4   5
ATOM      5  C   UNL     1     -20.647  45.076  84.837  1.00  0.00     0.000 C 
BRANCH   5   6
ATOM      6  C   UNL     1     -21.722  46.040  85.370  1.00  0.00     0.000 C 
BRANCH   6   7
ATOM      7  C   UNL     1     -22.477  45.456  86.583  1.00  0.00     0.000 C 
BRANCH   7   8
ATOM      8  C   UNL     1     -23.556  46.396  87.149  1.00  0.00     0.000 C 
BRANCH   8   9
ATOM      9  C   UNL     1     -24.262  45.818  88.387  1.00  0.00     0.000 C 
BRANCH   9  10
ATOM     10  C   UNL     1     -23.944  44.329  88.605  1.00  0.00     0.000 C 
BRANCH  10  11
ATOM     11  C   UNL     1     -24.656  43.749  89.840  1.00  0.00     0.000 C 
BRANCH  11  12
ATOM     12  C   UNL     1     -26.066  44.333  90.044  1.00  0.00     0.006 C 
BRANCH  12  13
ATOM     13  C   UNL     1     -26.894  43.621  91.126  1.00  0.00     0.053 C 
BRANCH  13  14
ATOM     14  C   UNL     1     -28.097  42.936  90.553  1.00  0.00     0.041 C 
ATOM     15  O   UNL     1     -28.122  42.609  89.337  1.00  0.00    -0.550 OA
ATOM     16  O   UNL     1     -29.178  42.629  91.370  1.00  0.00    -0.550 OA
ENDBRANCH  13  14
ENDBRANCH  12  13
ENDBRANCH  11  12
ENDBRANCH  10  11
ENDBRANCH   9  10
ENDBRANCH   8   9
ENDBRANCH   7   8
ENDBRANCH   6   7
ENDBRANCH   5   6
ENDBRANCH   4   5
ENDBRANCH   3   4
ENDBRANCH   2   3
ENDBRANCH   1   2
BRANCH   1  17
ATOM     17  C   UNL     1     -21.136  41.572  89.132  1.00  0.00     0.000 C 
BRANCH  17  18
ATOM     18  C   UNL     1     -20.102  41.097  90.168  1.00  0.00     0.000 C 
BRANCH  18  19
ATOM     19  C   UNL     1     -20.710  40.178  91.239  1.00  0.00     0.000 C 
BRANCH  19  20
ATOM     20  C   UNL     1     -20.579  38.688  90.886  1.00  0.00     0.000 C 
BRANCH  20  21
ATOM     21  C   UNL     1     -19.249  38.357  90.190  1.00  0.00     0.000 C 
BRANCH  21  22
ATOM     22  C   UNL     1     -19.474  37.416  89.001  1.00  0.00    -0.000 C 
BRANCH  22  23
ATOM     23  C   UNL     1     -20.506  37.997  88.025  1.00  0.00    -0.000 C 
BRANCH  23  24
ATOM     24  C   UNL     1     -19.861  38.782  86.869  1.00  0.00    -0.000 C 
BRANCH  24  25
ATOM     25  C   UNL     1     -20.032  38.109  85.491  1.00  0.00    -0.000 C 
BRANCH  25  26
ATOM     26  C   UNL     1     -18.701  37.569  84.938  1.00  0.00    -0.000 C 
BRANCH  26  27
ATOM     27  C   UNL     1     -18.784  37.175  83.452  1.00  0.00    -0.000 C 
BRANCH  27  28
ATOM     28  C   UNL     1     -17.520  37.481  82.628  1.00  0.00    -0.000 C 
BRANCH  28  29
ATOM     29  C   UNL     1     -16.785  36.214  82.166  1.00  0.00    -0.003 C 
ATOM     30  C   UNL     1     -16.906  35.100  83.201  1.00  0.00     0.004 C 
ENDBRANCH  28  29
ENDBRANCH  27  28
ENDBRANCH  26  27
ENDBRANCH  25  26
ENDBRANCH  24  25
ENDBRANCH  23  24
ENDBRANCH  22  23
ENDBRANCH  21  22
ENDBRANCH  20  21
ENDBRANCH  19  20
ENDBRANCH  18  19
ENDBRANCH  17  18
ENDBRANCH   1  17
TORSDOF 26
ENDMDL
MODEL 6
REMARK VINA RESULT:    -4.988      3.952      5.927
REMARK INTER + INTRA:         -16.721
REMARK INTER:                 -13.256
REMARK INTRA:                  -3.464
REMARK UNBOUND:                -4.152
REMARK SMILES CCCCCCCCCCCCCCCCCCCCCCCCCCCC(=O)[O-]
REMARK SMILES IDX 15 1 16 2 17 3 18 4 19 5 20 6 21 7 22 8 23 9 24 10 25 11
REMARK SMILES IDX 26 12 27 13 28 14 29 15 30 16 14 17 13 18 12 19 11 20 10 21
REMARK SMILES IDX 9 22 8 23 7 24 6 25 5 26 4 27 3 28 2 29 1 30
REMARK H PARENT
REMARK Flexibility Score: inf
ROOT
ATOM      1  C   UNL     1     -21.365  42.306  88.645  1.00  0.00     0.000 C 
ENDROOT
BRANCH   1   2
ATOM      2  C   UNL     1     -20.160  41.704  89.390  1.00  0.00     0.000 C 
BRANCH   2   3
ATOM      3  C   UNL     1     -20.547  40.514  90.283  1.00  0.00     0.000 C 
BRANCH   3   4
ATOM      4  C   UNL     1     -19.428  39.461  90.379  1.00  0.00     0.000 C 
BRANCH   4   5
ATOM      5  C   UNL     1     -19.892  38.072  89.914  1.00  0.00     0.000 C 
BRANCH   5   6
ATOM      6  C   UNL     1     -19.676  37.852  88.405  1.00  0.00     0.000 C 
BRANCH   6   7
ATOM      7  C   UNL     1     -20.921  38.235  87.578  1.00  0.00     0.000 C 
BRANCH   7   8
ATOM      8  C   UNL     1     -20.615  38.511  86.095  1.00  0.00     0.000 C 
BRANCH   8   9
ATOM      9  C   UNL     1     -19.177  38.134  85.701  1.00  0.00     0.000 C 
BRANCH   9  10
ATOM     10  C   UNL     1     -19.110  37.376  84.365  1.00  0.00     0.000 C 
BRANCH  10  11
ATOM     11  C   UNL     1     -17.999  36.311  84.345  1.00  0.00     0.000 C 
BRANCH  11  12
ATOM     12  C   UNL     1     -17.344  36.160  82.960  1.00  0.00     0.006 C 
BRANCH  12  13
ATOM     13  C   UNL     1     -18.022  36.977  81.849  1.00  0.00     0.053 C 
BRANCH  13  14
ATOM     14  C   UNL     1     -17.851  36.344  80.501  1.00  0.00     0.041 C 
ATOM     15  O   UNL     1     -18.535  36.741  79.522  1.00  0.00    -0.550 OA
ATOM     16  O   UNL     1     -16.910  35.337  80.320  1.00  0.00    -0.550 OA
ENDBRANCH  13  14
ENDBRANCH  12  13
ENDBRANCH  11  12
ENDBRANCH  10  11
ENDBRANCH   9  10
ENDBRANCH   8   9
ENDBRANCH   7   8
ENDBRANCH   6   7
ENDBRANCH   5   6
ENDBRANCH   4   5
ENDBRANCH   3   4
ENDBRANCH   2   3
ENDBRANCH   1   2
BRANCH   1  17
ATOM     17  C   UNL     1     -21.288  42.058  87.123  1.00  0.00     0.000 C 
BRANCH  17  18
ATOM     18  C   UNL     1     -19.881  42.265  86.536  1.00  0.00     0.000 C 
BRANCH  18  19
ATOM     19  C   UNL     1     -19.827  43.398  85.499  1.00  0.00     0.000 C 
BRANCH  19  20
ATOM     20  C   UNL     1     -18.726  44.427  85.802  1.00  0.00     0.000 C 
BRANCH  20  21
ATOM     21  C   UNL     1     -17.992  44.901  84.537  1.00  0.00     0.000 C 
BRANCH  21  22
ATOM     22  C   UNL     1     -18.398  46.335  84.176  1.00  0.00    -0.000 C 
BRANCH  22  23
ATOM     23  C   UNL     1     -19.129  46.379  82.828  1.00  0.00    -0.000 C 
BRANCH  23  24
ATOM     24  C   UNL     1     -20.652  46.207  82.968  1.00  0.00    -0.000 C 
BRANCH  24  25
ATOM     25  C   UNL     1     -21.285  47.125  84.036  1.00  0.00    -0.000 C 
BRANCH  25  26
ATOM     26  C   UNL     1     -21.980  46.325  85.152  1.00  0.00    -0.000 C 
BRANCH  26  27
ATOM     27  C   UNL     1     -21.676  46.872  86.560  1.00  0.00    -0.000 C 
BRANCH  27  28
ATOM     28  C   UNL     1     -21.682  45.816  87.680  1.00  0.00    -0.000 C 
BRANCH  28  29
ATOM     29  C   UNL     1     -22.949  45.871  88.547  1.00  0.00    -0.003 C 
ATOM     30  C   UNL     1     -24.034  44.953  87.992  1.00  0.00     0.004 C 
ENDBRANCH  28  29
ENDBRANCH  27  28
ENDBRANCH  26  27
ENDBRANCH  25  26
ENDBRANCH  24  25
ENDBRANCH  23  24
ENDBRANCH  22  23
ENDBRANCH  21  22
ENDBRANCH  20  21
ENDBRANCH  19  20
ENDBRANCH  18  19
ENDBRANCH  17  18
ENDBRANCH   1  17
TORSDOF 26
ENDMDL
MODEL 7
REMARK VINA RESULT:    -4.959      3.968      4.769
REMARK INTER + INTRA:         -16.649
REMARK INTER:                 -14.121
REMARK INTRA:                  -2.528
REMARK UNBOUND:                -4.152
REMARK SMILES CCCCCCCCCCCCCCCCCCCCCCCCCCCC(=O)[O-]
REMARK SMILES IDX 15 1 16 2 17 3 18 4 19 5 20 6 21 7 22 8 23 9 24 10 25 11
REMARK SMILES IDX 26 12 27 13 28 14 29 15 30 16 14 17 13 18 12 19 11 20 10 21
REMARK SMILES IDX 9 22 8 23 7 24 6 25 5 26 4 27 3 28 2 29 1 30
REMARK H PARENT
REMARK Flexibility Score: inf
ROOT
ATOM      1  C   UNL     1     -19.509  40.868  90.876  1.00  0.00     0.000 C 
ENDROOT
BRANCH   1   2
ATOM      2  C   UNL     1     -19.466  39.447  91.467  1.00  0.00     0.000 C 
BRANCH   2   3
ATOM      3  C   UNL     1     -20.267  38.433  90.634  1.00  0.00     0.000 C 
BRANCH   3   4
ATOM      4  C   UNL     1     -19.363  37.546  89.757  1.00  0.00     0.000 C 
BRANCH   4   5
ATOM      5  C   UNL     1     -19.392  37.966  88.279  1.00  0.00     0.000 C 
BRANCH   5   6
ATOM      6  C   UNL     1     -20.822  38.205  87.762  1.00  0.00     0.000 C 
BRANCH   6   7
ATOM      7  C   UNL     1     -20.849  38.522  86.252  1.00  0.00     0.000 C 
BRANCH   7   8
ATOM      8  C   UNL     1     -19.458  38.505  85.593  1.00  0.00     0.000 C 
BRANCH   8   9
ATOM      9  C   UNL     1     -19.350  37.482  84.450  1.00  0.00     0.000 C 
BRANCH   9  10
ATOM     10  C   UNL     1     -17.916  37.346  83.913  1.00  0.00     0.000 C 
BRANCH  10  11
ATOM     11  C   UNL     1     -17.339  35.934  84.121  1.00  0.00     0.000 C 
BRANCH  11  12
ATOM     12  C   UNL     1     -17.232  35.136  82.809  1.00  0.00     0.006 C 
BRANCH  12  13
ATOM     13  C   UNL     1     -16.584  35.910  81.650  1.00  0.00     0.053 C 
BRANCH  13  14
ATOM     14  C   UNL     1     -17.508  36.043  80.477  1.00  0.00     0.041 C 
ATOM     15  O   UNL     1     -18.214  35.066  80.112  1.00  0.00    -0.550 OA
ATOM     16  O   UNL     1     -17.614  37.257  79.809  1.00  0.00    -0.550 OA
ENDBRANCH  13  14
ENDBRANCH  12  13
ENDBRANCH  11  12
ENDBRANCH  10  11
ENDBRANCH   9  10
ENDBRANCH   8   9
ENDBRANCH   7   8
ENDBRANCH   6   7
ENDBRANCH   5   6
ENDBRANCH   4   5
ENDBRANCH   3   4
ENDBRANCH   2   3
ENDBRANCH   1   2
BRANCH   1  17
ATOM     17  C   UNL     1     -20.802  41.122  90.072  1.00  0.00     0.000 C 
BRANCH  17  18
ATOM     18  C   UNL     1     -20.568  41.861  88.744  1.00  0.00     0.000 C 
BRANCH  18  19
ATOM     19  C   UNL     1     -21.782  41.799  87.804  1.00  0.00     0.000 C 
BRANCH  19  20
ATOM     20  C   UNL     1     -22.747  42.979  88.003  1.00  0.00     0.000 C 
BRANCH  20  21
ATOM     21  C   UNL     1     -22.018  44.319  88.187  1.00  0.00     0.000 C 
BRANCH  21  22
ATOM     22  C   UNL     1     -23.019  45.460  88.401  1.00  0.00    -0.000 C 
BRANCH  22  23
ATOM     23  C   UNL     1     -24.113  45.444  87.325  1.00  0.00    -0.000 C 
BRANCH  23  24
ATOM     24  C   UNL     1     -25.496  45.837  87.873  1.00  0.00    -0.000 C 
BRANCH  24  25
ATOM     25  C   UNL     1     -25.435  46.703  89.150  1.00  0.00    -0.000 C 
BRANCH  25  26
ATOM     26  C   UNL     1     -26.206  46.068  90.321  1.00  0.00    -0.000 C 
BRANCH  26  27
ATOM     27  C   UNL     1     -26.611  44.607  90.050  1.00  0.00    -0.000 C 
BRANCH  27  28
ATOM     28  C   UNL     1     -27.365  43.919  91.203  1.00  0.00    -0.000 C 
BRANCH  28  29
ATOM     29  C   UNL     1     -28.460  42.959  90.714  1.00  0.00    -0.003 C 
ATOM     30  C   UNL     1     -28.124  42.399  89.335  1.00  0.00     0.004 C 
ENDBRANCH  28  29
ENDBRANCH  27  28
ENDBRANCH  26  27
ENDBRANCH  25  26
ENDBRANCH  24  25
ENDBRANCH  23  24
ENDBRANCH  22  23
ENDBRANCH  21  22
ENDBRANCH  20  21
ENDBRANCH  19  20
ENDBRANCH  18  19
ENDBRANCH  17  18
ENDBRANCH   1  17
TORSDOF 26
ENDMDL
MODEL 8
REMARK VINA RESULT:    -4.935      2.745      8.394
REMARK INTER + INTRA:         -16.588
REMARK INTER:                 -12.896
REMARK INTRA:                  -3.692
REMARK UNBOUND:                -4.152
REMARK SMILES CCCCCCCCCCCCCCCCCCCCCCCCCCCC(=O)[O-]
REMARK SMILES IDX 15 1 16 2 17 3 18 4 19 5 20 6 21 7 22 8 23 9 24 10 25 11
REMARK SMILES IDX 26 12 27 13 28 14 29 15 30 16 14 17 13 18 12 19 11 20 10 21
REMARK SMILES IDX 9 22 8 23 7 24 6 25 5 26 4 27 3 28 2 29 1 30
REMARK H PARENT
REMARK Flexibility Score: inf
ROOT
ATOM      1  C   UNL     1     -17.815  45.560  84.930  1.00  0.00     0.000 C 
ENDROOT
BRANCH   1   2
ATOM      2  C   UNL     1     -18.608  45.506  83.612  1.00  0.00     0.000 C 
BRANCH   2   3
ATOM      3  C   UNL     1     -18.986  46.901  83.089  1.00  0.00     0.000 C 
BRANCH   3   4
ATOM      4  C   UNL     1     -20.506  47.072  82.912  1.00  0.00     0.000 C 
BRANCH   4   5
ATOM      5  C   UNL     1     -21.308  46.201  83.891  1.00  0.00     0.000 C 
BRANCH   5   6
ATOM      6  C   UNL     1     -22.013  47.032  84.978  1.00  0.00     0.000 C 
BRANCH   6   7
ATOM      7  C   UNL     1     -21.330  46.889  86.354  1.00  0.00     0.000 C 
BRANCH   7   8
ATOM      8  C   UNL     1     -22.320  46.755  87.525  1.00  0.00     0.000 C 
BRANCH   8   9
ATOM      9  C   UNL     1     -23.774  46.569  87.058  1.00  0.00     0.000 C 
BRANCH   9  10
ATOM     10  C   UNL     1     -24.431  45.316  87.659  1.00  0.00     0.000 C 
BRANCH  10  11
ATOM     11  C   UNL     1     -25.794  45.616  88.307  1.00  0.00     0.000 C 
BRANCH  11  12
ATOM     12  C   UNL     1     -25.682  45.932  89.810  1.00  0.00     0.006 C 
BRANCH  12  13
ATOM     13  C   UNL     1     -26.914  45.526  90.635  1.00  0.00     0.053 C 
BRANCH  13  14
ATOM     14  C   UNL     1     -26.958  44.050  90.889  1.00  0.00     0.041 C 
ATOM     15  O   UNL     1     -26.659  43.592  92.023  1.00  0.00    -0.550 OA
ATOM     16  O   UNL     1     -27.364  43.183  89.882  1.00  0.00    -0.550 OA
ENDBRANCH  13  14
ENDBRANCH  12  13
ENDBRANCH  11  12
ENDBRANCH  10  11
ENDBRANCH   9  10
ENDBRANCH   8   9
ENDBRANCH   7   8
ENDBRANCH   6   7
ENDBRANCH   5   6
ENDBRANCH   4   5
ENDBRANCH   3   4
ENDBRANCH   2   3
ENDBRANCH   1   2
BRANCH   1  17
ATOM     17  C   UNL     1     -18.360  44.563  85.975  1.00  0.00     0.000 C 
BRANCH  17  18
ATOM     18  C   UNL     1     -19.223  43.443  85.368  1.00  0.00     0.000 C 
BRANCH  18  19
ATOM     19  C   UNL     1     -20.636  43.384  85.970  1.00  0.00     0.000 C 
BRANCH  19  20
ATOM     20  C   UNL     1     -20.633  43.521  87.501  1.00  0.00     0.000 C 
BRANCH  20  21
ATOM     21  C   UNL     1     -21.550  42.498  88.191  1.00  0.00     0.000 C 
BRANCH  21  22
ATOM     22  C   UNL     1     -22.056  43.037  89.533  1.00  0.00    -0.000 C 
BRANCH  22  23
ATOM     23  C   UNL     1     -21.778  42.043  90.668  1.00  0.00    -0.000 C 
BRANCH  23  24
ATOM     24  C   UNL     1     -20.655  41.047  90.328  1.00  0.00    -0.000 C 
BRANCH  24  25
ATOM     25  C   UNL     1     -20.981  39.588  90.715  1.00  0.00    -0.000 C 
BRANCH  25  26
ATOM     26  C   UNL     1     -19.730  38.693  90.716  1.00  0.00    -0.000 C 
BRANCH  26  27
ATOM     27  C   UNL     1     -19.184  38.423  89.302  1.00  0.00    -0.000 C 
BRANCH  27  28
ATOM     28  C   UNL     1     -20.209  37.842  88.311  1.00  0.00    -0.000 C 
BRANCH  28  29
ATOM     29  C   UNL     1     -20.788  38.900  87.359  1.00  0.00    -0.003 C 
ATOM     30  C   UNL     1     -19.686  39.789  86.790  1.00  0.00     0.004 C 
ENDBRANCH  28  29
ENDBRANCH  27  28
ENDBRANCH  26  27
ENDBRANCH  25  26
ENDBRANCH  24  25
ENDBRANCH  23  24
ENDBRANCH  22  23
ENDBRANCH  21  22
ENDBRANCH  20  21
ENDBRANCH  19  20
ENDBRANCH  18  19
ENDBRANCH  17  18
ENDBRANCH   1  17
TORSDOF 26
ENDMDL
MODEL 9
REMARK VINA RESULT:    -4.920      2.685      8.564
REMARK INTER + INTRA:         -16.550
REMARK INTER:                 -12.973
REMARK INTRA:                  -3.577
REMARK UNBOUND:                -4.152
REMARK SMILES CCCCCCCCCCCCCCCCCCCCCCCCCCCC(=O)[O-]
REMARK SMILES IDX 15 1 16 2 17 3 18 4 19 5 20 6 21 7 22 8 23 9 24 10 25 11
REMARK SMILES IDX 26 12 27 13 28 14 29 15 30 16 14 17 13 18 12 19 11 20 10 21
REMARK SMILES IDX 9 22 8 23 7 24 6 25 5 26 4 27 3 28 2 29 1 30
REMARK H PARENT
REMARK Flexibility Score: inf
ROOT
ATOM      1  C   UNL     1     -20.344  43.350  85.994  1.00  0.00     0.000 C 
ENDROOT
BRANCH   1   2
ATOM      2  C   UNL     1     -19.021  44.017  85.576  1.00  0.00     0.000 C 
BRANCH   2   3
ATOM      3  C   UNL     1     -19.233  45.246  84.678  1.00  0.00     0.000 C 
BRANCH   3   4
ATOM      4  C   UNL     1     -20.086  46.333  85.358  1.00  0.00     0.000 C 
BRANCH   4   5
ATOM      5  C   UNL     1     -21.445  46.525  84.668  1.00  0.00     0.000 C 
BRANCH   5   6
ATOM      6  C   UNL     1     -22.628  46.373  85.641  1.00  0.00     0.000 C 
BRANCH   6   7
ATOM      7  C   UNL     1     -22.240  46.739  87.089  1.00  0.00     0.000 C 
BRANCH   7   8
ATOM      8  C   UNL     1     -23.420  46.683  88.077  1.00  0.00     0.000 C 
BRANCH   8   9
ATOM      9  C   UNL     1     -24.389  45.525  87.785  1.00  0.00     0.000 C 
BRANCH   9  10
ATOM     10  C   UNL     1     -25.824  46.009  87.522  1.00  0.00     0.000 C 
BRANCH  10  11
ATOM     11  C   UNL     1     -26.597  46.301  88.820  1.00  0.00     0.000 C 
BRANCH  11  12
ATOM     12  C   UNL     1     -26.226  45.338  89.963  1.00  0.00     0.006 C 
BRANCH  12  13
ATOM     13  C   UNL     1     -27.412  44.920  90.846  1.00  0.00     0.053 C 
BRANCH  13  14
ATOM     14  C   UNL     1     -27.706  43.454  90.736  1.00  0.00     0.041 C 
ATOM     15  O   UNL     1     -28.111  42.969  89.646  1.00  0.00    -0.550 OA
ATOM     16  O   UNL     1     -27.500  42.619  91.827  1.00  0.00    -0.550 OA
ENDBRANCH  13  14
ENDBRANCH  12  13
ENDBRANCH  11  12
ENDBRANCH  10  11
ENDBRANCH   9  10
ENDBRANCH   8   9
ENDBRANCH   7   8
ENDBRANCH   6   7
ENDBRANCH   5   6
ENDBRANCH   4   5
ENDBRANCH   3   4
ENDBRANCH   2   3
ENDBRANCH   1   2
BRANCH   1  17
ATOM     17  C   UNL     1     -20.569  43.416  87.520  1.00  0.00     0.000 C 
BRANCH  17  18
ATOM     18  C   UNL     1     -22.001  43.052  87.949  1.00  0.00     0.000 C 
BRANCH  18  19
ATOM     19  C   UNL     1     -22.166  42.976  89.475  1.00  0.00     0.000 C 
BRANCH  19  20
ATOM     20  C   UNL     1     -21.240  41.932  90.119  1.00  0.00     0.000 C 
BRANCH  20  21
ATOM     21  C   UNL     1     -21.719  41.492  91.512  1.00  0.00     0.000 C 
BRANCH  21  22
ATOM     22  C   UNL     1     -20.860  40.339  92.044  1.00  0.00    -0.000 C 
BRANCH  22  23
ATOM     23  C   UNL     1     -19.366  40.677  91.959  1.00  0.00    -0.000 C 
BRANCH  23  24
ATOM     24  C   UNL     1     -18.470  39.426  91.944  1.00  0.00    -0.000 C 
BRANCH  24  25
ATOM     25  C   UNL     1     -17.841  39.130  90.565  1.00  0.00    -0.000 C 
BRANCH  25  26
ATOM     26  C   UNL     1     -18.279  37.764  90.007  1.00  0.00    -0.000 C 
BRANCH  26  27
ATOM     27  C   UNL     1     -19.790  37.690  89.721  1.00  0.00    -0.000 C 
BRANCH  27  28
ATOM     28  C   UNL     1     -20.177  37.826  88.237  1.00  0.00    -0.000 C 
BRANCH  28  29
ATOM     29  C   UNL     1     -20.642  39.243  87.867  1.00  0.00    -0.003 C 
ATOM     30  C   UNL     1     -19.480  40.086  87.353  1.00  0.00     0.004 C 
ENDBRANCH  28  29
ENDBRANCH  27  28
ENDBRANCH  26  27
ENDBRANCH  25  26
ENDBRANCH  24  25
ENDBRANCH  23  24
ENDBRANCH  22  23
ENDBRANCH  21  22
ENDBRANCH  20  21
ENDBRANCH  19  20
ENDBRANCH  18  19
ENDBRANCH  17  18
ENDBRANCH   1  17
TORSDOF 26
ENDMDL
