MODEL 1
REMARK VINA RESULT:    -4.582      0.000      0.000
REMARK INTER + INTRA:          -5.079
REMARK INTER:                  -4.984
REMARK INTRA:                  -0.095
REMARK UNBOUND:                -0.095
REMARK SMILES C=C(C)[C@@H]1CC=C(C)[C@@H](O)C1
REMARK SMILES IDX 8 1 7 2 6 3 5 4 4 5 11 6 9 7 10 8 2 10 1 11 3 12
REMARK H PARENT 10 9
REMARK Flexibility Score: inf
ROOT
ATOM      1  C   UNL     1     182.916 187.365 190.850  1.00  0.00     0.042 C 
ATOM      2  C   UNL     1     183.653 188.456 190.121  1.00  0.00    -0.049 C 
ATOM      3  C   UNL     1     183.758 189.672 190.699  1.00  0.00    -0.025 C 
ATOM      4  C   UNL     1     184.536 190.809 190.086  1.00  0.00     0.035 C 
ATOM      5  C   UNL     1     184.639 190.677 188.558  1.00  0.00     0.021 C 
ATOM      6  C   UNL     1     185.130 189.268 188.187  1.00  0.00     0.044 C 
ATOM      7  C   UNL     1     184.173 188.180 188.715  1.00  0.00     0.140 C 
ENDROOT
BRANCH   7   8
ATOM      8  O   UNL     1     183.104 187.983 187.825  1.00  0.00    -0.389 OA
ATOM      9  H   UNL     1     183.483 187.719 186.947  1.00  0.00     0.211 HD
ENDBRANCH   7   8
BRANCH   5  10
ATOM     10  C   UNL     1     185.540 191.755 187.969  1.00  0.00    -0.077 C 
ATOM     11  C   UNL     1     186.265 191.499 186.867  1.00  0.00     0.008 C 
ATOM     12  C   UNL     1     185.642 193.125 188.593  1.00  0.00     0.039 C 
ENDBRANCH   5  10
TORSDOF 2
ENDMDL
MODEL 2
REMARK VINA RESULT:    -4.490      1.953      2.279
REMARK INTER + INTRA:          -4.978
REMARK INTER:                  -4.884
REMARK INTRA:                  -0.094
REMARK UNBOUND:                -0.095
REMARK SMILES C=C(C)[C@@H]1CC=C(C)[C@@H](O)C1
REMARK SMILES IDX 8 1 7 2 6 3 5 4 4 5 11 6 9 7 10 8 2 10 1 11 3 12
REMARK H PARENT 10 9
REMARK Flexibility Score: inf
ROOT
ATOM      1  C   UNL     1     185.349 187.844 192.306  1.00  0.00     0.042 C 
ATOM      2  C   UNL     1     185.408 189.045 191.401  1.00  0.00    -0.049 C 
ATOM      3  C   UNL     1     186.455 189.890 191.505  1.00  0.00    -0.025 C 
ATOM      4  C   UNL     1     186.645 191.080 190.599  1.00  0.00     0.035 C 
ATOM      5  C   UNL     1     185.312 191.581 190.022  1.00  0.00     0.021 C 
ATOM      6  C   UNL     1     184.530 190.406 189.411  1.00  0.00     0.044 C 
ATOM      7  C   UNL     1     184.238 189.316 190.463  1.00  0.00     0.140 C 
ENDROOT
BRANCH   7   8
ATOM      8  O   UNL     1     183.082 189.633 191.198  1.00  0.00    -0.389 OA
ATOM      9  H   UNL     1     182.478 190.154 190.607  1.00  0.00     0.211 HD
ENDBRANCH   7   8
BRANCH   5  10
ATOM     10  C   UNL     1     185.532 192.693 189.004  1.00  0.00    -0.077 C 
ATOM     11  C   UNL     1     185.388 192.444 187.692  1.00  0.00     0.008 C 
ATOM     12  C   UNL     1     185.908 194.091 189.433  1.00  0.00     0.039 C 
ENDBRANCH   5  10
TORSDOF 2
ENDMDL
MODEL 3
REMARK VINA RESULT:    -4.481      1.854      4.493
REMARK INTER + INTRA:          -4.968
REMARK INTER:                  -4.872
REMARK INTRA:                  -0.097
REMARK UNBOUND:                -0.095
REMARK SMILES C=C(C)[C@@H]1CC=C(C)[C@@H](O)C1
REMARK SMILES IDX 8 1 7 2 6 3 5 4 4 5 11 6 9 7 10 8 2 10 1 11 3 12
REMARK H PARENT 10 9
REMARK Flexibility Score: inf
ROOT
ATOM      1  C   UNL     1     186.366 194.288 189.230  1.00  0.00     0.042 C 
ATOM      2  C   UNL     1     185.697 192.941 189.281  1.00  0.00    -0.049 C 
ATOM      3  C   UNL     1     185.690 192.259 190.446  1.00  0.00    -0.025 C 
ATOM      4  C   UNL     1     184.986 190.938 190.620  1.00  0.00     0.035 C 
ATOM      5  C   UNL     1     184.845 190.181 189.291  1.00  0.00     0.021 C 
ATOM      6  C   UNL     1     184.247 191.109 188.221  1.00  0.00     0.044 C 
ATOM      7  C   UNL     1     185.132 192.352 187.993  1.00  0.00     0.140 C 
ENDROOT
BRANCH   7   8
ATOM      8  O   UNL     1     186.168 192.065 187.088  1.00  0.00    -0.389 OA
ATOM      9  H   UNL     1     186.861 192.769 187.184  1.00  0.00     0.211 HD
ENDBRANCH   7   8
BRANCH   5  10
ATOM     10  C   UNL     1     184.014 188.915 189.458  1.00  0.00    -0.077 C 
ATOM     11  C   UNL     1     183.442 188.637 190.641  1.00  0.00     0.008 C 
ATOM     12  C   UNL     1     183.807 187.951 188.316  1.00  0.00     0.039 C 
ENDBRANCH   5  10
TORSDOF 2
ENDMDL
MODEL 4
REMARK VINA RESULT:    -4.405      1.476      2.183
REMARK INTER + INTRA:          -4.886
REMARK INTER:                  -4.792
REMARK INTRA:                  -0.094
REMARK UNBOUND:                -0.095
REMARK SMILES C=C(C)[C@@H]1CC=C(C)[C@@H](O)C1
REMARK SMILES IDX 8 1 7 2 6 3 5 4 4 5 11 6 9 7 10 8 2 10 1 11 3 12
REMARK H PARENT 10 9
REMARK Flexibility Score: inf
ROOT
ATOM      1  C   UNL     1     183.440 187.733 188.312  1.00  0.00     0.042 C 
ATOM      2  C   UNL     1     184.105 189.022 188.713  1.00  0.00    -0.049 C 
ATOM      3  C   UNL     1     184.185 189.336 190.023  1.00  0.00    -0.025 C 
ATOM      4  C   UNL     1     184.893 190.566 190.532  1.00  0.00     0.035 C 
ATOM      5  C   UNL     1     184.943 191.680 189.474  1.00  0.00     0.021 C 
ATOM      6  C   UNL     1     185.474 191.117 188.146  1.00  0.00     0.044 C 
ATOM      7  C   UNL     1     184.581 189.973 187.621  1.00  0.00     0.140 C 
ENDROOT
BRANCH   7   8
ATOM      8  O   UNL     1     183.487 190.486 186.904  1.00  0.00    -0.389 OA
ATOM      9  H   UNL     1     182.684 190.417 187.482  1.00  0.00     0.211 HD
ENDBRANCH   7   8
BRANCH   5  10
ATOM     10  C   UNL     1     185.777 192.861 189.953  1.00  0.00    -0.077 C 
ATOM     11  C   UNL     1     185.944 193.932 189.160  1.00  0.00     0.008 C 
ATOM     12  C   UNL     1     186.429 192.866 191.314  1.00  0.00     0.039 C 
ENDBRANCH   5  10
TORSDOF 2
ENDMDL
MODEL 5
REMARK VINA RESULT:    -4.390      2.451      3.908
REMARK INTER + INTRA:          -4.870
REMARK INTER:                  -4.782
REMARK INTRA:                  -0.088
REMARK UNBOUND:                -0.095
REMARK SMILES C=C(C)[C@@H]1CC=C(C)[C@@H](O)C1
REMARK SMILES IDX 8 1 7 2 6 3 5 4 4 5 11 6 9 7 10 8 2 10 1 11 3 12
REMARK H PARENT 10 9
REMARK Flexibility Score: inf
ROOT
ATOM      1  C   UNL     1     186.499 189.442 184.640  1.00  0.00     0.042 C 
ATOM      2  C   UNL     1     186.253 190.183 185.926  1.00  0.00    -0.049 C 
ATOM      3  C   UNL     1     187.243 190.941 186.443  1.00  0.00    -0.025 C 
ATOM      4  C   UNL     1     187.074 191.778 187.685  1.00  0.00     0.035 C 
ATOM      5  C   UNL     1     185.974 191.226 188.606  1.00  0.00     0.021 C 
ATOM      6  C   UNL     1     184.689 190.982 187.797  1.00  0.00     0.044 C 
ATOM      7  C   UNL     1     184.927 189.978 186.650  1.00  0.00     0.140 C 
ENDROOT
BRANCH   7   8
ATOM      8  O   UNL     1     184.821 188.657 187.117  1.00  0.00    -0.389 OA
ATOM      9  H   UNL     1     185.155 188.053 186.403  1.00  0.00     0.211 HD
ENDBRANCH   7   8
BRANCH   5  10
ATOM     10  C   UNL     1     185.721 192.155 189.786  1.00  0.00    -0.077 C 
ATOM     11  C   UNL     1     185.457 191.645 191.000  1.00  0.00     0.008 C 
ATOM     12  C   UNL     1     185.763 193.656 189.631  1.00  0.00     0.039 C 
ENDBRANCH   5  10
TORSDOF 2
ENDMDL
MODEL 6
REMARK VINA RESULT:    -4.390      1.312      4.429
REMARK INTER + INTRA:          -4.870
REMARK INTER:                  -4.784
REMARK INTRA:                  -0.086
REMARK UNBOUND:                -0.095
REMARK SMILES C=C(C)[C@@H]1CC=C(C)[C@@H](O)C1
REMARK SMILES IDX 8 1 7 2 6 3 5 4 4 5 11 6 9 7 10 8 2 10 1 11 3 12
REMARK H PARENT 10 9
REMARK Flexibility Score: inf
ROOT
ATOM      1  C   UNL     1     184.989 191.898 187.442  1.00  0.00     0.042 C 
ATOM      2  C   UNL     1     184.551 190.639 188.140  1.00  0.00    -0.049 C 
ATOM      3  C   UNL     1     184.292 190.682 189.465  1.00  0.00    -0.025 C 
ATOM      4  C   UNL     1     183.780 189.496 190.241  1.00  0.00     0.035 C 
ATOM      5  C   UNL     1     184.172 188.164 189.582  1.00  0.00     0.021 C 
ATOM      6  C   UNL     1     183.796 188.187 188.092  1.00  0.00     0.044 C 
ATOM      7  C   UNL     1     184.507 189.337 187.348  1.00  0.00     0.140 C 
ENDROOT
BRANCH   7   8
ATOM      8  O   UNL     1     185.802 188.953 186.961  1.00  0.00    -0.389 OA
ATOM      9  H   UNL     1     185.829 188.928 185.969  1.00  0.00     0.211 HD
ENDBRANCH   7   8
BRANCH   5  10
ATOM     10  C   UNL     1     183.534 186.982 190.300  1.00  0.00    -0.077 C 
ATOM     11  C   UNL     1     184.061 186.527 191.449  1.00  0.00     0.008 C 
ATOM     12  C   UNL     1     182.307 186.296 189.752  1.00  0.00     0.039 C 
ENDBRANCH   5  10
TORSDOF 2
ENDMDL
MODEL 7
REMARK VINA RESULT:    -4.341      1.524      2.150
REMARK INTER + INTRA:          -4.816
REMARK INTER:                  -4.721
REMARK INTRA:                  -0.096
REMARK UNBOUND:                -0.095
REMARK SMILES C=C(C)[C@@H]1CC=C(C)[C@@H](O)C1
REMARK SMILES IDX 8 1 7 2 6 3 5 4 4 5 11 6 9 7 10 8 2 10 1 11 3 12
REMARK H PARENT 10 9
REMARK Flexibility Score: inf
ROOT
ATOM      1  C   UNL     1     182.914 186.293 189.957  1.00  0.00     0.042 C 
ATOM      2  C   UNL     1     183.451 187.664 189.643  1.00  0.00    -0.049 C 
ATOM      3  C   UNL     1     183.861 187.932 188.385  1.00  0.00    -0.025 C 
ATOM      4  C   UNL     1     184.347 189.292 187.952  1.00  0.00     0.035 C 
ATOM      5  C   UNL     1     184.909 190.104 189.129  1.00  0.00     0.021 C 
ATOM      6  C   UNL     1     183.904 190.105 190.292  1.00  0.00     0.044 C 
ATOM      7  C   UNL     1     183.602 188.672 190.777  1.00  0.00     0.140 C 
ENDROOT
BRANCH   7   8
ATOM      8  O   UNL     1     184.578 188.241 191.692  1.00  0.00    -0.389 OA
ATOM      9  H   UNL     1     185.340 187.872 191.174  1.00  0.00     0.211 HD
ENDBRANCH   7   8
BRANCH   5  10
ATOM     10  C   UNL     1     185.268 191.522 188.702  1.00  0.00    -0.077 C 
ATOM     11  C   UNL     1     185.383 191.825 187.399  1.00  0.00     0.008 C 
ATOM     12  C   UNL     1     185.499 192.615 189.717  1.00  0.00     0.039 C 
ENDBRANCH   5  10
TORSDOF 2
ENDMDL
MODEL 8
REMARK VINA RESULT:    -4.319      2.074      2.781
REMARK INTER + INTRA:          -4.793
REMARK INTER:                  -4.699
REMARK INTRA:                  -0.094
REMARK UNBOUND:                -0.095
REMARK SMILES C=C(C)[C@@H]1CC=C(C)[C@@H](O)C1
REMARK SMILES IDX 8 1 7 2 6 3 5 4 4 5 11 6 9 7 10 8 2 10 1 11 3 12
REMARK H PARENT 10 9
REMARK Flexibility Score: inf
ROOT
ATOM      1  C   UNL     1     183.788 188.920 191.353  1.00  0.00     0.042 C 
ATOM      2  C   UNL     1     184.605 190.119 190.951  1.00  0.00    -0.049 C 
ATOM      3  C   UNL     1     185.383 190.719 191.877  1.00  0.00    -0.025 C 
ATOM      4  C   UNL     1     186.292 191.878 191.560  1.00  0.00     0.035 C 
ATOM      5  C   UNL     1     185.804 192.675 190.339  1.00  0.00     0.021 C 
ATOM      6  C   UNL     1     185.524 191.719 189.168  1.00  0.00     0.044 C 
ATOM      7  C   UNL     1     184.453 190.672 189.539  1.00  0.00     0.140 C 
ENDROOT
BRANCH   7   8
ATOM      8  O   UNL     1     183.162 191.194 189.351  1.00  0.00    -0.389 OA
ATOM      9  H   UNL     1     183.214 191.890 188.646  1.00  0.00     0.211 HD
ENDBRANCH   7   8
BRANCH   5  10
ATOM     10  C   UNL     1     186.802 193.757 189.948  1.00  0.00    -0.077 C 
ATOM     11  C   UNL     1     188.037 193.420 189.542  1.00  0.00     0.008 C 
ATOM     12  C   UNL     1     186.438 195.221 190.001  1.00  0.00     0.039 C 
ENDBRANCH   5  10
TORSDOF 2
ENDMDL
MODEL 9
REMARK VINA RESULT:    -4.254      2.880      3.831
REMARK INTER + INTRA:          -4.722
REMARK INTER:                  -4.636
REMARK INTRA:                  -0.086
REMARK UNBOUND:                -0.095
REMARK SMILES C=C(C)[C@@H]1CC=C(C)[C@@H](O)C1
REMARK SMILES IDX 8 1 7 2 6 3 5 4 4 5 11 6 9 7 10 8 2 10 1 11 3 12
REMARK H PARENT 10 9
REMARK Flexibility Score: inf
ROOT
ATOM      1  C   UNL     1     184.617 189.521 186.537  1.00  0.00     0.042 C 
ATOM      2  C   UNL     1     185.247 190.594 187.384  1.00  0.00    -0.049 C 
ATOM      3  C   UNL     1     184.477 191.264 188.267  1.00  0.00    -0.025 C 
ATOM      4  C   UNL     1     185.025 192.304 189.211  1.00  0.00     0.035 C 
ATOM      5  C   UNL     1     186.309 192.952 188.671  1.00  0.00     0.021 C 
ATOM      6  C   UNL     1     187.305 191.862 188.243  1.00  0.00     0.044 C 
ATOM      7  C   UNL     1     186.710 190.951 187.149  1.00  0.00     0.140 C 
ENDROOT
BRANCH   7   8
ATOM      8  O   UNL     1     186.878 191.527 185.878  1.00  0.00    -0.389 OA
ATOM      9  H   UNL     1     187.379 190.883 185.315  1.00  0.00     0.211 HD
ENDBRANCH   7   8
BRANCH   5  10
ATOM     10  C   UNL     1     186.924 193.899 189.693  1.00  0.00    -0.077 C 
ATOM     11  C   UNL     1     186.355 195.091 189.935  1.00  0.00     0.008 C 
ATOM     12  C   UNL     1     188.173 193.531 190.456  1.00  0.00     0.039 C 
ENDBRANCH   5  10
TORSDOF 2
ENDMDL
