MODEL 1
REMARK VINA RESULT:    -4.057      0.000      0.000
REMARK INTER + INTRA:          -5.475
REMARK INTER:                  -5.243
REMARK INTRA:                  -0.233
REMARK UNBOUND:                -0.233
REMARK SMILES C=CC(=O)CCCCC
REMARK SMILES IDX 6 1 7 2 8 3 9 4 5 5 3 6 4 7 2 8 1 9
REMARK H PARENT
REMARK Flexibility Score: inf
ROOT
ATOM      1  C   UNL     1      10.282 -11.792  18.636  1.00  0.00     0.008 C 
ENDROOT
BRANCH   1   2
ATOM      2  C   UNL     1       9.610 -10.551  18.028  1.00  0.00     0.000 C 
BRANCH   2   3
ATOM      3  C   UNL     1      10.314  -9.244  18.427  1.00  0.00    -0.003 C 
ATOM      4  C   UNL     1      11.344  -9.442  19.538  1.00  0.00     0.004 C 
ENDBRANCH   2   3
ENDBRANCH   1   2
BRANCH   1   5
ATOM      5  C   UNL     1      11.016 -12.599  17.561  1.00  0.00     0.080 C 
BRANCH   5   6
ATOM      6  C   UNL     1      10.113 -13.648  16.981  1.00  0.00     0.155 C 
ATOM      7  O   UNL     1       9.569 -13.444  15.861  1.00  0.00    -0.295 OA
BRANCH   6   8
ATOM      8  C   UNL     1       9.832 -14.883  17.739  1.00  0.00     0.039 C 
ATOM      9  C   UNL     1      10.594 -15.971  17.641  1.00  0.00     0.012 C 
ENDBRANCH   6   8
ENDBRANCH   5   6
ENDBRANCH   1   5
TORSDOF 5
ENDMDL
MODEL 2
REMARK VINA RESULT:    -4.050      1.042      4.836
REMARK INTER + INTRA:          -5.467
REMARK INTER:                  -5.317
REMARK INTRA:                  -0.150
REMARK UNBOUND:                -0.233
REMARK SMILES C=CC(=O)CCCCC
REMARK SMILES IDX 6 1 7 2 8 3 9 4 5 5 3 6 4 7 2 8 1 9
REMARK H PARENT
REMARK Flexibility Score: inf
ROOT
ATOM      1  C   UNL     1      10.508 -13.413  17.633  1.00  0.00     0.008 C 
ENDROOT
BRANCH   1   2
ATOM      2  C   UNL     1       9.768 -14.690  18.059  1.00  0.00     0.000 C 
BRANCH   2   3
ATOM      3  C   UNL     1       9.834 -15.795  16.993  1.00  0.00    -0.003 C 
ATOM      4  C   UNL     1      11.200 -16.475  16.928  1.00  0.00     0.004 C 
ENDBRANCH   2   3
ENDBRANCH   1   2
BRANCH   1   5
ATOM      5  C   UNL     1      10.131 -12.235  18.535  1.00  0.00     0.080 C 
BRANCH   5   6
ATOM      6  C   UNL     1       9.820 -11.019  17.712  1.00  0.00     0.155 C 
ATOM      7  O   UNL     1       9.407 -11.163  16.529  1.00  0.00    -0.295 OA
BRANCH   6   8
ATOM      8  C   UNL     1      10.042  -9.671  18.272  1.00  0.00     0.039 C 
ATOM      9  C   UNL     1      11.064  -9.392  19.080  1.00  0.00     0.012 C 
ENDBRANCH   6   8
ENDBRANCH   5   6
ENDBRANCH   1   5
TORSDOF 5
ENDMDL
MODEL 3
REMARK VINA RESULT:    -3.991      1.304      2.045
REMARK INTER + INTRA:          -5.390
REMARK INTER:                  -4.974
REMARK INTRA:                  -0.416
REMARK UNBOUND:                -0.233
REMARK SMILES C=CC(=O)CCCCC
REMARK SMILES IDX 6 1 7 2 8 3 9 4 5 5 3 6 4 7 2 8 1 9
REMARK H PARENT
REMARK Flexibility Score: inf
ROOT
ATOM      1  C   UNL     1      11.501 -12.770  16.384  1.00  0.00     0.008 C 
ENDROOT
BRANCH   1   2
ATOM      2  C   UNL     1      11.599 -11.874  17.629  1.00  0.00     0.000 C 
BRANCH   2   3
ATOM      3  C   UNL     1      10.239 -11.661  18.311  1.00  0.00    -0.003 C 
ATOM      4  C   UNL     1       9.808 -10.195  18.326  1.00  0.00     0.004 C 
ENDBRANCH   2   3
ENDBRANCH   1   2
BRANCH   1   5
ATOM      5  C   UNL     1      10.055 -13.214  16.142  1.00  0.00     0.080 C 
BRANCH   5   6
ATOM      6  C   UNL     1       9.982 -14.702  15.967  1.00  0.00     0.155 C 
ATOM      7  O   UNL     1      10.433 -15.223  14.910  1.00  0.00    -0.295 OA
BRANCH   6   8
ATOM      8  C   UNL     1       9.346 -15.538  17.003  1.00  0.00     0.039 C 
ATOM      9  C   UNL     1       9.373 -15.218  18.296  1.00  0.00     0.012 C 
ENDBRANCH   6   8
ENDBRANCH   5   6
ENDBRANCH   1   5
TORSDOF 5
ENDMDL
MODEL 4
REMARK VINA RESULT:    -3.945      1.527      2.753
REMARK INTER + INTRA:          -5.331
REMARK INTER:                  -5.111
REMARK INTRA:                  -0.220
REMARK UNBOUND:                -0.233
REMARK SMILES C=CC(=O)CCCCC
REMARK SMILES IDX 6 1 7 2 8 3 9 4 5 5 3 6 4 7 2 8 1 9
REMARK H PARENT
REMARK Flexibility Score: inf
ROOT
ATOM      1  C   UNL     1       9.754 -14.444  18.034  1.00  0.00     0.008 C 
ENDROOT
BRANCH   1   2
ATOM      2  C   UNL     1      10.365 -13.142  17.495  1.00  0.00     0.000 C 
BRANCH   2   3
ATOM      3  C   UNL     1      10.429 -12.035  18.559  1.00  0.00    -0.003 C 
ATOM      4  C   UNL     1       9.601 -10.806  18.188  1.00  0.00     0.004 C 
ENDBRANCH   2   3
ENDBRANCH   1   2
BRANCH   1   5
ATOM      5  C   UNL     1       9.384 -15.391  16.889  1.00  0.00     0.080 C 
BRANCH   5   6
ATOM      6  C   UNL     1      10.619 -15.877  16.188  1.00  0.00     0.155 C 
ATOM      7  O   UNL     1      10.771 -15.629  14.960  1.00  0.00    -0.295 OA
BRANCH   6   8
ATOM      8  C   UNL     1      11.619 -16.678  16.921  1.00  0.00     0.039 C 
ATOM      9  C   UNL     1      12.370 -17.603  16.327  1.00  0.00     0.012 C 
ENDBRANCH   6   8
ENDBRANCH   5   6
ENDBRANCH   1   5
TORSDOF 5
ENDMDL
MODEL 5
REMARK VINA RESULT:    -3.901      1.166      4.833
REMARK INTER + INTRA:          -5.274
REMARK INTER:                  -5.088
REMARK INTRA:                  -0.185
REMARK UNBOUND:                -0.233
REMARK SMILES C=CC(=O)CCCCC
REMARK SMILES IDX 6 1 7 2 8 3 9 4 5 5 3 6 4 7 2 8 1 9
REMARK H PARENT
REMARK Flexibility Score: inf
ROOT
ATOM      1  C   UNL     1       9.749 -14.341  18.142  1.00  0.00     0.008 C 
ENDROOT
BRANCH   1   2
ATOM      2  C   UNL     1       9.728 -15.546  17.189  1.00  0.00     0.000 C 
BRANCH   2   3
ATOM      3  C   UNL     1      11.032 -16.357  17.235  1.00  0.00    -0.003 C 
ATOM      4  C   UNL     1      11.649 -16.565  15.853  1.00  0.00     0.004 C 
ENDBRANCH   2   3
ENDBRANCH   1   2
BRANCH   1   5
ATOM      5  C   UNL     1      10.737 -13.277  17.657  1.00  0.00     0.080 C 
BRANCH   5   6
ATOM      6  C   UNL     1      10.026 -11.986  17.376  1.00  0.00     0.155 C 
ATOM      7  O   UNL     1       9.692 -11.710  16.191  1.00  0.00    -0.295 OA
BRANCH   6   8
ATOM      8  C   UNL     1       9.765 -11.031  18.471  1.00  0.00     0.039 C 
ATOM      9  C   UNL     1      10.322  -9.822  18.514  1.00  0.00     0.012 C 
ENDBRANCH   6   8
ENDBRANCH   5   6
ENDBRANCH   1   5
TORSDOF 5
ENDMDL
MODEL 6
REMARK VINA RESULT:    -3.788      1.783      4.499
REMARK INTER + INTRA:          -5.128
REMARK INTER:                  -4.731
REMARK INTRA:                  -0.396
REMARK UNBOUND:                -0.233
REMARK SMILES C=CC(=O)CCCCC
REMARK SMILES IDX 6 1 7 2 8 3 9 4 5 5 3 6 4 7 2 8 1 9
REMARK H PARENT
REMARK Flexibility Score: inf
ROOT
ATOM      1  C   UNL     1      10.223 -13.541  16.067  1.00  0.00     0.008 C 
ENDROOT
BRANCH   1   2
ATOM      2  C   UNL     1      10.298 -15.067  15.905  1.00  0.00     0.000 C 
BRANCH   2   3
ATOM      3  C   UNL     1      10.382 -15.799  17.253  1.00  0.00    -0.003 C 
ATOM      4  C   UNL     1       9.333 -15.318  18.255  1.00  0.00     0.004 C 
ENDBRANCH   2   3
ENDBRANCH   1   2
BRANCH   1   5
ATOM      5  C   UNL     1      11.610 -12.950  16.336  1.00  0.00     0.080 C 
BRANCH   5   6
ATOM      6  C   UNL     1      11.563 -12.001  17.498  1.00  0.00     0.155 C 
ATOM      7  O   UNL     1      12.590 -11.328  17.788  1.00  0.00    -0.295 OA
BRANCH   6   8
ATOM      8  C   UNL     1      10.339 -11.895  18.316  1.00  0.00     0.039 C 
ATOM      9  C   UNL     1       9.655 -10.758  18.437  1.00  0.00     0.012 C 
ENDBRANCH   6   8
ENDBRANCH   5   6
ENDBRANCH   1   5
TORSDOF 5
ENDMDL
MODEL 7
REMARK VINA RESULT:    -3.706      2.095      3.159
REMARK INTER + INTRA:          -5.022
REMARK INTER:                  -4.756
REMARK INTRA:                  -0.266
REMARK UNBOUND:                -0.233
REMARK SMILES C=CC(=O)CCCCC
REMARK SMILES IDX 6 1 7 2 8 3 9 4 5 5 3 6 4 7 2 8 1 9
REMARK H PARENT
REMARK Flexibility Score: inf
ROOT
ATOM      1  C   UNL     1       9.761 -14.541  18.054  1.00  0.00     0.008 C 
ENDROOT
BRANCH   1   2
ATOM      2  C   UNL     1      10.464 -13.256  17.591  1.00  0.00     0.000 C 
BRANCH   2   3
ATOM      3  C   UNL     1      10.328 -12.110  18.606  1.00  0.00    -0.003 C 
ATOM      4  C   UNL     1       9.647 -10.875  18.018  1.00  0.00     0.004 C 
ENDBRANCH   2   3
ENDBRANCH   1   2
BRANCH   1   5
ATOM      5  C   UNL     1       9.633 -15.541  16.901  1.00  0.00     0.080 C 
BRANCH   5   6
ATOM      6  C   UNL     1      10.984 -16.055  16.497  1.00  0.00     0.155 C 
ATOM      7  O   UNL     1      11.680 -16.689  17.336  1.00  0.00    -0.295 OA
BRANCH   6   8
ATOM      8  C   UNL     1      11.506 -15.777  15.144  1.00  0.00     0.039 C 
ATOM      9  C   UNL     1      10.718 -15.402  14.137  1.00  0.00     0.012 C 
ENDBRANCH   6   8
ENDBRANCH   5   6
ENDBRANCH   1   5
TORSDOF 5
ENDMDL
MODEL 8
REMARK VINA RESULT:    -3.703     16.464     18.399
REMARK INTER + INTRA:          -5.018
REMARK INTER:                  -4.459
REMARK INTRA:                  -0.559
REMARK UNBOUND:                -0.233
REMARK SMILES C=CC(=O)CCCCC
REMARK SMILES IDX 6 1 7 2 8 3 9 4 5 5 3 6 4 7 2 8 1 9
REMARK H PARENT
REMARK Flexibility Score: inf
ROOT
ATOM      1  C   UNL     1      -0.261 -27.465  13.925  1.00  0.00     0.008 C 
ENDROOT
BRANCH   1   2
ATOM      2  C   UNL     1      -1.596 -28.001  13.386  1.00  0.00     0.000 C 
BRANCH   2   3
ATOM      3  C   UNL     1      -2.810 -27.291  14.004  1.00  0.00    -0.003 C 
ATOM      4  C   UNL     1      -3.360 -26.176  13.115  1.00  0.00     0.004 C 
ENDBRANCH   2   3
ENDBRANCH   1   2
BRANCH   1   5
ATOM      5  C   UNL     1       0.277 -26.342  13.034  1.00  0.00     0.080 C 
BRANCH   5   6
ATOM      6  C   UNL     1       0.559 -25.112  13.846  1.00  0.00     0.155 C 
ATOM      7  O   UNL     1       1.490 -24.337  13.493  1.00  0.00    -0.295 OA
BRANCH   6   8
ATOM      8  C   UNL     1      -0.217 -24.843  15.072  1.00  0.00     0.039 C 
ATOM      9  C   UNL     1      -1.152 -23.896  15.133  1.00  0.00     0.012 C 
ENDBRANCH   6   8
ENDBRANCH   5   6
ENDBRANCH   1   5
TORSDOF 5
ENDMDL
MODEL 9
REMARK VINA RESULT:    -3.680     16.965     18.575
REMARK INTER + INTRA:          -4.988
REMARK INTER:                  -4.429
REMARK INTRA:                  -0.560
REMARK UNBOUND:                -0.233
REMARK SMILES C=CC(=O)CCCCC
REMARK SMILES IDX 6 1 7 2 8 3 9 4 5 5 3 6 4 7 2 8 1 9
REMARK H PARENT
REMARK Flexibility Score: inf
ROOT
ATOM      1  C   UNL     1       0.354 -26.162  12.907  1.00  0.00     0.008 C 
ENDROOT
BRANCH   1   2
ATOM      2  C   UNL     1       0.753 -24.974  13.797  1.00  0.00     0.000 C 
BRANCH   2   3
ATOM      3  C   UNL     1      -0.005 -24.957  15.133  1.00  0.00    -0.003 C 
ATOM      4  C   UNL     1      -1.120 -23.914  15.169  1.00  0.00     0.004 C 
ENDBRANCH   2   3
ENDBRANCH   1   2
BRANCH   1   5
ATOM      5  C   UNL     1      -0.172 -27.326  13.753  1.00  0.00     0.080 C 
BRANCH   5   6
ATOM      6  C   UNL     1      -1.524 -27.761  13.268  1.00  0.00     0.155 C 
ATOM      7  O   UNL     1      -1.606 -28.677  12.406  1.00  0.00    -0.295 OA
BRANCH   6   8
ATOM      8  C   UNL     1      -2.739 -27.086  13.766  1.00  0.00     0.039 C 
ATOM      9  C   UNL     1      -3.356 -26.126  13.078  1.00  0.00     0.012 C 
ENDBRANCH   6   8
ENDBRANCH   5   6
ENDBRANCH   1   5
TORSDOF 5
ENDMDL
