MODEL 1
REMARK VINA RESULT:    -6.319      0.000      0.000
REMARK INTER + INTRA:          -6.688
REMARK INTER:                  -6.688
REMARK INTRA:                   0.000
REMARK UNBOUND:                 0.000
REMARK SMILES O=c1ccc2cc(O)c(O)cc2o1
REMARK SMILES IDX 4 1 3 2 2 3 1 4 13 5 12 6 11 7 9 8 7 9 6 10 5 11 8 12 10 14
REMARK H PARENT 8 13 10 15
REMARK Flexibility Score: inf
ROOT
ATOM      1  C   UNL     1       0.106  -1.718  24.805  1.00  0.00     0.019 A 
ATOM      2  C   UNL     1      -1.203  -2.125  24.553  1.00  0.00     0.094 A 
ATOM      3  C   UNL     1      -2.054  -1.270  23.843  1.00  0.00     0.336 A 
ATOM      4  O   UNL     1      -3.240  -1.619  23.605  1.00  0.00    -0.246 OA
ATOM      5  O   UNL     1      -1.617  -0.089  23.416  1.00  0.00    -0.423 OA
ATOM      6  C   UNL     1      -0.376   0.339  23.635  1.00  0.00     0.142 A 
ATOM      7  C   UNL     1       0.027   1.591  23.162  1.00  0.00     0.098 A 
ATOM      8  C   UNL     1       1.335   2.045  23.390  1.00  0.00     0.161 A 
ATOM      9  C   UNL     1       2.245   1.239  24.097  1.00  0.00     0.158 A 
ATOM     10  C   UNL     1       1.844  -0.016  24.573  1.00  0.00     0.062 A 
ATOM     11  C   UNL     1       0.538  -0.470  24.345  1.00  0.00     0.022 A 
ENDROOT
BRANCH   9  12
ATOM     12  O   UNL     1       3.550   1.667  24.338  1.00  0.00    -0.504 OA
ATOM     13  H   UNL     1       4.280   1.029  24.630  1.00  0.00     0.293 HD
ENDBRANCH   9  12
BRANCH   8  14
ATOM     14  O   UNL     1       1.732   3.295  22.917  1.00  0.00    -0.504 OA
ATOM     15  H   UNL     1       1.971   3.443  21.943  1.00  0.00     0.293 HD
ENDBRANCH   8  14
TORSDOF 2
ENDMDL
MODEL 2
REMARK VINA RESULT:    -5.271     10.223     10.911
REMARK INTER + INTRA:          -5.580
REMARK INTER:                  -5.580
REMARK INTRA:                   0.000
REMARK UNBOUND:                 0.000
REMARK SMILES O=c1ccc2cc(O)c(O)cc2o1
REMARK SMILES IDX 4 1 3 2 2 3 1 4 13 5 12 6 11 7 9 8 7 9 6 10 5 11 8 12 10 14
REMARK H PARENT 8 13 10 15
REMARK Flexibility Score: inf
ROOT
ATOM      1  C   UNL     1      -3.320   1.592  14.558  1.00  0.00     0.019 A 
ATOM      2  C   UNL     1      -2.083   1.792  13.946  1.00  0.00     0.094 A 
ATOM      3  C   UNL     1      -1.539   3.081  13.922  1.00  0.00     0.336 A 
ATOM      4  O   UNL     1      -0.423   3.282  13.374  1.00  0.00    -0.246 OA
ATOM      5  O   UNL     1      -2.194   4.098  14.474  1.00  0.00    -0.423 OA
ATOM      6  C   UNL     1      -3.376   3.951  15.068  1.00  0.00     0.142 A 
ATOM      7  C   UNL     1      -4.018   5.058  15.632  1.00  0.00     0.098 A 
ATOM      8  C   UNL     1      -5.265   4.908  16.260  1.00  0.00     0.161 A 
ATOM      9  C   UNL     1      -5.871   3.640  16.322  1.00  0.00     0.158 A 
ATOM     10  C   UNL     1      -5.231   2.531  15.757  1.00  0.00     0.062 A 
ATOM     11  C   UNL     1      -3.986   2.680  15.131  1.00  0.00     0.022 A 
ENDROOT
BRANCH   9  12
ATOM     12  O   UNL     1      -7.109   3.464  16.939  1.00  0.00    -0.504 OA
ATOM     13  H   UNL     1      -7.194   3.267  17.928  1.00  0.00     0.293 HD
ENDBRANCH   9  12
BRANCH   8  14
ATOM     14  O   UNL     1      -5.901   6.014  16.820  1.00  0.00    -0.504 OA
ATOM     15  H   UNL     1      -6.895   6.174  16.696  1.00  0.00     0.293 HD
ENDBRANCH   8  14
TORSDOF 2
ENDMDL
MODEL 3
REMARK VINA RESULT:    -5.172     12.948     14.377
REMARK INTER + INTRA:          -5.474
REMARK INTER:                  -5.474
REMARK INTRA:                   0.000
REMARK UNBOUND:                 0.000
REMARK SMILES O=c1ccc2cc(O)c(O)cc2o1
REMARK SMILES IDX 4 1 3 2 2 3 1 4 13 5 12 6 11 7 9 8 7 9 6 10 5 11 8 12 10 14
REMARK H PARENT 8 13 10 15
REMARK Flexibility Score: inf
ROOT
ATOM      1  C   UNL     1     -11.043   4.294  20.934  1.00  0.00     0.019 A 
ATOM      2  C   UNL     1     -11.734   5.032  21.894  1.00  0.00     0.094 A 
ATOM      3  C   UNL     1     -12.896   5.715  21.516  1.00  0.00     0.336 A 
ATOM      4  O   UNL     1     -13.535   6.387  22.368  1.00  0.00    -0.246 OA
ATOM      5  O   UNL     1     -13.331   5.659  20.261  1.00  0.00    -0.423 OA
ATOM      6  C   UNL     1     -12.702   4.967  19.314  1.00  0.00     0.142 A 
ATOM      7  C   UNL     1     -13.207   4.945  18.010  1.00  0.00     0.098 A 
ATOM      8  C   UNL     1     -12.547   4.217  17.009  1.00  0.00     0.161 A 
ATOM      9  C   UNL     1     -11.373   3.506  17.317  1.00  0.00     0.158 A 
ATOM     10  C   UNL     1     -10.864   3.526  18.621  1.00  0.00     0.062 A 
ATOM     11  C   UNL     1     -11.524   4.253  19.621  1.00  0.00     0.022 A 
ENDROOT
BRANCH   9  12
ATOM     12  O   UNL     1     -10.697   2.774  16.340  1.00  0.00    -0.504 OA
ATOM     13  H   UNL     1     -10.541   3.137  15.408  1.00  0.00     0.293 HD
ENDBRANCH   9  12
BRANCH   8  14
ATOM     14  O   UNL     1     -13.053   4.198  15.710  1.00  0.00    -0.504 OA
ATOM     15  H   UNL     1     -13.942   4.628  15.481  1.00  0.00     0.293 HD
ENDBRANCH   8  14
TORSDOF 2
ENDMDL
MODEL 4
REMARK VINA RESULT:    -5.126     16.170     16.695
REMARK INTER + INTRA:          -5.426
REMARK INTER:                  -5.426
REMARK INTRA:                   0.000
REMARK UNBOUND:                 0.000
REMARK SMILES O=c1ccc2cc(O)c(O)cc2o1
REMARK SMILES IDX 4 1 3 2 2 3 1 4 13 5 12 6 11 7 9 8 7 9 6 10 5 11 8 12 10 14
REMARK H PARENT 8 13 10 15
REMARK Flexibility Score: inf
ROOT
ATOM      1  C   UNL     1      -3.459   5.306   9.275  1.00  0.00     0.019 A 
ATOM      2  C   UNL     1      -3.251   6.619   9.695  1.00  0.00     0.094 A 
ATOM      3  C   UNL     1      -1.993   7.201   9.502  1.00  0.00     0.336 A 
ATOM      4  O   UNL     1      -1.785   8.386   9.875  1.00  0.00    -0.246 OA
ATOM      5  O   UNL     1      -1.013   6.510   8.927  1.00  0.00    -0.423 OA
ATOM      6  C   UNL     1      -1.169   5.255   8.511  1.00  0.00     0.142 A 
ATOM      7  C   UNL     1      -0.102   4.579   7.912  1.00  0.00     0.098 A 
ATOM      8  C   UNL     1      -0.262   3.256   7.472  1.00  0.00     0.161 A 
ATOM      9  C   UNL     1      -1.500   2.608   7.633  1.00  0.00     0.158 A 
ATOM     10  C   UNL     1      -2.570   3.282   8.233  1.00  0.00     0.062 A 
ATOM     11  C   UNL     1      -2.411   4.604   8.672  1.00  0.00     0.022 A 
ENDROOT
BRANCH   9  12
ATOM     12  O   UNL     1      -1.685   1.293   7.204  1.00  0.00    -0.504 OA
ATOM     13  H   UNL     1      -1.655   1.037   6.225  1.00  0.00     0.293 HD
ENDBRANCH   9  12
BRANCH   8  14
ATOM     14  O   UNL     1       0.804   2.585   6.875  1.00  0.00    -0.504 OA
ATOM     15  H   UNL     1       1.216   2.908   6.007  1.00  0.00     0.293 HD
ENDBRANCH   8  14
TORSDOF 2
ENDMDL
MODEL 5
REMARK VINA RESULT:    -5.054     13.047     14.671
REMARK INTER + INTRA:          -5.350
REMARK INTER:                  -5.350
REMARK INTRA:                   0.000
REMARK UNBOUND:                 0.000
REMARK SMILES O=c1ccc2cc(O)c(O)cc2o1
REMARK SMILES IDX 4 1 3 2 2 3 1 4 13 5 12 6 11 7 9 8 7 9 6 10 5 11 8 12 10 14
REMARK H PARENT 8 13 10 15
REMARK Flexibility Score: inf
ROOT
ATOM      1  C   UNL     1      -2.536   6.082  12.994  1.00  0.00     0.019 A 
ATOM      2  C   UNL     1      -2.567   6.418  14.347  1.00  0.00     0.094 A 
ATOM      3  C   UNL     1      -2.336   7.746  14.721  1.00  0.00     0.336 A 
ATOM      4  O   UNL     1      -2.360   8.069  15.938  1.00  0.00    -0.246 OA
ATOM      5  O   UNL     1      -2.090   8.672  13.799  1.00  0.00    -0.423 OA
ATOM      6  C   UNL     1      -2.051   8.395  12.498  1.00  0.00     0.142 A 
ATOM      7  C   UNL     1      -1.787   9.410  11.574  1.00  0.00     0.098 A 
ATOM      8  C   UNL     1      -1.745   9.123  10.201  1.00  0.00     0.161 A 
ATOM      9  C   UNL     1      -1.968   7.809   9.752  1.00  0.00     0.158 A 
ATOM     10  C   UNL     1      -2.232   6.790  10.675  1.00  0.00     0.062 A 
ATOM     11  C   UNL     1      -2.274   7.077  12.046  1.00  0.00     0.022 A 
ENDROOT
BRANCH   9  12
ATOM     12  O   UNL     1      -1.932   7.497   8.393  1.00  0.00    -0.504 OA
ATOM     13  H   UNL     1      -1.080   7.202   7.932  1.00  0.00     0.293 HD
ENDBRANCH   9  12
BRANCH   8  14
ATOM     14  O   UNL     1      -1.481  10.139   9.283  1.00  0.00    -0.504 OA
ATOM     15  H   UNL     1      -0.834  10.005   8.514  1.00  0.00     0.293 HD
ENDBRANCH   8  14
TORSDOF 2
ENDMDL
MODEL 6
REMARK VINA RESULT:    -4.956     10.196     10.546
REMARK INTER + INTRA:          -5.246
REMARK INTER:                  -5.246
REMARK INTRA:                   0.000
REMARK UNBOUND:                 0.000
REMARK SMILES O=c1ccc2cc(O)c(O)cc2o1
REMARK SMILES IDX 4 1 3 2 2 3 1 4 13 5 12 6 11 7 9 8 7 9 6 10 5 11 8 12 10 14
REMARK H PARENT 8 13 10 15
REMARK Flexibility Score: inf
ROOT
ATOM      1  C   UNL     1      -5.409   2.734  16.215  1.00  0.00     0.019 A 
ATOM      2  C   UNL     1      -5.852   3.989  16.632  1.00  0.00     0.094 A 
ATOM      3  C   UNL     1      -5.109   5.122  16.279  1.00  0.00     0.336 A 
ATOM      4  O   UNL     1      -5.493   6.264  16.646  1.00  0.00    -0.246 OA
ATOM      5  O   UNL     1      -3.998   5.000  15.559  1.00  0.00    -0.423 OA
ATOM      6  C   UNL     1      -3.540   3.823  15.141  1.00  0.00     0.142 A 
ATOM      7  C   UNL     1      -2.365   3.756  14.386  1.00  0.00     0.098 A 
ATOM      8  C   UNL     1      -1.878   2.517  13.943  1.00  0.00     0.161 A 
ATOM      9  C   UNL     1      -2.574   1.336  14.259  1.00  0.00     0.158 A 
ATOM     10  C   UNL     1      -3.750   1.399  15.016  1.00  0.00     0.062 A 
ATOM     11  C   UNL     1      -4.237   2.637  15.458  1.00  0.00     0.022 A 
ENDROOT
BRANCH   9  12
ATOM     12  O   UNL     1      -2.111   0.092  13.832  1.00  0.00    -0.504 OA
ATOM     13  H   UNL     1      -1.822  -0.075  12.877  1.00  0.00     0.293 HD
ENDBRANCH   9  12
BRANCH   8  14
ATOM     14  O   UNL     1      -0.707   2.456  13.191  1.00  0.00    -0.504 OA
ATOM     15  H   UNL     1      -0.641   1.885  12.355  1.00  0.00     0.293 HD
ENDBRANCH   8  14
TORSDOF 2
ENDMDL
MODEL 7
REMARK VINA RESULT:    -4.950     10.371     11.276
REMARK INTER + INTRA:          -5.240
REMARK INTER:                  -5.240
REMARK INTRA:                   0.000
REMARK UNBOUND:                 0.000
REMARK SMILES O=c1ccc2cc(O)c(O)cc2o1
REMARK SMILES IDX 4 1 3 2 2 3 1 4 13 5 12 6 11 7 9 8 7 9 6 10 5 11 8 12 10 14
REMARK H PARENT 8 13 10 15
REMARK Flexibility Score: inf
ROOT
ATOM      1  C   UNL     1      -1.130   5.050  14.384  1.00  0.00     0.019 A 
ATOM      2  C   UNL     1      -1.106   6.373  14.823  1.00  0.00     0.094 A 
ATOM      3  C   UNL     1      -2.218   6.883  15.502  1.00  0.00     0.336 A 
ATOM      4  O   UNL     1      -2.216   8.076  15.906  1.00  0.00    -0.246 OA
ATOM      5  O   UNL     1      -3.281   6.115  15.724  1.00  0.00    -0.423 OA
ATOM      6  C   UNL     1      -3.346   4.847  15.323  1.00  0.00     0.142 A 
ATOM      7  C   UNL     1      -4.490   4.088  15.585  1.00  0.00     0.098 A 
ATOM      8  C   UNL     1      -4.563   2.751  15.164  1.00  0.00     0.161 A 
ATOM      9  C   UNL     1      -3.481   2.172  14.476  1.00  0.00     0.158 A 
ATOM     10  C   UNL     1      -2.334   2.931  14.211  1.00  0.00     0.062 A 
ATOM     11  C   UNL     1      -2.261   4.266  14.632  1.00  0.00     0.022 A 
ENDROOT
BRANCH   9  12
ATOM     12  O   UNL     1      -3.528   0.846  14.047  1.00  0.00    -0.504 OA
ATOM     13  H   UNL     1      -3.229   0.570  13.120  1.00  0.00     0.293 HD
ENDBRANCH   9  12
BRANCH   8  14
ATOM     14  O   UNL     1      -5.705   1.998  15.427  1.00  0.00    -0.504 OA
ATOM     15  H   UNL     1      -5.736   1.000  15.252  1.00  0.00     0.293 HD
ENDBRANCH   8  14
TORSDOF 2
ENDMDL
MODEL 8
REMARK VINA RESULT:    -4.788     10.404     11.560
REMARK INTER + INTRA:          -5.068
REMARK INTER:                  -5.068
REMARK INTRA:                   0.000
REMARK UNBOUND:                 0.000
REMARK SMILES O=c1ccc2cc(O)c(O)cc2o1
REMARK SMILES IDX 4 1 3 2 2 3 1 4 13 5 12 6 11 7 9 8 7 9 6 10 5 11 8 12 10 14
REMARK H PARENT 8 13 10 15
REMARK Flexibility Score: inf
ROOT
ATOM      1  C   UNL     1      -3.117   6.303  15.507  1.00  0.00     0.019 A 
ATOM      2  C   UNL     1      -1.976   6.993  15.102  1.00  0.00     0.094 A 
ATOM      3  C   UNL     1      -0.999   6.315  14.364  1.00  0.00     0.336 A 
ATOM      4  O   UNL     1       0.039   6.922  13.990  1.00  0.00    -0.246 OA
ATOM      5  O   UNL     1      -1.160   5.032  14.055  1.00  0.00    -0.423 OA
ATOM      6  C   UNL     1      -2.233   4.335  14.421  1.00  0.00     0.142 A 
ATOM      7  C   UNL     1      -2.348   2.988  14.067  1.00  0.00     0.098 A 
ATOM      8  C   UNL     1      -3.478   2.250  14.451  1.00  0.00     0.161 A 
ATOM      9  C   UNL     1      -4.500   2.867  15.194  1.00  0.00     0.158 A 
ATOM     10  C   UNL     1      -4.388   4.216  15.551  1.00  0.00     0.062 A 
ATOM     11  C   UNL     1      -3.259   4.954  15.168  1.00  0.00     0.022 A 
ENDROOT
BRANCH   9  12
ATOM     12  O   UNL     1      -5.633   2.156  15.588  1.00  0.00    -0.504 OA
ATOM     13  H   UNL     1      -5.628   1.148  15.689  1.00  0.00     0.293 HD
ENDBRANCH   9  12
BRANCH   8  14
ATOM     14  O   UNL     1      -3.587   0.906  14.096  1.00  0.00    -0.504 OA
ATOM     15  H   UNL     1      -4.192   0.604  13.340  1.00  0.00     0.293 HD
ENDBRANCH   8  14
TORSDOF 2
ENDMDL
MODEL 9
REMARK VINA RESULT:    -4.784     12.925     14.442
REMARK INTER + INTRA:          -5.064
REMARK INTER:                  -5.064
REMARK INTRA:                   0.000
REMARK UNBOUND:                 0.000
REMARK SMILES O=c1ccc2cc(O)c(O)cc2o1
REMARK SMILES IDX 4 1 3 2 2 3 1 4 13 5 12 6 11 7 9 8 7 9 6 10 5 11 8 12 10 14
REMARK H PARENT 8 13 10 15
REMARK Flexibility Score: inf
ROOT
ATOM      1  C   UNL     1      -2.070   8.370  13.973  1.00  0.00     0.019 A 
ATOM      2  C   UNL     1      -2.442   7.327  14.820  1.00  0.00     0.094 A 
ATOM      3  C   UNL     1      -2.769   6.086  14.263  1.00  0.00     0.336 A 
ATOM      4  O   UNL     1      -3.107   5.131  15.011  1.00  0.00    -0.246 OA
ATOM      5  O   UNL     1      -2.724   5.906  12.946  1.00  0.00    -0.423 OA
ATOM      6  C   UNL     1      -2.374   6.874  12.102  1.00  0.00     0.142 A 
ATOM      7  C   UNL     1      -2.346   6.627  10.726  1.00  0.00     0.098 A 
ATOM      8  C   UNL     1      -1.977   7.645   9.833  1.00  0.00     0.161 A 
ATOM      9  C   UNL     1      -1.635   8.918  10.322  1.00  0.00     0.158 A 
ATOM     10  C   UNL     1      -1.664   9.169  11.700  1.00  0.00     0.062 A 
ATOM     11  C   UNL     1      -2.032   8.153  12.592  1.00  0.00     0.022 A 
ENDROOT
BRANCH   9  12
ATOM     12  O   UNL     1      -1.266   9.947   9.456  1.00  0.00    -0.504 OA
ATOM     13  H   UNL     1      -1.076   9.782   8.476  1.00  0.00     0.293 HD
ENDBRANCH   9  12
BRANCH   8  14
ATOM     14  O   UNL     1      -1.951   7.394   8.462  1.00  0.00    -0.504 OA
ATOM     15  H   UNL     1      -1.305   6.726   8.057  1.00  0.00     0.293 HD
ENDBRANCH   8  14
TORSDOF 2
ENDMDL
