MODEL 1
REMARK VINA RESULT:    -3.347      0.000      0.000
REMARK INTER + INTRA:          -4.063
REMARK INTER:                  -3.934
REMARK INTRA:                  -0.129
REMARK UNBOUND:                -0.129
REMARK SMILES CCCCC(=O)[O-]
REMARK SMILES IDX 4 1 5 2 6 3 7 4 3 5 2 6 1 7
REMARK H PARENT
REMARK Flexibility Score: inf
ROOT
ATOM      1  C   UNL     1      26.852  35.409  33.236  1.00  0.00     0.053 C 
ENDROOT
BRANCH   1   2
ATOM      2  C   UNL     1      26.896  34.195  34.114  1.00  0.00     0.041 C 
ATOM      3  O   UNL     1      27.955  33.891  34.723  1.00  0.00    -0.550 OA
ATOM      4  O   UNL     1      25.776  33.384  34.235  1.00  0.00    -0.550 OA
ENDBRANCH   1   2
BRANCH   1   5
ATOM      5  C   UNL     1      27.693  35.228  31.964  1.00  0.00     0.006 C 
BRANCH   5   6
ATOM      6  C   UNL     1      27.214  34.085  31.049  1.00  0.00    -0.003 C 
ATOM      7  C   UNL     1      25.851  34.363  30.417  1.00  0.00     0.004 C 
ENDBRANCH   5   6
ENDBRANCH   1   5
TORSDOF 3
ENDMDL
MODEL 2
REMARK VINA RESULT:    -3.340      2.342      3.395
REMARK INTER + INTRA:          -4.055
REMARK INTER:                  -3.982
REMARK INTRA:                  -0.073
REMARK UNBOUND:                -0.129
REMARK SMILES CCCCC(=O)[O-]
REMARK SMILES IDX 4 1 5 2 6 3 7 4 3 5 2 6 1 7
REMARK H PARENT
REMARK Flexibility Score: inf
ROOT
ATOM      1  C   UNL     1      26.712  35.529  32.189  1.00  0.00     0.053 C 
ENDROOT
BRANCH   1   2
ATOM      2  C   UNL     1      26.708  34.566  31.041  1.00  0.00     0.041 C 
ATOM      3  O   UNL     1      27.762  33.954  30.724  1.00  0.00    -0.550 OA
ATOM      4  O   UNL     1      25.549  34.370  30.303  1.00  0.00    -0.550 OA
ENDBRANCH   1   2
BRANCH   1   5
ATOM      5  C   UNL     1      27.242  34.883  33.478  1.00  0.00     0.006 C 
BRANCH   5   6
ATOM      6  C   UNL     1      26.282  33.861  34.113  1.00  0.00    -0.003 C 
ATOM      7  C   UNL     1      25.581  34.400  35.360  1.00  0.00     0.004 C 
ENDBRANCH   5   6
ENDBRANCH   1   5
TORSDOF 3
ENDMDL
MODEL 3
REMARK VINA RESULT:    -3.339      0.075      1.224
REMARK INTER + INTRA:          -4.054
REMARK INTER:                  -3.931
REMARK INTRA:                  -0.123
REMARK UNBOUND:                -0.129
REMARK SMILES CCCCC(=O)[O-]
REMARK SMILES IDX 4 1 5 2 6 3 7 4 3 5 2 6 1 7
REMARK H PARENT
REMARK Flexibility Score: inf
ROOT
ATOM      1  C   UNL     1      26.838  35.416  33.228  1.00  0.00     0.053 C 
ENDROOT
BRANCH   1   2
ATOM      2  C   UNL     1      26.838  34.203  34.108  1.00  0.00     0.041 C 
ATOM      3  O   UNL     1      25.783  33.534  34.266  1.00  0.00    -0.550 OA
ATOM      4  O   UNL     1      27.996  33.830  34.777  1.00  0.00    -0.550 OA
ENDBRANCH   1   2
BRANCH   1   5
ATOM      5  C   UNL     1      27.689  35.210  31.966  1.00  0.00     0.006 C 
BRANCH   5   6
ATOM      6  C   UNL     1      27.189  34.082  31.045  1.00  0.00    -0.003 C 
ATOM      7  C   UNL     1      25.849  34.406  30.385  1.00  0.00     0.004 C 
ENDBRANCH   5   6
ENDBRANCH   1   5
TORSDOF 3
ENDMDL
MODEL 4
REMARK VINA RESULT:    -3.239      1.179      1.252
REMARK INTER + INTRA:          -3.937
REMARK INTER:                  -3.848
REMARK INTRA:                  -0.089
REMARK UNBOUND:                -0.129
REMARK SMILES CCCCC(=O)[O-]
REMARK SMILES IDX 4 1 5 2 6 3 7 4 3 5 2 6 1 7
REMARK H PARENT
REMARK Flexibility Score: inf
ROOT
ATOM      1  C   UNL     1      27.208  34.567  33.788  1.00  0.00     0.053 C 
ENDROOT
BRANCH   1   2
ATOM      2  C   UNL     1      25.989  34.039  34.482  1.00  0.00     0.041 C 
ATOM      3  O   UNL     1      25.512  34.647  35.476  1.00  0.00    -0.550 OA
ATOM      4  O   UNL     1      25.399  32.860  34.048  1.00  0.00    -0.550 OA
ENDBRANCH   1   2
BRANCH   1   5
ATOM      5  C   UNL     1      26.851  35.345  32.512  1.00  0.00     0.006 C 
BRANCH   5   6
ATOM      6  C   UNL     1      27.093  34.563  31.209  1.00  0.00    -0.003 C 
ATOM      7  C   UNL     1      25.812  34.331  30.409  1.00  0.00     0.004 C 
ENDBRANCH   5   6
ENDBRANCH   1   5
TORSDOF 3
ENDMDL
MODEL 5
REMARK VINA RESULT:    -3.218      1.198      1.556
REMARK INTER + INTRA:          -3.912
REMARK INTER:                  -3.808
REMARK INTRA:                  -0.103
REMARK UNBOUND:                -0.129
REMARK SMILES CCCCC(=O)[O-]
REMARK SMILES IDX 4 1 5 2 6 3 7 4 3 5 2 6 1 7
REMARK H PARENT
REMARK Flexibility Score: inf
ROOT
ATOM      1  C   UNL     1      27.223  34.439  34.061  1.00  0.00     0.053 C 
ENDROOT
BRANCH   1   2
ATOM      2  C   UNL     1      25.929  33.932  34.622  1.00  0.00     0.041 C 
ATOM      3  O   UNL     1      25.383  32.909  34.131  1.00  0.00    -0.550 OA
ATOM      4  O   UNL     1      25.312  34.607  35.666  1.00  0.00    -0.550 OA
ENDBRANCH   1   2
BRANCH   1   5
ATOM      5  C   UNL     1      27.000  35.398  32.882  1.00  0.00     0.006 C 
BRANCH   5   6
ATOM      6  C   UNL     1      27.340  34.795  31.506  1.00  0.00    -0.003 C 
ATOM      7  C   UNL     1      26.099  34.369  30.722  1.00  0.00     0.004 C 
ENDBRANCH   5   6
ENDBRANCH   1   5
TORSDOF 3
ENDMDL
MODEL 6
REMARK VINA RESULT:    -3.151      2.196      3.405
REMARK INTER + INTRA:          -3.833
REMARK INTER:                  -3.845
REMARK INTRA:                   0.012
REMARK UNBOUND:                -0.129
REMARK SMILES CCCCC(=O)[O-]
REMARK SMILES IDX 4 1 5 2 6 3 7 4 3 5 2 6 1 7
REMARK H PARENT
REMARK Flexibility Score: inf
ROOT
ATOM      1  C   UNL     1      27.336  34.156  30.684  1.00  0.00     0.053 C 
ENDROOT
BRANCH   1   2
ATOM      2  C   UNL     1      25.875  33.843  30.579  1.00  0.00     0.041 C 
ATOM      3  O   UNL     1      25.190  34.322  29.637  1.00  0.00    -0.550 OA
ATOM      4  O   UNL     1      25.264  33.048  31.539  1.00  0.00    -0.550 OA
ENDBRANCH   1   2
BRANCH   1   5
ATOM      5  C   UNL     1      27.877  33.906  32.099  1.00  0.00     0.006 C 
BRANCH   5   6
ATOM      6  C   UNL     1      28.123  35.187  32.916  1.00  0.00    -0.003 C 
ATOM      7  C   UNL     1      26.920  36.130  32.917  1.00  0.00     0.004 C 
ENDBRANCH   5   6
ENDBRANCH   1   5
TORSDOF 3
ENDMDL
MODEL 7
REMARK VINA RESULT:    -2.978      1.280      1.769
REMARK INTER + INTRA:          -3.630
REMARK INTER:                  -3.531
REMARK INTRA:                  -0.099
REMARK UNBOUND:                -0.129
REMARK SMILES CCCCC(=O)[O-]
REMARK SMILES IDX 4 1 5 2 6 3 7 4 3 5 2 6 1 7
REMARK H PARENT
REMARK Flexibility Score: inf
ROOT
ATOM      1  C   UNL     1      26.397  33.895  34.056  1.00  0.00     0.053 C 
ENDROOT
BRANCH   1   2
ATOM      2  C   UNL     1      27.431  33.215  34.900  1.00  0.00     0.041 C 
ATOM      3  O   UNL     1      28.606  33.665  34.950  1.00  0.00    -0.550 OA
ATOM      4  O   UNL     1      27.104  32.065  35.607  1.00  0.00    -0.550 OA
ENDBRANCH   1   2
BRANCH   1   5
ATOM      5  C   UNL     1      26.826  35.315  33.657  1.00  0.00     0.006 C 
BRANCH   5   6
ATOM      6  C   UNL     1      26.833  35.568  32.138  1.00  0.00    -0.003 C 
ATOM      7  C   UNL     1      27.552  34.469  31.357  1.00  0.00     0.004 C 
ENDBRANCH   5   6
ENDBRANCH   1   5
TORSDOF 3
ENDMDL
MODEL 8
REMARK VINA RESULT:    -2.953      2.242      3.472
REMARK INTER + INTRA:          -3.600
REMARK INTER:                  -3.517
REMARK INTRA:                  -0.083
REMARK UNBOUND:                -0.129
REMARK SMILES CCCCC(=O)[O-]
REMARK SMILES IDX 4 1 5 2 6 3 7 4 3 5 2 6 1 7
REMARK H PARENT
REMARK Flexibility Score: inf
ROOT
ATOM      1  C   UNL     1      27.694  34.105  32.881  1.00  0.00     0.053 C 
ENDROOT
BRANCH   1   2
ATOM      2  C   UNL     1      26.911  35.157  32.156  1.00  0.00     0.041 C 
ATOM      3  O   UNL     1      26.766  36.301  32.662  1.00  0.00    -0.550 OA
ATOM      4  O   UNL     1      26.316  34.863  30.936  1.00  0.00    -0.550 OA
ENDBRANCH   1   2
BRANCH   1   5
ATOM      5  C   UNL     1      27.336  34.049  34.374  1.00  0.00     0.006 C 
BRANCH   5   6
ATOM      6  C   UNL     1      25.884  33.626  34.659  1.00  0.00    -0.003 C 
ATOM      7  C   UNL     1      25.277  34.355  35.857  1.00  0.00     0.004 C 
ENDBRANCH   5   6
ENDBRANCH   1   5
TORSDOF 3
ENDMDL
MODEL 9
REMARK VINA RESULT:    -2.869      2.085      2.979
REMARK INTER + INTRA:          -3.501
REMARK INTER:                  -3.473
REMARK INTRA:                  -0.028
REMARK UNBOUND:                -0.129
REMARK SMILES CCCCC(=O)[O-]
REMARK SMILES IDX 4 1 5 2 6 3 7 4 3 5 2 6 1 7
REMARK H PARENT
REMARK Flexibility Score: inf
ROOT
ATOM      1  C   UNL     1      25.590  34.447  35.388  1.00  0.00     0.053 C 
ENDROOT
BRANCH   1   2
ATOM      2  C   UNL     1      25.306  33.337  36.353  1.00  0.00     0.041 C 
ATOM      3  O   UNL     1      24.314  33.405  37.125  1.00  0.00    -0.550 OA
ATOM      4  O   UNL     1      26.156  32.240  36.419  1.00  0.00    -0.550 OA
ENDBRANCH   1   2
BRANCH   1   5
ATOM      5  C   UNL     1      26.209  33.929  34.081  1.00  0.00     0.006 C 
BRANCH   5   6
ATOM      6  C   UNL     1      27.298  34.843  33.492  1.00  0.00    -0.003 C 
ATOM      7  C   UNL     1      26.795  35.688  32.322  1.00  0.00     0.004 C 
ENDBRANCH   5   6
ENDBRANCH   1   5
TORSDOF 3
ENDMDL
