MODEL 1
REMARK VINA RESULT:    -3.504      0.000      0.000
REMARK INTER + INTRA:         -13.820
REMARK INTER:                  -9.240
REMARK INTRA:                  -4.580
REMARK UNBOUND:                -4.580
REMARK SMILES CCCCCCCCCCCCCCCCCCCCCCCCCCCCCC(=O)[O-]
REMARK SMILES IDX 16 1 17 2 18 3 19 4 20 5 21 6 22 7 23 8 24 9 25 10 26 11
REMARK SMILES IDX 27 12 28 13 29 14 30 15 31 16 32 17 15 18 14 19 13 20 12 21
REMARK SMILES IDX 11 22 10 23 9 24 8 25 7 26 6 27 5 28 4 29 3 30 2 31 1 32
REMARK H PARENT
REMARK Flexibility Score: inf
ROOT
ATOM      1  C   UNL     1      -1.524   4.836  38.785  1.00  0.00     0.000 C 
ENDROOT
BRANCH   1   2
ATOM      2  C   UNL     1      -2.492   5.170  37.636  1.00  0.00     0.000 C 
BRANCH   2   3
ATOM      3  C   UNL     1      -1.883   6.141  36.611  1.00  0.00     0.000 C 
BRANCH   3   4
ATOM      4  C   UNL     1      -1.362   5.419  35.355  1.00  0.00     0.000 C 
BRANCH   4   5
ATOM      5  C   UNL     1      -1.842   3.961  35.270  1.00  0.00     0.000 C 
BRANCH   5   6
ATOM      6  C   UNL     1      -1.043   3.137  34.244  1.00  0.00     0.000 C 
BRANCH   6   7
ATOM      7  C   UNL     1      -0.277   4.013  33.236  1.00  0.00     0.000 C 
BRANCH   7   8
ATOM      8  C   UNL     1      -0.643   3.785  31.757  1.00  0.00     0.000 C 
BRANCH   8   9
ATOM      9  C   UNL     1      -0.468   5.048  30.895  1.00  0.00     0.000 C 
BRANCH   9  10
ATOM     10  C   UNL     1       0.314   6.153  31.625  1.00  0.00     0.000 C 
BRANCH  10  11
ATOM     11  C   UNL     1       1.407   6.781  30.741  1.00  0.00     0.000 C 
BRANCH  11  12
ATOM     12  C   UNL     1       1.332   6.313  29.277  1.00  0.00     0.000 C 
BRANCH  12  13
ATOM     13  C   UNL     1       1.953   7.279  28.248  1.00  0.00     0.006 C 
BRANCH  13  14
ATOM     14  C   UNL     1       1.002   8.378  27.749  1.00  0.00     0.053 C 
BRANCH  14  15
ATOM     15  C   UNL     1       0.855   8.360  26.258  1.00  0.00     0.041 C 
ATOM     16  O   UNL     1       1.555   9.123  25.543  1.00  0.00    -0.550 OA
ATOM     17  O   UNL     1      -0.079   7.524  25.661  1.00  0.00    -0.550 OA
ENDBRANCH  14  15
ENDBRANCH  13  14
ENDBRANCH  12  13
ENDBRANCH  11  12
ENDBRANCH  10  11
ENDBRANCH   9  10
ENDBRANCH   8   9
ENDBRANCH   7   8
ENDBRANCH   6   7
ENDBRANCH   5   6
ENDBRANCH   4   5
ENDBRANCH   3   4
ENDBRANCH   2   3
ENDBRANCH   1   2
BRANCH   1  18
ATOM     18  C   UNL     1      -2.035   5.334  40.147  1.00  0.00     0.000 C 
BRANCH  18  19
ATOM     19  C   UNL     1      -3.535   5.674  40.118  1.00  0.00     0.000 C 
BRANCH  19  20
ATOM     20  C   UNL     1      -3.837   7.094  40.628  1.00  0.00     0.000 C 
BRANCH  20  21
ATOM     21  C   UNL     1      -2.671   8.094  40.502  1.00  0.00     0.000 C 
BRANCH  21  22
ATOM     22  C   UNL     1      -2.750   8.944  39.222  1.00  0.00     0.000 C 
BRANCH  22  23
ATOM     23  C   UNL     1      -1.389   9.115  38.521  1.00  0.00     0.000 C 
BRANCH  23  24
ATOM     24  C   UNL     1      -0.167   9.122  39.457  1.00  0.00    -0.000 C 
BRANCH  24  25
ATOM     25  C   UNL     1       1.033   8.343  38.889  1.00  0.00    -0.000 C 
BRANCH  25  26
ATOM     26  C   UNL     1       1.208   6.956  39.535  1.00  0.00    -0.000 C 
BRANCH  26  27
ATOM     27  C   UNL     1       1.979   5.934  38.679  1.00  0.00    -0.000 C 
BRANCH  27  28
ATOM     28  C   UNL     1       1.750   6.123  37.170  1.00  0.00    -0.000 C 
BRANCH  28  29
ATOM     29  C   UNL     1       2.190   4.904  36.343  1.00  0.00    -0.000 C 
BRANCH  29  30
ATOM     30  C   UNL     1       1.749   3.536  36.901  1.00  0.00    -0.000 C 
BRANCH  30  31
ATOM     31  C   UNL     1       1.946   2.365  35.914  1.00  0.00    -0.003 C 
ATOM     32  C   UNL     1       3.194   2.526  35.047  1.00  0.00     0.004 C 
ENDBRANCH  30  31
ENDBRANCH  29  30
ENDBRANCH  28  29
ENDBRANCH  27  28
ENDBRANCH  26  27
ENDBRANCH  25  26
ENDBRANCH  24  25
ENDBRANCH  23  24
ENDBRANCH  22  23
ENDBRANCH  21  22
ENDBRANCH  20  21
ENDBRANCH  19  20
ENDBRANCH  18  19
ENDBRANCH   1  18
TORSDOF 28
ENDMDL
MODEL 2
REMARK VINA RESULT:    -3.457      2.061      4.480
REMARK INTER + INTRA:         -13.696
REMARK INTER:                  -7.966
REMARK INTRA:                  -5.730
REMARK UNBOUND:                -4.580
REMARK SMILES CCCCCCCCCCCCCCCCCCCCCCCCCCCCCC(=O)[O-]
REMARK SMILES IDX 16 1 17 2 18 3 19 4 20 5 21 6 22 7 23 8 24 9 25 10 26 11
REMARK SMILES IDX 27 12 28 13 29 14 30 15 31 16 32 17 15 18 14 19 13 20 12 21
REMARK SMILES IDX 11 22 10 23 9 24 8 25 7 26 6 27 5 28 4 29 3 30 2 31 1 32
REMARK H PARENT
REMARK Flexibility Score: inf
ROOT
ATOM      1  C   UNL     1      -3.877   7.483  41.177  1.00  0.00     0.000 C 
ENDROOT
BRANCH   1   2
ATOM      2  C   UNL     1      -2.812   6.657  41.921  1.00  0.00     0.000 C 
BRANCH   2   3
ATOM      3  C   UNL     1      -2.720   5.210  41.409  1.00  0.00     0.000 C 
BRANCH   3   4
ATOM      4  C   UNL     1      -1.267   4.705  41.334  1.00  0.00     0.000 C 
BRANCH   4   5
ATOM      5  C   UNL     1      -0.850   4.319  39.906  1.00  0.00     0.000 C 
BRANCH   5   6
ATOM      6  C   UNL     1      -1.697   5.026  38.833  1.00  0.00     0.000 C 
BRANCH   6   7
ATOM      7  C   UNL     1      -1.554   4.388  37.439  1.00  0.00     0.000 C 
BRANCH   7   8
ATOM      8  C   UNL     1      -2.488   4.960  36.356  1.00  0.00     0.000 C 
BRANCH   8   9
ATOM      9  C   UNL     1      -2.142   6.409  35.970  1.00  0.00     0.000 C 
BRANCH   9  10
ATOM     10  C   UNL     1      -0.690   6.555  35.482  1.00  0.00     0.000 C 
BRANCH  10  11
ATOM     11  C   UNL     1      -0.453   5.862  34.128  1.00  0.00     0.000 C 
BRANCH  11  12
ATOM     12  C   UNL     1       0.684   6.507  33.317  1.00  0.00     0.000 C 
BRANCH  12  13
ATOM     13  C   UNL     1       1.501   5.533  32.445  1.00  0.00     0.006 C 
BRANCH  13  14
ATOM     14  C   UNL     1       0.657   4.653  31.509  1.00  0.00     0.053 C 
BRANCH  14  15
ATOM     15  C   UNL     1       0.610   5.199  30.115  1.00  0.00     0.041 C 
ATOM     16  O   UNL     1      -0.170   4.697  29.264  1.00  0.00    -0.550 OA
ATOM     17  O   UNL     1       1.451   6.240  29.746  1.00  0.00    -0.550 OA
ENDBRANCH  14  15
ENDBRANCH  13  14
ENDBRANCH  12  13
ENDBRANCH  11  12
ENDBRANCH  10  11
ENDBRANCH   9  10
ENDBRANCH   8   9
ENDBRANCH   7   8
ENDBRANCH   6   7
ENDBRANCH   5   6
ENDBRANCH   4   5
ENDBRANCH   3   4
ENDBRANCH   2   3
ENDBRANCH   1   2
BRANCH   1  18
ATOM     18  C   UNL     1      -3.300   8.227  39.962  1.00  0.00     0.000 C 
BRANCH  18  19
ATOM     19  C   UNL     1      -1.786   8.463  40.087  1.00  0.00     0.000 C 
BRANCH  19  20
ATOM     20  C   UNL     1      -1.151   8.979  38.784  1.00  0.00     0.000 C 
BRANCH  20  21
ATOM     21  C   UNL     1       0.264   8.445  38.491  1.00  0.00     0.000 C 
BRANCH  21  22
ATOM     22  C   UNL     1       0.848   7.630  39.659  1.00  0.00     0.000 C 
BRANCH  22  23
ATOM     23  C   UNL     1       1.852   6.554  39.207  1.00  0.00     0.000 C 
BRANCH  23  24
ATOM     24  C   UNL     1       1.770   6.164  37.720  1.00  0.00    -0.000 C 
BRANCH  24  25
ATOM     25  C   UNL     1       2.557   4.884  37.387  1.00  0.00    -0.000 C 
BRANCH  25  26
ATOM     26  C   UNL     1       2.641   4.606  35.876  1.00  0.00    -0.000 C 
BRANCH  26  27
ATOM     27  C   UNL     1       2.994   3.155  35.500  1.00  0.00    -0.000 C 
BRANCH  27  28
ATOM     28  C   UNL     1       1.928   2.144  35.955  1.00  0.00    -0.000 C 
BRANCH  28  29
ATOM     29  C   UNL     1       0.510   2.529  35.501  1.00  0.00    -0.000 C 
BRANCH  29  30
ATOM     30  C   UNL     1       0.107   2.025  34.101  1.00  0.00    -0.000 C 
BRANCH  30  31
ATOM     31  C   UNL     1      -1.335   2.394  33.694  1.00  0.00    -0.003 C 
ATOM     32  C   UNL     1      -2.390   1.661  34.523  1.00  0.00     0.004 C 
ENDBRANCH  30  31
ENDBRANCH  29  30
ENDBRANCH  28  29
ENDBRANCH  27  28
ENDBRANCH  26  27
ENDBRANCH  25  26
ENDBRANCH  24  25
ENDBRANCH  23  24
ENDBRANCH  22  23
ENDBRANCH  21  22
ENDBRANCH  20  21
ENDBRANCH  19  20
ENDBRANCH  18  19
ENDBRANCH   1  18
TORSDOF 28
ENDMDL
MODEL 3
REMARK VINA RESULT:    -3.417      3.980     10.447
REMARK INTER + INTRA:         -13.590
REMARK INTER:                  -7.991
REMARK INTRA:                  -5.599
REMARK UNBOUND:                -4.580
REMARK SMILES CCCCCCCCCCCCCCCCCCCCCCCCCCCCCC(=O)[O-]
REMARK SMILES IDX 16 1 17 2 18 3 19 4 20 5 21 6 22 7 23 8 24 9 25 10 26 11
REMARK SMILES IDX 27 12 28 13 29 14 30 15 31 16 32 17 15 18 14 19 13 20 12 21
REMARK SMILES IDX 11 22 10 23 9 24 8 25 7 26 6 27 5 28 4 29 3 30 2 31 1 32
REMARK H PARENT
REMARK Flexibility Score: inf
ROOT
ATOM      1  C   UNL     1      -2.095   3.671  26.667  1.00  0.00     0.000 C 
ENDROOT
BRANCH   1   2
ATOM      2  C   UNL     1      -3.114   3.716  27.820  1.00  0.00     0.000 C 
BRANCH   2   3
ATOM      3  C   UNL     1      -2.608   3.005  29.086  1.00  0.00     0.000 C 
BRANCH   3   4
ATOM      4  C   UNL     1      -1.574   3.844  29.858  1.00  0.00     0.000 C 
BRANCH   4   5
ATOM      5  C   UNL     1      -0.213   3.141  29.974  1.00  0.00     0.000 C 
BRANCH   5   6
ATOM      6  C   UNL     1       0.937   3.986  29.397  1.00  0.00     0.000 C 
BRANCH   6   7
ATOM      7  C   UNL     1       0.562   5.469  29.219  1.00  0.00     0.000 C 
BRANCH   7   8
ATOM      8  C   UNL     1       1.362   6.457  30.089  1.00  0.00     0.000 C 
BRANCH   8   9
ATOM      9  C   UNL     1       0.495   7.164  31.145  1.00  0.00     0.000 C 
BRANCH   9  10
ATOM     10  C   UNL     1       0.937   6.838  32.582  1.00  0.00     0.000 C 
BRANCH  10  11
ATOM     11  C   UNL     1       0.836   5.335  32.901  1.00  0.00     0.000 C 
BRANCH  11  12
ATOM     12  C   UNL     1      -0.592   4.897  33.268  1.00  0.00     0.000 C 
BRANCH  12  13
ATOM     13  C   UNL     1      -0.880   4.804  34.780  1.00  0.00     0.006 C 
BRANCH  13  14
ATOM     14  C   UNL     1      -1.767   5.933  35.331  1.00  0.00     0.053 C 
BRANCH  14  15
ATOM     15  C   UNL     1      -1.042   6.779  36.332  1.00  0.00     0.041 C 
ATOM     16  O   UNL     1      -1.390   6.768  37.541  1.00  0.00    -0.550 OA
ATOM     17  O   UNL     1      -0.003   7.605  35.924  1.00  0.00    -0.550 OA
ENDBRANCH  14  15
ENDBRANCH  13  14
ENDBRANCH  12  13
ENDBRANCH  11  12
ENDBRANCH  10  11
ENDBRANCH   9  10
ENDBRANCH   8   9
ENDBRANCH   7   8
ENDBRANCH   6   7
ENDBRANCH   5   6
ENDBRANCH   4   5
ENDBRANCH   3   4
ENDBRANCH   2   3
ENDBRANCH   1   2
BRANCH   1  18
ATOM     18  C   UNL     1      -1.596   5.071  26.270  1.00  0.00     0.000 C 
BRANCH  18  19
ATOM     19  C   UNL     1      -1.389   5.208  24.752  1.00  0.00     0.000 C 
BRANCH  19  20
ATOM     20  C   UNL     1      -1.222   6.669  24.301  1.00  0.00     0.000 C 
BRANCH  20  21
ATOM     21  C   UNL     1       0.232   7.114  24.057  1.00  0.00     0.000 C 
BRANCH  21  22
ATOM     22  C   UNL     1       0.638   8.324  24.918  1.00  0.00     0.000 C 
BRANCH  22  23
ATOM     23  C   UNL     1       0.757   7.990  26.417  1.00  0.00     0.000 C 
BRANCH  23  24
ATOM     24  C   UNL     1       1.814   8.802  27.188  1.00  0.00    -0.000 C 
BRANCH  24  25
ATOM     25  C   UNL     1       3.244   8.267  26.997  1.00  0.00    -0.000 C 
BRANCH  25  26
ATOM     26  C   UNL     1       3.325   6.732  27.069  1.00  0.00    -0.000 C 
BRANCH  26  27
ATOM     27  C   UNL     1       4.090   6.066  25.910  1.00  0.00    -0.000 C 
BRANCH  27  28
ATOM     28  C   UNL     1       3.235   5.045  25.139  1.00  0.00    -0.000 C 
BRANCH  28  29
ATOM     29  C   UNL     1       2.042   4.528  25.959  1.00  0.00    -0.000 C 
BRANCH  29  30
ATOM     30  C   UNL     1       1.794   3.008  25.874  1.00  0.00    -0.000 C 
BRANCH  30  31
ATOM     31  C   UNL     1       3.067   2.155  26.059  1.00  0.00    -0.003 C 
ATOM     32  C   UNL     1       3.586   2.171  27.496  1.00  0.00     0.004 C 
ENDBRANCH  30  31
ENDBRANCH  29  30
ENDBRANCH  28  29
ENDBRANCH  27  28
ENDBRANCH  26  27
ENDBRANCH  25  26
ENDBRANCH  24  25
ENDBRANCH  23  24
ENDBRANCH  22  23
ENDBRANCH  21  22
ENDBRANCH  20  21
ENDBRANCH  19  20
ENDBRANCH  18  19
ENDBRANCH   1  18
TORSDOF 28
ENDMDL
MODEL 4
REMARK VINA RESULT:    -3.344      1.850      4.153
REMARK INTER + INTRA:         -13.397
REMARK INTER:                  -7.656
REMARK INTRA:                  -5.741
REMARK UNBOUND:                -4.580
REMARK SMILES CCCCCCCCCCCCCCCCCCCCCCCCCCCCCC(=O)[O-]
REMARK SMILES IDX 16 1 17 2 18 3 19 4 20 5 21 6 22 7 23 8 24 9 25 10 26 11
REMARK SMILES IDX 27 12 28 13 29 14 30 15 31 16 32 17 15 18 14 19 13 20 12 21
REMARK SMILES IDX 11 22 10 23 9 24 8 25 7 26 6 27 5 28 4 29 3 30 2 31 1 32
REMARK H PARENT
REMARK Flexibility Score: inf
ROOT
ATOM      1  C   UNL     1      -0.326   5.620  39.426  1.00  0.00     0.000 C 
ENDROOT
BRANCH   1   2
ATOM      2  C   UNL     1       0.855   6.243  40.192  1.00  0.00     0.000 C 
BRANCH   2   3
ATOM      3  C   UNL     1       2.069   6.518  39.289  1.00  0.00     0.000 C 
BRANCH   3   4
ATOM      4  C   UNL     1       2.101   5.603  38.052  1.00  0.00     0.000 C 
BRANCH   4   5
ATOM      5  C   UNL     1       2.884   4.305  38.298  1.00  0.00     0.000 C 
BRANCH   5   6
ATOM      6  C   UNL     1       2.057   3.047  37.974  1.00  0.00     0.000 C 
BRANCH   6   7
ATOM      7  C   UNL     1       0.834   3.346  37.087  1.00  0.00     0.000 C 
BRANCH   7   8
ATOM      8  C   UNL     1       0.514   2.275  36.028  1.00  0.00     0.000 C 
BRANCH   8   9
ATOM      9  C   UNL     1       0.309   2.865  34.622  1.00  0.00     0.000 C 
BRANCH   9  10
ATOM     10  C   UNL     1       1.574   2.761  33.752  1.00  0.00     0.000 C 
BRANCH  10  11
ATOM     11  C   UNL     1       1.595   3.804  32.620  1.00  0.00     0.000 C 
BRANCH  11  12
ATOM     12  C   UNL     1       0.823   5.087  32.975  1.00  0.00     0.000 C 
BRANCH  12  13
ATOM     13  C   UNL     1      -0.023   5.680  31.831  1.00  0.00     0.006 C 
BRANCH  13  14
ATOM     14  C   UNL     1       0.646   5.624  30.447  1.00  0.00     0.053 C 
BRANCH  14  15
ATOM     15  C   UNL     1       1.110   6.974  29.993  1.00  0.00     0.041 C 
ATOM     16  O   UNL     1       1.309   7.891  30.832  1.00  0.00    -0.550 OA
ATOM     17  O   UNL     1       1.290   7.230  28.641  1.00  0.00    -0.550 OA
ENDBRANCH  14  15
ENDBRANCH  13  14
ENDBRANCH  12  13
ENDBRANCH  11  12
ENDBRANCH  10  11
ENDBRANCH   9  10
ENDBRANCH   8   9
ENDBRANCH   7   8
ENDBRANCH   6   7
ENDBRANCH   5   6
ENDBRANCH   4   5
ENDBRANCH   3   4
ENDBRANCH   2   3
ENDBRANCH   1   2
BRANCH   1  18
ATOM     18  C   UNL     1      -1.050   4.538  40.243  1.00  0.00     0.000 C 
BRANCH  18  19
ATOM     19  C   UNL     1      -0.384   4.292  41.607  1.00  0.00     0.000 C 
BRANCH  19  20
ATOM     20  C   UNL     1      -1.246   4.768  42.788  1.00  0.00     0.000 C 
BRANCH  20  21
ATOM     21  C   UNL     1      -2.513   5.553  42.397  1.00  0.00     0.000 C 
BRANCH  21  22
ATOM     22  C   UNL     1      -2.440   7.038  42.795  1.00  0.00     0.000 C 
BRANCH  22  23
ATOM     23  C   UNL     1      -2.230   7.979  41.594  1.00  0.00     0.000 C 
BRANCH  23  24
ATOM     24  C   UNL     1      -3.191   7.757  40.411  1.00  0.00    -0.000 C 
BRANCH  24  25
ATOM     25  C   UNL     1      -2.733   8.462  39.121  1.00  0.00    -0.000 C 
BRANCH  25  26
ATOM     26  C   UNL     1      -1.351   9.125  39.258  1.00  0.00    -0.000 C 
BRANCH  26  27
ATOM     27  C   UNL     1      -0.462   9.039  38.003  1.00  0.00    -0.000 C 
BRANCH  27  28
ATOM     28  C   UNL     1      -1.198   8.447  36.789  1.00  0.00    -0.000 C 
BRANCH  28  29
ATOM     29  C   UNL     1      -0.402   7.329  36.096  1.00  0.00    -0.000 C 
BRANCH  29  30
ATOM     30  C   UNL     1      -1.241   6.138  35.590  1.00  0.00    -0.000 C 
BRANCH  30  31
ATOM     31  C   UNL     1      -2.419   5.765  36.514  1.00  0.00    -0.003 C 
ATOM     32  C   UNL     1      -2.712   4.265  36.522  1.00  0.00     0.004 C 
ENDBRANCH  30  31
ENDBRANCH  29  30
ENDBRANCH  28  29
ENDBRANCH  27  28
ENDBRANCH  26  27
ENDBRANCH  25  26
ENDBRANCH  24  25
ENDBRANCH  23  24
ENDBRANCH  22  23
ENDBRANCH  21  22
ENDBRANCH  20  21
ENDBRANCH  19  20
ENDBRANCH  18  19
ENDBRANCH   1  18
TORSDOF 28
ENDMDL
MODEL 5
REMARK VINA RESULT:    -3.309      3.309      4.340
REMARK INTER + INTRA:         -13.306
REMARK INTER:                  -7.488
REMARK INTRA:                  -5.818
REMARK UNBOUND:                -4.580
REMARK SMILES CCCCCCCCCCCCCCCCCCCCCCCCCCCCCC(=O)[O-]
REMARK SMILES IDX 16 1 17 2 18 3 19 4 20 5 21 6 22 7 23 8 24 9 25 10 26 11
REMARK SMILES IDX 27 12 28 13 29 14 30 15 31 16 32 17 15 18 14 19 13 20 12 21
REMARK SMILES IDX 11 22 10 23 9 24 8 25 7 26 6 27 5 28 4 29 3 30 2 31 1 32
REMARK H PARENT
REMARK Flexibility Score: inf
ROOT
ATOM      1  C   UNL     1      -2.191   5.552  40.223  1.00  0.00     0.000 C 
ENDROOT
BRANCH   1   2
ATOM      2  C   UNL     1      -1.773   4.993  38.852  1.00  0.00     0.000 C 
BRANCH   2   3
ATOM      3  C   UNL     1      -2.906   5.055  37.815  1.00  0.00     0.000 C 
BRANCH   3   4
ATOM      4  C   UNL     1      -2.425   4.703  36.396  1.00  0.00     0.000 C 
BRANCH   4   5
ATOM      5  C   UNL     1      -0.941   5.033  36.177  1.00  0.00     0.000 C 
BRANCH   5   6
ATOM      6  C   UNL     1      -0.736   6.230  35.230  1.00  0.00     0.000 C 
BRANCH   6   7
ATOM      7  C   UNL     1      -0.186   5.818  33.852  1.00  0.00     0.000 C 
BRANCH   7   8
ATOM      8  C   UNL     1       1.349   5.728  33.759  1.00  0.00     0.000 C 
BRANCH   8   9
ATOM      9  C   UNL     1       1.837   4.394  33.168  1.00  0.00     0.000 C 
BRANCH   9  10
ATOM     10  C   UNL     1       1.794   3.248  34.192  1.00  0.00     0.000 C 
BRANCH  10  11
ATOM     11  C   UNL     1       1.011   2.027  33.675  1.00  0.00     0.000 C 
BRANCH  11  12
ATOM     12  C   UNL     1      -0.327   1.821  34.408  1.00  0.00     0.000 C 
BRANCH  12  13
ATOM     13  C   UNL     1      -1.566   2.374  33.678  1.00  0.00     0.006 C 
BRANCH  13  14
ATOM     14  C   UNL     1      -1.347   2.674  32.186  1.00  0.00     0.053 C 
BRANCH  14  15
ATOM     15  C   UNL     1      -2.356   1.982  31.320  1.00  0.00     0.041 C 
ATOM     16  O   UNL     1      -2.609   0.762  31.495  1.00  0.00    -0.550 OA
ATOM     17  O   UNL     1      -2.990   2.676  30.299  1.00  0.00    -0.550 OA
ENDBRANCH  14  15
ENDBRANCH  13  14
ENDBRANCH  12  13
ENDBRANCH  11  12
ENDBRANCH  10  11
ENDBRANCH   9  10
ENDBRANCH   8   9
ENDBRANCH   7   8
ENDBRANCH   6   7
ENDBRANCH   5   6
ENDBRANCH   4   5
ENDBRANCH   3   4
ENDBRANCH   2   3
ENDBRANCH   1   2
BRANCH   1  18
ATOM     18  C   UNL     1      -3.627   6.102  40.220  1.00  0.00     0.000 C 
BRANCH  18  19
ATOM     19  C   UNL     1      -3.676   7.606  40.535  1.00  0.00     0.000 C 
BRANCH  19  20
ATOM     20  C   UNL     1      -2.417   8.357  40.069  1.00  0.00     0.000 C 
BRANCH  20  21
ATOM     21  C   UNL     1      -2.559   9.101  38.728  1.00  0.00     0.000 C 
BRANCH  21  22
ATOM     22  C   UNL     1      -1.395   8.817  37.762  1.00  0.00     0.000 C 
BRANCH  22  23
ATOM     23  C   UNL     1      -0.011   8.919  38.431  1.00  0.00     0.000 C 
BRANCH  23  24
ATOM     24  C   UNL     1       0.832   7.632  38.392  1.00  0.00    -0.000 C 
BRANCH  24  25
ATOM     25  C   UNL     1       1.154   7.079  39.792  1.00  0.00    -0.000 C 
BRANCH  25  26
ATOM     26  C   UNL     1       1.753   5.662  39.755  1.00  0.00    -0.000 C 
BRANCH  26  27
ATOM     27  C   UNL     1       2.905   5.469  38.751  1.00  0.00    -0.000 C 
BRANCH  27  28
ATOM     28  C   UNL     1       2.501   4.615  37.536  1.00  0.00    -0.000 C 
BRANCH  28  29
ATOM     29  C   UNL     1       1.608   3.423  37.917  1.00  0.00    -0.000 C 
BRANCH  29  30
ATOM     30  C   UNL     1       2.317   2.055  37.959  1.00  0.00    -0.000 C 
BRANCH  30  31
ATOM     31  C   UNL     1       2.854   1.671  39.354  1.00  0.00    -0.003 C 
ATOM     32  C   UNL     1       4.363   1.875  39.484  1.00  0.00     0.004 C 
ENDBRANCH  30  31
ENDBRANCH  29  30
ENDBRANCH  28  29
ENDBRANCH  27  28
ENDBRANCH  26  27
ENDBRANCH  25  26
ENDBRANCH  24  25
ENDBRANCH  23  24
ENDBRANCH  22  23
ENDBRANCH  21  22
ENDBRANCH  20  21
ENDBRANCH  19  20
ENDBRANCH  18  19
ENDBRANCH   1  18
TORSDOF 28
ENDMDL
MODEL 6
REMARK VINA RESULT:    -3.302      6.137     10.564
REMARK INTER + INTRA:         -13.286
REMARK INTER:                  -7.419
REMARK INTRA:                  -5.867
REMARK UNBOUND:                -4.580
REMARK SMILES CCCCCCCCCCCCCCCCCCCCCCCCCCCCCC(=O)[O-]
REMARK SMILES IDX 16 1 17 2 18 3 19 4 20 5 21 6 22 7 23 8 24 9 25 10 26 11
REMARK SMILES IDX 27 12 28 13 29 14 30 15 31 16 32 17 15 18 14 19 13 20 12 21
REMARK SMILES IDX 11 22 10 23 9 24 8 25 7 26 6 27 5 28 4 29 3 30 2 31 1 32
REMARK H PARENT
REMARK Flexibility Score: inf
ROOT
ATOM      1  C   UNL     1       2.193   8.418  28.728  1.00  0.00     0.000 C 
ENDROOT
BRANCH   1   2
ATOM      2  C   UNL     1       1.053   7.659  29.430  1.00  0.00     0.000 C 
BRANCH   2   3
ATOM      3  C   UNL     1       0.966   7.976  30.932  1.00  0.00     0.000 C 
BRANCH   3   4
ATOM      4  C   UNL     1       1.363   6.776  31.810  1.00  0.00     0.000 C 
BRANCH   4   5
ATOM      5  C   UNL     1       1.215   5.434  31.078  1.00  0.00     0.000 C 
BRANCH   5   6
ATOM      6  C   UNL     1       0.636   4.330  31.981  1.00  0.00     0.000 C 
BRANCH   6   7
ATOM      7  C   UNL     1      -0.730   3.811  31.494  1.00  0.00     0.000 C 
BRANCH   7   8
ATOM      8  C   UNL     1      -1.224   4.410  30.164  1.00  0.00     0.000 C 
BRANCH   8   9
ATOM      9  C   UNL     1      -2.496   3.727  29.634  1.00  0.00     0.000 C 
BRANCH   9  10
ATOM     10  C   UNL     1      -2.443   2.196  29.776  1.00  0.00     0.000 C 
BRANCH  10  11
ATOM     11  C   UNL     1      -3.067   1.472  28.569  1.00  0.00     0.000 C 
BRANCH  11  12
ATOM     12  C   UNL     1      -4.586   1.693  28.461  1.00  0.00     0.000 C 
BRANCH  12  13
ATOM     13  C   UNL     1      -5.029   2.681  27.364  1.00  0.00     0.006 C 
BRANCH  13  14
ATOM     14  C   UNL     1      -4.961   2.119  25.934  1.00  0.00     0.053 C 
BRANCH  14  15
ATOM     15  C   UNL     1      -6.302   1.667  25.444  1.00  0.00     0.041 C 
ATOM     16  O   UNL     1      -6.912   2.330  24.566  1.00  0.00    -0.550 OA
ATOM     17  O   UNL     1      -6.894   0.532  25.983  1.00  0.00    -0.550 OA
ENDBRANCH  14  15
ENDBRANCH  13  14
ENDBRANCH  12  13
ENDBRANCH  11  12
ENDBRANCH  10  11
ENDBRANCH   9  10
ENDBRANCH   8   9
ENDBRANCH   7   8
ENDBRANCH   6   7
ENDBRANCH   5   6
ENDBRANCH   4   5
ENDBRANCH   3   4
ENDBRANCH   2   3
ENDBRANCH   1   2
BRANCH   1  18
ATOM     18  C   UNL     1       1.763   9.001  27.372  1.00  0.00     0.000 C 
BRANCH  18  19
ATOM     19  C   UNL     1       0.676   8.153  26.690  1.00  0.00     0.000 C 
BRANCH  19  20
ATOM     20  C   UNL     1       0.635   8.346  25.165  1.00  0.00     0.000 C 
BRANCH  20  21
ATOM     21  C   UNL     1       1.792   7.684  24.392  1.00  0.00     0.000 C 
BRANCH  21  22
ATOM     22  C   UNL     1       1.465   6.248  23.944  1.00  0.00     0.000 C 
BRANCH  22  23
ATOM     23  C   UNL     1       2.217   5.173  24.751  1.00  0.00     0.000 C 
BRANCH  23  24
ATOM     24  C   UNL     1       3.302   5.709  25.703  1.00  0.00    -0.000 C 
BRANCH  24  25
ATOM     25  C   UNL     1       3.151   5.188  27.144  1.00  0.00    -0.000 C 
BRANCH  25  26
ATOM     26  C   UNL     1       1.732   4.675  27.451  1.00  0.00    -0.000 C 
BRANCH  26  27
ATOM     27  C   UNL     1       1.664   3.232  27.983  1.00  0.00    -0.000 C 
BRANCH  27  28
ATOM     28  C   UNL     1       0.404   2.482  27.516  1.00  0.00    -0.000 C 
BRANCH  28  29
ATOM     29  C   UNL     1       0.353   2.298  25.990  1.00  0.00    -0.000 C 
BRANCH  29  30
ATOM     30  C   UNL     1      -0.860   2.943  25.289  1.00  0.00    -0.000 C 
BRANCH  30  31
ATOM     31  C   UNL     1      -1.691   3.869  26.202  1.00  0.00    -0.003 C 
ATOM     32  C   UNL     1      -1.541   5.346  25.841  1.00  0.00     0.004 C 
ENDBRANCH  30  31
ENDBRANCH  29  30
ENDBRANCH  28  29
ENDBRANCH  27  28
ENDBRANCH  26  27
ENDBRANCH  25  26
ENDBRANCH  24  25
ENDBRANCH  23  24
ENDBRANCH  22  23
ENDBRANCH  21  22
ENDBRANCH  20  21
ENDBRANCH  19  20
ENDBRANCH  18  19
ENDBRANCH   1  18
TORSDOF 28
ENDMDL
MODEL 7
REMARK VINA RESULT:    -3.296      2.467      4.425
REMARK INTER + INTRA:         -13.273
REMARK INTER:                  -7.981
REMARK INTRA:                  -5.291
REMARK UNBOUND:                -4.580
REMARK SMILES CCCCCCCCCCCCCCCCCCCCCCCCCCCCCC(=O)[O-]
REMARK SMILES IDX 16 1 17 2 18 3 19 4 20 5 21 6 22 7 23 8 24 9 25 10 26 11
REMARK SMILES IDX 27 12 28 13 29 14 30 15 31 16 32 17 15 18 14 19 13 20 12 21
REMARK SMILES IDX 11 22 10 23 9 24 8 25 7 26 6 27 5 28 4 29 3 30 2 31 1 32
REMARK H PARENT
REMARK Flexibility Score: inf
ROOT
ATOM      1  C   UNL     1      -3.861   7.205  41.253  1.00  0.00     0.000 C 
ENDROOT
BRANCH   1   2
ATOM      2  C   UNL     1      -2.768   6.351  41.920  1.00  0.00     0.000 C 
BRANCH   2   3
ATOM      3  C   UNL     1      -2.613   4.968  41.265  1.00  0.00     0.000 C 
BRANCH   3   4
ATOM      4  C   UNL     1      -1.151   4.650  40.903  1.00  0.00     0.000 C 
BRANCH   4   5
ATOM      5  C   UNL     1      -0.969   4.328  39.411  1.00  0.00     0.000 C 
BRANCH   5   6
ATOM      6  C   UNL     1      -2.012   5.033  38.525  1.00  0.00     0.000 C 
BRANCH   6   7
ATOM      7  C   UNL     1      -1.979   4.552  37.062  1.00  0.00     0.000 C 
BRANCH   7   8
ATOM      8  C   UNL     1      -2.364   5.613  36.014  1.00  0.00     0.000 C 
BRANCH   8   9
ATOM      9  C   UNL     1      -1.506   6.887  36.106  1.00  0.00     0.000 C 
BRANCH   9  10
ATOM     10  C   UNL     1      -0.122   6.710  35.458  1.00  0.00     0.000 C 
BRANCH  10  11
ATOM     11  C   UNL     1      -0.212   6.169  34.020  1.00  0.00     0.000 C 
BRANCH  11  12
ATOM     12  C   UNL     1       1.082   6.389  33.217  1.00  0.00     0.000 C 
BRANCH  12  13
ATOM     13  C   UNL     1       1.163   5.621  31.883  1.00  0.00     0.006 C 
BRANCH  13  14
ATOM     14  C   UNL     1      -0.094   5.730  31.005  1.00  0.00     0.053 C 
BRANCH  14  15
ATOM     15  C   UNL     1      -0.780   4.409  30.839  1.00  0.00     0.041 C 
ATOM     16  O   UNL     1      -1.528   4.204  29.847  1.00  0.00    -0.550 OA
ATOM     17  O   UNL     1      -0.621   3.416  31.796  1.00  0.00    -0.550 OA
ENDBRANCH  14  15
ENDBRANCH  13  14
ENDBRANCH  12  13
ENDBRANCH  11  12
ENDBRANCH  10  11
ENDBRANCH   9  10
ENDBRANCH   8   9
ENDBRANCH   7   8
ENDBRANCH   6   7
ENDBRANCH   5   6
ENDBRANCH   4   5
ENDBRANCH   3   4
ENDBRANCH   2   3
ENDBRANCH   1   2
BRANCH   1  18
ATOM     18  C   UNL     1      -3.303   8.104  40.137  1.00  0.00     0.000 C 
BRANCH  18  19
ATOM     19  C   UNL     1      -1.796   8.364  40.295  1.00  0.00     0.000 C 
BRANCH  19  20
ATOM     20  C   UNL     1      -1.157   8.966  39.032  1.00  0.00     0.000 C 
BRANCH  20  21
ATOM     21  C   UNL     1       0.316   8.579  38.798  1.00  0.00     0.000 C 
BRANCH  21  22
ATOM     22  C   UNL     1       0.776   7.414  39.692  1.00  0.00     0.000 C 
BRANCH  22  23
ATOM     23  C   UNL     1       2.136   6.826  39.272  1.00  0.00     0.000 C 
BRANCH  23  24
ATOM     24  C   UNL     1       2.072   5.731  38.192  1.00  0.00    -0.000 C 
BRANCH  24  25
ATOM     25  C   UNL     1       2.899   4.482  38.549  1.00  0.00    -0.000 C 
BRANCH  25  26
ATOM     26  C   UNL     1       2.838   3.392  37.464  1.00  0.00    -0.000 C 
BRANCH  26  27
ATOM     27  C   UNL     1       1.435   3.129  36.884  1.00  0.00    -0.000 C 
BRANCH  27  28
ATOM     28  C   UNL     1       1.384   3.277  35.354  1.00  0.00    -0.000 C 
BRANCH  28  29
ATOM     29  C   UNL     1       2.741   3.674  34.749  1.00  0.00    -0.000 C 
BRANCH  29  30
ATOM     30  C   UNL     1       3.347   2.654  33.764  1.00  0.00    -0.000 C 
BRANCH  30  31
ATOM     31  C   UNL     1       4.812   2.280  34.073  1.00  0.00    -0.003 C 
ATOM     32  C   UNL     1       5.636   3.470  34.565  1.00  0.00     0.004 C 
ENDBRANCH  30  31
ENDBRANCH  29  30
ENDBRANCH  28  29
ENDBRANCH  27  28
ENDBRANCH  26  27
ENDBRANCH  25  26
ENDBRANCH  24  25
ENDBRANCH  23  24
ENDBRANCH  22  23
ENDBRANCH  21  22
ENDBRANCH  20  21
ENDBRANCH  19  20
ENDBRANCH  18  19
ENDBRANCH   1  18
TORSDOF 28
ENDMDL
MODEL 8
REMARK VINA RESULT:    -3.291      3.267      5.554
REMARK INTER + INTRA:         -13.258
REMARK INTER:                  -6.839
REMARK INTRA:                  -6.419
REMARK UNBOUND:                -4.580
REMARK SMILES CCCCCCCCCCCCCCCCCCCCCCCCCCCCCC(=O)[O-]
REMARK SMILES IDX 16 1 17 2 18 3 19 4 20 5 21 6 22 7 23 8 24 9 25 10 26 11
REMARK SMILES IDX 27 12 28 13 29 14 30 15 31 16 32 17 15 18 14 19 13 20 12 21
REMARK SMILES IDX 11 22 10 23 9 24 8 25 7 26 6 27 5 28 4 29 3 30 2 31 1 32
REMARK H PARENT
REMARK Flexibility Score: inf
ROOT
ATOM      1  C   UNL     1      -1.127   5.096  34.500  1.00  0.00     0.000 C 
ENDROOT
BRANCH   1   2
ATOM      2  C   UNL     1      -0.259   6.143  33.781  1.00  0.00     0.000 C 
BRANCH   2   3
ATOM      3  C   UNL     1       1.178   5.655  33.535  1.00  0.00     0.000 C 
BRANCH   3   4
ATOM      4  C   UNL     1       1.798   6.266  32.265  1.00  0.00     0.000 C 
BRANCH   4   5
ATOM      5  C   UNL     1       0.753   6.543  31.173  1.00  0.00     0.000 C 
BRANCH   5   6
ATOM      6  C   UNL     1       1.066   5.808  29.857  1.00  0.00     0.000 C 
BRANCH   6   7
ATOM      7  C   UNL     1       0.021   4.732  29.508  1.00  0.00     0.000 C 
BRANCH   7   8
ATOM      8  C   UNL     1      -0.994   4.415  30.623  1.00  0.00     0.000 C 
BRANCH   8   9
ATOM      9  C   UNL     1      -0.880   2.972  31.144  1.00  0.00     0.000 C 
BRANCH   9  10
ATOM     10  C   UNL     1       0.451   2.714  31.870  1.00  0.00     0.000 C 
BRANCH  10  11
ATOM     11  C   UNL     1       1.312   1.655  31.158  1.00  0.00     0.000 C 
BRANCH  11  12
ATOM     12  C   UNL     1       2.629   1.360  31.897  1.00  0.00     0.000 C 
BRANCH  12  13
ATOM     13  C   UNL     1       2.863   2.190  33.175  1.00  0.00     0.006 C 
BRANCH  13  14
ATOM     14  C   UNL     1       4.335   2.298  33.606  1.00  0.00     0.053 C 
BRANCH  14  15
ATOM     15  C   UNL     1       4.573   3.477  34.499  1.00  0.00     0.041 C 
ATOM     16  O   UNL     1       4.436   4.646  34.055  1.00  0.00    -0.550 OA
ATOM     17  O   UNL     1       4.980   3.284  35.812  1.00  0.00    -0.550 OA
ENDBRANCH  14  15
ENDBRANCH  13  14
ENDBRANCH  12  13
ENDBRANCH  11  12
ENDBRANCH  10  11
ENDBRANCH   9  10
ENDBRANCH   8   9
ENDBRANCH   7   8
ENDBRANCH   6   7
ENDBRANCH   5   6
ENDBRANCH   4   5
ENDBRANCH   3   4
ENDBRANCH   2   3
ENDBRANCH   1   2
BRANCH   1  18
ATOM     18  C   UNL     1      -1.953   5.704  35.645  1.00  0.00     0.000 C 
BRANCH  18  19
ATOM     19  C   UNL     1      -2.511   4.632  36.596  1.00  0.00     0.000 C 
BRANCH  19  20
ATOM     20  C   UNL     1      -2.314   4.986  38.080  1.00  0.00     0.000 C 
BRANCH  20  21
ATOM     21  C   UNL     1      -2.128   6.488  38.373  1.00  0.00     0.000 C 
BRANCH  21  22
ATOM     22  C   UNL     1      -0.803   6.794  39.095  1.00  0.00     0.000 C 
BRANCH  22  23
ATOM     23  C   UNL     1       0.346   5.855  38.681  1.00  0.00     0.000 C 
BRANCH  23  24
ATOM     24  C   UNL     1       1.251   6.384  37.554  1.00  0.00    -0.000 C 
BRANCH  24  25
ATOM     25  C   UNL     1       2.205   5.314  36.994  1.00  0.00    -0.000 C 
BRANCH  25  26
ATOM     26  C   UNL     1       1.761   3.879  37.331  1.00  0.00    -0.000 C 
BRANCH  26  27
ATOM     27  C   UNL     1       1.342   3.027  36.118  1.00  0.00    -0.000 C 
BRANCH  27  28
ATOM     28  C   UNL     1       0.157   2.096  36.423  1.00  0.00    -0.000 C 
BRANCH  28  29
ATOM     29  C   UNL     1      -0.163   1.139  35.263  1.00  0.00    -0.000 C 
BRANCH  29  30
ATOM     30  C   UNL     1      -1.644   0.728  35.136  1.00  0.00    -0.000 C 
BRANCH  30  31
ATOM     31  C   UNL     1      -2.488   1.687  34.271  1.00  0.00    -0.003 C 
ATOM     32  C   UNL     1      -3.313   0.957  33.212  1.00  0.00     0.004 C 
ENDBRANCH  30  31
ENDBRANCH  29  30
ENDBRANCH  28  29
ENDBRANCH  27  28
ENDBRANCH  26  27
ENDBRANCH  25  26
ENDBRANCH  24  25
ENDBRANCH  23  24
ENDBRANCH  22  23
ENDBRANCH  21  22
ENDBRANCH  20  21
ENDBRANCH  19  20
ENDBRANCH  18  19
ENDBRANCH   1  18
TORSDOF 28
ENDMDL
MODEL 9
REMARK VINA RESULT:    -3.259      5.598     10.403
REMARK INTER + INTRA:         -13.175
REMARK INTER:                  -7.576
REMARK INTRA:                  -5.599
REMARK UNBOUND:                -4.580
REMARK SMILES CCCCCCCCCCCCCCCCCCCCCCCCCCCCCC(=O)[O-]
REMARK SMILES IDX 16 1 17 2 18 3 19 4 20 5 21 6 22 7 23 8 24 9 25 10 26 11
REMARK SMILES IDX 27 12 28 13 29 14 30 15 31 16 32 17 15 18 14 19 13 20 12 21
REMARK SMILES IDX 11 22 10 23 9 24 8 25 7 26 6 27 5 28 4 29 3 30 2 31 1 32
REMARK H PARENT
REMARK Flexibility Score: inf
ROOT
ATOM      1  C   UNL     1      -2.259   3.694  26.754  1.00  0.00     0.000 C 
ENDROOT
BRANCH   1   2
ATOM      2  C   UNL     1      -3.166   3.815  27.991  1.00  0.00     0.000 C 
BRANCH   2   3
ATOM      3  C   UNL     1      -2.603   3.073  29.215  1.00  0.00     0.000 C 
BRANCH   3   4
ATOM      4  C   UNL     1      -1.499   3.873  29.929  1.00  0.00     0.000 C 
BRANCH   4   5
ATOM      5  C   UNL     1      -0.157   3.125  29.964  1.00  0.00     0.000 C 
BRANCH   5   6
ATOM      6  C   UNL     1       1.013   3.990  29.461  1.00  0.00     0.000 C 
BRANCH   6   7
ATOM      7  C   UNL     1       0.607   5.450  29.192  1.00  0.00     0.000 C 
BRANCH   7   8
ATOM      8  C   UNL     1       1.368   6.506  30.017  1.00  0.00     0.000 C 
BRANCH   8   9
ATOM      9  C   UNL     1       0.461   7.265  31.001  1.00  0.00     0.000 C 
BRANCH   9  10
ATOM     10  C   UNL     1       0.964   7.173  32.452  1.00  0.00     0.000 C 
BRANCH  10  11
ATOM     11  C   UNL     1       1.907   5.977  32.672  1.00  0.00     0.000 C 
BRANCH  11  12
ATOM     12  C   UNL     1       1.178   4.731  33.205  1.00  0.00     0.000 C 
BRANCH  12  13
ATOM     13  C   UNL     1       1.955   3.407  33.062  1.00  0.00     0.006 C 
BRANCH  13  14
ATOM     14  C   UNL     1       2.266   2.702  34.393  1.00  0.00     0.053 C 
BRANCH  14  15
ATOM     15  C   UNL     1       3.725   2.751  34.726  1.00  0.00     0.041 C 
ATOM     16  O   UNL     1       4.412   1.696  34.720  1.00  0.00    -0.550 OA
ATOM     17  O   UNL     1       4.320   3.955  35.078  1.00  0.00    -0.550 OA
ENDBRANCH  14  15
ENDBRANCH  13  14
ENDBRANCH  12  13
ENDBRANCH  11  12
ENDBRANCH  10  11
ENDBRANCH   9  10
ENDBRANCH   8   9
ENDBRANCH   7   8
ENDBRANCH   6   7
ENDBRANCH   5   6
ENDBRANCH   4   5
ENDBRANCH   3   4
ENDBRANCH   2   3
ENDBRANCH   1   2
BRANCH   1  18
ATOM     18  C   UNL     1      -1.597   5.029  26.378  1.00  0.00     0.000 C 
BRANCH  18  19
ATOM     19  C   UNL     1      -1.317   5.139  24.870  1.00  0.00     0.000 C 
BRANCH  19  20
ATOM     20  C   UNL     1      -1.242   6.595  24.379  1.00  0.00     0.000 C 
BRANCH  20  21
ATOM     21  C   UNL     1       0.179   7.110  24.081  1.00  0.00     0.000 C 
BRANCH  21  22
ATOM     22  C   UNL     1       0.554   8.345  24.920  1.00  0.00     0.000 C 
BRANCH  22  23
ATOM     23  C   UNL     1       0.736   8.029  26.417  1.00  0.00     0.000 C 
BRANCH  23  24
ATOM     24  C   UNL     1       1.787   8.889  27.144  1.00  0.00    -0.000 C 
BRANCH  24  25
ATOM     25  C   UNL     1       3.219   8.342  26.999  1.00  0.00    -0.000 C 
BRANCH  25  26
ATOM     26  C   UNL     1       3.283   6.805  27.051  1.00  0.00    -0.000 C 
BRANCH  26  27
ATOM     27  C   UNL     1       4.099   6.151  25.921  1.00  0.00    -0.000 C 
BRANCH  27  28
ATOM     28  C   UNL     1       3.325   5.039  25.192  1.00  0.00    -0.000 C 
BRANCH  28  29
ATOM     29  C   UNL     1       2.103   4.546  25.985  1.00  0.00    -0.000 C 
BRANCH  29  30
ATOM     30  C   UNL     1       1.829   3.031  25.899  1.00  0.00    -0.000 C 
BRANCH  30  31
ATOM     31  C   UNL     1       3.085   2.156  26.092  1.00  0.00    -0.003 C 
ATOM     32  C   UNL     1       3.610   2.181  27.527  1.00  0.00     0.004 C 
ENDBRANCH  30  31
ENDBRANCH  29  30
ENDBRANCH  28  29
ENDBRANCH  27  28
ENDBRANCH  26  27
ENDBRANCH  25  26
ENDBRANCH  24  25
ENDBRANCH  23  24
ENDBRANCH  22  23
ENDBRANCH  21  22
ENDBRANCH  20  21
ENDBRANCH  19  20
ENDBRANCH  18  19
ENDBRANCH   1  18
TORSDOF 28
ENDMDL
