MODEL 1
REMARK VINA RESULT:    -3.390      0.000      0.000
REMARK INTER + INTRA:          -4.314
REMARK INTER:                  -4.084
REMARK INTRA:                  -0.231
REMARK UNBOUND:                -0.231
REMARK SMILES C=CCc1ccc(O)c(OC)c1
REMARK SMILES IDX 9 1 7 2 6 3 5 4 4 5 12 6 10 7 11 8 8 9 3 11 2 12 1 13
REMARK H PARENT 8 10
REMARK Flexibility Score: inf
ROOT
ATOM      1  C   UNL     1     121.576 107.825 116.082  1.00  0.00     0.160 A 
ATOM      2  C   UNL     1     120.490 108.707 115.989  1.00  0.00     0.157 A 
ATOM      3  C   UNL     1     119.845 109.155 117.150  1.00  0.00     0.050 A 
ATOM      4  C   UNL     1     120.277 108.723 118.406  1.00  0.00     0.008 A 
ATOM      5  C   UNL     1     121.355 107.832 118.516  1.00  0.00    -0.040 A 
ATOM      6  C   UNL     1     122.007 107.391 117.352  1.00  0.00     0.054 A 
ENDROOT
BRANCH   1   7
ATOM      7  O   UNL     1     122.199 107.404 114.897  1.00  0.00    -0.493 OA
ATOM      8  C   UNL     1     123.587 107.112 114.776  1.00  0.00     0.278 C 
ENDBRANCH   1   7
BRANCH   2   9
ATOM      9  O   UNL     1     120.057 109.139 114.736  1.00  0.00    -0.504 OA
ATOM     10  H   UNL     1     119.629 110.047 114.607  1.00  0.00     0.293 HD
ENDBRANCH   2   9
BRANCH   5  11
ATOM     11  C   UNL     1     121.837 107.393 119.873  1.00  0.00     0.062 C 
BRANCH  11  12
ATOM     12  C   UNL     1     120.854 107.786 120.940  1.00  0.00    -0.030 C 
ATOM     13  C   UNL     1     120.133 106.876 121.601  1.00  0.00     0.004 C 
ENDBRANCH  11  12
ENDBRANCH   5  11
TORSDOF 4
ENDMDL
MODEL 2
REMARK VINA RESULT:    -3.347     13.630     14.211
REMARK INTER + INTRA:          -4.262
REMARK INTER:                  -4.031
REMARK INTRA:                  -0.231
REMARK UNBOUND:                -0.231
REMARK SMILES C=CCc1ccc(O)c(OC)c1
REMARK SMILES IDX 9 1 7 2 6 3 5 4 4 5 12 6 10 7 11 8 8 9 3 11 2 12 1 13
REMARK H PARENT 8 10
REMARK Flexibility Score: inf
ROOT
ATOM      1  C   UNL     1     125.292 121.776 116.313  1.00  0.00     0.160 A 
ATOM      2  C   UNL     1     124.319 120.766 116.337  1.00  0.00     0.157 A 
ATOM      3  C   UNL     1     123.975 120.148 117.547  1.00  0.00     0.050 A 
ATOM      4  C   UNL     1     124.599 120.532 118.736  1.00  0.00     0.008 A 
ATOM      5  C   UNL     1     125.581 121.533 118.728  1.00  0.00    -0.040 A 
ATOM      6  C   UNL     1     125.919 122.159 117.516  1.00  0.00     0.054 A 
ENDROOT
BRANCH   1   7
ATOM      7  O   UNL     1     125.604 122.374 115.083  1.00  0.00    -0.493 OA
ATOM      8  C   UNL     1     125.891 123.759 114.910  1.00  0.00     0.278 C 
ENDBRANCH   1   7
BRANCH   2   9
ATOM      9  O   UNL     1     123.695 120.382 115.151  1.00  0.00    -0.504 OA
ATOM     10  H   UNL     1     123.843 119.465 114.746  1.00  0.00     0.293 HD
ENDBRANCH   2   9
BRANCH   5  11
ATOM     11  C   UNL     1     126.230 121.965 120.016  1.00  0.00     0.062 C 
BRANCH  11  12
ATOM     12  C   UNL     1     125.851 121.040 121.138  1.00  0.00    -0.030 C 
ATOM     13  C   UNL     1     126.773 120.474 121.923  1.00  0.00     0.004 C 
ENDBRANCH  11  12
ENDBRANCH   5  11
TORSDOF 4
ENDMDL
MODEL 3
REMARK VINA RESULT:    -3.312     13.340     13.990
REMARK INTER + INTRA:          -4.220
REMARK INTER:                  -3.987
REMARK INTRA:                  -0.232
REMARK UNBOUND:                -0.231
REMARK SMILES C=CCc1ccc(O)c(OC)c1
REMARK SMILES IDX 9 1 7 2 6 3 5 4 4 5 12 6 10 7 11 8 8 9 3 11 2 12 1 13
REMARK H PARENT 8 10
REMARK Flexibility Score: inf
ROOT
ATOM      1  C   UNL     1     107.719 111.414 116.033  1.00  0.00     0.160 A 
ATOM      2  C   UNL     1     108.654 112.455 115.956  1.00  0.00     0.157 A 
ATOM      3  C   UNL     1     109.096 113.093 117.124  1.00  0.00     0.050 A 
ATOM      4  C   UNL     1     108.606 112.697 118.370  1.00  0.00     0.008 A 
ATOM      5  C   UNL     1     107.662 111.664 118.463  1.00  0.00    -0.040 A 
ATOM      6  C   UNL     1     107.226 111.019 117.294  1.00  0.00     0.054 A 
ENDROOT
BRANCH   1   7
ATOM      7  O   UNL     1     107.306 110.797 114.842  1.00  0.00    -0.493 OA
ATOM      8  C   UNL     1     107.243 109.388 114.644  1.00  0.00     0.278 C 
ENDBRANCH   1   7
BRANCH   2   9
ATOM      9  O   UNL     1     109.145 112.851 114.713  1.00  0.00    -0.504 OA
ATOM     10  H   UNL     1     109.597 113.748 114.581  1.00  0.00     0.293 HD
ENDBRANCH   2   9
BRANCH   5  11
ATOM     11  C   UNL     1     107.158 111.220 119.812  1.00  0.00     0.062 C 
BRANCH  11  12
ATOM     12  C   UNL     1     107.686 112.116 120.897  1.00  0.00    -0.030 C 
ATOM     13  C   UNL     1     106.875 112.890 121.625  1.00  0.00     0.004 C 
ENDBRANCH  11  12
ENDBRANCH   5  11
TORSDOF 4
ENDMDL
MODEL 4
REMARK VINA RESULT:    -3.239     18.398     20.071
REMARK INTER + INTRA:          -4.132
REMARK INTER:                  -3.897
REMARK INTRA:                  -0.235
REMARK UNBOUND:                -0.231
REMARK SMILES C=CCc1ccc(O)c(OC)c1
REMARK SMILES IDX 9 1 7 2 6 3 5 4 4 5 12 6 10 7 11 8 8 9 3 11 2 12 1 13
REMARK H PARENT 8 10
REMARK Flexibility Score: inf
ROOT
ATOM      1  C   UNL     1     111.412 125.432 116.100  1.00  0.00     0.160 A 
ATOM      2  C   UNL     1     112.398 124.439 116.170  1.00  0.00     0.157 A 
ATOM      3  C   UNL     1     113.031 124.158 117.388  1.00  0.00     0.050 A 
ATOM      4  C   UNL     1     112.684 124.868 118.541  1.00  0.00     0.008 A 
ATOM      5  C   UNL     1     111.707 125.872 118.486  1.00  0.00    -0.040 A 
ATOM      6  C   UNL     1     111.067 126.146 117.265  1.00  0.00     0.054 A 
ENDROOT
BRANCH   1   7
ATOM      7  O   UNL     1     110.798 125.679 114.863  1.00  0.00    -0.493 OA
ATOM      8  C   UNL     1     109.392 125.810 114.672  1.00  0.00     0.278 C 
ENDBRANCH   1   7
BRANCH   2   9
ATOM      9  O   UNL     1     112.745 123.729 115.021  1.00  0.00    -0.504 OA
ATOM     10  H   UNL     1     112.096 123.616 114.251  1.00  0.00     0.293 HD
ENDBRANCH   2   9
BRANCH   5  11
ATOM     11  C   UNL     1     111.315 126.614 119.736  1.00  0.00     0.062 C 
BRANCH  11  12
ATOM     12  C   UNL     1     112.055 126.075 120.928  1.00  0.00    -0.030 C 
ATOM     13  C   UNL     1     112.748 126.874 121.745  1.00  0.00     0.004 C 
ENDBRANCH  11  12
ENDBRANCH   5  11
TORSDOF 4
ENDMDL
MODEL 5
REMARK VINA RESULT:    -3.228     13.680     14.419
REMARK INTER + INTRA:          -4.119
REMARK INTER:                  -3.886
REMARK INTRA:                  -0.233
REMARK UNBOUND:                -0.231
REMARK SMILES C=CCc1ccc(O)c(OC)c1
REMARK SMILES IDX 9 1 7 2 6 3 5 4 4 5 12 6 10 7 11 8 8 9 3 11 2 12 1 13
REMARK H PARENT 8 10
REMARK Flexibility Score: inf
ROOT
ATOM      1  C   UNL     1     125.925 122.746 116.957  1.00  0.00     0.160 A 
ATOM      2  C   UNL     1     125.670 122.244 115.673  1.00  0.00     0.157 A 
ATOM      3  C   UNL     1     124.940 121.059 115.513  1.00  0.00     0.050 A 
ATOM      4  C   UNL     1     124.464 120.368 116.630  1.00  0.00     0.008 A 
ATOM      5  C   UNL     1     124.720 120.852 117.922  1.00  0.00    -0.040 A 
ATOM      6  C   UNL     1     125.443 122.046 118.081  1.00  0.00     0.054 A 
ENDROOT
BRANCH   1   7
ATOM      7  O   UNL     1     126.654 123.940 117.075  1.00  0.00    -0.493 OA
ATOM      8  C   UNL     1     126.075 125.216 117.331  1.00  0.00     0.278 C 
ENDBRANCH   1   7
BRANCH   2   9
ATOM      9  O   UNL     1     126.144 122.932 114.557  1.00  0.00    -0.504 OA
ATOM     10  H   UNL     1     126.000 123.929 114.447  1.00  0.00     0.293 HD
ENDBRANCH   2   9
BRANCH   5  11
ATOM     11  C   UNL     1     124.179 120.121 119.122  1.00  0.00     0.062 C 
BRANCH  11  12
ATOM     12  C   UNL     1     123.172 119.087 118.706  1.00  0.00    -0.030 C 
ATOM     13  C   UNL     1     123.043 117.928 119.360  1.00  0.00     0.004 C 
ENDBRANCH  11  12
ENDBRANCH   5  11
TORSDOF 4
ENDMDL
MODEL 6
REMARK VINA RESULT:    -3.222      1.876      2.805
REMARK INTER + INTRA:          -4.112
REMARK INTER:                  -3.884
REMARK INTRA:                  -0.228
REMARK UNBOUND:                -0.231
REMARK SMILES C=CCc1ccc(O)c(OC)c1
REMARK SMILES IDX 9 1 7 2 6 3 5 4 4 5 12 6 10 7 11 8 8 9 3 11 2 12 1 13
REMARK H PARENT 8 10
REMARK Flexibility Score: inf
ROOT
ATOM      1  C   UNL     1     122.371 107.533 116.842  1.00  0.00     0.160 A 
ATOM      2  C   UNL     1     121.814 107.653 115.561  1.00  0.00     0.157 A 
ATOM      3  C   UNL     1     120.588 108.309 115.385  1.00  0.00     0.050 A 
ATOM      4  C   UNL     1     119.912 108.845 116.484  1.00  0.00     0.008 A 
ATOM      5  C   UNL     1     120.451 108.724 117.773  1.00  0.00    -0.040 A 
ATOM      6  C   UNL     1     121.685 108.075 117.947  1.00  0.00     0.054 A 
ENDROOT
BRANCH   1   7
ATOM      7  O   UNL     1     123.603 106.875 116.976  1.00  0.00    -0.493 OA
ATOM      8  C   UNL     1     124.572 107.173 117.977  1.00  0.00     0.278 C 
ENDBRANCH   1   7
BRANCH   2   9
ATOM      9  O   UNL     1     122.487 107.120 114.463  1.00  0.00    -0.504 OA
ATOM     10  H   UNL     1     123.443 106.792 114.535  1.00  0.00     0.293 HD
ENDBRANCH   2   9
BRANCH   5  11
ATOM     11  C   UNL     1     119.734 109.329 118.951  1.00  0.00     0.062 C 
BRANCH  11  12
ATOM     12  C   UNL     1     118.616 110.222 118.492  1.00  0.00    -0.030 C 
ATOM     13  C   UNL     1     117.369 110.080 118.952  1.00  0.00     0.004 C 
ENDBRANCH  11  12
ENDBRANCH   5  11
TORSDOF 4
ENDMDL
MODEL 7
REMARK VINA RESULT:    -3.169      8.042     10.254
REMARK INTER + INTRA:          -4.048
REMARK INTER:                  -3.834
REMARK INTRA:                  -0.214
REMARK UNBOUND:                -0.231
REMARK SMILES C=CCc1ccc(O)c(OC)c1
REMARK SMILES IDX 9 1 7 2 6 3 5 4 4 5 12 6 10 7 11 8 8 9 3 11 2 12 1 13
REMARK H PARENT 8 10
REMARK Flexibility Score: inf
ROOT
ATOM      1  C   UNL     1     119.067 115.248 114.698  1.00  0.00     0.160 A 
ATOM      2  C   UNL     1     119.476 114.109 113.991  1.00  0.00     0.157 A 
ATOM      3  C   UNL     1     119.688 114.177 112.607  1.00  0.00     0.050 A 
ATOM      4  C   UNL     1     119.488 115.379 111.923  1.00  0.00     0.008 A 
ATOM      5  C   UNL     1     119.068 116.524 112.614  1.00  0.00    -0.040 A 
ATOM      6  C   UNL     1     118.866 116.458 114.003  1.00  0.00     0.054 A 
ENDROOT
BRANCH   1   7
ATOM      7  O   UNL     1     118.872 115.140 116.084  1.00  0.00    -0.493 OA
ATOM      8  C   UNL     1     119.797 115.597 117.066  1.00  0.00     0.278 C 
ENDBRANCH   1   7
BRANCH   2   9
ATOM      9  O   UNL     1     119.676 112.909 114.672  1.00  0.00    -0.504 OA
ATOM     10  H   UNL     1     119.472 112.014 114.242  1.00  0.00     0.293 HD
ENDBRANCH   2   9
BRANCH   5  11
ATOM     11  C   UNL     1     118.884 117.825 111.878  1.00  0.00     0.062 C 
BRANCH  11  12
ATOM     12  C   UNL     1     118.372 118.892 112.804  1.00  0.00    -0.030 C 
ATOM     13  C   UNL     1     118.794 120.158 112.720  1.00  0.00     0.004 C 
ENDBRANCH  11  12
ENDBRANCH   5  11
TORSDOF 4
ENDMDL
MODEL 8
REMARK VINA RESULT:    -3.147      8.850     10.125
REMARK INTER + INTRA:          -4.021
REMARK INTER:                  -3.820
REMARK INTRA:                  -0.201
REMARK UNBOUND:                -0.231
REMARK SMILES C=CCc1ccc(O)c(OC)c1
REMARK SMILES IDX 9 1 7 2 6 3 5 4 4 5 12 6 10 7 11 8 8 9 3 11 2 12 1 13
REMARK H PARENT 8 10
REMARK Flexibility Score: inf
ROOT
ATOM      1  C   UNL     1     114.823 114.039 114.666  1.00  0.00     0.160 A 
ATOM      2  C   UNL     1     113.778 113.515 113.892  1.00  0.00     0.157 A 
ATOM      3  C   UNL     1     113.970 113.265 112.526  1.00  0.00     0.050 A 
ATOM      4  C   UNL     1     115.202 113.539 111.927  1.00  0.00     0.008 A 
ATOM      5  C   UNL     1     116.254 114.073 112.685  1.00  0.00    -0.040 A 
ATOM      6  C   UNL     1     116.064 114.314 114.056  1.00  0.00     0.054 A 
ENDROOT
BRANCH   1   7
ATOM      7  O   UNL     1     114.594 114.269 116.031  1.00  0.00    -0.493 OA
ATOM      8  C   UNL     1     114.241 115.532 116.588  1.00  0.00     0.278 C 
ENDBRANCH   1   7
BRANCH   2   9
ATOM      9  O   UNL     1     112.548 113.242 114.489  1.00  0.00    -0.504 OA
ATOM     10  H   UNL     1     112.463 112.580 115.251  1.00  0.00     0.293 HD
ENDBRANCH   2   9
BRANCH   5  11
ATOM     11  C   UNL     1     117.590 114.338 112.042  1.00  0.00     0.062 C 
BRANCH  11  12
ATOM     12  C   UNL     1     118.669 114.446 113.082  1.00  0.00    -0.030 C 
ATOM     13  C   UNL     1     119.964 114.419 112.756  1.00  0.00     0.004 C 
ENDBRANCH  11  12
ENDBRANCH   5  11
TORSDOF 4
ENDMDL
MODEL 9
REMARK VINA RESULT:    -3.112      9.764     11.675
REMARK INTER + INTRA:          -3.980
REMARK INTER:                  -3.753
REMARK INTRA:                  -0.227
REMARK UNBOUND:                -0.231
REMARK SMILES C=CCc1ccc(O)c(OC)c1
REMARK SMILES IDX 9 1 7 2 6 3 5 4 4 5 12 6 10 7 11 8 8 9 3 11 2 12 1 13
REMARK H PARENT 8 10
REMARK Flexibility Score: inf
ROOT
ATOM      1  C   UNL     1     119.282 118.917 114.998  1.00  0.00     0.160 A 
ATOM      2  C   UNL     1     119.532 119.972 114.110  1.00  0.00     0.157 A 
ATOM      3  C   UNL     1     119.397 119.778 112.729  1.00  0.00     0.050 A 
ATOM      4  C   UNL     1     119.015 118.531 112.228  1.00  0.00     0.008 A 
ATOM      5  C   UNL     1     118.771 117.462 113.103  1.00  0.00    -0.040 A 
ATOM      6  C   UNL     1     118.897 117.661 114.488  1.00  0.00     0.054 A 
ENDROOT
BRANCH   1   7
ATOM      7  O   UNL     1     119.422 119.154 116.374  1.00  0.00    -0.493 OA
ATOM      8  C   UNL     1     119.421 118.137 117.372  1.00  0.00     0.278 C 
ENDBRANCH   1   7
BRANCH   2   9
ATOM      9  O   UNL     1     119.914 121.217 114.608  1.00  0.00    -0.504 OA
ATOM     10  H   UNL     1     119.556 122.079 114.215  1.00  0.00     0.293 HD
ENDBRANCH   2   9
BRANCH   5  11
ATOM     11  C   UNL     1     118.329 116.128 112.561  1.00  0.00     0.062 C 
BRANCH  11  12
ATOM     12  C   UNL     1     119.505 115.348 112.044  1.00  0.00    -0.030 C 
ATOM     13  C   UNL     1     120.079 114.381 112.766  1.00  0.00     0.004 C 
ENDBRANCH  11  12
ENDBRANCH   5  11
TORSDOF 4
ENDMDL
