MODEL 1
REMARK VINA RESULT:    -5.277      0.000      0.000
REMARK INTER + INTRA:         -10.692
REMARK INTER:                  -9.596
REMARK INTRA:                  -1.096
REMARK UNBOUND:                -1.096
REMARK SMILES CCCCCCCCCCCCCC[C@H](C)C(=O)[O-]
REMARK SMILES IDX 9 1 10 2 11 3 12 4 13 5 14 6 15 7 16 8 17 9 18 10 19 11 8 12
REMARK SMILES IDX 7 13 6 14 5 15 4 16 3 17 2 18 1 19
REMARK H PARENT
REMARK Flexibility Score: inf
ROOT
ATOM      1  C   UNL     1      42.509  55.626  17.607  1.00  0.00     0.000 C 
ENDROOT
BRANCH   1   2
ATOM      2  C   UNL     1      43.015  54.210  17.290  1.00  0.00     0.000 C 
BRANCH   2   3
ATOM      3  C   UNL     1      42.868  53.857  15.801  1.00  0.00     0.000 C 
BRANCH   3   4
ATOM      4  C   UNL     1      44.234  53.530  15.177  1.00  0.00     0.000 C 
BRANCH   4   5
ATOM      5  C   UNL     1      44.993  54.784  14.711  1.00  0.00     0.001 C 
BRANCH   5   6
ATOM      6  C   UNL     1      46.340  54.962  15.441  1.00  0.00     0.009 C 
BRANCH   6   7
ATOM      7  C   UNL     1      46.271  55.895  16.670  1.00  0.00     0.032 C 
ATOM      8  C   UNL     1      45.654  57.260  16.330  1.00  0.00     0.014 C 
BRANCH   7   9
ATOM      9  C   UNL     1      47.615  56.029  17.345  1.00  0.00     0.044 C 
ATOM     10  O   UNL     1      48.097  57.174  17.559  1.00  0.00    -0.550 OA
ATOM     11  O   UNL     1      48.315  54.907  17.772  1.00  0.00    -0.550 OA
ENDBRANCH   7   9
ENDBRANCH   6   7
ENDBRANCH   5   6
ENDBRANCH   4   5
ENDBRANCH   3   4
ENDBRANCH   2   3
ENDBRANCH   1   2
BRANCH   1  12
ATOM     12  C   UNL     1      41.064  55.855  17.131  1.00  0.00     0.000 C 
BRANCH  12  13
ATOM     13  C   UNL     1      40.068  55.996  18.293  1.00  0.00    -0.000 C 
BRANCH  13  14
ATOM     14  C   UNL     1      38.987  57.055  18.028  1.00  0.00    -0.000 C 
BRANCH  14  15
ATOM     15  C   UNL     1      38.050  56.660  16.874  1.00  0.00    -0.000 C 
BRANCH  15  16
ATOM     16  C   UNL     1      36.705  57.405  16.926  1.00  0.00    -0.000 C 
BRANCH  16  17
ATOM     17  C   UNL     1      36.120  57.684  15.530  1.00  0.00    -0.000 C 
BRANCH  17  18
ATOM     18  C   UNL     1      34.772  57.000  15.243  1.00  0.00    -0.003 C 
ATOM     19  C   UNL     1      34.230  56.216  16.437  1.00  0.00     0.004 C 
ENDBRANCH  17  18
ENDBRANCH  16  17
ENDBRANCH  15  16
ENDBRANCH  14  15
ENDBRANCH  13  14
ENDBRANCH  12  13
ENDBRANCH   1  12
TORSDOF 14
ENDMDL
MODEL 2
REMARK VINA RESULT:    -5.214      5.954     10.538
REMARK INTER + INTRA:         -10.577
REMARK INTER:                  -9.572
REMARK INTRA:                  -1.005
REMARK UNBOUND:                -1.096
REMARK SMILES CCCCCCCCCCCCCC[C@H](C)C(=O)[O-]
REMARK SMILES IDX 9 1 10 2 11 3 12 4 13 5 14 6 15 7 16 8 17 9 18 10 19 11 8 12
REMARK SMILES IDX 7 13 6 14 5 15 4 16 3 17 2 18 1 19
REMARK H PARENT
REMARK Flexibility Score: inf
ROOT
ATOM      1  C   UNL     1      36.423  57.038  17.170  1.00  0.00     0.000 C 
ENDROOT
BRANCH   1   2
ATOM      2  C   UNL     1      35.776  57.965  16.129  1.00  0.00     0.000 C 
BRANCH   2   3
ATOM      3  C   UNL     1      36.102  57.543  14.687  1.00  0.00     0.000 C 
BRANCH   3   4
ATOM      4  C   UNL     1      34.816  57.299  13.882  1.00  0.00     0.000 C 
BRANCH   4   5
ATOM      5  C   UNL     1      34.059  56.038  14.333  1.00  0.00     0.001 C 
BRANCH   5   6
ATOM      6  C   UNL     1      32.716  56.370  15.015  1.00  0.00     0.009 C 
BRANCH   6   7
ATOM      7  C   UNL     1      32.700  56.101  16.537  1.00  0.00     0.032 C 
ATOM      8  C   UNL     1      33.185  54.685  16.882  1.00  0.00     0.014 C 
BRANCH   7   9
ATOM      9  C   UNL     1      31.351  56.406  17.142  1.00  0.00     0.044 C 
ATOM     10  O   UNL     1      30.750  55.521  17.811  1.00  0.00    -0.550 OA
ATOM     11  O   UNL     1      30.775  57.663  17.008  1.00  0.00    -0.550 OA
ENDBRANCH   7   9
ENDBRANCH   6   7
ENDBRANCH   5   6
ENDBRANCH   4   5
ENDBRANCH   3   4
ENDBRANCH   2   3
ENDBRANCH   1   2
BRANCH   1  12
ATOM     12  C   UNL     1      37.891  56.719  16.840  1.00  0.00     0.000 C 
BRANCH  12  13
ATOM     13  C   UNL     1      38.859  57.142  17.956  1.00  0.00    -0.000 C 
BRANCH  13  14
ATOM     14  C   UNL     1      39.901  56.060  18.285  1.00  0.00    -0.000 C 
BRANCH  14  15
ATOM     15  C   UNL     1      40.986  55.943  17.202  1.00  0.00    -0.000 C 
BRANCH  15  16
ATOM     16  C   UNL     1      42.337  55.476  17.770  1.00  0.00    -0.000 C 
BRANCH  16  17
ATOM     17  C   UNL     1      43.298  54.962  16.683  1.00  0.00    -0.000 C 
BRANCH  17  18
ATOM     18  C   UNL     1      43.034  53.521  16.212  1.00  0.00    -0.003 C 
ATOM     19  C   UNL     1      43.388  53.294  14.743  1.00  0.00     0.004 C 
ENDBRANCH  17  18
ENDBRANCH  16  17
ENDBRANCH  15  16
ENDBRANCH  14  15
ENDBRANCH  13  14
ENDBRANCH  12  13
ENDBRANCH   1  12
TORSDOF 14
ENDMDL
MODEL 3
REMARK VINA RESULT:    -5.164      4.686      9.542
REMARK INTER + INTRA:         -10.485
REMARK INTER:                  -9.672
REMARK INTRA:                  -0.813
REMARK UNBOUND:                -1.096
REMARK SMILES CCCCCCCCCCCCCC[C@H](C)C(=O)[O-]
REMARK SMILES IDX 9 1 10 2 11 3 12 4 13 5 14 6 15 7 16 8 17 9 18 10 19 11 8 12
REMARK SMILES IDX 7 13 6 14 5 15 4 16 3 17 2 18 1 19
REMARK H PARENT
REMARK Flexibility Score: inf
ROOT
ATOM      1  C   UNL     1      42.432  55.610  17.327  1.00  0.00     0.000 C 
ENDROOT
BRANCH   1   2
ATOM      2  C   UNL     1      40.940  55.872  17.070  1.00  0.00     0.000 C 
BRANCH   2   3
ATOM      3  C   UNL     1      40.171  56.190  18.363  1.00  0.00     0.000 C 
BRANCH   3   4
ATOM      4  C   UNL     1      38.916  57.025  18.065  1.00  0.00     0.000 C 
BRANCH   4   5
ATOM      5  C   UNL     1      38.153  56.533  16.823  1.00  0.00     0.001 C 
BRANCH   5   6
ATOM      6  C   UNL     1      36.757  57.176  16.696  1.00  0.00     0.009 C 
BRANCH   6   7
ATOM      7  C   UNL     1      36.065  56.913  15.339  1.00  0.00     0.032 C 
ATOM      8  C   UNL     1      36.271  58.069  14.348  1.00  0.00     0.014 C 
BRANCH   7   9
ATOM      9  C   UNL     1      34.606  56.566  15.516  1.00  0.00     0.044 C 
ATOM     10  O   UNL     1      34.225  55.978  16.565  1.00  0.00    -0.550 OA
ATOM     11  O   UNL     1      33.666  56.920  14.557  1.00  0.00    -0.550 OA
ENDBRANCH   7   9
ENDBRANCH   6   7
ENDBRANCH   5   6
ENDBRANCH   4   5
ENDBRANCH   3   4
ENDBRANCH   2   3
ENDBRANCH   1   2
BRANCH   1  12
ATOM     12  C   UNL     1      42.796  54.121  17.206  1.00  0.00     0.000 C 
BRANCH  12  13
ATOM     13  C   UNL     1      42.738  53.609  15.757  1.00  0.00    -0.000 C 
BRANCH  13  14
ATOM     14  C   UNL     1      44.130  53.350  15.159  1.00  0.00    -0.000 C 
BRANCH  14  15
ATOM     15  C   UNL     1      44.830  54.647  14.719  1.00  0.00    -0.000 C 
BRANCH  15  16
ATOM     16  C   UNL     1      46.250  54.775  15.294  1.00  0.00    -0.000 C 
BRANCH  16  17
ATOM     17  C   UNL     1      46.368  55.879  16.360  1.00  0.00    -0.000 C 
BRANCH  17  18
ATOM     18  C   UNL     1      47.657  55.836  17.199  1.00  0.00    -0.003 C 
ATOM     19  C   UNL     1      48.158  57.223  17.601  1.00  0.00     0.004 C 
ENDBRANCH  17  18
ENDBRANCH  16  17
ENDBRANCH  15  16
ENDBRANCH  14  15
ENDBRANCH  13  14
ENDBRANCH  12  13
ENDBRANCH   1  12
TORSDOF 14
ENDMDL
MODEL 4
REMARK VINA RESULT:    -5.090      1.273      2.175
REMARK INTER + INTRA:         -10.352
REMARK INTER:                  -9.492
REMARK INTRA:                  -0.860
REMARK UNBOUND:                -1.096
REMARK SMILES CCCCCCCCCCCCCC[C@H](C)C(=O)[O-]
REMARK SMILES IDX 9 1 10 2 11 3 12 4 13 5 14 6 15 7 16 8 17 9 18 10 19 11 8 12
REMARK SMILES IDX 7 13 6 14 5 15 4 16 3 17 2 18 1 19
REMARK H PARENT
REMARK Flexibility Score: inf
ROOT
ATOM      1  C   UNL     1      42.940  53.759  16.903  1.00  0.00     0.000 C 
ENDROOT
BRANCH   1   2
ATOM      2  C   UNL     1      42.974  53.497  15.389  1.00  0.00     0.000 C 
BRANCH   2   3
ATOM      3  C   UNL     1      44.330  53.862  14.762  1.00  0.00     0.000 C 
BRANCH   3   4
ATOM      4  C   UNL     1      45.214  52.615  14.602  1.00  0.00     0.000 C 
BRANCH   4   5
ATOM      5  C   UNL     1      46.711  52.953  14.503  1.00  0.00     0.001 C 
BRANCH   5   6
ATOM      6  C   UNL     1      46.986  54.462  14.664  1.00  0.00     0.009 C 
BRANCH   6   7
ATOM      7  C   UNL     1      48.086  54.794  15.697  1.00  0.00     0.032 C 
ATOM      8  C   UNL     1      48.871  53.548  16.131  1.00  0.00     0.014 C 
BRANCH   7   9
ATOM      9  C   UNL     1      47.531  55.559  16.875  1.00  0.00     0.044 C 
ATOM     10  O   UNL     1      48.306  55.942  17.794  1.00  0.00    -0.550 OA
ATOM     11  O   UNL     1      46.183  55.885  16.944  1.00  0.00    -0.550 OA
ENDBRANCH   7   9
ENDBRANCH   6   7
ENDBRANCH   5   6
ENDBRANCH   4   5
ENDBRANCH   3   4
ENDBRANCH   2   3
ENDBRANCH   1   2
BRANCH   1  12
ATOM     12  C   UNL     1      42.685  55.238  17.237  1.00  0.00     0.000 C 
BRANCH  12  13
ATOM     13  C   UNL     1      41.232  55.667  16.975  1.00  0.00    -0.000 C 
BRANCH  13  14
ATOM     14  C   UNL     1      40.452  55.955  18.268  1.00  0.00    -0.000 C 
BRANCH  14  15
ATOM     15  C   UNL     1      39.349  57.007  18.064  1.00  0.00    -0.000 C 
BRANCH  15  16
ATOM     16  C   UNL     1      38.258  56.535  17.088  1.00  0.00    -0.000 C 
BRANCH  16  17
ATOM     17  C   UNL     1      36.989  57.405  17.139  1.00  0.00    -0.000 C 
BRANCH  17  18
ATOM     18  C   UNL     1      35.953  57.106  16.043  1.00  0.00    -0.003 C 
ATOM     19  C   UNL     1      36.058  58.049  14.844  1.00  0.00     0.004 C 
ENDBRANCH  17  18
ENDBRANCH  16  17
ENDBRANCH  15  16
ENDBRANCH  14  15
ENDBRANCH  13  14
ENDBRANCH  12  13
ENDBRANCH   1  12
TORSDOF 14
ENDMDL
MODEL 5
REMARK VINA RESULT:    -5.074      5.899     10.544
REMARK INTER + INTRA:         -10.323
REMARK INTER:                  -9.607
REMARK INTRA:                  -0.715
REMARK UNBOUND:                -1.096
REMARK SMILES CCCCCCCCCCCCCC[C@H](C)C(=O)[O-]
REMARK SMILES IDX 9 1 10 2 11 3 12 4 13 5 14 6 15 7 16 8 17 9 18 10 19 11 8 12
REMARK SMILES IDX 7 13 6 14 5 15 4 16 3 17 2 18 1 19
REMARK H PARENT
REMARK Flexibility Score: inf
ROOT
ATOM      1  C   UNL     1      38.893  57.131  17.970  1.00  0.00     0.000 C 
ENDROOT
BRANCH   1   2
ATOM      2  C   UNL     1      37.905  56.707  16.872  1.00  0.00     0.000 C 
BRANCH   2   3
ATOM      3  C   UNL     1      36.466  57.154  17.174  1.00  0.00     0.000 C 
BRANCH   3   4
ATOM      4  C   UNL     1      35.780  57.691  15.909  1.00  0.00     0.000 C 
BRANCH   4   5
ATOM      5  C   UNL     1      35.171  56.575  15.041  1.00  0.00     0.001 C 
BRANCH   5   6
ATOM      6  C   UNL     1      33.629  56.618  15.023  1.00  0.00     0.009 C 
BRANCH   6   7
ATOM      7  C   UNL     1      32.974  56.260  16.376  1.00  0.00     0.032 C 
ATOM      8  C   UNL     1      33.334  54.840  16.839  1.00  0.00     0.014 C 
BRANCH   7   9
ATOM      9  C   UNL     1      31.483  56.492  16.352  1.00  0.00     0.044 C 
ATOM     10  O   UNL     1      30.883  56.593  15.247  1.00  0.00    -0.550 OA
ATOM     11  O   UNL     1      30.750  56.557  17.531  1.00  0.00    -0.550 OA
ENDBRANCH   7   9
ENDBRANCH   6   7
ENDBRANCH   5   6
ENDBRANCH   4   5
ENDBRANCH   3   4
ENDBRANCH   2   3
ENDBRANCH   1   2
BRANCH   1  12
ATOM     12  C   UNL     1      39.929  56.039  18.282  1.00  0.00     0.000 C 
BRANCH  12  13
ATOM     13  C   UNL     1      41.068  55.985  17.251  1.00  0.00    -0.000 C 
BRANCH  13  14
ATOM     14  C   UNL     1      42.429  55.649  17.882  1.00  0.00    -0.000 C 
BRANCH  14  15
ATOM     15  C   UNL     1      43.377  54.951  16.892  1.00  0.00    -0.000 C 
BRANCH  15  16
ATOM     16  C   UNL     1      42.802  53.628  16.360  1.00  0.00    -0.000 C 
BRANCH  16  17
ATOM     17  C   UNL     1      43.520  53.129  15.093  1.00  0.00    -0.000 C 
BRANCH  17  18
ATOM     18  C   UNL     1      44.980  53.592  14.949  1.00  0.00    -0.003 C 
ATOM     19  C   UNL     1      45.899  52.514  14.376  1.00  0.00     0.004 C 
ENDBRANCH  17  18
ENDBRANCH  16  17
ENDBRANCH  15  16
ENDBRANCH  14  15
ENDBRANCH  13  14
ENDBRANCH  12  13
ENDBRANCH   1  12
TORSDOF 14
ENDMDL
MODEL 6
REMARK VINA RESULT:    -5.063      5.673     10.654
REMARK INTER + INTRA:         -10.303
REMARK INTER:                  -9.705
REMARK INTRA:                  -0.598
REMARK UNBOUND:                -1.096
REMARK SMILES CCCCCCCCCCCCCC[C@H](C)C(=O)[O-]
REMARK SMILES IDX 9 1 10 2 11 3 12 4 13 5 14 6 15 7 16 8 17 9 18 10 19 11 8 12
REMARK SMILES IDX 7 13 6 14 5 15 4 16 3 17 2 18 1 19
REMARK H PARENT
REMARK Flexibility Score: inf
ROOT
ATOM      1  C   UNL     1      38.938  57.104  18.077  1.00  0.00     0.000 C 
ENDROOT
BRANCH   1   2
ATOM      2  C   UNL     1      38.041  56.685  16.902  1.00  0.00     0.000 C 
BRANCH   2   3
ATOM      3  C   UNL     1      36.627  57.281  17.005  1.00  0.00     0.000 C 
BRANCH   3   4
ATOM      4  C   UNL     1      36.125  57.746  15.629  1.00  0.00     0.000 C 
BRANCH   4   5
ATOM      5  C   UNL     1      34.848  57.016  15.181  1.00  0.00     0.001 C 
BRANCH   5   6
ATOM      6  C   UNL     1      33.925  56.663  16.365  1.00  0.00     0.009 C 
BRANCH   6   7
ATOM      7  C   UNL     1      32.563  56.065  15.944  1.00  0.00     0.032 C 
ATOM      8  C   UNL     1      32.138  56.520  14.540  1.00  0.00     0.014 C 
BRANCH   7   9
ATOM      9  C   UNL     1      31.495  56.330  16.978  1.00  0.00     0.044 C 
ATOM     10  O   UNL     1      30.840  57.407  16.941  1.00  0.00    -0.550 OA
ATOM     11  O   UNL     1      31.194  55.385  17.952  1.00  0.00    -0.550 OA
ENDBRANCH   7   9
ENDBRANCH   6   7
ENDBRANCH   5   6
ENDBRANCH   4   5
ENDBRANCH   3   4
ENDBRANCH   2   3
ENDBRANCH   1   2
BRANCH   1  12
ATOM     12  C   UNL     1      40.040  56.072  18.371  1.00  0.00     0.000 C 
BRANCH  12  13
ATOM     13  C   UNL     1      41.045  55.928  17.217  1.00  0.00    -0.000 C 
BRANCH  13  14
ATOM     14  C   UNL     1      42.452  55.535  17.695  1.00  0.00    -0.000 C 
BRANCH  14  15
ATOM     15  C   UNL     1      43.043  54.371  16.882  1.00  0.00    -0.000 C 
BRANCH  15  16
ATOM     16  C   UNL     1      44.133  54.832  15.900  1.00  0.00    -0.000 C 
BRANCH  16  17
ATOM     17  C   UNL     1      45.314  55.529  16.599  1.00  0.00    -0.000 C 
BRANCH  17  18
ATOM     18  C   UNL     1      45.580  56.973  16.137  1.00  0.00    -0.003 C 
ATOM     19  C   UNL     1      46.874  57.556  16.703  1.00  0.00     0.004 C 
ENDBRANCH  17  18
ENDBRANCH  16  17
ENDBRANCH  15  16
ENDBRANCH  14  15
ENDBRANCH  13  14
ENDBRANCH  12  13
ENDBRANCH   1  12
TORSDOF 14
ENDMDL
MODEL 7
REMARK VINA RESULT:    -5.060      1.275      2.761
REMARK INTER + INTRA:         -10.297
REMARK INTER:                  -9.550
REMARK INTRA:                  -0.747
REMARK UNBOUND:                -1.096
REMARK SMILES CCCCCCCCCCCCCC[C@H](C)C(=O)[O-]
REMARK SMILES IDX 9 1 10 2 11 3 12 4 13 5 14 6 15 7 16 8 17 9 18 10 19 11 8 12
REMARK SMILES IDX 7 13 6 14 5 15 4 16 3 17 2 18 1 19
REMARK H PARENT
REMARK Flexibility Score: inf
ROOT
ATOM      1  C   UNL     1      40.132  56.092  18.272  1.00  0.00     0.000 C 
ENDROOT
BRANCH   1   2
ATOM      2  C   UNL     1      41.029  55.893  17.040  1.00  0.00     0.000 C 
BRANCH   2   3
ATOM      3  C   UNL     1      42.482  55.563  17.421  1.00  0.00     0.000 C 
BRANCH   3   4
ATOM      4  C   UNL     1      42.762  54.060  17.267  1.00  0.00     0.000 C 
BRANCH   4   5
ATOM      5  C   UNL     1      43.141  53.667  15.829  1.00  0.00     0.001 C 
BRANCH   5   6
ATOM      6  C   UNL     1      43.927  54.778  15.103  1.00  0.00     0.009 C 
BRANCH   6   7
ATOM      7  C   UNL     1      45.347  54.359  14.663  1.00  0.00     0.032 C 
ATOM      8  C   UNL     1      45.498  52.833  14.563  1.00  0.00     0.014 C 
BRANCH   7   9
ATOM      9  C   UNL     1      46.408  54.982  15.537  1.00  0.00     0.044 C 
ATOM     10  O   UNL     1      47.615  54.960  15.170  1.00  0.00    -0.550 OA
ATOM     11  O   UNL     1      46.072  55.618  16.726  1.00  0.00    -0.550 OA
ENDBRANCH   7   9
ENDBRANCH   6   7
ENDBRANCH   5   6
ENDBRANCH   4   5
ENDBRANCH   3   4
ENDBRANCH   2   3
ENDBRANCH   1   2
BRANCH   1  12
ATOM     12  C   UNL     1      38.999  57.099  18.017  1.00  0.00     0.000 C 
BRANCH  12  13
ATOM     13  C   UNL     1      38.035  56.645  16.910  1.00  0.00    -0.000 C 
BRANCH  13  14
ATOM     14  C   UNL     1      36.592  57.123  17.140  1.00  0.00    -0.000 C 
BRANCH  14  15
ATOM     15  C   UNL     1      35.993  57.800  15.896  1.00  0.00    -0.000 C 
BRANCH  15  16
ATOM     16  C   UNL     1      34.882  56.958  15.245  1.00  0.00    -0.000 C 
BRANCH  16  17
ATOM     17  C   UNL     1      33.911  56.351  16.273  1.00  0.00    -0.000 C 
BRANCH  17  18
ATOM     18  C   UNL     1      32.437  56.316  15.831  1.00  0.00    -0.003 C 
ATOM     19  C   UNL     1      31.465  56.693  16.949  1.00  0.00     0.004 C 
ENDBRANCH  17  18
ENDBRANCH  16  17
ENDBRANCH  15  16
ENDBRANCH  14  15
ENDBRANCH  13  14
ENDBRANCH  12  13
ENDBRANCH   1  12
TORSDOF 14
ENDMDL
MODEL 8
REMARK VINA RESULT:    -5.050      1.865      4.385
REMARK INTER + INTRA:         -10.278
REMARK INTER:                  -9.453
REMARK INTRA:                  -0.825
REMARK UNBOUND:                -1.096
REMARK SMILES CCCCCCCCCCCCCC[C@H](C)C(=O)[O-]
REMARK SMILES IDX 9 1 10 2 11 3 12 4 13 5 14 6 15 7 16 8 17 9 18 10 19 11 8 12
REMARK SMILES IDX 7 13 6 14 5 15 4 16 3 17 2 18 1 19
REMARK H PARENT
REMARK Flexibility Score: inf
ROOT
ATOM      1  C   UNL     1      37.937  56.721  16.793  1.00  0.00     0.000 C 
ENDROOT
BRANCH   1   2
ATOM      2  C   UNL     1      38.799  57.161  17.986  1.00  0.00     0.000 C 
BRANCH   2   3
ATOM      3  C   UNL     1      39.868  56.117  18.352  1.00  0.00     0.000 C 
BRANCH   3   4
ATOM      4  C   UNL     1      40.902  55.971  17.226  1.00  0.00     0.000 C 
BRANCH   4   5
ATOM      5  C   UNL     1      42.299  55.589  17.744  1.00  0.00     0.001 C 
BRANCH   5   6
ATOM      6  C   UNL     1      42.842  54.306  17.081  1.00  0.00     0.009 C 
BRANCH   6   7
ATOM      7  C   UNL     1      43.177  54.466  15.581  1.00  0.00     0.032 C 
ATOM      8  C   UNL     1      42.399  53.475  14.703  1.00  0.00     0.014 C 
BRANCH   7   9
ATOM      9  C   UNL     1      44.665  54.404  15.333  1.00  0.00     0.044 C 
ATOM     10  O   UNL     1      45.437  55.181  15.959  1.00  0.00    -0.550 OA
ATOM     11  O   UNL     1      45.205  53.475  14.452  1.00  0.00    -0.550 OA
ENDBRANCH   7   9
ENDBRANCH   6   7
ENDBRANCH   5   6
ENDBRANCH   4   5
ENDBRANCH   3   4
ENDBRANCH   2   3
ENDBRANCH   1   2
BRANCH   1  12
ATOM     12  C   UNL     1      36.462  57.128  16.952  1.00  0.00     0.000 C 
BRANCH  12  13
ATOM     13  C   UNL     1      35.972  58.046  15.822  1.00  0.00    -0.000 C 
BRANCH  13  14
ATOM     14  C   UNL     1      35.584  57.274  14.550  1.00  0.00    -0.000 C 
BRANCH  14  15
ATOM     15  C   UNL     1      34.076  56.980  14.480  1.00  0.00    -0.000 C 
BRANCH  15  16
ATOM     16  C   UNL     1      33.720  55.594  15.043  1.00  0.00    -0.000 C 
BRANCH  16  17
ATOM     17  C   UNL     1      33.046  55.664  16.425  1.00  0.00    -0.000 C 
BRANCH  17  18
ATOM     18  C   UNL     1      31.737  56.471  16.468  1.00  0.00    -0.003 C 
ATOM     19  C   UNL     1      30.852  56.120  17.664  1.00  0.00     0.004 C 
ENDBRANCH  17  18
ENDBRANCH  16  17
ENDBRANCH  15  16
ENDBRANCH  14  15
ENDBRANCH  13  14
ENDBRANCH  12  13
ENDBRANCH   1  12
TORSDOF 14
ENDMDL
MODEL 9
REMARK VINA RESULT:    -5.044      0.998      2.356
REMARK INTER + INTRA:         -10.268
REMARK INTER:                  -9.714
REMARK INTRA:                  -0.553
REMARK UNBOUND:                -1.096
REMARK SMILES CCCCCCCCCCCCCC[C@H](C)C(=O)[O-]
REMARK SMILES IDX 9 1 10 2 11 3 12 4 13 5 14 6 15 7 16 8 17 9 18 10 19 11 8 12
REMARK SMILES IDX 7 13 6 14 5 15 4 16 3 17 2 18 1 19
REMARK H PARENT
REMARK Flexibility Score: inf
ROOT
ATOM      1  C   UNL     1      39.898  56.126  18.307  1.00  0.00     0.000 C 
ENDROOT
BRANCH   1   2
ATOM      2  C   UNL     1      40.878  55.963  17.135  1.00  0.00     0.000 C 
BRANCH   2   3
ATOM      3  C   UNL     1      42.279  55.531  17.599  1.00  0.00     0.000 C 
BRANCH   3   4
ATOM      4  C   UNL     1      42.786  54.336  16.778  1.00  0.00     0.000 C 
BRANCH   4   5
ATOM      5  C   UNL     1      44.075  54.650  15.999  1.00  0.00     0.001 C 
BRANCH   5   6
ATOM      6  C   UNL     1      45.051  55.531  16.805  1.00  0.00     0.009 C 
BRANCH   6   7
ATOM      7  C   UNL     1      46.425  55.730  16.128  1.00  0.00     0.032 C 
ATOM      8  C   UNL     1      46.789  54.562  15.199  1.00  0.00     0.014 C 
BRANCH   7   9
ATOM      9  C   UNL     1      47.510  56.015  17.139  1.00  0.00     0.044 C 
ATOM     10  O   UNL     1      47.692  57.195  17.546  1.00  0.00    -0.550 OA
ATOM     11  O   UNL     1      48.287  54.989  17.662  1.00  0.00    -0.550 OA
ENDBRANCH   7   9
ENDBRANCH   6   7
ENDBRANCH   5   6
ENDBRANCH   4   5
ENDBRANCH   3   4
ENDBRANCH   2   3
ENDBRANCH   1   2
BRANCH   1  12
ATOM     12  C   UNL     1      38.797  57.159  18.013  1.00  0.00     0.000 C 
BRANCH  12  13
ATOM     13  C   UNL     1      37.840  56.708  16.898  1.00  0.00    -0.000 C 
BRANCH  13  14
ATOM     14  C   UNL     1      36.389  57.153  17.141  1.00  0.00    -0.000 C 
BRANCH  14  15
ATOM     15  C   UNL     1      35.726  57.710  15.869  1.00  0.00    -0.000 C 
BRANCH  15  16
ATOM     16  C   UNL     1      34.741  56.714  15.234  1.00  0.00    -0.000 C 
BRANCH  16  17
ATOM     17  C   UNL     1      33.745  56.126  16.250  1.00  0.00    -0.000 C 
BRANCH  17  18
ATOM     18  C   UNL     1      32.264  56.411  15.946  1.00  0.00    -0.003 C 
ATOM     19  C   UNL     1      31.371  56.336  17.183  1.00  0.00     0.004 C 
ENDBRANCH  17  18
ENDBRANCH  16  17
ENDBRANCH  15  16
ENDBRANCH  14  15
ENDBRANCH  13  14
ENDBRANCH  12  13
ENDBRANCH   1  12
TORSDOF 14
ENDMDL
