MODEL 1
REMARK VINA RESULT:    -4.063      0.000      0.000
REMARK INTER + INTRA:          -4.783
REMARK INTER:                  -4.775
REMARK INTRA:                  -0.007
REMARK UNBOUND:                -0.007
REMARK SMILES [NH3+][C@H](CO)C(=O)[O-]
REMARK SMILES IDX 3 1 2 2 1 3 5 7 6 8 7 9 4 10
REMARK H PARENT 1 4 1 5 1 6 4 11
REMARK Flexibility Score: inf
ROOT
ATOM      1  C   UNL     1      27.056   6.277   7.477  1.00  0.00     0.227 C 
ENDROOT
BRANCH   1   2
ATOM      2  C   UNL     1      25.814   5.997   8.337  1.00  0.00     0.253 C 
BRANCH   2   3
ATOM      3  N   UNL     1      25.009   4.918   7.750  1.00  0.00    -0.348 N 
ATOM      4  H   UNL     1      24.380   4.492   8.470  1.00  0.00     0.345 HD
ATOM      5  H   UNL     1      24.430   5.296   6.965  1.00  0.00     0.345 HD
ATOM      6  H   UNL     1      25.638   4.177   7.365  1.00  0.00     0.345 HD
ENDBRANCH   2   3
BRANCH   2   7
ATOM      7  C   UNL     1      26.212   5.647   9.748  1.00  0.00     0.102 C 
ATOM      8  O   UNL     1      26.471   4.455  10.063  1.00  0.00    -0.544 OA
ATOM      9  O   UNL     1      26.308   6.645  10.709  1.00  0.00    -0.544 OA
ENDBRANCH   2   7
ENDBRANCH   1   2
BRANCH   1  10
ATOM     10  O   UNL     1      26.825   5.869   6.156  1.00  0.00    -0.390 OA
ATOM     11  H   UNL     1      26.703   6.702   5.629  1.00  0.00     0.210 HD
ENDBRANCH   1  10
TORSDOF 4
ENDMDL
MODEL 2
REMARK VINA RESULT:    -3.925      6.263      7.053
REMARK INTER + INTRA:          -4.621
REMARK INTER:                  -4.250
REMARK INTRA:                  -0.371
REMARK UNBOUND:                -0.007
REMARK SMILES [NH3+][C@H](CO)C(=O)[O-]
REMARK SMILES IDX 3 1 2 2 1 3 5 7 6 8 7 9 4 10
REMARK H PARENT 1 4 1 5 1 6 4 11
REMARK Flexibility Score: inf
ROOT
ATOM      1  C   UNL     1      24.054   6.703  14.314  1.00  0.00     0.227 C 
ENDROOT
BRANCH   1   2
ATOM      2  C   UNL     1      23.689   5.933  15.592  1.00  0.00     0.253 C 
BRANCH   2   3
ATOM      3  N   UNL     1      22.290   5.488  15.549  1.00  0.00    -0.348 N 
ATOM      4  H   UNL     1      22.165   4.607  16.099  1.00  0.00     0.345 HD
ATOM      5  H   UNL     1      21.669   6.232  15.942  1.00  0.00     0.345 HD
ATOM      6  H   UNL     1      22.005   5.315  14.557  1.00  0.00     0.345 HD
ENDBRANCH   2   3
BRANCH   2   7
ATOM      7  C   UNL     1      24.609   4.756  15.787  1.00  0.00     0.102 C 
ATOM      8  O   UNL     1      24.190   3.581  15.610  1.00  0.00    -0.544 OA
ATOM      9  O   UNL     1      25.933   4.963  16.150  1.00  0.00    -0.544 OA
ENDBRANCH   2   7
ENDBRANCH   1   2
BRANCH   1  10
ATOM     10  O   UNL     1      24.813   5.887  13.464  1.00  0.00    -0.390 OA
ATOM     11  H   UNL     1      24.666   6.236  12.545  1.00  0.00     0.210 HD
ENDBRANCH   1  10
TORSDOF 4
ENDMDL
MODEL 3
REMARK VINA RESULT:    -3.851      6.037      6.990
REMARK INTER + INTRA:          -4.533
REMARK INTER:                  -4.154
REMARK INTRA:                  -0.379
REMARK UNBOUND:                -0.007
REMARK SMILES [NH3+][C@H](CO)C(=O)[O-]
REMARK SMILES IDX 3 1 2 2 1 3 5 7 6 8 7 9 4 10
REMARK H PARENT 1 4 1 5 1 6 4 11
REMARK Flexibility Score: inf
ROOT
ATOM      1  C   UNL     1      25.137   4.539  15.904  1.00  0.00     0.227 C 
ENDROOT
BRANCH   1   2
ATOM      2  C   UNL     1      25.462   5.951  15.395  1.00  0.00     0.253 C 
BRANCH   2   3
ATOM      3  N   UNL     1      26.784   5.981  14.755  1.00  0.00    -0.348 N 
ATOM      4  H   UNL     1      27.352   5.150  15.041  1.00  0.00     0.345 HD
ATOM      5  H   UNL     1      26.674   5.983  13.715  1.00  0.00     0.345 HD
ATOM      6  H   UNL     1      27.291   6.853  15.032  1.00  0.00     0.345 HD
ENDBRANCH   2   3
BRANCH   2   7
ATOM      7  C   UNL     1      24.404   6.428  14.435  1.00  0.00     0.102 C 
ATOM      8  O   UNL     1      24.644   6.499  13.200  1.00  0.00    -0.544 OA
ATOM      9  O   UNL     1      23.146   6.781  14.908  1.00  0.00    -0.544 OA
ENDBRANCH   2   7
ENDBRANCH   1   2
BRANCH   1  10
ATOM     10  O   UNL     1      24.184   3.936  15.072  1.00  0.00    -0.390 OA
ATOM     11  H   UNL     1      24.683   3.595  14.284  1.00  0.00     0.210 HD
ENDBRANCH   1  10
TORSDOF 4
ENDMDL
MODEL 4
REMARK VINA RESULT:    -3.801      6.412      7.435
REMARK INTER + INTRA:          -4.475
REMARK INTER:                  -4.249
REMARK INTRA:                  -0.226
REMARK UNBOUND:                -0.007
REMARK SMILES [NH3+][C@H](CO)C(=O)[O-]
REMARK SMILES IDX 3 1 2 2 1 3 5 7 6 8 7 9 4 10
REMARK H PARENT 1 4 1 5 1 6 4 11
REMARK Flexibility Score: inf
ROOT
ATOM      1  C   UNL     1      24.963   6.664  14.602  1.00  0.00     0.227 C 
ENDROOT
BRANCH   1   2
ATOM      2  C   UNL     1      24.524   5.295  15.143  1.00  0.00     0.253 C 
BRANCH   2   3
ATOM      3  N   UNL     1      25.597   4.681  15.935  1.00  0.00    -0.348 N 
ATOM      4  H   UNL     1      26.437   4.495  15.339  1.00  0.00     0.345 HD
ATOM      5  H   UNL     1      25.866   5.317  16.721  1.00  0.00     0.345 HD
ATOM      6  H   UNL     1      25.263   3.779  16.345  1.00  0.00     0.345 HD
ENDBRANCH   2   3
BRANCH   2   7
ATOM      7  C   UNL     1      23.271   5.425  15.969  1.00  0.00     0.102 C 
ATOM      8  O   UNL     1      22.341   6.193  15.604  1.00  0.00    -0.544 OA
ATOM      9  O   UNL     1      23.130   4.687  17.137  1.00  0.00    -0.544 OA
ENDBRANCH   2   7
ENDBRANCH   1   2
BRANCH   1  10
ATOM     10  O   UNL     1      24.170   7.021  13.503  1.00  0.00    -0.390 OA
ATOM     11  H   UNL     1      23.337   7.410  13.879  1.00  0.00     0.210 HD
ENDBRANCH   1  10
TORSDOF 4
ENDMDL
MODEL 5
REMARK VINA RESULT:    -3.770      1.184      3.098
REMARK INTER + INTRA:          -4.438
REMARK INTER:                  -4.225
REMARK INTRA:                  -0.213
REMARK UNBOUND:                -0.007
REMARK SMILES [NH3+][C@H](CO)C(=O)[O-]
REMARK SMILES IDX 3 1 2 2 1 3 5 7 6 8 7 9 4 10
REMARK H PARENT 1 4 1 5 1 6 4 11
REMARK Flexibility Score: inf
ROOT
ATOM      1  C   UNL     1      25.867   5.786  10.140  1.00  0.00     0.227 C 
ENDROOT
BRANCH   1   2
ATOM      2  C   UNL     1      26.289   5.346   8.730  1.00  0.00     0.253 C 
BRANCH   2   3
ATOM      3  N   UNL     1      25.125   4.898   7.956  1.00  0.00    -0.348 N 
ATOM      4  H   UNL     1      25.426   4.338   7.125  1.00  0.00     0.345 HD
ATOM      5  H   UNL     1      24.501   4.314   8.559  1.00  0.00     0.345 HD
ATOM      6  H   UNL     1      24.578   5.728   7.628  1.00  0.00     0.345 HD
ENDBRANCH   2   3
BRANCH   2   7
ATOM      7  C   UNL     1      26.999   6.464   8.013  1.00  0.00     0.102 C 
ATOM      8  O   UNL     1      27.397   7.479   8.645  1.00  0.00    -0.544 OA
ATOM      9  O   UNL     1      27.232   6.374   6.647  1.00  0.00    -0.544 OA
ENDBRANCH   2   7
ENDBRANCH   1   2
BRANCH   1  10
ATOM     10  O   UNL     1      26.935   5.625  11.033  1.00  0.00    -0.390 OA
ATOM     11  H   UNL     1      26.997   6.475  11.543  1.00  0.00     0.210 HD
ENDBRANCH   1  10
TORSDOF 4
ENDMDL
MODEL 6
REMARK VINA RESULT:    -3.749      6.973      7.364
REMARK INTER + INTRA:          -4.414
REMARK INTER:                  -4.203
REMARK INTRA:                  -0.211
REMARK UNBOUND:                -0.007
REMARK SMILES [NH3+][C@H](CO)C(=O)[O-]
REMARK SMILES IDX 3 1 2 2 1 3 5 7 6 8 7 9 4 10
REMARK H PARENT 1 4 1 5 1 6 4 11
REMARK Flexibility Score: inf
ROOT
ATOM      1  C   UNL     1      22.985   6.659  15.333  1.00  0.00     0.227 C 
ENDROOT
BRANCH   1   2
ATOM      2  C   UNL     1      24.285   6.208  14.650  1.00  0.00     0.253 C 
BRANCH   2   3
ATOM      3  N   UNL     1      25.170   7.355  14.410  1.00  0.00    -0.348 N 
ATOM      4  H   UNL     1      26.011   7.310  15.031  1.00  0.00     0.345 HD
ATOM      5  H   UNL     1      25.478   7.362  13.410  1.00  0.00     0.345 HD
ATOM      6  H   UNL     1      24.653   8.246  14.598  1.00  0.00     0.345 HD
ENDBRANCH   2   3
BRANCH   2   7
ATOM      7  C   UNL     1      24.988   5.166  15.479  1.00  0.00     0.102 C 
ATOM      8  O   UNL     1      24.421   4.074  15.751  1.00  0.00    -0.544 OA
ATOM      9  O   UNL     1      26.278   5.400  15.939  1.00  0.00    -0.544 OA
ENDBRANCH   2   7
ENDBRANCH   1   2
BRANCH   1  10
ATOM     10  O   UNL     1      22.096   5.580  15.432  1.00  0.00    -0.390 OA
ATOM     11  H   UNL     1      22.447   4.878  14.823  1.00  0.00     0.210 HD
ENDBRANCH   1  10
TORSDOF 4
ENDMDL
MODEL 7
REMARK VINA RESULT:    -3.740      6.595      7.339
REMARK INTER + INTRA:          -4.403
REMARK INTER:                  -4.177
REMARK INTRA:                  -0.227
REMARK UNBOUND:                -0.007
REMARK SMILES [NH3+][C@H](CO)C(=O)[O-]
REMARK SMILES IDX 3 1 2 2 1 3 5 7 6 8 7 9 4 10
REMARK H PARENT 1 4 1 5 1 6 4 11
REMARK Flexibility Score: inf
ROOT
ATOM      1  C   UNL     1      24.097   4.561  16.068  1.00  0.00     0.227 C 
ENDROOT
BRANCH   1   2
ATOM      2  C   UNL     1      24.459   5.487  14.897  1.00  0.00     0.253 C 
BRANCH   2   3
ATOM      3  N   UNL     1      23.419   6.504  14.699  1.00  0.00    -0.348 N 
ATOM      4  H   UNL     1      23.310   6.730  13.683  1.00  0.00     0.345 HD
ATOM      5  H   UNL     1      22.507   6.156  15.075  1.00  0.00     0.345 HD
ATOM      6  H   UNL     1      23.674   7.376  15.218  1.00  0.00     0.345 HD
ENDBRANCH   2   3
BRANCH   2   7
ATOM      7  C   UNL     1      25.796   6.141  15.129  1.00  0.00     0.102 C 
ATOM      8  O   UNL     1      26.082   7.230  14.563  1.00  0.00    -0.544 OA
ATOM      9  O   UNL     1      26.719   5.551  15.983  1.00  0.00    -0.544 OA
ENDBRANCH   2   7
ENDBRANCH   1   2
BRANCH   1  10
ATOM     10  O   UNL     1      24.777   3.341  15.943  1.00  0.00    -0.390 OA
ATOM     11  H   UNL     1      24.114   2.634  16.158  1.00  0.00     0.210 HD
ENDBRANCH   1  10
TORSDOF 4
ENDMDL
MODEL 8
REMARK VINA RESULT:    -3.735      6.012      6.459
REMARK INTER + INTRA:          -4.398
REMARK INTER:                  -4.202
REMARK INTRA:                  -0.196
REMARK UNBOUND:                -0.007
REMARK SMILES [NH3+][C@H](CO)C(=O)[O-]
REMARK SMILES IDX 3 1 2 2 1 3 5 7 6 8 7 9 4 10
REMARK H PARENT 1 4 1 5 1 6 4 11
REMARK Flexibility Score: inf
ROOT
ATOM      1  C   UNL     1      26.258   7.160  14.782  1.00  0.00     0.227 C 
ENDROOT
BRANCH   1   2
ATOM      2  C   UNL     1      24.871   6.940  14.159  1.00  0.00     0.253 C 
BRANCH   2   3
ATOM      3  N   UNL     1      24.993   6.416  12.793  1.00  0.00    -0.348 N 
ATOM      4  H   UNL     1      25.645   7.007  12.226  1.00  0.00     0.345 HD
ATOM      5  H   UNL     1      25.353   5.434  12.820  1.00  0.00     0.345 HD
ATOM      6  H   UNL     1      24.054   6.407  12.333  1.00  0.00     0.345 HD
ENDBRANCH   2   3
BRANCH   2   7
ATOM      7  C   UNL     1      24.048   6.007  15.008  1.00  0.00     0.102 C 
ATOM      8  O   UNL     1      24.531   4.916  15.412  1.00  0.00    -0.544 OA
ATOM      9  O   UNL     1      22.750   6.353  15.360  1.00  0.00    -0.544 OA
ENDBRANCH   2   7
ENDBRANCH   1   2
BRANCH   1  10
ATOM     10  O   UNL     1      26.978   5.957  14.785  1.00  0.00    -0.390 OA
ATOM     11  H   UNL     1      27.834   6.148  14.317  1.00  0.00     0.210 HD
ENDBRANCH   1  10
TORSDOF 4
ENDMDL
MODEL 9
REMARK VINA RESULT:    -3.717      5.905      7.043
REMARK INTER + INTRA:          -4.376
REMARK INTER:                  -4.064
REMARK INTRA:                  -0.312
REMARK UNBOUND:                -0.007
REMARK SMILES [NH3+][C@H](CO)C(=O)[O-]
REMARK SMILES IDX 3 1 2 2 1 3 5 7 6 8 7 9 4 10
REMARK H PARENT 1 4 1 5 1 6 4 11
REMARK Flexibility Score: inf
ROOT
ATOM      1  C   UNL     1      22.762   6.210  15.524  1.00  0.00     0.227 C 
ENDROOT
BRANCH   1   2
ATOM      2  C   UNL     1      24.206   5.712  15.354  1.00  0.00     0.253 C 
BRANCH   2   3
ATOM      3  N   UNL     1      24.224   4.293  14.976  1.00  0.00    -0.348 N 
ATOM      4  H   UNL     1      23.267   3.970  14.703  1.00  0.00     0.345 HD
ATOM      5  H   UNL     1      24.880   4.149  14.175  1.00  0.00     0.345 HD
ATOM      6  H   UNL     1      24.562   3.717  15.782  1.00  0.00     0.345 HD
ENDBRANCH   2   3
BRANCH   2   7
ATOM      7  C   UNL     1      24.937   6.538  14.328  1.00  0.00     0.102 C 
ATOM      8  O   UNL     1      24.623   6.470  13.110  1.00  0.00    -0.544 OA
ATOM      9  O   UNL     1      25.958   7.393  14.725  1.00  0.00    -0.544 OA
ENDBRANCH   2   7
ENDBRANCH   1   2
BRANCH   1  10
ATOM     10  O   UNL     1      22.685   7.573  15.207  1.00  0.00    -0.390 OA
ATOM     11  H   UNL     1      23.613   7.923  15.268  1.00  0.00     0.210 HD
ENDBRANCH   1  10
TORSDOF 4
ENDMDL
