MODEL 1
REMARK VINA RESULT:    -3.471      0.000      0.000
REMARK INTER + INTRA:          -4.537
REMARK INTER:                  -5.095
REMARK INTRA:                   0.558
REMARK UNBOUND:                 0.558
REMARK SMILES C=C1CC=CC(C)(C)CC=C(C)CCC1
REMARK SMILES IDX 2 1 1 2 15 3 14 4 13 5 11 6 12 7 10 8 3 10 4 11 5 12 6 13
REMARK SMILES IDX 7 14 8 15 9 16
REMARK H PARENT
REMARK Flexibility Score: 60.00
ROOT
ATOM      1  C   UNL     1      20.764  63.609  14.650  1.00  0.00    -0.074 C 
ATOM      2  C   UNL     1      19.825  62.771  14.183  1.00  0.00     0.008 C 
ENDROOT
BRANCH   1   3
ATOM      3  C   UNL     1      22.092  63.711  13.918  1.00  0.00     0.031 C 
BRANCH   3   4
ATOM      4  C   UNL     1      23.061  62.581  14.303  1.00  0.00     0.009 C 
BRANCH   4   5
ATOM      5  C   UNL     1      24.207  63.037  15.229  1.00  0.00     0.030 C 
BRANCH   5   6
ATOM      6  C   UNL     1      24.195  62.328  16.578  1.00  0.00    -0.077 C 
ATOM      7  C   UNL     1      24.668  60.894  16.630  1.00  0.00     0.039 C 
ATOM      8  C   UNL     1      23.748  62.872  17.740  1.00  0.00    -0.027 CG0
ATOM      9  G   UNL     1      23.086  64.223  17.930  1.00  0.00     0.000 G0
ENDBRANCH   5   6
ENDBRANCH   4   5
ENDBRANCH   3   4
ENDBRANCH   1   3
BRANCH   1  10
ATOM     10  C   UNL     1      20.511  64.352  15.947  1.00  0.00     0.057 C 
BRANCH  10  11
ATOM     11  C   UNL     1      20.121  63.421  17.067  1.00  0.00    -0.026 C 
ATOM     12  C   UNL     1      20.661  63.349  18.303  1.00  0.00    -0.024 C 
BRANCH  12  13
ATOM     13  C   UNL     1      21.829  64.155  18.889  1.00  0.00    -0.014 C 
ATOM     14  C   UNL     1      21.322  65.598  19.145  1.00  0.00     0.016 C 
ATOM     15  C   UNL     1      22.238  63.578  20.263  1.00  0.00     0.016 C 
BRANCH  13  16
ATOM     16  C   UNL     1      23.067  64.224  17.940  1.00  0.00     0.038 CG0
ATOM     17  G   UNL     1      23.753  62.885  17.743  1.00  0.00     0.000 G0
ENDBRANCH  13  16
ENDBRANCH  12  13
ENDBRANCH  10  11
ENDBRANCH   1  10
TORSDOF 0
ENDMDL
MODEL 2
REMARK VINA RESULT:    -3.317      1.344      3.392
REMARK INTER + INTRA:          -4.310
REMARK INTER:                  -4.844
REMARK INTRA:                   0.534
REMARK UNBOUND:                 0.558
REMARK SMILES C=C1CC=CC(C)(C)CC=C(C)CCC1
REMARK SMILES IDX 2 1 1 2 15 3 14 4 13 5 11 6 12 7 10 8 3 10 4 11 5 12 6 13
REMARK SMILES IDX 7 14 8 15 9 16
REMARK H PARENT
REMARK Flexibility Score: 60.00
ROOT
ATOM      1  C   UNL     1      24.298  62.157  16.056  1.00  0.00    -0.074 C 
ATOM      2  C   UNL     1      24.714  60.890  16.212  1.00  0.00     0.008 C 
ENDROOT
BRANCH   1   3
ATOM      3  C   UNL     1      24.205  62.737  14.655  1.00  0.00     0.031 C 
BRANCH   3   4
ATOM      4  C   UNL     1      22.868  62.406  13.971  1.00  0.00     0.009 C 
BRANCH   4   5
ATOM      5  C   UNL     1      21.930  63.620  13.824  1.00  0.00     0.030 C 
BRANCH   5   6
ATOM      6  C   UNL     1      20.635  63.466  14.613  1.00  0.00    -0.077 C 
ATOM      7  C   UNL     1      19.504  62.693  13.975  1.00  0.00     0.039 C 
ATOM      8  C   UNL     1      20.398  64.009  15.835  1.00  0.00    -0.027 CG0
ATOM      9  G   UNL     1      21.298  64.946  16.618  1.00  0.00     0.000 G0
ENDBRANCH   5   6
ENDBRANCH   4   5
ENDBRANCH   3   4
ENDBRANCH   1   3
BRANCH   1  10
ATOM     10  C   UNL     1      24.029  63.001  17.286  1.00  0.00     0.057 C 
BRANCH  10  11
ATOM     11  C   UNL     1      22.857  62.487  18.082  1.00  0.00    -0.026 C 
ATOM     12  C   UNL     1      21.740  63.162  18.430  1.00  0.00    -0.024 C 
BRANCH  12  13
ATOM     13  C   UNL     1      21.375  64.627  18.150  1.00  0.00    -0.014 C 
ATOM     14  C   UNL     1      19.990  64.898  18.792  1.00  0.00     0.016 C 
ATOM     15  C   UNL     1      22.381  65.570  18.848  1.00  0.00     0.016 C 
BRANCH  13  16
ATOM     16  C   UNL     1      21.291  64.959  16.626  1.00  0.00     0.038 CG0
ATOM     17  G   UNL     1      20.407  64.002  15.847  1.00  0.00     0.000 G0
ENDBRANCH  13  16
ENDBRANCH  12  13
ENDBRANCH  10  11
ENDBRANCH   1  10
TORSDOF 0
ENDMDL
MODEL 3
REMARK VINA RESULT:    -3.189      1.408      3.910
REMARK INTER + INTRA:          -4.122
REMARK INTER:                  -4.623
REMARK INTRA:                   0.500
REMARK UNBOUND:                 0.558
REMARK SMILES C=C1CC=CC(C)(C)CC=C(C)CCC1
REMARK SMILES IDX 2 1 1 2 15 3 14 4 13 5 11 6 12 7 10 8 3 10 4 11 5 12 6 13
REMARK SMILES IDX 7 14 8 15 9 16
REMARK H PARENT
REMARK Flexibility Score: 60.00
ROOT
ATOM      1  C   UNL     1      23.997  62.223  14.422  1.00  0.00    -0.074 C 
ATOM      2  C   UNL     1      24.675  61.173  13.933  1.00  0.00     0.008 C 
ENDROOT
BRANCH   1   3
ATOM      3  C   UNL     1      24.591  63.013  15.576  1.00  0.00     0.031 C 
BRANCH   3   4
ATOM      4  C   UNL     1      24.442  62.286  16.922  1.00  0.00     0.009 C 
BRANCH   4   5
ATOM      5  C   UNL     1      23.013  62.334  17.498  1.00  0.00     0.030 C 
BRANCH   5   6
ATOM      6  C   UNL     1      22.503  63.757  17.698  1.00  0.00    -0.077 C 
ATOM      7  C   UNL     1      23.325  64.690  18.556  1.00  0.00     0.039 C 
ATOM      8  C   UNL     1      21.338  64.245  17.199  1.00  0.00    -0.027 CG0
ATOM      9  G   UNL     1      20.267  63.479  16.445  1.00  0.00     0.000 G0
ENDBRANCH   5   6
ENDBRANCH   4   5
ENDBRANCH   3   4
ENDBRANCH   1   3
BRANCH   1  10
ATOM     10  C   UNL     1      22.616  62.527  13.877  1.00  0.00     0.057 C 
BRANCH  10  11
ATOM     11  C   UNL     1      22.323  64.006  13.866  1.00  0.00    -0.026 C 
ATOM     12  C   UNL     1      21.229  64.632  14.352  1.00  0.00    -0.024 C 
BRANCH  12  13
ATOM     13  C   UNL     1      19.983  64.019  15.006  1.00  0.00    -0.014 C 
ATOM     14  C   UNL     1      18.897  65.123  15.076  1.00  0.00     0.016 C 
ATOM     15  C   UNL     1      19.412  62.892  14.116  1.00  0.00     0.016 C 
BRANCH  13  16
ATOM     16  C   UNL     1      20.245  63.487  16.452  1.00  0.00     0.038 CG0
ATOM     17  G   UNL     1      21.339  64.242  17.184  1.00  0.00     0.000 G0
ENDBRANCH  13  16
ENDBRANCH  12  13
ENDBRANCH  10  11
ENDBRANCH   1  10
TORSDOF 0
ENDMDL
MODEL 4
REMARK VINA RESULT:    -3.150      1.320      1.880
REMARK INTER + INTRA:          -4.066
REMARK INTER:                  -4.539
REMARK INTRA:                   0.474
REMARK UNBOUND:                 0.558
REMARK SMILES C=C1CC=CC(C)(C)CC=C(C)CCC1
REMARK SMILES IDX 2 1 1 2 15 3 14 4 13 5 11 6 12 7 10 8 3 10 4 11 5 12 6 13
REMARK SMILES IDX 7 14 8 15 9 16
REMARK H PARENT
REMARK Flexibility Score: 60.00
ROOT
ATOM      1  C   UNL     1      19.179  64.119  15.496  1.00  0.00    -0.074 C 
ATOM      2  C   UNL     1      18.093  64.751  15.024  1.00  0.00     0.008 C 
ENDROOT
BRANCH   1   3
ATOM      3  C   UNL     1      19.800  63.002  14.674  1.00  0.00     0.031 C 
BRANCH   3   4
ATOM      4  C   UNL     1      20.829  63.525  13.659  1.00  0.00     0.009 C 
BRANCH   4   5
ATOM      5  C   UNL     1      21.938  64.390  14.290  1.00  0.00     0.030 C 
BRANCH   5   6
ATOM      6  C   UNL     1      23.015  63.561  14.981  1.00  0.00    -0.077 C 
ATOM      7  C   UNL     1      23.553  62.352  14.254  1.00  0.00     0.039 C 
ATOM      8  C   UNL     1      23.502  63.799  16.226  1.00  0.00    -0.027 CG0
ATOM      9  G   UNL     1      23.026  64.844  17.218  1.00  0.00     0.000 G0
ENDBRANCH   5   6
ENDBRANCH   4   5
ENDBRANCH   3   4
ENDBRANCH   1   3
BRANCH   1  10
ATOM     10  C   UNL     1      19.693  64.469  16.879  1.00  0.00     0.057 C 
BRANCH  10  11
ATOM     11  C   UNL     1      20.236  63.264  17.605  1.00  0.00    -0.026 C 
ATOM     12  C   UNL     1      21.382  63.180  18.315  1.00  0.00    -0.024 C 
BRANCH  12  13
ATOM     13  C   UNL     1      22.451  64.256  18.546  1.00  0.00    -0.014 C 
ATOM     14  C   UNL     1      21.797  65.401  19.362  1.00  0.00     0.016 C 
ATOM     15  C   UNL     1      23.598  63.692  19.415  1.00  0.00     0.016 C 
BRANCH  13  16
ATOM     16  C   UNL     1      23.020  64.854  17.219  1.00  0.00     0.038 CG0
ATOM     17  G   UNL     1      23.500  63.800  16.239  1.00  0.00     0.000 G0
ENDBRANCH  13  16
ENDBRANCH  12  13
ENDBRANCH  10  11
ENDBRANCH   1  10
TORSDOF 0
ENDMDL
MODEL 5
REMARK VINA RESULT:    -2.985      1.078      3.741
REMARK INTER + INTRA:          -3.823
REMARK INTER:                  -4.614
REMARK INTRA:                   0.791
REMARK UNBOUND:                 0.558
REMARK SMILES C=C1CC=CC(C)(C)CC=C(C)CCC1
REMARK SMILES IDX 2 1 1 2 15 3 14 4 13 5 11 6 12 7 10 8 3 10 4 11 5 12 6 13
REMARK SMILES IDX 7 14 8 15 9 16
REMARK H PARENT
REMARK Flexibility Score: 60.00
ROOT
ATOM      1  C   UNL     1      19.868  63.726  14.793  1.00  0.00    -0.074 C 
ATOM      2  C   UNL     1      19.594  62.614  14.093  1.00  0.00     0.008 C 
ENDROOT
BRANCH   1   3
ATOM      3  C   UNL     1      18.732  64.463  15.483  1.00  0.00     0.031 C 
BRANCH   3   4
ATOM      4  C   UNL     1      19.016  64.713  16.973  1.00  0.00     0.009 C 
BRANCH   4   5
ATOM      5  C   UNL     1      19.809  63.578  17.652  1.00  0.00     0.030 C 
BRANCH   5   6
ATOM      6  C   UNL     1      21.053  64.078  18.377  1.00  0.00    -0.077 C 
ATOM      7  C   UNL     1      20.918  65.295  19.261  1.00  0.00     0.039 C 
ATOM      8  C   UNL     1      22.294  63.538  18.257  1.00  0.00    -0.027 CG0
ATOM      9  G   UNL     1      22.728  62.422  17.326  1.00  0.00     0.000 G0
ENDBRANCH   5   6
ENDBRANCH   4   5
ENDBRANCH   3   4
ENDBRANCH   1   3
BRANCH   1  10
ATOM     10  C   UNL     1      21.283  64.270  14.791  1.00  0.00     0.057 C 
BRANCH  10  11
ATOM     11  C   UNL     1      22.266  63.290  14.201  1.00  0.00    -0.026 C 
ATOM     12  C   UNL     1      23.309  62.697  14.821  1.00  0.00    -0.024 C 
BRANCH  12  13
ATOM     13  C   UNL     1      23.799  62.881  16.264  1.00  0.00    -0.014 C 
ATOM     14  C   UNL     1      25.076  62.019  16.440  1.00  0.00     0.016 C 
ATOM     15  C   UNL     1      24.218  64.349  16.503  1.00  0.00     0.016 C 
BRANCH  13  16
ATOM     16  C   UNL     1      22.749  62.437  17.332  1.00  0.00     0.038 CG0
ATOM     17  G   UNL     1      22.298  63.564  18.242  1.00  0.00     0.000 G0
ENDBRANCH  13  16
ENDBRANCH  12  13
ENDBRANCH  10  11
ENDBRANCH   1  10
TORSDOF 0
ENDMDL
MODEL 6
REMARK VINA RESULT:    -2.850      1.520      3.920
REMARK INTER + INTRA:          -3.625
REMARK INTER:                  -4.458
REMARK INTRA:                   0.833
REMARK UNBOUND:                 0.558
REMARK SMILES C=C1CC=CC(C)(C)CC=C(C)CCC1
REMARK SMILES IDX 2 1 1 2 15 3 14 4 13 5 11 6 12 7 10 8 3 10 4 11 5 12 6 13
REMARK SMILES IDX 7 14 8 15 9 16
REMARK H PARENT
REMARK Flexibility Score: 60.00
ROOT
ATOM      1  C   UNL     1      22.963  63.285  18.884  1.00  0.00    -0.074 C 
ATOM      2  C   UNL     1      22.701  63.153  20.194  1.00  0.00     0.008 C 
ENDROOT
BRANCH   1   3
ATOM      3  C   UNL     1      24.270  62.740  18.334  1.00  0.00     0.031 C 
BRANCH   3   4
ATOM      4  C   UNL     1      24.057  61.826  17.115  1.00  0.00     0.009 C 
BRANCH   4   5
ATOM      5  C   UNL     1      24.713  62.353  15.823  1.00  0.00     0.030 C 
BRANCH   5   6
ATOM      6  C   UNL     1      23.884  62.060  14.578  1.00  0.00    -0.077 C 
ATOM      7  C   UNL     1      24.354  60.960  13.656  1.00  0.00     0.039 C 
ATOM      8  C   UNL     1      22.772  62.745  14.203  1.00  0.00    -0.027 CG0
ATOM      9  G   UNL     1      22.185  63.979  14.861  1.00  0.00     0.000 G0
ENDBRANCH   5   6
ENDBRANCH   4   5
ENDBRANCH   3   4
ENDBRANCH   1   3
BRANCH   1  10
ATOM     10  C   UNL     1      21.995  64.061  18.013  1.00  0.00     0.057 C 
BRANCH  10  11
ATOM     11  C   UNL     1      20.810  63.227  17.599  1.00  0.00    -0.026 C 
ATOM     12  C   UNL     1      20.250  63.146  16.372  1.00  0.00    -0.024 C 
BRANCH  12  13
ATOM     13  C   UNL     1      20.634  63.896  15.089  1.00  0.00    -0.014 C 
ATOM     14  C   UNL     1      20.003  63.137  13.893  1.00  0.00     0.016 C 
ATOM     15  C   UNL     1      20.012  65.311  15.093  1.00  0.00     0.016 C 
BRANCH  13  16
ATOM     16  C   UNL     1      22.177  63.983  14.865  1.00  0.00     0.038 CG0
ATOM     17  G   UNL     1      22.761  62.753  14.195  1.00  0.00     0.000 G0
ENDBRANCH  13  16
ENDBRANCH  12  13
ENDBRANCH  10  11
ENDBRANCH   1  10
TORSDOF 0
ENDMDL
MODEL 7
REMARK VINA RESULT:    -2.844      1.676      4.078
REMARK INTER + INTRA:          -3.617
REMARK INTER:                  -4.198
REMARK INTRA:                   0.581
REMARK UNBOUND:                 0.558
REMARK SMILES C=C1CC=CC(C)(C)CC=C(C)CCC1
REMARK SMILES IDX 2 1 1 2 15 3 14 4 13 5 11 6 12 7 10 8 3 10 4 11 5 12 6 13
REMARK SMILES IDX 7 14 8 15 9 16
REMARK H PARENT
REMARK Flexibility Score: 60.00
ROOT
ATOM      1  C   UNL     1      18.507  64.940  15.176  1.00  0.00    -0.074 C 
ATOM      2  C   UNL     1      17.233  64.585  14.947  1.00  0.00     0.008 C 
ENDROOT
BRANCH   1   3
ATOM      3  C   UNL     1      18.862  65.607  16.494  1.00  0.00     0.031 C 
BRANCH   3   4
ATOM      4  C   UNL     1      19.386  64.604  17.536  1.00  0.00     0.009 C 
BRANCH   4   5
ATOM      5  C   UNL     1      20.779  64.959  18.091  1.00  0.00     0.030 C 
BRANCH   5   6
ATOM      6  C   UNL     1      21.787  63.827  17.928  1.00  0.00    -0.077 C 
ATOM      7  C   UNL     1      22.023  62.913  19.106  1.00  0.00     0.039 C 
ATOM      8  C   UNL     1      22.529  63.599  16.813  1.00  0.00    -0.027 CG0
ATOM      9  G   UNL     1      22.596  64.452  15.560  1.00  0.00     0.000 G0
ENDBRANCH   5   6
ENDBRANCH   4   5
ENDBRANCH   3   4
ENDBRANCH   1   3
BRANCH   1  10
ATOM     10  C   UNL     1      19.533  64.757  14.075  1.00  0.00     0.057 C 
BRANCH  10  11
ATOM     11  C   UNL     1      19.996  63.327  13.963  1.00  0.00    -0.026 C 
ATOM     12  C   UNL     1      21.262  62.864  14.043  1.00  0.00    -0.024 C 
BRANCH  12  13
ATOM     13  C   UNL     1      22.564  63.654  14.231  1.00  0.00    -0.014 C 
ATOM     14  C   UNL     1      23.735  62.638  14.235  1.00  0.00     0.016 C 
ATOM     15  C   UNL     1      22.796  64.594  13.026  1.00  0.00     0.016 C 
BRANCH  13  16
ATOM     16  C   UNL     1      22.605  64.465  15.566  1.00  0.00     0.038 CG0
ATOM     17  G   UNL     1      22.516  63.593  16.805  1.00  0.00     0.000 G0
ENDBRANCH  13  16
ENDBRANCH  12  13
ENDBRANCH  10  11
ENDBRANCH   1  10
TORSDOF 0
ENDMDL
MODEL 8
REMARK VINA RESULT:    -2.833      1.646      3.471
REMARK INTER + INTRA:          -3.600
REMARK INTER:                  -4.147
REMARK INTRA:                   0.547
REMARK UNBOUND:                 0.558
REMARK SMILES C=C1CC=CC(C)(C)CC=C(C)CCC1
REMARK SMILES IDX 2 1 1 2 15 3 14 4 13 5 11 6 12 7 10 8 3 10 4 11 5 12 6 13
REMARK SMILES IDX 7 14 8 15 9 16
REMARK H PARENT
REMARK Flexibility Score: 60.00
ROOT
ATOM      1  C   UNL     1      22.983  62.995  14.553  1.00  0.00    -0.074 C 
ATOM      2  C   UNL     1      23.897  62.687  13.619  1.00  0.00     0.008 C 
ENDROOT
BRANCH   1   3
ATOM      3  C   UNL     1      21.519  63.067  14.158  1.00  0.00     0.031 C 
BRANCH   3   4
ATOM      4  C   UNL     1      21.169  64.382  13.442  1.00  0.00     0.009 C 
BRANCH   4   5
ATOM      5  C   UNL     1      20.720  65.507  14.396  1.00  0.00     0.030 C 
BRANCH   5   6
ATOM      6  C   UNL     1      19.793  65.012  15.500  1.00  0.00    -0.077 C 
ATOM      7  C   UNL     1      18.400  64.574  15.113  1.00  0.00     0.039 C 
ATOM      8  C   UNL     1      20.106  64.973  16.821  1.00  0.00    -0.027 CG0
ATOM      9  G   UNL     1      21.366  65.494  17.485  1.00  0.00     0.000 G0
ENDBRANCH   5   6
ENDBRANCH   4   5
ENDBRANCH   3   4
ENDBRANCH   1   3
BRANCH   1  10
ATOM     10  C   UNL     1      23.450  63.358  15.949  1.00  0.00     0.057 C 
BRANCH  10  11
ATOM     11  C   UNL     1      22.703  62.596  17.014  1.00  0.00    -0.026 C 
ATOM     12  C   UNL     1      22.075  63.100  18.099  1.00  0.00    -0.024 C 
BRANCH  12  13
ATOM     13  C   UNL     1      21.981  64.560  18.562  1.00  0.00    -0.014 C 
ATOM     14  C   UNL     1      21.071  64.597  19.818  1.00  0.00     0.016 C 
ATOM     15  C   UNL     1      23.370  65.069  19.007  1.00  0.00     0.016 C 
BRANCH  13  16
ATOM     16  C   UNL     1      21.375  65.511  17.481  1.00  0.00     0.038 CG0
ATOM     17  G   UNL     1      20.110  64.970  16.840  1.00  0.00     0.000 G0
ENDBRANCH  13  16
ENDBRANCH  12  13
ENDBRANCH  10  11
ENDBRANCH   1  10
TORSDOF 0
ENDMDL
MODEL 9
REMARK VINA RESULT:    -2.725      1.442      4.645
REMARK INTER + INTRA:          -3.441
REMARK INTER:                  -4.078
REMARK INTRA:                   0.637
REMARK UNBOUND:                 0.558
REMARK SMILES C=C1CC=CC(C)(C)CC=C(C)CCC1
REMARK SMILES IDX 2 1 1 2 15 3 14 4 13 5 11 6 12 7 10 8 3 10 4 11 5 12 6 13
REMARK SMILES IDX 7 14 8 15 9 16
REMARK H PARENT
REMARK Flexibility Score: 60.00
ROOT
ATOM      1  C   UNL     1      21.674  63.478  19.011  1.00  0.00    -0.074 C 
ATOM      2  C   UNL     1      21.744  63.329  20.343  1.00  0.00     0.008 C 
ENDROOT
BRANCH   1   3
ATOM      3  C   UNL     1      20.703  64.491  18.430  1.00  0.00     0.031 C 
BRANCH   3   4
ATOM      4  C   UNL     1      19.700  63.850  17.457  1.00  0.00     0.009 C 
BRANCH   4   5
ATOM      5  C   UNL     1      19.635  64.550  16.085  1.00  0.00     0.030 C 
BRANCH   5   6
ATOM      6  C   UNL     1      20.238  63.712  14.963  1.00  0.00    -0.077 C 
ATOM      7  C   UNL     1      19.324  62.779  14.205  1.00  0.00     0.039 C 
ATOM      8  C   UNL     1      21.551  63.704  14.617  1.00  0.00    -0.027 CG0
ATOM      9  G   UNL     1      22.692  64.423  15.312  1.00  0.00     0.000 G0
ENDBRANCH   5   6
ENDBRANCH   4   5
ENDBRANCH   3   4
ENDBRANCH   1   3
BRANCH   1  10
ATOM     10  C   UNL     1      22.493  62.561  18.123  1.00  0.00     0.057 C 
BRANCH  10  11
ATOM     11  C   UNL     1      23.919  63.030  17.985  1.00  0.00    -0.026 C 
ATOM     12  C   UNL     1      24.543  63.445  16.861  1.00  0.00    -0.024 C 
BRANCH  12  13
ATOM     13  C   UNL     1      23.995  63.518  15.429  1.00  0.00    -0.014 C 
ATOM     14  C   UNL     1      25.103  64.128  14.532  1.00  0.00     0.016 C 
ATOM     15  C   UNL     1      23.721  62.096  14.890  1.00  0.00     0.016 C 
BRANCH  13  16
ATOM     16  C   UNL     1      22.713  64.401  15.305  1.00  0.00     0.038 CG0
ATOM     17  G   UNL     1      21.557  63.696  14.620  1.00  0.00     0.000 G0
ENDBRANCH  13  16
ENDBRANCH  12  13
ENDBRANCH  10  11
ENDBRANCH   1  10
TORSDOF 0
ENDMDL
