MODEL 1
REMARK VINA RESULT:    55.491      0.000      0.000
REMARK INTER + INTRA:          84.539
REMARK INTER:                  79.822
REMARK INTRA:                   4.717
REMARK UNBOUND:                 4.717
REMARK SMILES O=c1c(O[C@H]2O[C@@H](CO)[C@H](O)[C@@H](O)[C@H]2O)c(-c2ccc(O)cc2)oc2cc(O)cc(O)c12
REMARK SMILES IDX 4 1 3 2 16 3 24 4 2 5 25 6 1 7 32 8 26 9 30 10 27 11 29 12
REMARK SMILES IDX 17 13 18 14 19 15 20 16 23 17 22 18 21 19 31 21 28 23 5 25
REMARK SMILES IDX 14 26 6 27 12 28 7 29 10 30 15 31 13 33 8 35 9 36 11 38
REMARK H PARENT 21 20 31 22 28 24 15 32 13 34 9 37 11 39
REMARK Flexibility Score: inf
ROOT
ATOM      1  O   UNL     1       0.438  -0.854  -3.293  1.00  0.00    -0.454 OA
ENDROOT
BRANCH   1   2
ATOM      2  C   UNL     1       0.046  -0.860  -1.941  1.00  0.00     0.214 A 
ATOM      3  C   UNL     1      -0.428   0.334  -1.375  1.00  0.00     0.180 A 
ATOM      4  O   UNL     1      -0.681   0.402  -0.073  1.00  0.00    -0.452 OA
ATOM      5  C   UNL     1       0.142  -2.003  -1.121  1.00  0.00     0.239 A 
ATOM      6  C   UNL     1      -0.574  -0.637   0.744  1.00  0.00     0.146 A 
ATOM      7  O   UNL     1       0.554  -3.083  -1.615  1.00  0.00    -0.285 OA
ATOM      8  C   UNL     1      -0.207  -1.917   0.250  1.00  0.00     0.111 A 
ATOM      9  C   UNL     1      -0.827  -0.445   2.105  1.00  0.00     0.094 A 
ATOM     10  C   UNL     1      -0.168  -3.012   1.166  1.00  0.00     0.134 A 
ATOM     11  C   UNL     1      -0.718  -1.507   3.000  1.00  0.00     0.123 A 
ATOM     12  C   UNL     1      -0.391  -2.781   2.529  1.00  0.00     0.093 A 
BRANCH   3  13
ATOM     13  C   UNL     1      -0.610   1.551  -2.191  1.00  0.00     0.021 A 
ATOM     14  C   UNL     1      -1.698   1.676  -3.070  1.00  0.00     0.016 A 
ATOM     15  C   UNL     1      -1.874   2.844  -3.816  1.00  0.00     0.047 A 
ATOM     16  C   UNL     1      -0.965   3.900  -3.692  1.00  0.00     0.115 A 
ATOM     17  C   UNL     1       0.286   2.625  -2.052  1.00  0.00     0.016 A 
ATOM     18  C   UNL     1       0.115   3.788  -2.808  1.00  0.00     0.047 A 
BRANCH  16  19
ATOM     19  O   UNL     1      -1.148   5.056  -4.447  1.00  0.00    -0.508 OA
ATOM     20  H   UNL     1      -1.837   5.754  -4.185  1.00  0.00     0.293 HD
ENDBRANCH  16  19
ENDBRANCH   3  13
BRANCH  10  21
ATOM     21  O   UNL     1       0.061  -4.339   0.786  1.00  0.00    -0.507 OA
ATOM     22  H   UNL     1      -0.501  -5.124   1.078  1.00  0.00     0.293 HD
ENDBRANCH  10  21
BRANCH  11  23
ATOM     23  O   UNL     1      -0.943  -1.285   4.358  1.00  0.00    -0.508 OA
ATOM     24  H   UNL     1      -0.194  -1.003   4.980  1.00  0.00     0.293 HD
ENDBRANCH  11  23
ENDBRANCH   1   2
BRANCH   1  25
ATOM     25  C   UNL     1       1.743  -1.168  -3.780  1.00  0.00     0.339 C 
ATOM     26  C   UNL     1       1.643  -2.390  -4.722  1.00  0.00     0.214 C 
ATOM     27  O   UNL     1       2.633  -1.319  -2.674  1.00  0.00    -0.332 OA
ATOM     28  C   UNL     1       1.293  -3.668  -3.931  1.00  0.00     0.180 C 
ATOM     29  C   UNL     1       3.140  -2.633  -2.487  1.00  0.00     0.179 C 
ATOM     30  C   UNL     1       2.010  -3.692  -2.555  1.00  0.00     0.177 C 
BRANCH  26  31
ATOM     31  O   UNL     1       0.688  -2.138  -5.723  1.00  0.00    -0.384 OA
ATOM     32  H   UNL     1      -0.204  -2.266  -5.305  1.00  0.00     0.211 HD
ENDBRANCH  26  31
BRANCH  28  33
ATOM     33  O   UNL     1      -0.098  -3.748  -3.746  1.00  0.00    -0.387 OA
ATOM     34  H   UNL     1      -0.491  -2.953  -4.194  1.00  0.00     0.211 HD
ENDBRANCH  28  33
BRANCH  29  35
ATOM     35  C   UNL     1       3.891  -2.680  -1.146  1.00  0.00     0.191 C 
BRANCH  35  36
ATOM     36  O   UNL     1       4.934  -3.618  -1.176  1.00  0.00    -0.394 OA
ATOM     37  H   UNL     1       5.037  -3.902  -2.122  1.00  0.00     0.210 HD
ENDBRANCH  35  36
ENDBRANCH  29  35
BRANCH  30  38
ATOM     38  O   UNL     1       2.497  -4.981  -2.273  1.00  0.00    -0.387 OA
ATOM     39  H   UNL     1       2.366  -5.144  -1.303  1.00  0.00     0.211 HD
ENDBRANCH  30  38
ENDBRANCH   1  25
TORSDOF 11
ENDMDL
MODEL 2
REMARK VINA RESULT:    56.224      2.272      6.124
REMARK INTER + INTRA:          85.592
REMARK INTER:                  86.261
REMARK INTRA:                  -0.669
REMARK UNBOUND:                 4.717
REMARK SMILES O=c1c(O[C@H]2O[C@@H](CO)[C@H](O)[C@@H](O)[C@H]2O)c(-c2ccc(O)cc2)oc2cc(O)cc(O)c12
REMARK SMILES IDX 4 1 3 2 16 3 24 4 2 5 25 6 1 7 32 8 26 9 30 10 27 11 29 12
REMARK SMILES IDX 17 13 18 14 19 15 20 16 23 17 22 18 21 19 31 21 28 23 5 25
REMARK SMILES IDX 14 26 6 27 12 28 7 29 10 30 15 31 13 33 8 35 9 36 11 38
REMARK H PARENT 21 20 31 22 28 24 15 32 13 34 9 37 11 39
REMARK Flexibility Score: inf
ROOT
ATOM      1  O   UNL     1      -0.714   1.505  -1.844  1.00  0.00    -0.454 OA
ENDROOT
BRANCH   1   2
ATOM      2  C   UNL     1      -0.558   0.190  -1.367  1.00  0.00     0.214 A 
ATOM      3  C   UNL     1      -0.857  -0.075  -0.021  1.00  0.00     0.180 A 
ATOM      4  O   UNL     1      -0.597  -1.270   0.499  1.00  0.00    -0.452 OA
ATOM      5  C   UNL     1      -0.084  -0.867  -2.172  1.00  0.00     0.239 A 
ATOM      6  C   UNL     1      -0.120  -2.283  -0.211  1.00  0.00     0.146 A 
ATOM      7  O   UNL     1       0.177  -0.649  -3.383  1.00  0.00    -0.285 OA
ATOM      8  C   UNL     1       0.112  -2.150  -1.605  1.00  0.00     0.111 A 
ATOM      9  C   UNL     1       0.154  -3.487   0.445  1.00  0.00     0.094 A 
ATOM     10  C   UNL     1       0.568  -3.294  -2.330  1.00  0.00     0.134 A 
ATOM     11  C   UNL     1       0.664  -4.574  -0.260  1.00  0.00     0.123 A 
ATOM     12  C   UNL     1       0.867  -4.474  -1.639  1.00  0.00     0.093 A 
BRANCH   3  13
ATOM     13  C   UNL     1      -1.413   0.970   0.862  1.00  0.00     0.021 A 
ATOM     14  C   UNL     1      -0.581   1.717   1.711  1.00  0.00     0.016 A 
ATOM     15  C   UNL     1      -1.116   2.721   2.522  1.00  0.00     0.047 A 
ATOM     16  C   UNL     1      -2.489   2.990   2.493  1.00  0.00     0.115 A 
ATOM     17  C   UNL     1      -2.787   1.261   0.818  1.00  0.00     0.016 A 
ATOM     18  C   UNL     1      -3.323   2.257   1.639  1.00  0.00     0.047 A 
BRANCH  16  19
ATOM     19  O   UNL     1      -3.010   3.988   3.312  1.00  0.00    -0.508 OA
ATOM     20  H   UNL     1      -2.713   4.954   3.220  1.00  0.00     0.293 HD
ENDBRANCH  16  19
ENDBRANCH   3  13
BRANCH  10  21
ATOM     21  O   UNL     1       0.719  -3.327  -3.720  1.00  0.00    -0.507 OA
ATOM     22  H   UNL     1       0.734  -4.170  -4.275  1.00  0.00     0.293 HD
ENDBRANCH  10  21
BRANCH  11  23
ATOM     23  O   UNL     1       0.961  -5.755   0.420  1.00  0.00    -0.508 OA
ATOM     24  H   UNL     1       0.318  -6.153   1.096  1.00  0.00     0.293 HD
ENDBRANCH  11  23
ENDBRANCH   1   2
BRANCH   1  25
ATOM     25  C   UNL     1      -0.503   1.929  -3.191  1.00  0.00     0.339 C 
ATOM     26  C   UNL     1       0.584   3.029  -3.203  1.00  0.00     0.214 C 
ATOM     27  O   UNL     1      -1.755   2.299  -3.768  1.00  0.00    -0.332 OA
ATOM     28  C   UNL     1       0.063   4.325  -2.549  1.00  0.00     0.180 C 
ATOM     29  C   UNL     1      -1.885   3.678  -4.085  1.00  0.00     0.179 C 
ATOM     30  C   UNL     1      -1.427   4.576  -2.906  1.00  0.00     0.177 C 
BRANCH  26  31
ATOM     31  O   UNL     1       1.737   2.560  -2.548  1.00  0.00    -0.384 OA
ATOM     32  H   UNL     1       2.171   1.912  -3.163  1.00  0.00     0.211 HD
ENDBRANCH  26  31
BRANCH  28  33
ATOM     33  O   UNL     1       0.213   4.250  -1.154  1.00  0.00    -0.387 OA
ATOM     34  H   UNL     1      -0.681   4.023  -0.783  1.00  0.00     0.211 HD
ENDBRANCH  28  33
BRANCH  29  35
ATOM     35  C   UNL     1      -3.345   3.953  -4.481  1.00  0.00     0.191 C 
BRANCH  35  36
ATOM     36  O   UNL     1      -4.022   4.666  -3.481  1.00  0.00    -0.394 OA
ATOM     37  H   UNL     1      -3.415   5.396  -3.188  1.00  0.00     0.210 HD
ENDBRANCH  35  36
ENDBRANCH  29  35
BRANCH  30  38
ATOM     38  O   UNL     1      -1.647   5.938  -3.183  1.00  0.00    -0.387 OA
ATOM     39  H   UNL     1      -2.145   6.321  -2.416  1.00  0.00     0.211 HD
ENDBRANCH  30  38
ENDBRANCH   1  25
TORSDOF 11
ENDMDL
MODEL 3
REMARK VINA RESULT:    56.734      2.439      6.184
REMARK INTER + INTRA:          86.326
REMARK INTER:                  86.926
REMARK INTRA:                  -0.600
REMARK UNBOUND:                 4.717
REMARK SMILES O=c1c(O[C@H]2O[C@@H](CO)[C@H](O)[C@@H](O)[C@H]2O)c(-c2ccc(O)cc2)oc2cc(O)cc(O)c12
REMARK SMILES IDX 4 1 3 2 16 3 24 4 2 5 25 6 1 7 32 8 26 9 30 10 27 11 29 12
REMARK SMILES IDX 17 13 18 14 19 15 20 16 23 17 22 18 21 19 31 21 28 23 5 25
REMARK SMILES IDX 14 26 6 27 12 28 7 29 10 30 15 31 13 33 8 35 9 36 11 38
REMARK H PARENT 21 20 31 22 28 24 15 32 13 34 9 37 11 39
REMARK Flexibility Score: inf
ROOT
ATOM      1  O   UNL     1      -1.465   0.952  -0.180  1.00  0.00    -0.454 OA
ENDROOT
BRANCH   1   2
ATOM      2  C   UNL     1      -0.739   0.125  -1.057  1.00  0.00     0.214 A 
ATOM      3  C   UNL     1      -0.408   0.622  -2.327  1.00  0.00     0.180 A 
ATOM      4  O   UNL     1       0.159  -0.173  -3.229  1.00  0.00    -0.452 OA
ATOM      5  C   UNL     1      -0.358  -1.194  -0.729  1.00  0.00     0.239 A 
ATOM      6  C   UNL     1       0.504  -1.427  -2.977  1.00  0.00     0.146 A 
ATOM      7  O   UNL     1      -0.637  -1.650   0.409  1.00  0.00    -0.285 OA
ATOM      8  C   UNL     1       0.312  -1.992  -1.689  1.00  0.00     0.111 A 
ATOM      9  C   UNL     1       1.058  -2.187  -4.012  1.00  0.00     0.094 A 
ATOM     10  C   UNL     1       0.760  -3.328  -1.459  1.00  0.00     0.134 A 
ATOM     11  C   UNL     1       1.428  -3.512  -3.794  1.00  0.00     0.123 A 
ATOM     12  C   UNL     1       1.279  -4.075  -2.524  1.00  0.00     0.093 A 
BRANCH   3  13
ATOM     13  C   UNL     1      -0.723   2.012  -2.714  1.00  0.00     0.021 A 
ATOM     14  C   UNL     1       0.098   3.077  -2.310  1.00  0.00     0.016 A 
ATOM     15  C   UNL     1      -0.195   4.385  -2.705  1.00  0.00     0.047 A 
ATOM     16  C   UNL     1      -1.311   4.643  -3.508  1.00  0.00     0.115 A 
ATOM     17  C   UNL     1      -1.827   2.273  -3.542  1.00  0.00     0.016 A 
ATOM     18  C   UNL     1      -2.126   3.583  -3.926  1.00  0.00     0.047 A 
BRANCH  16  19
ATOM     19  O   UNL     1      -1.595   5.951  -3.889  1.00  0.00    -0.508 OA
ATOM     20  H   UNL     1      -0.936   6.498  -4.433  1.00  0.00     0.293 HD
ENDBRANCH  16  19
ENDBRANCH   3  13
BRANCH  10  21
ATOM     21  O   UNL     1       0.738  -3.954  -0.208  1.00  0.00    -0.507 OA
ATOM     22  H   UNL     1       0.047  -3.784   0.507  1.00  0.00     0.293 HD
ENDBRANCH  10  21
BRANCH  11  23
ATOM     23  O   UNL     1       1.949  -4.262  -4.848  1.00  0.00    -0.508 OA
ATOM     24  H   UNL     1       2.797  -4.808  -4.742  1.00  0.00     0.293 HD
ENDBRANCH  11  23
ENDBRANCH   1   2
BRANCH   1  25
ATOM     25  C   UNL     1      -1.685   0.698   1.209  1.00  0.00     0.339 C 
ATOM     26  C   UNL     1      -3.202   0.772   1.495  1.00  0.00     0.214 C 
ATOM     27  O   UNL     1      -0.871   1.581   1.981  1.00  0.00    -0.332 OA
ATOM     28  C   UNL     1      -3.718   2.220   1.361  1.00  0.00     0.180 C 
ATOM     29  C   UNL     1      -1.588   2.536   2.752  1.00  0.00     0.179 C 
ATOM     30  C   UNL     1      -2.682   3.239   1.907  1.00  0.00     0.177 C 
BRANCH  26  31
ATOM     31  O   UNL     1      -3.890  -0.092   0.625  1.00  0.00    -0.384 OA
ATOM     32  H   UNL     1      -4.807   0.277   0.522  1.00  0.00     0.211 HD
ENDBRANCH  26  31
BRANCH  28  33
ATOM     33  O   UNL     1      -4.000   2.503   0.013  1.00  0.00    -0.387 OA
ATOM     34  H   UNL     1      -3.256   3.071  -0.321  1.00  0.00     0.211 HD
ENDBRANCH  28  33
BRANCH  29  35
ATOM     35  C   UNL     1      -0.584   3.541   3.340  1.00  0.00     0.191 C 
BRANCH  35  36
ATOM     36  O   UNL     1      -1.207   4.423   4.236  1.00  0.00    -0.394 OA
ATOM     37  H   UNL     1      -2.185   4.275   4.150  1.00  0.00     0.210 HD
ENDBRANCH  35  36
ENDBRANCH  29  35
BRANCH  30  38
ATOM     38  O   UNL     1      -3.325   4.253   2.642  1.00  0.00    -0.387 OA
ATOM     39  H   UNL     1      -3.165   5.110   2.170  1.00  0.00     0.211 HD
ENDBRANCH  30  38
ENDBRANCH   1  25
TORSDOF 11
ENDMDL
