MODEL 1
REMARK VINA RESULT:    -4.355      0.000      0.000
REMARK INTER + INTRA:          -5.454
REMARK INTER:                  -5.373
REMARK INTRA:                  -0.081
REMARK UNBOUND:                -0.081
REMARK SMILES CCCCCC=O
REMARK SMILES IDX 4 1 3 2 2 3 1 4 5 5 6 6 7 7
REMARK H PARENT
REMARK Flexibility Score: inf
ROOT
ATOM      1  C   UNL     1     -36.240  71.353 -18.811  1.00  0.00     0.008 C 
ENDROOT
BRANCH   1   2
ATOM      2  C   UNL     1     -34.747  71.094 -19.046  1.00  0.00     0.000 C 
BRANCH   2   3
ATOM      3  C   UNL     1     -34.438  69.593 -19.017  1.00  0.00    -0.003 C 
ATOM      4  C   UNL     1     -35.630  68.794 -18.497  1.00  0.00     0.004 C 
ENDBRANCH   2   3
ENDBRANCH   1   2
BRANCH   1   5
ATOM      5  C   UNL     1     -36.518  72.851 -18.649  1.00  0.00     0.072 C 
BRANCH   5   6
ATOM      6  C   UNL     1     -37.752  73.251 -19.401  1.00  0.00     0.224 C 
ATOM      7  O   UNL     1     -38.586  72.415 -19.714  1.00  0.00    -0.303 OA
ENDBRANCH   5   6
ENDBRANCH   1   5
TORSDOF 4
ENDMDL
MODEL 2
REMARK VINA RESULT:    -4.331      2.059      3.890
REMARK INTER + INTRA:          -5.425
REMARK INTER:                  -5.338
REMARK INTRA:                  -0.086
REMARK UNBOUND:                -0.081
REMARK SMILES CCCCCC=O
REMARK SMILES IDX 4 1 3 2 2 3 1 4 5 5 6 6 7 7
REMARK H PARENT
REMARK Flexibility Score: inf
ROOT
ATOM      1  C   UNL     1     -36.157  71.247 -18.688  1.00  0.00     0.008 C 
ENDROOT
BRANCH   1   2
ATOM      2  C   UNL     1     -36.512  72.738 -18.684  1.00  0.00     0.000 C 
BRANCH   2   3
ATOM      3  C   UNL     1     -37.847  72.988 -19.396  1.00  0.00    -0.003 C 
ATOM      4  C   UNL     1     -38.583  71.678 -19.662  1.00  0.00     0.004 C 
ENDBRANCH   2   3
ENDBRANCH   1   2
BRANCH   1   5
ATOM      5  C   UNL     1     -34.694  71.032 -19.088  1.00  0.00     0.072 C 
BRANCH   5   6
ATOM      6  C   UNL     1     -34.360  69.571 -19.139  1.00  0.00     0.224 C 
ATOM      7  O   UNL     1     -35.151  68.740 -18.720  1.00  0.00    -0.303 OA
ENDBRANCH   5   6
ENDBRANCH   1   5
TORSDOF 4
ENDMDL
MODEL 3
REMARK VINA RESULT:    -4.255      2.358      4.166
REMARK INTER + INTRA:          -5.332
REMARK INTER:                  -5.227
REMARK INTRA:                  -0.104
REMARK UNBOUND:                -0.081
REMARK SMILES CCCCCC=O
REMARK SMILES IDX 4 1 3 2 2 3 1 4 5 5 6 6 7 7
REMARK H PARENT
REMARK Flexibility Score: inf
ROOT
ATOM      1  C   UNL     1     -36.522  70.100 -18.666  1.00  0.00     0.008 C 
ENDROOT
BRANCH   1   2
ATOM      2  C   UNL     1     -37.641  71.103 -18.972  1.00  0.00     0.000 C 
BRANCH   2   3
ATOM      3  C   UNL     1     -37.110  72.541 -18.953  1.00  0.00    -0.003 C 
ATOM      4  C   UNL     1     -38.060  73.489 -19.680  1.00  0.00     0.004 C 
ENDBRANCH   2   3
ENDBRANCH   1   2
BRANCH   1   5
ATOM      5  C   UNL     1     -35.144  70.719 -18.918  1.00  0.00     0.072 C 
BRANCH   5   6
ATOM      6  C   UNL     1     -34.117  69.658 -19.174  1.00  0.00     0.224 C 
ATOM      7  O   UNL     1     -34.392  68.478 -19.018  1.00  0.00    -0.303 OA
ENDBRANCH   5   6
ENDBRANCH   1   5
TORSDOF 4
ENDMDL
MODEL 4
REMARK VINA RESULT:    -3.955      1.237      1.600
REMARK INTER + INTRA:          -4.960
REMARK INTER:                  -4.866
REMARK INTRA:                  -0.095
REMARK UNBOUND:                -0.081
REMARK SMILES CCCCCC=O
REMARK SMILES IDX 4 1 3 2 2 3 1 4 5 5 6 6 7 7
REMARK H PARENT
REMARK Flexibility Score: inf
ROOT
ATOM      1  C   UNL     1     -37.646  71.158 -19.010  1.00  0.00     0.008 C 
ENDROOT
BRANCH   1   2
ATOM      2  C   UNL     1     -36.513  70.205 -18.612  1.00  0.00     0.000 C 
BRANCH   2   3
ATOM      3  C   UNL     1     -35.143  70.811 -18.938  1.00  0.00    -0.003 C 
ATOM      4  C   UNL     1     -34.105  69.722 -19.195  1.00  0.00     0.004 C 
ENDBRANCH   2   3
ENDBRANCH   1   2
BRANCH   1   5
ATOM      5  C   UNL     1     -37.170  72.614 -18.992  1.00  0.00     0.072 C 
BRANCH   5   6
ATOM      6  C   UNL     1     -38.098  73.492 -19.775  1.00  0.00     0.224 C 
ATOM      7  O   UNL     1     -38.280  74.654 -19.445  1.00  0.00    -0.303 OA
ENDBRANCH   5   6
ENDBRANCH   1   5
TORSDOF 4
ENDMDL
MODEL 5
REMARK VINA RESULT:    -3.670      1.340      2.062
REMARK INTER + INTRA:          -4.609
REMARK INTER:                  -4.499
REMARK INTRA:                  -0.110
REMARK UNBOUND:                -0.081
REMARK SMILES CCCCCC=O
REMARK SMILES IDX 4 1 3 2 2 3 1 4 5 5 6 6 7 7
REMARK H PARENT
REMARK Flexibility Score: inf
ROOT
ATOM      1  C   UNL     1     -36.555  70.230 -18.197  1.00  0.00     0.008 C 
ENDROOT
BRANCH   1   2
ATOM      2  C   UNL     1     -35.376  69.547 -18.900  1.00  0.00     0.000 C 
BRANCH   2   3
ATOM      3  C   UNL     1     -34.246  70.546 -19.176  1.00  0.00    -0.003 C 
ATOM      4  C   UNL     1     -34.636  71.954 -18.737  1.00  0.00     0.004 C 
ENDBRANCH   2   3
ENDBRANCH   1   2
BRANCH   1   5
ATOM      5  C   UNL     1     -37.816  70.180 -19.067  1.00  0.00     0.072 C 
BRANCH   5   6
ATOM      6  C   UNL     1     -38.261  71.560 -19.446  1.00  0.00     0.224 C 
ATOM      7  O   UNL     1     -39.316  71.731 -20.038  1.00  0.00    -0.303 OA
ENDBRANCH   5   6
ENDBRANCH   1   5
TORSDOF 4
ENDMDL
MODEL 6
REMARK VINA RESULT:    -3.551      2.120      2.431
REMARK INTER + INTRA:          -4.463
REMARK INTER:                  -4.379
REMARK INTRA:                  -0.083
REMARK UNBOUND:                -0.081
REMARK SMILES CCCCCC=O
REMARK SMILES IDX 4 1 3 2 2 3 1 4 5 5 6 6 7 7
REMARK H PARENT
REMARK Flexibility Score: inf
ROOT
ATOM      1  C   UNL     1     -36.526  71.068 -18.785  1.00  0.00     0.008 C 
ENDROOT
BRANCH   1   2
ATOM      2  C   UNL     1     -35.273  70.198 -18.939  1.00  0.00     0.000 C 
BRANCH   2   3
ATOM      3  C   UNL     1     -35.548  68.755 -18.502  1.00  0.00    -0.003 C 
ATOM      4  C   UNL     1     -34.355  67.851 -18.801  1.00  0.00     0.004 C 
ENDBRANCH   2   3
ENDBRANCH   1   2
BRANCH   1   5
ATOM      5  C   UNL     1     -36.154  72.546 -18.631  1.00  0.00     0.072 C 
BRANCH   5   6
ATOM      6  C   UNL     1     -34.689  72.705 -18.357  1.00  0.00     0.224 C 
ATOM      7  O   UNL     1     -34.292  73.557 -17.577  1.00  0.00    -0.303 OA
ENDBRANCH   5   6
ENDBRANCH   1   5
TORSDOF 4
ENDMDL
MODEL 7
REMARK VINA RESULT:    -3.340      9.366      9.795
REMARK INTER + INTRA:          -4.202
REMARK INTER:                  -4.028
REMARK INTRA:                  -0.174
REMARK UNBOUND:                -0.081
REMARK SMILES CCCCCC=O
REMARK SMILES IDX 4 1 3 2 2 3 1 4 5 5 6 6 7 7
REMARK H PARENT
REMARK Flexibility Score: inf
ROOT
ATOM      1  C   UNL     1     -38.932  72.223  -8.878  1.00  0.00     0.008 C 
ENDROOT
BRANCH   1   2
ATOM      2  C   UNL     1     -38.661  71.284 -10.060  1.00  0.00     0.000 C 
BRANCH   2   3
ATOM      3  C   UNL     1     -39.881  70.405 -10.355  1.00  0.00    -0.003 C 
ATOM      4  C   UNL     1     -41.180  71.132 -10.017  1.00  0.00     0.004 C 
ENDBRANCH   2   3
ENDBRANCH   1   2
BRANCH   1   5
ATOM      5  C   UNL     1     -38.252  73.580  -9.087  1.00  0.00     0.072 C 
BRANCH   5   6
ATOM      6  C   UNL     1     -38.515  74.105 -10.466  1.00  0.00     0.224 C 
ATOM      7  O   UNL     1     -37.606  74.568 -11.137  1.00  0.00    -0.303 OA
ENDBRANCH   5   6
ENDBRANCH   1   5
TORSDOF 4
ENDMDL
MODEL 8
REMARK VINA RESULT:    -3.189      9.388      9.837
REMARK INTER + INTRA:          -4.016
REMARK INTER:                  -3.788
REMARK INTRA:                  -0.228
REMARK UNBOUND:                -0.081
REMARK SMILES CCCCCC=O
REMARK SMILES IDX 4 1 3 2 2 3 1 4 5 5 6 6 7 7
REMARK H PARENT
REMARK Flexibility Score: inf
ROOT
ATOM      1  C   UNL     1     -38.157  73.232  -8.919  1.00  0.00     0.008 C 
ENDROOT
BRANCH   1   2
ATOM      2  C   UNL     1     -39.130  72.048  -8.876  1.00  0.00     0.000 C 
BRANCH   2   3
ATOM      3  C   UNL     1     -38.835  71.053 -10.004  1.00  0.00    -0.003 C 
ATOM      4  C   UNL     1     -39.886  71.140 -11.107  1.00  0.00     0.004 C 
ENDBRANCH   2   3
ENDBRANCH   1   2
BRANCH   1   5
ATOM      5  C   UNL     1     -38.913  74.565  -8.927  1.00  0.00     0.072 C 
BRANCH   5   6
ATOM      6  C   UNL     1     -39.497  74.843 -10.279  1.00  0.00     0.224 C 
ATOM      7  O   UNL     1     -38.847  74.629 -11.291  1.00  0.00    -0.303 OA
ENDBRANCH   5   6
ENDBRANCH   1   5
TORSDOF 4
ENDMDL
MODEL 9
REMARK VINA RESULT:    -3.175      9.148      9.814
REMARK INTER + INTRA:          -3.998
REMARK INTER:                  -3.795
REMARK INTRA:                  -0.203
REMARK UNBOUND:                -0.081
REMARK SMILES CCCCCC=O
REMARK SMILES IDX 4 1 3 2 2 3 1 4 5 5 6 6 7 7
REMARK H PARENT
REMARK Flexibility Score: inf
ROOT
ATOM      1  C   UNL     1     -38.879  71.094  -9.230  1.00  0.00     0.008 C 
ENDROOT
BRANCH   1   2
ATOM      2  C   UNL     1     -39.050  72.583  -8.904  1.00  0.00     0.000 C 
BRANCH   2   3
ATOM      3  C   UNL     1     -37.781  73.371  -9.251  1.00  0.00    -0.003 C 
ATOM      4  C   UNL     1     -38.034  74.348 -10.395  1.00  0.00     0.004 C 
ENDBRANCH   2   3
ENDBRANCH   1   2
BRANCH   1   5
ATOM      5  C   UNL     1     -39.505  70.754 -10.586  1.00  0.00     0.072 C 
BRANCH   5   6
ATOM      6  C   UNL     1     -40.700  71.617 -10.858  1.00  0.00     0.224 C 
ATOM      7  O   UNL     1     -40.771  72.272 -11.886  1.00  0.00    -0.303 OA
ENDBRANCH   5   6
ENDBRANCH   1   5
TORSDOF 4
ENDMDL
