MODEL 1
REMARK VINA RESULT:    -6.085      0.000      0.000
REMARK INTER + INTRA:          -9.775
REMARK INTER:                  -9.108
REMARK INTRA:                  -0.667
REMARK UNBOUND:                -0.667
REMARK SMILES C=C(CC[C@@H](C(=O)[O-])[C@H]1[C@@H](O)C[C@@]2(C)C3=C(CC[C@@]12C)[C@]1(C)CC[C@H](OC(C)=O)C(C)(C)[C@@H]1CC3)C(C)C
REMARK SMILES IDX 4 1 5 2 6 3 7 4 8 5 9 6 10 7 19 8 12 9 13 10 18 11 20 12
REMARK SMILES IDX 14 13 15 14 17 15 16 16 35 17 21 18 34 19 33 20 23 21 22 22
REMARK SMILES IDX 30 23 24 24 25 25 31 26 32 27 11 28 26 30 27 31 29 32 28 33
REMARK SMILES IDX 3 34 2 35 1 36 36 37 37 38 38 39
REMARK H PARENT 11 29
REMARK Flexibility Score: inf
ROOT
ATOM      1  C   UNL     1      13.792 -42.616  -7.957  1.00  0.00     0.014 C 
ENDROOT
BRANCH   1   2
ATOM      2  C   UNL     1      15.085 -43.287  -7.424  1.00  0.00     0.042 C 
BRANCH   2   3
ATOM      3  C   UNL     1      14.725 -44.324  -6.393  1.00  0.00     0.045 C 
ATOM      4  O   UNL     1      15.142 -44.211  -5.209  1.00  0.00    -0.550 OA
ATOM      5  O   UNL     1      13.872 -45.373  -6.725  1.00  0.00    -0.550 OA
ENDBRANCH   2   3
BRANCH   2   6
ATOM      6  C   UNL     1      15.915 -43.920  -8.592  1.00  0.00     0.033 C 
ATOM      7  C   UNL     1      16.153 -42.960  -9.782  1.00  0.00     0.119 C 
ATOM      8  C   UNL     1      17.327 -44.513  -8.259  1.00  0.00    -0.017 C 
ATOM      9  C   UNL     1      17.470 -43.390 -10.440  1.00  0.00     0.043 C 
ATOM     10  C   UNL     1      17.999 -44.628  -9.676  1.00  0.00    -0.003 C 
ATOM     11  C   UNL     1      18.146 -43.530  -7.386  1.00  0.00     0.012 C 
ATOM     12  C   UNL     1      17.240 -45.888  -7.536  1.00  0.00     0.013 C 
ATOM     13  C   UNL     1      17.523 -45.920 -10.420  1.00  0.00     0.017 C 
ATOM     14  C   UNL     1      19.545 -44.591  -9.641  1.00  0.00    -0.064 C 
ATOM     15  C   UNL     1      19.583 -44.009  -7.205  1.00  0.00     0.032 C 
ATOM     16  C   UNL     1      20.279 -44.366  -8.511  1.00  0.00    -0.064 C 
ATOM     17  C   UNL     1      20.302 -44.794 -10.930  1.00  0.00     0.032 C 
ATOM     18  C   UNL     1      21.841 -44.461  -8.522  1.00  0.00    -0.008 C 
ATOM     19  C   UNL     1      21.338 -45.879 -10.694  1.00  0.00     0.009 C 
ATOM     20  C   UNL     1      22.420 -45.395  -9.692  1.00  0.00     0.009 C 
ATOM     21  C   UNL     1      22.384 -43.012  -8.651  1.00  0.00     0.015 C 
ATOM     22  C   UNL     1      22.297 -45.043  -7.150  1.00  0.00     0.016 C 
ATOM     23  C   UNL     1      23.747 -44.881 -10.407  1.00  0.00     0.005 C 
ATOM     24  C   UNL     1      23.917 -42.900  -8.758  1.00  0.00     0.047 C 
ATOM     25  C   UNL     1      24.626 -44.122  -9.376  1.00  0.00     0.182 C 
ATOM     26  C   UNL     1      24.555 -46.108 -10.910  1.00  0.00     0.015 C 
ATOM     27  C   UNL     1      23.495 -43.971 -11.645  1.00  0.00     0.015 C 
BRANCH   7  28
ATOM     28  O   UNL     1      16.262 -41.625  -9.346  1.00  0.00    -0.393 OA
ATOM     29  H   UNL     1      16.186 -41.637  -8.355  1.00  0.00     0.210 HD
ENDBRANCH   7  28
BRANCH  25  30
ATOM     30  O   UNL     1      25.852 -43.701  -9.983  1.00  0.00    -0.462 OA
BRANCH  30  31
ATOM     31  C   UNL     1      27.111 -43.938  -9.420  1.00  0.00     0.302 C 
ATOM     32  O   UNL     1      28.159 -43.839 -10.107  1.00  0.00    -0.253 OA
ATOM     33  C   UNL     1      27.212 -44.236  -7.959  1.00  0.00     0.139 C 
ENDBRANCH  30  31
ENDBRANCH  25  30
ENDBRANCH   2   6
ENDBRANCH   1   2
BRANCH   1  34
ATOM     34  C   UNL     1      12.933 -41.979  -6.847  1.00  0.00     0.031 C 
BRANCH  34  35
ATOM     35  C   UNL     1      11.458 -42.068  -7.169  1.00  0.00    -0.075 C 
ATOM     36  C   UNL     1      11.000 -43.123  -7.867  1.00  0.00     0.008 C 
BRANCH  35  37
ATOM     37  C   UNL     1      10.502 -41.008  -6.640  1.00  0.00     0.008 C 
ATOM     38  C   UNL     1      11.019 -40.407  -5.328  1.00  0.00     0.012 C 
ATOM     39  C   UNL     1      10.238 -39.913  -7.682  1.00  0.00     0.012 C 
ENDBRANCH  35  37
ENDBRANCH  34  35
ENDBRANCH   1  34
TORSDOF 9
ENDMDL
MODEL 2
REMARK VINA RESULT:    -6.053     11.689     15.083
REMARK INTER + INTRA:          -9.727
REMARK INTER:                  -9.386
REMARK INTRA:                  -0.341
REMARK UNBOUND:                -0.667
REMARK SMILES C=C(CC[C@@H](C(=O)[O-])[C@H]1[C@@H](O)C[C@@]2(C)C3=C(CC[C@@]12C)[C@]1(C)CC[C@H](OC(C)=O)C(C)(C)[C@@H]1CC3)C(C)C
REMARK SMILES IDX 4 1 5 2 6 3 7 4 8 5 9 6 10 7 19 8 12 9 13 10 18 11 20 12
REMARK SMILES IDX 14 13 15 14 17 15 16 16 35 17 21 18 34 19 33 20 23 21 22 22
REMARK SMILES IDX 30 23 24 24 25 25 31 26 32 27 11 28 26 30 27 31 29 32 28 33
REMARK SMILES IDX 3 34 2 35 1 36 36 37 37 38 38 39
REMARK H PARENT 11 29
REMARK Flexibility Score: inf
ROOT
ATOM      1  C   UNL     1      28.301 -44.358 -19.557  1.00  0.00     0.014 C 
ENDROOT
BRANCH   1   2
ATOM      2  C   UNL     1      27.111 -43.500 -19.054  1.00  0.00     0.042 C 
BRANCH   2   3
ATOM      3  C   UNL     1      25.825 -44.257 -19.253  1.00  0.00     0.045 C 
ATOM      4  O   UNL     1      25.322 -44.913 -18.302  1.00  0.00    -0.550 OA
ATOM      5  O   UNL     1      25.148 -44.179 -20.468  1.00  0.00    -0.550 OA
ENDBRANCH   2   3
BRANCH   2   6
ATOM      6  C   UNL     1      27.300 -43.099 -17.552  1.00  0.00     0.033 C 
ATOM      7  C   UNL     1      28.770 -43.151 -17.072  1.00  0.00     0.119 C 
ATOM      8  C   UNL     1      26.771 -41.698 -17.089  1.00  0.00    -0.017 C 
ATOM      9  C   UNL     1      28.903 -42.120 -15.943  1.00  0.00     0.043 C 
ATOM     10  C   UNL     1      27.510 -41.482 -15.718  1.00  0.00    -0.003 C 
ATOM     11  C   UNL     1      27.202 -40.589 -18.080  1.00  0.00     0.012 C 
ATOM     12  C   UNL     1      25.223 -41.669 -16.933  1.00  0.00     0.013 C 
ATOM     13  C   UNL     1      26.786 -42.249 -14.562  1.00  0.00     0.017 C 
ATOM     14  C   UNL     1      27.682 -39.995 -15.325  1.00  0.00    -0.064 C 
ATOM     15  C   UNL     1      26.852 -39.201 -17.552  1.00  0.00     0.032 C 
ATOM     16  C   UNL     1      27.333 -38.948 -16.130  1.00  0.00    -0.064 C 
ATOM     17  C   UNL     1      28.288 -39.668 -13.984  1.00  0.00     0.032 C 
ATOM     18  C   UNL     1      27.421 -37.469 -15.624  1.00  0.00    -0.008 C 
ATOM     19  C   UNL     1      27.362 -38.690 -13.283  1.00  0.00     0.009 C 
ATOM     20  C   UNL     1      27.334 -37.329 -14.029  1.00  0.00     0.009 C 
ATOM     21  C   UNL     1      28.756 -36.884 -16.160  1.00  0.00     0.015 C 
ATOM     22  C   UNL     1      26.239 -36.674 -16.258  1.00  0.00     0.016 C 
ATOM     23  C   UNL     1      28.287 -36.237 -13.368  1.00  0.00     0.005 C 
ATOM     24  C   UNL     1      29.065 -35.446 -15.700  1.00  0.00     0.047 C 
ATOM     25  C   UNL     1      28.452 -35.041 -14.344  1.00  0.00     0.182 C 
ATOM     26  C   UNL     1      27.618 -35.704 -12.071  1.00  0.00     0.015 C 
ATOM     27  C   UNL     1      29.691 -36.774 -12.961  1.00  0.00     0.015 C 
BRANCH   7  28
ATOM     28  O   UNL     1      29.659 -42.822 -18.113  1.00  0.00    -0.393 OA
ATOM     29  H   UNL     1      30.577 -42.988 -17.774  1.00  0.00     0.210 HD
ENDBRANCH   7  28
BRANCH  25  30
ATOM     30  O   UNL     1      29.259 -34.020 -13.747  1.00  0.00    -0.462 OA
BRANCH  30  31
ATOM     31  C   UNL     1      28.801 -32.720 -13.508  1.00  0.00     0.302 C 
ATOM     32  O   UNL     1      28.715 -32.267 -12.338  1.00  0.00    -0.253 OA
ATOM     33  C   UNL     1      28.487 -31.832 -14.668  1.00  0.00     0.139 C 
ENDBRANCH  30  31
ENDBRANCH  25  30
ENDBRANCH   2   6
ENDBRANCH   1   2
BRANCH   1  34
ATOM     34  C   UNL     1      28.563 -44.212 -21.070  1.00  0.00     0.031 C 
BRANCH  34  35
ATOM     35  C   UNL     1      28.412 -42.777 -21.522  1.00  0.00    -0.075 C 
ATOM     36  C   UNL     1      29.225 -41.837 -21.007  1.00  0.00     0.008 C 
BRANCH  35  37
ATOM     37  C   UNL     1      27.398 -42.427 -22.602  1.00  0.00     0.008 C 
ATOM     38  C   UNL     1      27.236 -40.909 -22.734  1.00  0.00     0.012 C 
ATOM     39  C   UNL     1      27.765 -43.063 -23.950  1.00  0.00     0.012 C 
ENDBRANCH  35  37
ENDBRANCH  34  35
ENDBRANCH   1  34
TORSDOF 9
ENDMDL
MODEL 3
REMARK VINA RESULT:    -5.924      5.094     12.257
REMARK INTER + INTRA:          -9.535
REMARK INTER:                  -9.086
REMARK INTRA:                  -0.448
REMARK UNBOUND:                -0.667
REMARK SMILES C=C(CC[C@@H](C(=O)[O-])[C@H]1[C@@H](O)C[C@@]2(C)C3=C(CC[C@@]12C)[C@]1(C)CC[C@H](OC(C)=O)C(C)(C)[C@@H]1CC3)C(C)C
REMARK SMILES IDX 4 1 5 2 6 3 7 4 8 5 9 6 10 7 19 8 12 9 13 10 18 11 20 12
REMARK SMILES IDX 14 13 15 14 17 15 16 16 35 17 21 18 34 19 33 20 23 21 22 22
REMARK SMILES IDX 30 23 24 24 25 25 31 26 32 27 11 28 26 30 27 31 29 32 28 33
REMARK SMILES IDX 3 34 2 35 1 36 36 37 37 38 38 39
REMARK H PARENT 11 29
REMARK Flexibility Score: inf
ROOT
ATOM      1  C   UNL     1      27.666 -42.562 -17.242  1.00  0.00     0.014 C 
ENDROOT
BRANCH   1   2
ATOM      2  C   UNL     1      27.208 -42.473 -15.763  1.00  0.00     0.042 C 
BRANCH   2   3
ATOM      3  C   UNL     1      27.967 -41.375 -15.067  1.00  0.00     0.045 C 
ATOM      4  O   UNL     1      27.912 -40.194 -15.500  1.00  0.00    -0.550 OA
ATOM      5  O   UNL     1      28.676 -41.647 -13.899  1.00  0.00    -0.550 OA
ENDBRANCH   2   3
BRANCH   2   6
ATOM      6  C   UNL     1      25.662 -42.239 -15.664  1.00  0.00     0.033 C 
ATOM      7  C   UNL     1      24.820 -43.306 -16.401  1.00  0.00     0.119 C 
ATOM      8  C   UNL     1      25.021 -42.129 -14.238  1.00  0.00    -0.017 C 
ATOM      9  C   UNL     1      23.473 -43.388 -15.670  1.00  0.00     0.043 C 
ATOM     10  C   UNL     1      23.492 -42.346 -14.526  1.00  0.00    -0.003 C 
ATOM     11  C   UNL     1      25.532 -43.263 -13.314  1.00  0.00     0.012 C 
ATOM     12  C   UNL     1      25.304 -40.756 -13.563  1.00  0.00     0.013 C 
ATOM     13  C   UNL     1      22.823 -41.026 -15.036  1.00  0.00     0.017 C 
ATOM     14  C   UNL     1      22.697 -42.894 -13.317  1.00  0.00    -0.064 C 
ATOM     15  C   UNL     1      24.784 -43.279 -11.985  1.00  0.00     0.032 C 
ATOM     16  C   UNL     1      23.269 -43.270 -12.135  1.00  0.00    -0.064 C 
ATOM     17  C   UNL     1      21.202 -43.049 -13.444  1.00  0.00     0.032 C 
ATOM     18  C   UNL     1      22.396 -43.702 -10.909  1.00  0.00    -0.008 C 
ATOM     19  C   UNL     1      20.561 -42.358 -12.253  1.00  0.00     0.009 C 
ATOM     20  C   UNL     1      20.908 -43.102 -10.936  1.00  0.00     0.009 C 
ATOM     21  C   UNL     1      22.366 -45.255 -10.898  1.00  0.00     0.015 C 
ATOM     22  C   UNL     1      23.108 -43.209  -9.614  1.00  0.00     0.016 C 
ATOM     23  C   UNL     1      19.749 -44.079 -10.448  1.00  0.00     0.005 C 
ATOM     24  C   UNL     1      21.483 -45.879  -9.800  1.00  0.00     0.047 C 
ATOM     25  C   UNL     1      20.297 -45.011  -9.334  1.00  0.00     0.182 C 
ATOM     26  C   UNL     1      18.600 -43.231  -9.837  1.00  0.00     0.015 C 
ATOM     27  C   UNL     1      19.117 -44.939 -11.582  1.00  0.00     0.015 C 
BRANCH   7  28
ATOM     28  O   UNL     1      25.449 -44.566 -16.367  1.00  0.00    -0.393 OA
ATOM     29  H   UNL     1      25.636 -44.822 -17.308  1.00  0.00     0.210 HD
ENDBRANCH   7  28
BRANCH  25  30
ATOM     30  O   UNL     1      19.255 -45.860  -8.840  1.00  0.00    -0.462 OA
BRANCH  30  31
ATOM     31  C   UNL     1      18.677 -45.710  -7.575  1.00  0.00     0.302 C 
ATOM     32  O   UNL     1      19.387 -45.525  -6.554  1.00  0.00    -0.253 OA
ATOM     33  C   UNL     1      17.188 -45.691  -7.451  1.00  0.00     0.139 C 
ENDBRANCH  30  31
ENDBRANCH  25  30
ENDBRANCH   2   6
ENDBRANCH   1   2
BRANCH   1  34
ATOM     34  C   UNL     1      29.040 -43.239 -17.417  1.00  0.00     0.031 C 
BRANCH  34  35
ATOM     35  C   UNL     1      29.048 -44.174 -18.605  1.00  0.00    -0.075 C 
ATOM     36  C   UNL     1      29.687 -45.354 -18.508  1.00  0.00     0.008 C 
BRANCH  35  37
ATOM     37  C   UNL     1      28.276 -43.805 -19.864  1.00  0.00     0.008 C 
ATOM     38  C   UNL     1      28.941 -42.633 -20.594  1.00  0.00     0.012 C 
ATOM     39  C   UNL     1      28.106 -45.012 -20.797  1.00  0.00     0.012 C 
ENDBRANCH  35  37
ENDBRANCH  34  35
ENDBRANCH   1  34
TORSDOF 9
ENDMDL
MODEL 4
REMARK VINA RESULT:    -5.787      5.511      9.107
REMARK INTER + INTRA:          -9.329
REMARK INTER:                  -8.504
REMARK INTRA:                  -0.826
REMARK UNBOUND:                -0.667
REMARK SMILES C=C(CC[C@@H](C(=O)[O-])[C@H]1[C@@H](O)C[C@@]2(C)C3=C(CC[C@@]12C)[C@]1(C)CC[C@H](OC(C)=O)C(C)(C)[C@@H]1CC3)C(C)C
REMARK SMILES IDX 4 1 5 2 6 3 7 4 8 5 9 6 10 7 19 8 12 9 13 10 18 11 20 12
REMARK SMILES IDX 14 13 15 14 17 15 16 16 35 17 21 18 34 19 33 20 23 21 22 22
REMARK SMILES IDX 30 23 24 24 25 25 31 26 32 27 11 28 26 30 27 31 29 32 28 33
REMARK SMILES IDX 3 34 2 35 1 36 36 37 37 38 38 39
REMARK H PARENT 11 29
REMARK Flexibility Score: inf
ROOT
ATOM      1  C   UNL     1      21.414 -44.826  -9.801  1.00  0.00     0.014 C 
ENDROOT
BRANCH   1   2
ATOM      2  C   UNL     1      21.475 -44.065 -11.151  1.00  0.00     0.042 C 
BRANCH   2   3
ATOM      3  C   UNL     1      20.452 -42.961 -11.152  1.00  0.00     0.045 C 
ATOM      4  O   UNL     1      19.559 -42.925 -12.041  1.00  0.00    -0.550 OA
ATOM      5  O   UNL     1      20.443 -42.014 -10.131  1.00  0.00    -0.550 OA
ENDBRANCH   2   3
BRANCH   2   6
ATOM      6  C   UNL     1      22.912 -43.501 -11.416  1.00  0.00     0.033 C 
ATOM      7  C   UNL     1      24.038 -44.545 -11.233  1.00  0.00     0.119 C 
ATOM      8  C   UNL     1      23.199 -42.833 -12.805  1.00  0.00    -0.017 C 
ATOM      9  C   UNL     1      25.186 -44.124 -12.158  1.00  0.00     0.043 C 
ATOM     10  C   UNL     1      24.770 -42.810 -12.862  1.00  0.00    -0.003 C 
ATOM     11  C   UNL     1      22.661 -43.712 -13.962  1.00  0.00     0.012 C 
ATOM     12  C   UNL     1      22.585 -41.408 -12.918  1.00  0.00     0.013 C 
ATOM     13  C   UNL     1      25.344 -41.601 -12.051  1.00  0.00     0.017 C 
ATOM     14  C   UNL     1      25.346 -42.789 -14.298  1.00  0.00    -0.064 C 
ATOM     15  C   UNL     1      23.090 -43.169 -15.321  1.00  0.00     0.032 C 
ATOM     16  C   UNL     1      24.584 -42.895 -15.427  1.00  0.00    -0.064 C 
ATOM     17  C   UNL     1      26.838 -42.666 -14.477  1.00  0.00     0.032 C 
ATOM     18  C   UNL     1      25.216 -42.746 -16.852  1.00  0.00    -0.008 C 
ATOM     19  C   UNL     1      27.096 -41.530 -15.450  1.00  0.00     0.009 C 
ATOM     20  C   UNL     1      26.573 -41.891 -16.867  1.00  0.00     0.009 C 
ATOM     21  C   UNL     1      25.459 -44.181 -17.393  1.00  0.00     0.015 C 
ATOM     22  C   UNL     1      24.173 -42.038 -17.768  1.00  0.00     0.016 C 
ATOM     23  C   UNL     1      27.721 -42.415 -17.839  1.00  0.00     0.005 C 
ATOM     24  C   UNL     1      26.155 -44.247 -18.767  1.00  0.00     0.047 C 
ATOM     25  C   UNL     1      27.075 -43.055 -19.098  1.00  0.00     0.182 C 
ATOM     26  C   UNL     1      28.576 -41.205 -18.306  1.00  0.00     0.015 C 
ATOM     27  C   UNL     1      28.702 -43.431 -17.184  1.00  0.00     0.015 C 
BRANCH   7  28
ATOM     28  O   UNL     1      23.599 -45.835 -11.589  1.00  0.00    -0.393 OA
ATOM     29  H   UNL     1      24.275 -46.477 -11.244  1.00  0.00     0.210 HD
ENDBRANCH   7  28
BRANCH  25  30
ATOM     30  O   UNL     1      28.090 -43.481 -20.014  1.00  0.00    -0.462 OA
BRANCH  30  31
ATOM     31  C   UNL     1      28.159 -43.044 -21.341  1.00  0.00     0.302 C 
ATOM     32  O   UNL     1      28.953 -43.576 -22.159  1.00  0.00    -0.253 OA
ATOM     33  C   UNL     1      27.218 -41.983 -21.811  1.00  0.00     0.139 C 
ENDBRANCH  30  31
ENDBRANCH  25  30
ENDBRANCH   2   6
ENDBRANCH   1   2
BRANCH   1  34
ATOM     34  C   UNL     1      20.394 -45.982  -9.797  1.00  0.00     0.031 C 
BRANCH  34  35
ATOM     35  C   UNL     1      19.366 -45.809  -8.702  1.00  0.00    -0.075 C 
ATOM     36  C   UNL     1      19.765 -45.408  -7.482  1.00  0.00     0.008 C 
BRANCH  35  37
ATOM     37  C   UNL     1      17.890 -46.018  -9.011  1.00  0.00     0.008 C 
ATOM     38  C   UNL     1      17.008 -45.450  -7.894  1.00  0.00     0.012 C 
ATOM     39  C   UNL     1      17.508 -45.423 -10.373  1.00  0.00     0.012 C 
ENDBRANCH  35  37
ENDBRANCH  34  35
ENDBRANCH   1  34
TORSDOF 9
ENDMDL
MODEL 5
REMARK VINA RESULT:    -5.735     14.714     17.841
REMARK INTER + INTRA:          -9.252
REMARK INTER:                  -8.501
REMARK INTRA:                  -0.751
REMARK UNBOUND:                -0.667
REMARK SMILES C=C(CC[C@@H](C(=O)[O-])[C@H]1[C@@H](O)C[C@@]2(C)C3=C(CC[C@@]12C)[C@]1(C)CC[C@H](OC(C)=O)C(C)(C)[C@@H]1CC3)C(C)C
REMARK SMILES IDX 4 1 5 2 6 3 7 4 8 5 9 6 10 7 19 8 12 9 13 10 18 11 20 12
REMARK SMILES IDX 14 13 15 14 17 15 16 16 35 17 21 18 34 19 33 20 23 21 22 22
REMARK SMILES IDX 30 23 24 24 25 25 31 26 32 27 11 28 26 30 27 31 29 32 28 33
REMARK SMILES IDX 3 34 2 35 1 36 36 37 37 38 38 39
REMARK H PARENT 11 29
REMARK Flexibility Score: inf
ROOT
ATOM      1  C   UNL     1      25.532 -27.268 -17.926  1.00  0.00     0.014 C 
ENDROOT
BRANCH   1   2
ATOM      2  C   UNL     1      24.942 -28.300 -16.929  1.00  0.00     0.042 C 
BRANCH   2   3
ATOM      3  C   UNL     1      24.050 -29.260 -17.669  1.00  0.00     0.045 C 
ATOM      4  O   UNL     1      24.513 -29.959 -18.610  1.00  0.00    -0.550 OA
ATOM      5  O   UNL     1      22.727 -29.435 -17.271  1.00  0.00    -0.550 OA
ENDBRANCH   2   3
BRANCH   2   6
ATOM      6  C   UNL     1      26.079 -29.061 -16.167  1.00  0.00     0.033 C 
ATOM      7  C   UNL     1      27.072 -28.130 -15.433  1.00  0.00     0.119 C 
ATOM      8  C   UNL     1      25.665 -30.134 -15.102  1.00  0.00    -0.017 C 
ATOM      9  C   UNL     1      27.617 -28.921 -14.237  1.00  0.00     0.043 C 
ATOM     10  C   UNL     1      26.987 -30.334 -14.276  1.00  0.00    -0.003 C 
ATOM     11  C   UNL     1      24.558 -29.585 -14.167  1.00  0.00     0.012 C 
ATOM     12  C   UNL     1      25.171 -31.459 -15.752  1.00  0.00     0.013 C 
ATOM     13  C   UNL     1      27.969 -31.303 -15.014  1.00  0.00     0.017 C 
ATOM     14  C   UNL     1      26.755 -30.835 -12.831  1.00  0.00    -0.064 C 
ATOM     15  C   UNL     1      24.273 -30.545 -13.016  1.00  0.00     0.032 C 
ATOM     16  C   UNL     1      25.521 -30.989 -12.265  1.00  0.00    -0.064 C 
ATOM     17  C   UNL     1      27.954 -31.158 -11.976  1.00  0.00     0.032 C 
ATOM     18  C   UNL     1      25.351 -31.615 -10.840  1.00  0.00    -0.008 C 
ATOM     19  C   UNL     1      27.756 -32.551 -11.405  1.00  0.00     0.009 C 
ATOM     20  C   UNL     1      26.565 -32.571 -10.409  1.00  0.00     0.009 C 
ATOM     21  C   UNL     1      25.192 -30.436  -9.842  1.00  0.00     0.015 C 
ATOM     22  C   UNL     1      24.035 -32.450 -10.837  1.00  0.00     0.016 C 
ATOM     23  C   UNL     1      27.024 -32.477  -8.887  1.00  0.00     0.005 C 
ATOM     24  C   UNL     1      25.090 -30.849  -8.361  1.00  0.00     0.047 C 
ATOM     25  C   UNL     1      25.789 -32.173  -7.995  1.00  0.00     0.182 C 
ATOM     26  C   UNL     1      27.600 -33.852  -8.450  1.00  0.00     0.015 C 
ATOM     27  C   UNL     1      28.134 -31.419  -8.617  1.00  0.00     0.015 C 
BRANCH   7  28
ATOM     28  O   UNL     1      26.431 -26.964 -14.970  1.00  0.00    -0.393 OA
ATOM     29  H   UNL     1      25.462 -27.172 -14.908  1.00  0.00     0.210 HD
ENDBRANCH   7  28
BRANCH  25  30
ATOM     30  O   UNL     1      26.169 -32.142  -6.615  1.00  0.00    -0.462 OA
BRANCH  30  31
ATOM     31  C   UNL     1      25.769 -31.134  -5.731  1.00  0.00     0.302 C 
ATOM     32  O   UNL     1      24.673 -31.205  -5.118  1.00  0.00    -0.253 OA
ATOM     33  C   UNL     1      26.698 -29.998  -5.451  1.00  0.00     0.139 C 
ENDBRANCH  30  31
ENDBRANCH  25  30
ENDBRANCH   2   6
ENDBRANCH   1   2
BRANCH   1  34
ATOM     34  C   UNL     1      24.457 -26.515 -18.734  1.00  0.00     0.031 C 
BRANCH  34  35
ATOM     35  C   UNL     1      24.748 -26.557 -20.217  1.00  0.00    -0.075 C 
ATOM     36  C   UNL     1      25.923 -26.086 -20.670  1.00  0.00     0.008 C 
BRANCH  35  37
ATOM     37  C   UNL     1      23.744 -27.196 -21.167  1.00  0.00     0.008 C 
ATOM     38  C   UNL     1      24.261 -28.541 -21.690  1.00  0.00     0.012 C 
ATOM     39  C   UNL     1      22.365 -27.351 -20.512  1.00  0.00     0.012 C 
ENDBRANCH  35  37
ENDBRANCH  34  35
ENDBRANCH   1  34
TORSDOF 9
ENDMDL
MODEL 6
REMARK VINA RESULT:    -5.672     11.217     14.704
REMARK INTER + INTRA:          -9.157
REMARK INTER:                  -8.394
REMARK INTRA:                  -0.763
REMARK UNBOUND:                -0.667
REMARK SMILES C=C(CC[C@@H](C(=O)[O-])[C@H]1[C@@H](O)C[C@@]2(C)C3=C(CC[C@@]12C)[C@]1(C)CC[C@H](OC(C)=O)C(C)(C)[C@@H]1CC3)C(C)C
REMARK SMILES IDX 4 1 5 2 6 3 7 4 8 5 9 6 10 7 19 8 12 9 13 10 18 11 20 12
REMARK SMILES IDX 14 13 15 14 17 15 16 16 35 17 21 18 34 19 33 20 23 21 22 22
REMARK SMILES IDX 30 23 24 24 25 25 31 26 32 27 11 28 26 30 27 31 29 32 28 33
REMARK SMILES IDX 3 34 2 35 1 36 36 37 37 38 38 39
REMARK H PARENT 11 29
REMARK Flexibility Score: inf
ROOT
ATOM      1  C   UNL     1      25.275 -42.650 -19.347  1.00  0.00     0.014 C 
ENDROOT
BRANCH   1   2
ATOM      2  C   UNL     1      24.898 -41.395 -18.519  1.00  0.00     0.042 C 
BRANCH   2   3
ATOM      3  C   UNL     1      23.632 -41.662 -17.749  1.00  0.00     0.045 C 
ATOM      4  O   UNL     1      22.624 -40.924 -17.912  1.00  0.00    -0.550 OA
ATOM      5  O   UNL     1      23.544 -42.768 -16.908  1.00  0.00    -0.550 OA
ENDBRANCH   2   3
BRANCH   2   6
ATOM      6  C   UNL     1      26.064 -40.982 -17.557  1.00  0.00     0.033 C 
ATOM      7  C   UNL     1      27.378 -40.618 -18.288  1.00  0.00     0.119 C 
ATOM      8  C   UNL     1      25.815 -39.801 -16.558  1.00  0.00    -0.017 C 
ATOM      9  C   UNL     1      28.116 -39.613 -17.395  1.00  0.00     0.043 C 
ATOM     10  C   UNL     1      27.270 -39.406 -16.115  1.00  0.00    -0.003 C 
ATOM     11  C   UNL     1      25.157 -38.598 -17.278  1.00  0.00     0.012 C 
ATOM     12  C   UNL     1      24.927 -40.221 -15.350  1.00  0.00     0.013 C 
ATOM     13  C   UNL     1      27.800 -40.369 -15.001  1.00  0.00     0.017 C 
ATOM     14  C   UNL     1      27.405 -37.940 -15.640  1.00  0.00    -0.064 C 
ATOM     15  C   UNL     1      25.074 -37.379 -16.364  1.00  0.00     0.032 C 
ATOM     16  C   UNL     1      26.395 -37.023 -15.696  1.00  0.00    -0.064 C 
ATOM     17  C   UNL     1      28.734 -37.475 -15.098  1.00  0.00     0.032 C 
ATOM     18  C   UNL     1      26.560 -35.590 -15.087  1.00  0.00    -0.008 C 
ATOM     19  C   UNL     1      28.481 -36.817 -13.753  1.00  0.00     0.009 C 
ATOM     20  C   UNL     1      27.665 -35.509 -13.927  1.00  0.00     0.009 C 
ATOM     21  C   UNL     1      26.918 -34.637 -16.260  1.00  0.00     0.015 C 
ATOM     22  C   UNL     1      25.185 -35.157 -14.496  1.00  0.00     0.016 C 
ATOM     23  C   UNL     1      28.573 -34.201 -13.914  1.00  0.00     0.005 C 
ATOM     24  C   UNL     1      27.201 -33.179 -15.848  1.00  0.00     0.047 C 
ATOM     25  C   UNL     1      27.740 -32.990 -14.416  1.00  0.00     0.182 C 
ATOM     26  C   UNL     1      29.009 -33.905 -12.452  1.00  0.00     0.015 C 
ATOM     27  C   UNL     1      29.878 -34.319 -14.756  1.00  0.00     0.015 C 
BRANCH   7  28
ATOM     28  O   UNL     1      27.118 -40.030 -19.540  1.00  0.00    -0.393 OA
ATOM     29  H   UNL     1      26.791 -40.752 -20.138  1.00  0.00     0.210 HD
ENDBRANCH   7  28
BRANCH  25  30
ATOM     30  O   UNL     1      28.520 -31.792 -14.358  1.00  0.00    -0.462 OA
BRANCH  30  31
ATOM     31  C   UNL     1      28.031 -30.580 -13.859  1.00  0.00     0.302 C 
ATOM     32  O   UNL     1      27.382 -30.535 -12.783  1.00  0.00    -0.253 OA
ATOM     33  C   UNL     1      28.356 -29.310 -14.578  1.00  0.00     0.139 C 
ENDBRANCH  30  31
ENDBRANCH  25  30
ENDBRANCH   2   6
ENDBRANCH   1   2
BRANCH   1  34
ATOM     34  C   UNL     1      25.983 -43.740 -18.517  1.00  0.00     0.031 C 
BRANCH  34  35
ATOM     35  C   UNL     1      27.290 -44.158 -19.151  1.00  0.00    -0.075 C 
ATOM     36  C   UNL     1      27.308 -44.509 -20.450  1.00  0.00     0.008 C 
BRANCH  35  37
ATOM     37  C   UNL     1      28.576 -44.107 -18.338  1.00  0.00     0.008 C 
ATOM     38  C   UNL     1      28.278 -43.908 -16.848  1.00  0.00     0.012 C 
ATOM     39  C   UNL     1      29.440 -45.355 -18.567  1.00  0.00     0.012 C 
ENDBRANCH  35  37
ENDBRANCH  34  35
ENDBRANCH   1  34
TORSDOF 9
ENDMDL
MODEL 7
REMARK VINA RESULT:    -5.657     11.711     14.986
REMARK INTER + INTRA:          -9.135
REMARK INTER:                  -8.453
REMARK INTRA:                  -0.682
REMARK UNBOUND:                -0.667
REMARK SMILES C=C(CC[C@@H](C(=O)[O-])[C@H]1[C@@H](O)C[C@@]2(C)C3=C(CC[C@@]12C)[C@]1(C)CC[C@H](OC(C)=O)C(C)(C)[C@@H]1CC3)C(C)C
REMARK SMILES IDX 4 1 5 2 6 3 7 4 8 5 9 6 10 7 19 8 12 9 13 10 18 11 20 12
REMARK SMILES IDX 14 13 15 14 17 15 16 16 35 17 21 18 34 19 33 20 23 21 22 22
REMARK SMILES IDX 30 23 24 24 25 25 31 26 32 27 11 28 26 30 27 31 29 32 28 33
REMARK SMILES IDX 3 34 2 35 1 36 36 37 37 38 38 39
REMARK H PARENT 11 29
REMARK Flexibility Score: inf
ROOT
ATOM      1  C   UNL     1      27.906 -30.897 -10.765  1.00  0.00     0.014 C 
ENDROOT
BRANCH   1   2
ATOM      2  C   UNL     1      27.322 -31.484 -12.077  1.00  0.00     0.042 C 
BRANCH   2   3
ATOM      3  C   UNL     1      27.167 -30.385 -13.094  1.00  0.00     0.045 C 
ATOM      4  O   UNL     1      28.179 -29.763 -13.514  1.00  0.00    -0.550 OA
ATOM      5  O   UNL     1      25.914 -30.100 -13.630  1.00  0.00    -0.550 OA
ENDBRANCH   2   3
BRANCH   2   6
ATOM      6  C   UNL     1      28.226 -32.638 -12.629  1.00  0.00     0.033 C 
ATOM      7  C   UNL     1      28.508 -33.758 -11.600  1.00  0.00     0.119 C 
ATOM      8  C   UNL     1      27.760 -33.386 -13.925  1.00  0.00    -0.017 C 
ATOM      9  C   UNL     1      28.734 -35.047 -12.400  1.00  0.00     0.043 C 
ATOM     10  C   UNL     1      28.630 -34.695 -13.904  1.00  0.00    -0.003 C 
ATOM     11  C   UNL     1      26.262 -33.768 -13.834  1.00  0.00     0.012 C 
ATOM     12  C   UNL     1      27.995 -32.545 -15.214  1.00  0.00     0.013 C 
ATOM     13  C   UNL     1      30.068 -34.424 -14.458  1.00  0.00     0.017 C 
ATOM     14  C   UNL     1      27.996 -35.882 -14.669  1.00  0.00    -0.064 C 
ATOM     15  C   UNL     1      25.839 -34.652 -15.004  1.00  0.00     0.032 C 
ATOM     16  C   UNL     1      26.748 -35.854 -15.222  1.00  0.00    -0.064 C 
ATOM     17  C   UNL     1      28.785 -37.160 -14.801  1.00  0.00     0.032 C 
ATOM     18  C   UNL     1      26.214 -37.045 -16.086  1.00  0.00    -0.008 C 
ATOM     19  C   UNL     1      28.802 -37.546 -16.269  1.00  0.00     0.009 C 
ATOM     20  C   UNL     1      27.376 -37.929 -16.752  1.00  0.00     0.009 C 
ATOM     21  C   UNL     1      25.320 -37.913 -15.160  1.00  0.00     0.015 C 
ATOM     22  C   UNL     1      25.326 -36.454 -17.223  1.00  0.00     0.016 C 
ATOM     23  C   UNL     1      27.131 -39.502 -16.783  1.00  0.00     0.005 C 
ATOM     24  C   UNL     1      24.758 -39.191 -15.812  1.00  0.00     0.047 C 
ATOM     25  C   UNL     1      25.613 -39.782 -16.952  1.00  0.00     0.182 C 
ATOM     26  C   UNL     1      27.865 -40.102 -18.013  1.00  0.00     0.015 C 
ATOM     27  C   UNL     1      27.663 -40.258 -15.530  1.00  0.00     0.015 C 
BRANCH   7  28
ATOM     28  O   UNL     1      27.417 -33.935 -10.727  1.00  0.00    -0.393 OA
ATOM     29  H   UNL     1      27.786 -34.269  -9.867  1.00  0.00     0.210 HD
ENDBRANCH   7  28
BRANCH  25  30
ATOM     30  O   UNL     1      25.374 -41.191 -17.040  1.00  0.00    -0.462 OA
BRANCH  30  31
ATOM     31  C   UNL     1      24.493 -41.765 -17.964  1.00  0.00     0.302 C 
ATOM     32  O   UNL     1      23.258 -41.818 -17.736  1.00  0.00    -0.253 OA
ATOM     33  C   UNL     1      25.023 -42.249 -19.274  1.00  0.00     0.139 C 
ENDBRANCH  30  31
ENDBRANCH  25  30
ENDBRANCH   2   6
ENDBRANCH   1   2
BRANCH   1  34
ATOM     34  C   UNL     1      26.837 -30.630  -9.687  1.00  0.00     0.031 C 
BRANCH  34  35
ATOM     35  C   UNL     1      27.394 -30.827  -8.295  1.00  0.00    -0.075 C 
ATOM     36  C   UNL     1      28.318 -31.781  -8.085  1.00  0.00     0.008 C 
BRANCH  35  37
ATOM     37  C   UNL     1      26.960 -29.899  -7.168  1.00  0.00     0.008 C 
ATOM     38  C   UNL     1      26.723 -28.477  -7.687  1.00  0.00     0.012 C 
ATOM     39  C   UNL     1      25.720 -30.435  -6.440  1.00  0.00     0.012 C 
ENDBRANCH  35  37
ENDBRANCH  34  35
ENDBRANCH   1  34
TORSDOF 9
ENDMDL
MODEL 8
REMARK VINA RESULT:    -5.655      3.762      5.122
REMARK INTER + INTRA:          -9.132
REMARK INTER:                  -8.029
REMARK INTRA:                  -1.104
REMARK UNBOUND:                -0.667
REMARK SMILES C=C(CC[C@@H](C(=O)[O-])[C@H]1[C@@H](O)C[C@@]2(C)C3=C(CC[C@@]12C)[C@]1(C)CC[C@H](OC(C)=O)C(C)(C)[C@@H]1CC3)C(C)C
REMARK SMILES IDX 4 1 5 2 6 3 7 4 8 5 9 6 10 7 19 8 12 9 13 10 18 11 20 12
REMARK SMILES IDX 14 13 15 14 17 15 16 16 35 17 21 18 34 19 33 20 23 21 22 22
REMARK SMILES IDX 30 23 24 24 25 25 31 26 32 27 11 28 26 30 27 31 29 32 28 33
REMARK SMILES IDX 3 34 2 35 1 36 36 37 37 38 38 39
REMARK H PARENT 11 29
REMARK Flexibility Score: inf
ROOT
ATOM      1  C   UNL     1      15.865 -45.154  -6.985  1.00  0.00     0.014 C 
ENDROOT
BRANCH   1   2
ATOM      2  C   UNL     1      16.796 -44.052  -7.555  1.00  0.00     0.042 C 
BRANCH   2   3
ATOM      3  C   UNL     1      17.428 -43.292  -6.419  1.00  0.00     0.045 C 
ATOM      4  O   UNL     1      18.131 -43.896  -5.566  1.00  0.00    -0.550 OA
ATOM      5  O   UNL     1      17.299 -41.907  -6.347  1.00  0.00    -0.550 OA
ENDBRANCH   2   3
BRANCH   2   6
ATOM      6  C   UNL     1      17.887 -44.667  -8.496  1.00  0.00     0.033 C 
ATOM      7  C   UNL     1      17.307 -45.482  -9.676  1.00  0.00     0.119 C 
ATOM      8  C   UNL     1      18.932 -43.697  -9.148  1.00  0.00    -0.017 C 
ATOM      9  C   UNL     1      18.327 -45.394 -10.818  1.00  0.00     0.043 C 
ATOM     10  C   UNL     1      19.533 -44.565 -10.313  1.00  0.00    -0.003 C 
ATOM     11  C   UNL     1      18.232 -42.453  -9.748  1.00  0.00     0.012 C 
ATOM     12  C   UNL     1      20.021 -43.232  -8.138  1.00  0.00     0.013 C 
ATOM     13  C   UNL     1      20.628 -45.545  -9.776  1.00  0.00     0.017 C 
ATOM     14  C   UNL     1      20.112 -43.731 -11.481  1.00  0.00    -0.064 C 
ATOM     15  C   UNL     1      19.209 -41.591 -10.541  1.00  0.00     0.032 C 
ATOM     16  C   UNL     1      20.019 -42.372 -11.568  1.00  0.00    -0.064 C 
ATOM     17  C   UNL     1      20.804 -44.453 -12.609  1.00  0.00     0.032 C 
ATOM     18  C   UNL     1      20.731 -41.579 -12.715  1.00  0.00    -0.008 C 
ATOM     19  C   UNL     1      22.159 -43.799 -12.816  1.00  0.00     0.009 C 
ATOM     20  C   UNL     1      21.993 -42.347 -13.340  1.00  0.00     0.009 C 
ATOM     21  C   UNL     1      19.660 -41.295 -13.803  1.00  0.00     0.015 C 
ATOM     22  C   UNL     1      21.217 -40.219 -12.129  1.00  0.00     0.016 C 
ATOM     23  C   UNL     1      22.174 -42.230 -14.918  1.00  0.00     0.005 C 
ATOM     24  C   UNL     1      20.189 -40.584 -15.064  1.00  0.00     0.047 C 
ATOM     25  C   UNL     1      21.675 -40.837 -15.390  1.00  0.00     0.182 C 
ATOM     26  C   UNL     1      23.686 -42.335 -15.260  1.00  0.00     0.015 C 
ATOM     27  C   UNL     1      21.452 -43.344 -15.730  1.00  0.00     0.015 C 
BRANCH   7  28
ATOM     28  O   UNL     1      16.075 -44.951 -10.106  1.00  0.00    -0.393 OA
ATOM     29  H   UNL     1      16.279 -44.122 -10.615  1.00  0.00     0.210 HD
ENDBRANCH   7  28
BRANCH  25  30
ATOM     30  O   UNL     1      21.882 -40.687 -16.799  1.00  0.00    -0.462 OA
BRANCH  30  31
ATOM     31  C   UNL     1      22.439 -39.541 -17.376  1.00  0.00     0.302 C 
ATOM     32  O   UNL     1      22.034 -39.110 -18.485  1.00  0.00    -0.253 OA
ATOM     33  C   UNL     1      23.477 -38.775 -16.622  1.00  0.00     0.139 C 
ENDBRANCH  30  31
ENDBRANCH  25  30
ENDBRANCH   2   6
ENDBRANCH   1   2
BRANCH   1  34
ATOM     34  C   UNL     1      14.787 -44.608  -6.028  1.00  0.00     0.031 C 
BRANCH  34  35
ATOM     35  C   UNL     1      13.780 -43.750  -6.760  1.00  0.00    -0.075 C 
ATOM     36  C   UNL     1      13.090 -44.277  -7.787  1.00  0.00     0.008 C 
BRANCH  35  37
ATOM     37  C   UNL     1      13.506 -42.331  -6.282  1.00  0.00     0.008 C 
ATOM     38  C   UNL     1      14.123 -42.086  -4.901  1.00  0.00     0.012 C 
ATOM     39  C   UNL     1      13.993 -41.288  -7.298  1.00  0.00     0.012 C 
ENDBRANCH  35  37
ENDBRANCH  34  35
ENDBRANCH   1  34
TORSDOF 9
ENDMDL
MODEL 9
REMARK VINA RESULT:    -5.594      6.674     10.518
REMARK INTER + INTRA:          -9.041
REMARK INTER:                  -8.353
REMARK INTRA:                  -0.688
REMARK UNBOUND:                -0.667
REMARK SMILES C=C(CC[C@@H](C(=O)[O-])[C@H]1[C@@H](O)C[C@@]2(C)C3=C(CC[C@@]12C)[C@]1(C)CC[C@H](OC(C)=O)C(C)(C)[C@@H]1CC3)C(C)C
REMARK SMILES IDX 4 1 5 2 6 3 7 4 8 5 9 6 10 7 19 8 12 9 13 10 18 11 20 12
REMARK SMILES IDX 14 13 15 14 17 15 16 16 35 17 21 18 34 19 33 20 23 21 22 22
REMARK SMILES IDX 30 23 24 24 25 25 31 26 32 27 11 28 26 30 27 31 29 32 28 33
REMARK SMILES IDX 3 34 2 35 1 36 36 37 37 38 38 39
REMARK H PARENT 11 29
REMARK Flexibility Score: inf
ROOT
ATOM      1  C   UNL     1      14.508 -41.973  -7.860  1.00  0.00     0.014 C 
ENDROOT
BRANCH   1   2
ATOM      2  C   UNL     1      13.541 -41.204  -8.796  1.00  0.00     0.042 C 
BRANCH   2   3
ATOM      3  C   UNL     1      12.424 -40.606  -7.983  1.00  0.00     0.045 C 
ATOM      4  O   UNL     1      12.677 -39.766  -7.079  1.00  0.00    -0.550 OA
ATOM      5  O   UNL     1      11.099 -40.923  -8.274  1.00  0.00    -0.550 OA
ENDBRANCH   2   3
BRANCH   2   6
ATOM      6  C   UNL     1      14.300 -40.099  -9.607  1.00  0.00     0.033 C 
ATOM      7  C   UNL     1      15.702 -40.534 -10.095  1.00  0.00     0.119 C 
ATOM      8  C   UNL     1      13.598 -39.497 -10.873  1.00  0.00    -0.017 C 
ATOM      9  C   UNL     1      15.990 -39.740 -11.375  1.00  0.00     0.043 C 
ATOM     10  C   UNL     1      14.786 -38.802 -11.632  1.00  0.00    -0.003 C 
ATOM     11  C   UNL     1      13.010 -40.620 -11.764  1.00  0.00     0.012 C 
ATOM     12  C   UNL     1      12.467 -38.493 -10.505  1.00  0.00     0.013 C 
ATOM     13  C   UNL     1      15.101 -37.398 -11.017  1.00  0.00     0.017 C 
ATOM     14  C   UNL     1      14.559 -38.660 -13.156  1.00  0.00    -0.064 C 
ATOM     15  C   UNL     1      12.485 -40.065 -13.085  1.00  0.00     0.032 C 
ATOM     16  C   UNL     1      13.486 -39.184 -13.820  1.00  0.00    -0.064 C 
ATOM     17  C   UNL     1      15.587 -37.920 -13.974  1.00  0.00     0.032 C 
ATOM     18  C   UNL     1      13.253 -38.901 -15.342  1.00  0.00    -0.008 C 
ATOM     19  C   UNL     1      14.858 -36.874 -14.799  1.00  0.00     0.009 C 
ATOM     20  C   UNL     1      13.945 -37.549 -15.858  1.00  0.00     0.009 C 
ATOM     21  C   UNL     1      13.795 -40.131 -16.120  1.00  0.00     0.015 C 
ATOM     22  C   UNL     1      11.717 -38.797 -15.582  1.00  0.00     0.016 C 
ATOM     23  C   UNL     1      14.607 -37.607 -17.305  1.00  0.00     0.005 C 
ATOM     24  C   UNL     1      13.727 -40.010 -17.655  1.00  0.00     0.047 C 
ATOM     25  C   UNL     1      13.789 -38.571 -18.206  1.00  0.00     0.182 C 
ATOM     26  C   UNL     1      14.548 -36.192 -17.943  1.00  0.00     0.015 C 
ATOM     27  C   UNL     1      16.104 -38.038 -17.307  1.00  0.00     0.015 C 
BRANCH   7  28
ATOM     28  O   UNL     1      15.737 -41.912 -10.381  1.00  0.00    -0.393 OA
ATOM     29  H   UNL     1      16.629 -42.104 -10.775  1.00  0.00     0.210 HD
ENDBRANCH   7  28
BRANCH  25  30
ATOM     30  O   UNL     1      14.333 -38.595 -19.530  1.00  0.00    -0.462 OA
BRANCH  30  31
ATOM     31  C   UNL     1      13.544 -38.631 -20.685  1.00  0.00     0.302 C 
ATOM     32  O   UNL     1      14.018 -39.016 -21.784  1.00  0.00    -0.253 OA
ATOM     33  C   UNL     1      12.094 -38.281 -20.590  1.00  0.00     0.139 C 
ENDBRANCH  30  31
ENDBRANCH  25  30
ENDBRANCH   2   6
ENDBRANCH   1   2
BRANCH   1  34
ATOM     34  C   UNL     1      14.208 -43.483  -7.778  1.00  0.00     0.031 C 
BRANCH  34  35
ATOM     35  C   UNL     1      15.393 -44.255  -7.244  1.00  0.00    -0.075 C 
ATOM     36  C   UNL     1      15.247 -44.995  -6.130  1.00  0.00     0.008 C 
BRANCH  35  37
ATOM     37  C   UNL     1      16.709 -44.246  -8.009  1.00  0.00     0.008 C 
ATOM     38  C   UNL     1      17.866 -44.712  -7.119  1.00  0.00     0.012 C 
ATOM     39  C   UNL     1      16.624 -45.087  -9.291  1.00  0.00     0.012 C 
ENDBRANCH  35  37
ENDBRANCH  34  35
ENDBRANCH   1  34
TORSDOF 9
ENDMDL
