MODEL 1
REMARK VINA RESULT:    -4.546      0.000      0.000
REMARK INTER + INTRA:          -9.783
REMARK INTER:                  -8.001
REMARK INTRA:                  -1.782
REMARK UNBOUND:                -1.782
REMARK SMILES CCCCCCCCCCCCCCC(=O)[O-]
REMARK SMILES IDX 9 1 10 2 11 3 12 4 13 5 14 6 15 7 16 8 17 9 8 10 7 11 6 12
REMARK SMILES IDX 5 13 4 14 3 15 2 16 1 17
REMARK H PARENT
REMARK Flexibility Score: inf
ROOT
ATOM      1  C   UNL     1     -23.592 -62.918   2.082  1.00  0.00     0.000 C 
ENDROOT
BRANCH   1   2
ATOM      2  C   UNL     1     -22.295 -62.254   1.594  1.00  0.00     0.000 C 
BRANCH   2   3
ATOM      3  C   UNL     1     -22.529 -60.845   1.022  1.00  0.00     0.000 C 
BRANCH   3   4
ATOM      4  C   UNL     1     -22.397 -60.799  -0.509  1.00  0.00     0.000 C 
BRANCH   4   5
ATOM      5  C   UNL     1     -22.759 -59.426  -1.092  1.00  0.00     0.006 C 
BRANCH   5   6
ATOM      6  C   UNL     1     -24.029 -58.870  -0.440  1.00  0.00     0.053 C 
BRANCH   6   7
ATOM      7  C   UNL     1     -25.243 -59.337  -1.179  1.00  0.00     0.041 C 
ATOM      8  O   UNL     1     -26.278 -59.674  -0.547  1.00  0.00    -0.550 OA
ATOM      9  O   UNL     1     -25.216 -59.448  -2.563  1.00  0.00    -0.550 OA
ENDBRANCH   6   7
ENDBRANCH   5   6
ENDBRANCH   4   5
ENDBRANCH   3   4
ENDBRANCH   2   3
ENDBRANCH   1   2
BRANCH   1  10
ATOM     10  C   UNL     1     -24.637 -61.896   2.560  1.00  0.00     0.000 C 
BRANCH  10  11
ATOM     11  C   UNL     1     -25.690 -62.524   3.489  1.00  0.00    -0.000 C 
BRANCH  11  12
ATOM     12  C   UNL     1     -25.312 -63.951   3.924  1.00  0.00    -0.000 C 
BRANCH  12  13
ATOM     13  C   UNL     1     -25.390 -64.146   5.446  1.00  0.00    -0.000 C 
BRANCH  13  14
ATOM     14  C   UNL     1     -24.198 -63.518   6.190  1.00  0.00    -0.000 C 
BRANCH  14  15
ATOM     15  C   UNL     1     -22.846 -63.905   5.554  1.00  0.00    -0.000 C 
BRANCH  15  16
ATOM     16  C   UNL     1     -21.921 -62.702   5.298  1.00  0.00    -0.003 C 
ATOM     17  C   UNL     1     -22.562 -61.366   5.666  1.00  0.00     0.004 C 
ENDBRANCH  15  16
ENDBRANCH  14  15
ENDBRANCH  13  14
ENDBRANCH  12  13
ENDBRANCH  11  12
ENDBRANCH  10  11
ENDBRANCH   1  10
TORSDOF 13
ENDMDL
MODEL 2
REMARK VINA RESULT:    -4.532      1.670      3.139
REMARK INTER + INTRA:          -9.758
REMARK INTER:                  -7.704
REMARK INTRA:                  -2.055
REMARK UNBOUND:                -1.782
REMARK SMILES CCCCCCCCCCCCCCC(=O)[O-]
REMARK SMILES IDX 9 1 10 2 11 3 12 4 13 5 14 6 15 7 16 8 17 9 8 10 7 11 6 12
REMARK SMILES IDX 5 13 4 14 3 15 2 16 1 17
REMARK H PARENT
REMARK Flexibility Score: inf
ROOT
ATOM      1  C   UNL     1     -24.895 -62.463   2.870  1.00  0.00     0.000 C 
ENDROOT
BRANCH   1   2
ATOM      2  C   UNL     1     -23.603 -63.283   2.729  1.00  0.00     0.000 C 
BRANCH   2   3
ATOM      3  C   UNL     1     -22.523 -62.553   1.912  1.00  0.00     0.000 C 
BRANCH   3   4
ATOM      4  C   UNL     1     -23.068 -61.315   1.184  1.00  0.00     0.000 C 
BRANCH   4   5
ATOM      5  C   UNL     1     -21.957 -60.458   0.560  1.00  0.00     0.006 C 
BRANCH   5   6
ATOM      6  C   UNL     1     -22.127 -60.362  -0.959  1.00  0.00     0.053 C 
BRANCH   6   7
ATOM      7  C   UNL     1     -23.086 -59.268  -1.310  1.00  0.00     0.041 C 
ATOM      8  O   UNL     1     -22.815 -58.073  -1.025  1.00  0.00    -0.550 OA
ATOM      9  O   UNL     1     -24.302 -59.574  -1.907  1.00  0.00    -0.550 OA
ENDBRANCH   6   7
ENDBRANCH   5   6
ENDBRANCH   4   5
ENDBRANCH   3   4
ENDBRANCH   2   3
ENDBRANCH   1   2
BRANCH   1  10
ATOM     10  C   UNL     1     -25.489 -62.535   4.288  1.00  0.00     0.000 C 
BRANCH  10  11
ATOM     11  C   UNL     1     -24.493 -63.103   5.313  1.00  0.00    -0.000 C 
BRANCH  11  12
ATOM     12  C   UNL     1     -24.013 -62.038   6.316  1.00  0.00    -0.000 C 
BRANCH  12  13
ATOM     13  C   UNL     1     -22.771 -61.279   5.822  1.00  0.00    -0.000 C 
BRANCH  13  14
ATOM     14  C   UNL     1     -23.025 -59.771   5.645  1.00  0.00    -0.000 C 
BRANCH  14  15
ATOM     15  C   UNL     1     -23.102 -59.365   4.158  1.00  0.00    -0.000 C 
BRANCH  15  16
ATOM     16  C   UNL     1     -24.506 -58.918   3.715  1.00  0.00    -0.003 C 
ATOM     17  C   UNL     1     -24.486 -58.029   2.474  1.00  0.00     0.004 C 
ENDBRANCH  15  16
ENDBRANCH  14  15
ENDBRANCH  13  14
ENDBRANCH  12  13
ENDBRANCH  11  12
ENDBRANCH  10  11
ENDBRANCH   1  10
TORSDOF 13
ENDMDL
MODEL 3
REMARK VINA RESULT:    -4.501      2.500      3.993
REMARK INTER + INTRA:          -9.704
REMARK INTER:                  -7.154
REMARK INTRA:                  -2.550
REMARK UNBOUND:                -1.782
REMARK SMILES CCCCCCCCCCCCCCC(=O)[O-]
REMARK SMILES IDX 9 1 10 2 11 3 12 4 13 5 14 6 15 7 16 8 17 9 8 10 7 11 6 12
REMARK SMILES IDX 5 13 4 14 3 15 2 16 1 17
REMARK H PARENT
REMARK Flexibility Score: inf
ROOT
ATOM      1  C   UNL     1     -22.457 -61.475   0.031  1.00  0.00     0.000 C 
ENDROOT
BRANCH   1   2
ATOM      2  C   UNL     1     -21.875 -60.089  -0.287  1.00  0.00     0.000 C 
BRANCH   2   3
ATOM      3  C   UNL     1     -22.915 -59.135  -0.900  1.00  0.00     0.000 C 
BRANCH   3   4
ATOM      4  C   UNL     1     -24.231 -59.845  -1.256  1.00  0.00     0.000 C 
BRANCH   4   5
ATOM      5  C   UNL     1     -25.459 -58.943  -1.067  1.00  0.00     0.006 C 
BRANCH   5   6
ATOM      6  C   UNL     1     -25.137 -57.492  -1.436  1.00  0.00     0.053 C 
BRANCH   6   7
ATOM      7  C   UNL     1     -25.577 -57.198  -2.835  1.00  0.00     0.041 C 
ATOM      8  O   UNL     1     -25.028 -56.275  -3.491  1.00  0.00    -0.550 OA
ATOM      9  O   UNL     1     -26.627 -57.911  -3.398  1.00  0.00    -0.550 OA
ENDBRANCH   6   7
ENDBRANCH   5   6
ENDBRANCH   4   5
ENDBRANCH   3   4
ENDBRANCH   2   3
ENDBRANCH   1   2
BRANCH   1  10
ATOM     10  C   UNL     1     -22.027 -61.994   1.415  1.00  0.00     0.000 C 
BRANCH  10  11
ATOM     11  C   UNL     1     -22.984 -61.545   2.533  1.00  0.00    -0.000 C 
BRANCH  11  12
ATOM     12  C   UNL     1     -24.462 -61.766   2.164  1.00  0.00    -0.000 C 
BRANCH  12  13
ATOM     13  C   UNL     1     -25.312 -60.499   2.343  1.00  0.00    -0.000 C 
BRANCH  13  14
ATOM     14  C   UNL     1     -24.515 -59.325   2.938  1.00  0.00    -0.000 C 
BRANCH  14  15
ATOM     15  C   UNL     1     -24.934 -57.970   2.330  1.00  0.00    -0.000 C 
BRANCH  15  16
ATOM     16  C   UNL     1     -23.752 -57.019   2.075  1.00  0.00    -0.003 C 
ATOM     17  C   UNL     1     -22.401 -57.634   2.435  1.00  0.00     0.004 C 
ENDBRANCH  15  16
ENDBRANCH  14  15
ENDBRANCH  13  14
ENDBRANCH  12  13
ENDBRANCH  11  12
ENDBRANCH  10  11
ENDBRANCH   1  10
TORSDOF 13
ENDMDL
MODEL 4
REMARK VINA RESULT:    -4.469      2.376      3.714
REMARK INTER + INTRA:          -9.647
REMARK INTER:                  -7.457
REMARK INTRA:                  -2.190
REMARK UNBOUND:                -1.782
REMARK SMILES CCCCCCCCCCCCCCC(=O)[O-]
REMARK SMILES IDX 9 1 10 2 11 3 12 4 13 5 14 6 15 7 16 8 17 9 8 10 7 11 6 12
REMARK SMILES IDX 5 13 4 14 3 15 2 16 1 17
REMARK H PARENT
REMARK Flexibility Score: inf
ROOT
ATOM      1  C   UNL     1     -22.535 -62.387   1.213  1.00  0.00     0.000 C 
ENDROOT
BRANCH   1   2
ATOM      2  C   UNL     1     -21.880 -61.399   0.236  1.00  0.00     0.000 C 
BRANCH   2   3
ATOM      3  C   UNL     1     -21.996 -59.937   0.702  1.00  0.00     0.000 C 
BRANCH   3   4
ATOM      4  C   UNL     1     -22.667 -59.033  -0.345  1.00  0.00     0.000 C 
BRANCH   4   5
ATOM      5  C   UNL     1     -23.747 -59.766  -1.153  1.00  0.00     0.006 C 
BRANCH   5   6
ATOM      6  C   UNL     1     -25.090 -59.036  -1.062  1.00  0.00     0.053 C 
BRANCH   6   7
ATOM      7  C   UNL     1     -24.963 -57.639  -1.584  1.00  0.00     0.041 C 
ATOM      8  O   UNL     1     -24.849 -57.434  -2.820  1.00  0.00    -0.550 OA
ATOM      9  O   UNL     1     -24.919 -56.568  -0.702  1.00  0.00    -0.550 OA
ENDBRANCH   6   7
ENDBRANCH   5   6
ENDBRANCH   4   5
ENDBRANCH   3   4
ENDBRANCH   2   3
ENDBRANCH   1   2
BRANCH   1  10
ATOM     10  C   UNL     1     -22.949 -61.722   2.538  1.00  0.00     0.000 C 
BRANCH  10  11
ATOM     11  C   UNL     1     -24.456 -61.857   2.817  1.00  0.00    -0.000 C 
BRANCH  11  12
ATOM     12  C   UNL     1     -25.258 -60.647   2.306  1.00  0.00    -0.000 C 
BRANCH  12  13
ATOM     13  C   UNL     1     -25.097 -59.410   3.203  1.00  0.00    -0.000 C 
BRANCH  13  14
ATOM     14  C   UNL     1     -25.151 -58.090   2.414  1.00  0.00    -0.000 C 
BRANCH  14  15
ATOM     15  C   UNL     1     -24.009 -57.130   2.807  1.00  0.00    -0.000 C 
BRANCH  15  16
ATOM     16  C   UNL     1     -22.934 -57.783   3.694  1.00  0.00    -0.003 C 
ATOM     17  C   UNL     1     -22.311 -56.811   4.693  1.00  0.00     0.004 C 
ENDBRANCH  15  16
ENDBRANCH  14  15
ENDBRANCH  13  14
ENDBRANCH  12  13
ENDBRANCH  11  12
ENDBRANCH  10  11
ENDBRANCH   1  10
TORSDOF 13
ENDMDL
MODEL 5
REMARK VINA RESULT:    -4.465      2.003      3.616
REMARK INTER + INTRA:          -9.641
REMARK INTER:                  -7.455
REMARK INTRA:                  -2.185
REMARK UNBOUND:                -1.782
REMARK SMILES CCCCCCCCCCCCCCC(=O)[O-]
REMARK SMILES IDX 9 1 10 2 11 3 12 4 13 5 14 6 15 7 16 8 17 9 8 10 7 11 6 12
REMARK SMILES IDX 5 13 4 14 3 15 2 16 1 17
REMARK H PARENT
REMARK Flexibility Score: inf
ROOT
ATOM      1  C   UNL     1     -24.338 -59.212   5.267  1.00  0.00     0.000 C 
ENDROOT
BRANCH   1   2
ATOM      2  C   UNL     1     -23.306 -58.766   4.218  1.00  0.00     0.000 C 
BRANCH   2   3
ATOM      3  C   UNL     1     -23.840 -58.868   2.779  1.00  0.00     0.000 C 
BRANCH   3   4
ATOM      4  C   UNL     1     -22.879 -59.618   1.844  1.00  0.00     0.000 C 
BRANCH   4   5
ATOM      5  C   UNL     1     -23.600 -60.636   0.948  1.00  0.00     0.006 C 
BRANCH   5   6
ATOM      6  C   UNL     1     -23.993 -60.006  -0.392  1.00  0.00     0.053 C 
BRANCH   6   7
ATOM      7  C   UNL     1     -22.774 -59.568  -1.141  1.00  0.00     0.041 C 
ATOM      8  O   UNL     1     -21.908 -60.412  -1.491  1.00  0.00    -0.550 OA
ATOM      9  O   UNL     1     -22.569 -58.221  -1.411  1.00  0.00    -0.550 OA
ENDBRANCH   6   7
ENDBRANCH   5   6
ENDBRANCH   4   5
ENDBRANCH   3   4
ENDBRANCH   2   3
ENDBRANCH   1   2
BRANCH   1  10
ATOM     10  C   UNL     1     -23.810 -60.335   6.175  1.00  0.00     0.000 C 
BRANCH  10  11
ATOM     11  C   UNL     1     -22.542 -60.999   5.612  1.00  0.00    -0.000 C 
BRANCH  11  12
ATOM     12  C   UNL     1     -22.760 -62.484   5.270  1.00  0.00    -0.000 C 
BRANCH  12  13
ATOM     13  C   UNL     1     -22.836 -62.737   3.757  1.00  0.00    -0.000 C 
BRANCH  13  14
ATOM     14  C   UNL     1     -24.071 -63.561   3.352  1.00  0.00    -0.000 C 
BRANCH  14  15
ATOM     15  C   UNL     1     -25.349 -63.092   4.080  1.00  0.00    -0.000 C 
BRANCH  15  16
ATOM     16  C   UNL     1     -25.967 -61.819   3.476  1.00  0.00    -0.003 C 
ATOM     17  C   UNL     1     -27.336 -61.483   4.064  1.00  0.00     0.004 C 
ENDBRANCH  15  16
ENDBRANCH  14  15
ENDBRANCH  13  14
ENDBRANCH  12  13
ENDBRANCH  11  12
ENDBRANCH  10  11
ENDBRANCH   1  10
TORSDOF 13
ENDMDL
MODEL 6
REMARK VINA RESULT:    -4.454      1.726      3.231
REMARK INTER + INTRA:          -9.620
REMARK INTER:                  -7.518
REMARK INTRA:                  -2.102
REMARK UNBOUND:                -1.782
REMARK SMILES CCCCCCCCCCCCCCC(=O)[O-]
REMARK SMILES IDX 9 1 10 2 11 3 12 4 13 5 14 6 15 7 16 8 17 9 8 10 7 11 6 12
REMARK SMILES IDX 5 13 4 14 3 15 2 16 1 17
REMARK H PARENT
REMARK Flexibility Score: inf
ROOT
ATOM      1  C   UNL     1     -24.352 -58.532   4.243  1.00  0.00     0.000 C 
ENDROOT
BRANCH   1   2
ATOM      2  C   UNL     1     -24.347 -58.591   2.707  1.00  0.00     0.000 C 
BRANCH   2   3
ATOM      3  C   UNL     1     -22.927 -58.551   2.117  1.00  0.00     0.000 C 
BRANCH   3   4
ATOM      4  C   UNL     1     -22.789 -59.411   0.850  1.00  0.00     0.000 C 
BRANCH   4   5
ATOM      5  C   UNL     1     -24.146 -59.773   0.231  1.00  0.00     0.006 C 
BRANCH   5   6
ATOM      6  C   UNL     1     -24.076 -59.747  -1.299  1.00  0.00     0.053 C 
BRANCH   6   7
ATOM      7  C   UNL     1     -25.357 -59.230  -1.872  1.00  0.00     0.041 C 
ATOM      8  O   UNL     1     -26.146 -58.559  -1.157  1.00  0.00    -0.550 OA
ATOM      9  O   UNL     1     -25.704 -59.530  -3.183  1.00  0.00    -0.550 OA
ENDBRANCH   6   7
ENDBRANCH   5   6
ENDBRANCH   4   5
ENDBRANCH   3   4
ENDBRANCH   2   3
ENDBRANCH   1   2
BRANCH   1  10
ATOM     10  C   UNL     1     -23.073 -59.124   4.862  1.00  0.00     0.000 C 
BRANCH  10  11
ATOM     11  C   UNL     1     -23.360 -60.363   5.728  1.00  0.00    -0.000 C 
BRANCH  11  12
ATOM     12  C   UNL     1     -22.322 -61.480   5.513  1.00  0.00    -0.000 C 
BRANCH  12  13
ATOM     13  C   UNL     1     -22.879 -62.654   4.694  1.00  0.00    -0.000 C 
BRANCH  13  14
ATOM     14  C   UNL     1     -22.815 -62.407   3.176  1.00  0.00    -0.000 C 
BRANCH  14  15
ATOM     15  C   UNL     1     -24.197 -62.545   2.505  1.00  0.00    -0.000 C 
BRANCH  15  16
ATOM     16  C   UNL     1     -25.330 -62.872   3.493  1.00  0.00    -0.003 C 
ATOM     17  C   UNL     1     -26.316 -61.720   3.675  1.00  0.00     0.004 C 
ENDBRANCH  15  16
ENDBRANCH  14  15
ENDBRANCH  13  14
ENDBRANCH  12  13
ENDBRANCH  11  12
ENDBRANCH  10  11
ENDBRANCH   1  10
TORSDOF 13
ENDMDL
MODEL 7
REMARK VINA RESULT:    -4.433      1.529      2.597
REMARK INTER + INTRA:          -9.583
REMARK INTER:                  -7.573
REMARK INTRA:                  -2.011
REMARK UNBOUND:                -1.782
REMARK SMILES CCCCCCCCCCCCCCC(=O)[O-]
REMARK SMILES IDX 9 1 10 2 11 3 12 4 13 5 14 6 15 7 16 8 17 9 8 10 7 11 6 12
REMARK SMILES IDX 5 13 4 14 3 15 2 16 1 17
REMARK H PARENT
REMARK Flexibility Score: inf
ROOT
ATOM      1  C   UNL     1     -22.422 -62.136   1.755  1.00  0.00     0.000 C 
ENDROOT
BRANCH   1   2
ATOM      2  C   UNL     1     -21.886 -62.256   0.320  1.00  0.00     0.000 C 
BRANCH   2   3
ATOM      3  C   UNL     1     -22.027 -60.948  -0.477  1.00  0.00     0.000 C 
BRANCH   3   4
ATOM      4  C   UNL     1     -22.171 -59.715   0.430  1.00  0.00     0.000 C 
BRANCH   4   5
ATOM      5  C   UNL     1     -23.346 -58.814   0.021  1.00  0.00     0.006 C 
BRANCH   5   6
ATOM      6  C   UNL     1     -24.418 -59.616  -0.722  1.00  0.00     0.053 C 
BRANCH   6   7
ATOM      7  C   UNL     1     -24.830 -58.904  -1.973  1.00  0.00     0.041 C 
ATOM      8  O   UNL     1     -24.523 -57.696  -2.144  1.00  0.00    -0.550 OA
ATOM      9  O   UNL     1     -25.595 -59.562  -2.927  1.00  0.00    -0.550 OA
ENDBRANCH   6   7
ENDBRANCH   5   6
ENDBRANCH   4   5
ENDBRANCH   3   4
ENDBRANCH   2   3
ENDBRANCH   1   2
BRANCH   1  10
ATOM     10  C   UNL     1     -23.393 -63.272   2.121  1.00  0.00     0.000 C 
BRANCH  10  11
ATOM     11  C   UNL     1     -23.605 -63.396   3.640  1.00  0.00    -0.000 C 
BRANCH  11  12
ATOM     12  C   UNL     1     -22.585 -62.571   4.444  1.00  0.00    -0.000 C 
BRANCH  12  13
ATOM     13  C   UNL     1     -23.162 -62.044   5.766  1.00  0.00    -0.000 C 
BRANCH  13  14
ATOM     14  C   UNL     1     -23.884 -60.695   5.607  1.00  0.00    -0.000 C 
BRANCH  14  15
ATOM     15  C   UNL     1     -23.332 -59.876   4.421  1.00  0.00    -0.000 C 
BRANCH  15  16
ATOM     16  C   UNL     1     -24.426 -59.181   3.592  1.00  0.00    -0.003 C 
ATOM     17  C   UNL     1     -25.349 -60.164   2.875  1.00  0.00     0.004 C 
ENDBRANCH  15  16
ENDBRANCH  14  15
ENDBRANCH  13  14
ENDBRANCH  12  13
ENDBRANCH  11  12
ENDBRANCH  10  11
ENDBRANCH   1  10
TORSDOF 13
ENDMDL
MODEL 8
REMARK VINA RESULT:    -4.415      1.738      3.116
REMARK INTER + INTRA:          -9.552
REMARK INTER:                  -7.693
REMARK INTRA:                  -1.859
REMARK UNBOUND:                -1.782
REMARK SMILES CCCCCCCCCCCCCCC(=O)[O-]
REMARK SMILES IDX 9 1 10 2 11 3 12 4 13 5 14 6 15 7 16 8 17 9 8 10 7 11 6 12
REMARK SMILES IDX 5 13 4 14 3 15 2 16 1 17
REMARK H PARENT
REMARK Flexibility Score: inf
ROOT
ATOM      1  C   UNL     1     -23.602 -57.898   2.936  1.00  0.00     0.000 C 
ENDROOT
BRANCH   1   2
ATOM      2  C   UNL     1     -22.663 -57.710   1.734  1.00  0.00     0.000 C 
BRANCH   2   3
ATOM      3  C   UNL     1     -23.374 -57.923   0.386  1.00  0.00     0.000 C 
BRANCH   3   4
ATOM      4  C   UNL     1     -22.572 -58.822  -0.569  1.00  0.00     0.000 C 
BRANCH   4   5
ATOM      5  C   UNL     1     -23.463 -59.808  -1.339  1.00  0.00     0.006 C 
BRANCH   5   6
ATOM      6  C   UNL     1     -24.942 -59.435  -1.200  1.00  0.00     0.053 C 
BRANCH   6   7
ATOM      7  C   UNL     1     -25.470 -58.901  -2.494  1.00  0.00     0.041 C 
ATOM      8  O   UNL     1     -25.329 -57.685  -2.782  1.00  0.00    -0.550 OA
ATOM      9  O   UNL     1     -26.162 -59.738  -3.361  1.00  0.00    -0.550 OA
ENDBRANCH   6   7
ENDBRANCH   5   6
ENDBRANCH   4   5
ENDBRANCH   3   4
ENDBRANCH   2   3
ENDBRANCH   1   2
BRANCH   1  10
ATOM     10  C   UNL     1     -23.467 -59.290   3.578  1.00  0.00     0.000 C 
BRANCH  10  11
ATOM     11  C   UNL     1     -24.753 -60.124   3.446  1.00  0.00    -0.000 C 
BRANCH  11  12
ATOM     12  C   UNL     1     -24.716 -61.067   2.230  1.00  0.00    -0.000 C 
BRANCH  12  13
ATOM     13  C   UNL     1     -23.292 -61.525   1.880  1.00  0.00    -0.000 C 
BRANCH  13  14
ATOM     14  C   UNL     1     -23.065 -63.024   2.148  1.00  0.00    -0.000 C 
BRANCH  14  15
ATOM     15  C   UNL     1     -24.231 -63.657   2.936  1.00  0.00    -0.000 C 
BRANCH  15  16
ATOM     16  C   UNL     1     -23.837 -64.120   4.349  1.00  0.00    -0.003 C 
ATOM     17  C   UNL     1     -22.725 -63.276   4.967  1.00  0.00     0.004 C 
ENDBRANCH  15  16
ENDBRANCH  14  15
ENDBRANCH  13  14
ENDBRANCH  12  13
ENDBRANCH  11  12
ENDBRANCH  10  11
ENDBRANCH   1  10
TORSDOF 13
ENDMDL
MODEL 9
REMARK VINA RESULT:    -4.380      3.222      6.492
REMARK INTER + INTRA:          -9.491
REMARK INTER:                  -7.112
REMARK INTRA:                  -2.379
REMARK UNBOUND:                -1.782
REMARK SMILES CCCCCCCCCCCCCCC(=O)[O-]
REMARK SMILES IDX 9 1 10 2 11 3 12 4 13 5 14 6 15 7 16 8 17 9 8 10 7 11 6 12
REMARK SMILES IDX 5 13 4 14 3 15 2 16 1 17
REMARK H PARENT
REMARK Flexibility Score: inf
ROOT
ATOM      1  C   UNL     1     -23.328 -58.020   2.883  1.00  0.00     0.000 C 
ENDROOT
BRANCH   1   2
ATOM      2  C   UNL     1     -23.340 -59.527   3.183  1.00  0.00     0.000 C 
BRANCH   2   3
ATOM      3  C   UNL     1     -24.764 -60.098   3.299  1.00  0.00     0.000 C 
BRANCH   3   4
ATOM      4  C   UNL     1     -24.935 -61.420   2.533  1.00  0.00     0.000 C 
BRANCH   4   5
ATOM      5  C   UNL     1     -23.594 -62.096   2.214  1.00  0.00     0.006 C 
BRANCH   5   6
ATOM      6  C   UNL     1     -23.688 -63.614   2.395  1.00  0.00     0.053 C 
BRANCH   6   7
ATOM      7  C   UNL     1     -23.260 -64.004   3.775  1.00  0.00     0.041 C 
ATOM      8  O   UNL     1     -23.703 -65.058   4.301  1.00  0.00    -0.550 OA
ATOM      9  O   UNL     1     -22.412 -63.177   4.500  1.00  0.00    -0.550 OA
ENDBRANCH   6   7
ENDBRANCH   5   6
ENDBRANCH   4   5
ENDBRANCH   3   4
ENDBRANCH   2   3
ENDBRANCH   1   2
BRANCH   1  10
ATOM     10  C   UNL     1     -22.359 -57.651   1.747  1.00  0.00     0.000 C 
BRANCH  10  11
ATOM     11  C   UNL     1     -21.875 -58.885   0.964  1.00  0.00    -0.000 C 
BRANCH  11  12
ATOM     12  C   UNL     1     -22.387 -58.895  -0.487  1.00  0.00    -0.000 C 
BRANCH  12  13
ATOM     13  C   UNL     1     -23.406 -60.015  -0.746  1.00  0.00    -0.000 C 
BRANCH  13  14
ATOM     14  C   UNL     1     -24.723 -59.495  -1.350  1.00  0.00    -0.000 C 
BRANCH  14  15
ATOM     15  C   UNL     1     -25.826 -59.326  -0.283  1.00  0.00    -0.000 C 
BRANCH  15  16
ATOM     16  C   UNL     1     -25.968 -57.882   0.230  1.00  0.00    -0.003 C 
ATOM     17  C   UNL     1     -26.915 -57.762   1.422  1.00  0.00     0.004 C 
ENDBRANCH  15  16
ENDBRANCH  14  15
ENDBRANCH  13  14
ENDBRANCH  12  13
ENDBRANCH  11  12
ENDBRANCH  10  11
ENDBRANCH   1  10
TORSDOF 13
ENDMDL
