MODEL 1
REMARK VINA RESULT:    -6.722      0.000      0.000
REMARK INTER + INTRA:         -13.225
REMARK INTER:                 -11.045
REMARK INTRA:                  -2.180
REMARK UNBOUND:                -2.180
REMARK SMILES C[C@@H]1O[C@H](OC[C@@H]2O[C@@H](Oc3c(-c4ccc(O)c(O)c4)oc4cc(O)cc(O)c4c3=O)[C@H](O)[C@H](O)[C@H]2O)[C@@H](O)[C@H](O)[C@H]1O
REMARK SMILES IDX 7 1 36 2 34 3 32 4 9 5 8 6 6 7 5 8 4 9 1 10 2 11 42 12 3 13
REMARK SMILES IDX 40 14 38 15 43 16 41 18 39 20 37 22 35 24 10 26 11 27 12 28
REMARK SMILES IDX 30 29 21 30 29 31 31 32 22 33 27 34 23 35 26 36 24 37 13 38
REMARK SMILES IDX 20 39 14 40 18 41 15 42 16 43 19 44 17 46 28 48 25 50 33 52
REMARK H PARENT 43 17 41 19 39 21 37 23 35 25 19 45 17 47 28 49 25 51 33 53
REMARK Flexibility Score: inf
ROOT
ATOM      1  C   UNL     1       0.623 -11.157  18.114  1.00  0.00     0.180 C 
ATOM      2  C   UNL     1       0.682 -10.615  19.552  1.00  0.00     0.177 C 
ATOM      3  C   UNL     1      -0.763 -10.533  20.145  1.00  0.00     0.180 C 
ATOM      4  C   UNL     1      -1.901 -10.752  19.078  1.00  0.00     0.214 C 
ATOM      5  C   UNL     1      -1.543 -10.322  17.623  1.00  0.00     0.339 C 
ATOM      6  O   UNL     1      -0.145 -10.223  17.371  1.00  0.00    -0.332 OA
ENDROOT
BRANCH   1   7
ATOM      7  C   UNL     1       2.014 -11.249  17.476  1.00  0.00     0.198 C 
BRANCH   7   8
ATOM      8  O   UNL     1       2.178 -10.223  16.499  1.00  0.00    -0.347 OA
BRANCH   8   9
ATOM      9  C   UNL     1       3.513  -9.729  16.463  1.00  0.00     0.281 C 
ATOM     10  C   UNL     1       5.460  -8.453  13.699  1.00  0.00     0.041 C 
ATOM     11  C   UNL     1       5.344  -9.292  14.995  1.00  0.00     0.150 C 
ATOM     12  C   UNL     1       5.959  -8.525  16.201  1.00  0.00     0.174 C 
ATOM     13  O   UNL     1       3.964  -9.660  15.124  1.00  0.00    -0.344 OA
ATOM     14  C   UNL     1       4.925  -7.608  16.899  1.00  0.00     0.179 C 
ATOM     15  C   UNL     1       3.549  -8.313  17.092  1.00  0.00     0.202 C 
BRANCH  12  16
ATOM     16  O   UNL     1       6.439  -9.452  17.131  1.00  0.00    -0.388 OA
ATOM     17  H   UNL     1       6.463 -10.344  16.680  1.00  0.00     0.211 HD
ENDBRANCH  12  16
BRANCH  14  18
ATOM     18  O   UNL     1       4.740  -6.415  16.171  1.00  0.00    -0.387 OA
ATOM     19  H   UNL     1       5.667  -6.065  15.991  1.00  0.00     0.211 HD
ENDBRANCH  14  18
BRANCH  15  20
ATOM     20  O   UNL     1       3.215  -8.382  18.453  1.00  0.00    -0.385 OA
ATOM     21  H   UNL     1       2.633  -9.171  18.594  1.00  0.00     0.211 HD
ENDBRANCH  15  20
ENDBRANCH   8   9
ENDBRANCH   7   8
ENDBRANCH   1   7
BRANCH   2  22
ATOM     22  O   UNL     1       1.487 -11.427  20.369  1.00  0.00    -0.387 OA
ATOM     23  H   UNL     1       2.259 -11.722  19.816  1.00  0.00     0.211 HD
ENDBRANCH   2  22
BRANCH   3  24
ATOM     24  O   UNL     1      -0.956  -9.332  20.887  1.00  0.00    -0.387 OA
ATOM     25  H   UNL     1      -1.096  -8.549  20.297  1.00  0.00     0.211 HD
ENDBRANCH   3  24
BRANCH   5  26
ATOM     26  O   UNL     1      -2.146 -11.168  16.639  1.00  0.00    -0.454 OA
BRANCH  26  27
ATOM     27  C   UNL     1      -3.152 -10.713  15.765  1.00  0.00     0.214 A 
ATOM     28  C   UNL     1      -2.859 -10.304  14.437  1.00  0.00     0.180 A 
ATOM     29  C   UNL     1      -4.514 -10.761  16.149  1.00  0.00     0.239 A 
ATOM     30  O   UNL     1      -3.833 -10.206  13.540  1.00  0.00    -0.452 OA
ATOM     31  C   UNL     1      -5.513 -10.815  15.147  1.00  0.00     0.111 A 
ATOM     32  O   UNL     1      -4.846 -10.760  17.373  1.00  0.00    -0.285 OA
ATOM     33  C   UNL     1      -5.093 -10.522  13.816  1.00  0.00     0.146 A 
ATOM     34  C   UNL     1      -6.831 -11.282  15.354  1.00  0.00     0.134 A 
ATOM     35  C   UNL     1      -5.995 -10.582  12.769  1.00  0.00     0.094 A 
ATOM     36  C   UNL     1      -7.638 -11.550  14.255  1.00  0.00     0.093 A 
ATOM     37  C   UNL     1      -7.254 -11.147  12.974  1.00  0.00     0.123 A 
BRANCH  28  38
ATOM     38  C   UNL     1      -1.501  -9.960  13.967  1.00  0.00     0.025 A 
ATOM     39  C   UNL     1      -0.431 -10.820  14.273  1.00  0.00     0.062 A 
ATOM     40  C   UNL     1      -1.377  -9.063  12.918  1.00  0.00     0.016 A 
ATOM     41  C   UNL     1       0.742 -10.811  13.491  1.00  0.00     0.158 A 
ATOM     42  C   UNL     1      -0.225  -9.077  12.101  1.00  0.00     0.051 A 
ATOM     43  C   UNL     1       0.838  -9.970  12.361  1.00  0.00     0.157 A 
BRANCH  41  44
ATOM     44  O   UNL     1       1.829 -11.627  13.818  1.00  0.00    -0.504 OA
ATOM     45  H   UNL     1       1.782 -12.660  13.813  1.00  0.00     0.293 HD
ENDBRANCH  41  44
BRANCH  43  46
ATOM     46  O   UNL     1       1.924 -10.092  11.498  1.00  0.00    -0.504 OA
ATOM     47  H   UNL     1       2.705  -9.443  11.552  1.00  0.00     0.293 HD
ENDBRANCH  43  46
ENDBRANCH  28  38
BRANCH  34  48
ATOM     48  O   UNL     1      -7.313 -11.510  16.664  1.00  0.00    -0.507 OA
ATOM     49  H   UNL     1      -7.950 -10.850  17.129  1.00  0.00     0.293 HD
ENDBRANCH  34  48
BRANCH  37  50
ATOM     50  O   UNL     1      -8.107 -11.326  11.870  1.00  0.00    -0.508 OA
ATOM     51  H   UNL     1      -8.573 -12.219  11.732  1.00  0.00     0.293 HD
ENDBRANCH  37  50
ENDBRANCH  26  27
ENDBRANCH   5  26
BRANCH   4  52
ATOM     52  O   UNL     1      -3.068 -10.063  19.457  1.00  0.00    -0.384 OA
ATOM     53  H   UNL     1      -3.697 -10.745  19.832  1.00  0.00     0.211 HD
ENDBRANCH   4  52
TORSDOF 16
ENDMDL
MODEL 2
REMARK VINA RESULT:    -6.633      1.594      2.189
REMARK INTER + INTRA:         -13.078
REMARK INTER:                 -11.141
REMARK INTRA:                  -1.937
REMARK UNBOUND:                -2.180
REMARK SMILES C[C@@H]1O[C@H](OC[C@@H]2O[C@@H](Oc3c(-c4ccc(O)c(O)c4)oc4cc(O)cc(O)c4c3=O)[C@H](O)[C@H](O)[C@H]2O)[C@@H](O)[C@H](O)[C@H]1O
REMARK SMILES IDX 7 1 36 2 34 3 32 4 9 5 8 6 6 7 5 8 4 9 1 10 2 11 42 12 3 13
REMARK SMILES IDX 40 14 38 15 43 16 41 18 39 20 37 22 35 24 10 26 11 27 12 28
REMARK SMILES IDX 30 29 21 30 29 31 31 32 22 33 27 34 23 35 26 36 24 37 13 38
REMARK SMILES IDX 20 39 14 40 18 41 15 42 16 43 19 44 17 46 28 48 25 50 33 52
REMARK H PARENT 43 17 41 19 39 21 37 23 35 25 19 45 17 47 28 49 25 51 33 53
REMARK Flexibility Score: inf
ROOT
ATOM      1  C   UNL     1       2.394 -11.224  18.348  1.00  0.00     0.180 C 
ATOM      2  C   UNL     1       2.258 -11.101  19.875  1.00  0.00     0.177 C 
ATOM      3  C   UNL     1       0.796 -11.454  20.304  1.00  0.00     0.180 C 
ATOM      4  C   UNL     1      -0.209 -11.574  19.097  1.00  0.00     0.214 C 
ATOM      5  C   UNL     1       0.133 -10.698  17.854  1.00  0.00     0.339 C 
ATOM      6  O   UNL     1       1.492 -10.278  17.794  1.00  0.00    -0.332 OA
ENDROOT
BRANCH   1   7
ATOM      7  C   UNL     1       3.807 -10.877  17.866  1.00  0.00     0.198 C 
BRANCH   7   8
ATOM      8  O   UNL     1       3.865  -9.518  17.439  1.00  0.00    -0.347 OA
BRANCH   8   9
ATOM      9  C   UNL     1       5.027  -9.252  16.661  1.00  0.00     0.281 C 
ATOM     10  C   UNL     1       6.364 -10.989  13.787  1.00  0.00     0.041 C 
ATOM     11  C   UNL     1       6.566 -10.250  15.133  1.00  0.00     0.150 C 
ATOM     12  C   UNL     1       7.066  -8.796  14.890  1.00  0.00     0.174 C 
ATOM     13  O   UNL     1       5.337 -10.377  15.860  1.00  0.00    -0.344 OA
ATOM     14  C   UNL     1       5.896  -7.799  14.707  1.00  0.00     0.179 C 
ATOM     15  C   UNL     1       4.760  -8.028  15.748  1.00  0.00     0.202 C 
BRANCH  12  16
ATOM     16  O   UNL     1       7.836  -8.393  15.985  1.00  0.00    -0.388 OA
ATOM     17  H   UNL     1       7.274  -7.777  16.536  1.00  0.00     0.211 HD
ENDBRANCH  12  16
BRANCH  14  18
ATOM     18  O   UNL     1       5.362  -7.885  13.406  1.00  0.00    -0.387 OA
ATOM     19  H   UNL     1       4.418  -7.542  13.481  1.00  0.00     0.211 HD
ENDBRANCH  14  18
BRANCH  15  20
ATOM     20  O   UNL     1       4.565  -6.879  16.529  1.00  0.00    -0.385 OA
ATOM     21  H   UNL     1       4.187  -7.153  17.403  1.00  0.00     0.211 HD
ENDBRANCH  15  20
ENDBRANCH   8   9
ENDBRANCH   7   8
ENDBRANCH   1   7
BRANCH   2  22
ATOM     22  O   UNL     1       3.166 -11.945  20.535  1.00  0.00    -0.387 OA
ATOM     23  H   UNL     1       3.777 -12.315  19.844  1.00  0.00     0.211 HD
ENDBRANCH   2  22
BRANCH   3  24
ATOM     24  O   UNL     1       0.316 -10.563  21.307  1.00  0.00    -0.387 OA
ATOM     25  H   UNL     1      -0.428  -9.999  20.978  1.00  0.00     0.211 HD
ENDBRANCH   3  24
BRANCH   5  26
ATOM     26  O   UNL     1      -0.224 -11.334  16.623  1.00  0.00    -0.454 OA
BRANCH  26  27
ATOM     27  C   UNL     1      -1.145 -10.768  15.719  1.00  0.00     0.214 A 
ATOM     28  C   UNL     1      -0.900 -10.746  14.321  1.00  0.00     0.180 A 
ATOM     29  C   UNL     1      -2.405 -10.305  16.171  1.00  0.00     0.239 A 
ATOM     30  O   UNL     1      -1.900 -10.526  13.474  1.00  0.00    -0.452 OA
ATOM     31  C   UNL     1      -3.484 -10.240  15.257  1.00  0.00     0.111 A 
ATOM     32  O   UNL     1      -2.575  -9.956  17.378  1.00  0.00    -0.285 OA
ATOM     33  C   UNL     1      -3.155 -10.366  13.876  1.00  0.00     0.146 A 
ATOM     34  C   UNL     1      -4.848 -10.215  15.629  1.00  0.00     0.134 A 
ATOM     35  C   UNL     1      -4.150 -10.345  12.915  1.00  0.00     0.094 A 
ATOM     36  C   UNL     1      -5.821 -10.427  14.661  1.00  0.00     0.093 A 
ATOM     37  C   UNL     1      -5.487 -10.430  13.304  1.00  0.00     0.123 A 
BRANCH  28  38
ATOM     38  C   UNL     1       0.433 -10.950  13.719  1.00  0.00     0.025 A 
ATOM     39  C   UNL     1       0.524 -11.339  12.370  1.00  0.00     0.062 A 
ATOM     40  C   UNL     1       1.528 -10.368  14.336  1.00  0.00     0.016 A 
ATOM     41  C   UNL     1       1.701 -11.095  11.632  1.00  0.00     0.158 A 
ATOM     42  C   UNL     1       2.694 -10.078  13.595  1.00  0.00     0.051 A 
ATOM     43  C   UNL     1       2.786 -10.415  12.226  1.00  0.00     0.157 A 
BRANCH  41  44
ATOM     44  O   UNL     1       1.818 -11.524  10.307  1.00  0.00    -0.504 OA
ATOM     45  H   UNL     1       2.300 -12.398  10.036  1.00  0.00     0.293 HD
ENDBRANCH  41  44
BRANCH  43  46
ATOM     46  O   UNL     1       3.870 -10.026  11.443  1.00  0.00    -0.504 OA
ATOM     47  H   UNL     1       4.029 -10.446  10.532  1.00  0.00     0.293 HD
ENDBRANCH  43  46
ENDBRANCH  28  38
BRANCH  34  48
ATOM     48  O   UNL     1      -5.219 -10.013  16.979  1.00  0.00    -0.507 OA
ATOM     49  H   UNL     1      -6.205  -9.971  17.269  1.00  0.00     0.293 HD
ENDBRANCH  34  48
BRANCH  37  50
ATOM     50  O   UNL     1      -6.478 -10.546  12.313  1.00  0.00    -0.508 OA
ATOM     51  H   UNL     1      -6.460  -9.927  11.507  1.00  0.00     0.293 HD
ENDBRANCH  37  50
ENDBRANCH  26  27
ENDBRANCH   5  26
BRANCH   4  52
ATOM     52  O   UNL     1      -1.514 -11.244  19.511  1.00  0.00    -0.384 OA
ATOM     53  H   UNL     1      -2.075 -11.192  18.684  1.00  0.00     0.211 HD
ENDBRANCH   4  52
TORSDOF 16
ENDMDL
MODEL 3
REMARK VINA RESULT:    -6.577      1.888      5.145
REMARK INTER + INTRA:         -12.986
REMARK INTER:                 -10.106
REMARK INTRA:                  -2.879
REMARK UNBOUND:                -2.180
REMARK SMILES C[C@@H]1O[C@H](OC[C@@H]2O[C@@H](Oc3c(-c4ccc(O)c(O)c4)oc4cc(O)cc(O)c4c3=O)[C@H](O)[C@H](O)[C@H]2O)[C@@H](O)[C@H](O)[C@H]1O
REMARK SMILES IDX 7 1 36 2 34 3 32 4 9 5 8 6 6 7 5 8 4 9 1 10 2 11 42 12 3 13
REMARK SMILES IDX 40 14 38 15 43 16 41 18 39 20 37 22 35 24 10 26 11 27 12 28
REMARK SMILES IDX 30 29 21 30 29 31 31 32 22 33 27 34 23 35 26 36 24 37 13 38
REMARK SMILES IDX 20 39 14 40 18 41 15 42 16 43 19 44 17 46 28 48 25 50 33 52
REMARK H PARENT 43 17 41 19 39 21 37 23 35 25 19 45 17 47 28 49 25 51 33 53
REMARK Flexibility Score: inf
ROOT
ATOM      1  C   UNL     1       1.760 -10.437  12.909  1.00  0.00     0.180 C 
ATOM      2  C   UNL     1       2.220 -10.585  11.449  1.00  0.00     0.177 C 
ATOM      3  C   UNL     1       1.173  -9.921  10.497  1.00  0.00     0.180 C 
ATOM      4  C   UNL     1      -0.174  -9.525  11.211  1.00  0.00     0.214 C 
ATOM      5  C   UNL     1      -0.565 -10.407  12.436  1.00  0.00     0.339 C 
ATOM      6  O   UNL     1       0.523 -11.127  13.005  1.00  0.00    -0.332 OA
ENDROOT
BRANCH   1   7
ATOM      7  C   UNL     1       2.745 -11.083  13.891  1.00  0.00     0.198 C 
BRANCH   7   8
ATOM      8  O   UNL     1       4.065 -10.597  13.658  1.00  0.00    -0.347 OA
BRANCH   8   9
ATOM      9  C   UNL     1       4.435  -9.588  14.592  1.00  0.00     0.281 C 
ATOM     10  C   UNL     1       6.502  -9.784  17.550  1.00  0.00     0.041 C 
ATOM     11  C   UNL     1       5.251  -9.251  16.810  1.00  0.00     0.150 C 
ATOM     12  C   UNL     1       5.463  -7.775  16.369  1.00  0.00     0.174 C 
ATOM     13  O   UNL     1       4.966 -10.185  15.760  1.00  0.00    -0.344 OA
ATOM     14  C   UNL     1       6.127  -7.672  14.975  1.00  0.00     0.179 C 
ATOM     15  C   UNL     1       5.506  -8.669  13.952  1.00  0.00     0.202 C 
BRANCH  12  16
ATOM     16  O   UNL     1       4.222  -7.132  16.325  1.00  0.00    -0.388 OA
ATOM     17  H   UNL     1       3.798  -7.357  15.449  1.00  0.00     0.211 HD
ENDBRANCH  12  16
BRANCH  14  18
ATOM     18  O   UNL     1       7.516  -7.896  15.062  1.00  0.00    -0.387 OA
ATOM     19  H   UNL     1       7.839  -7.291  15.799  1.00  0.00     0.211 HD
ENDBRANCH  14  18
BRANCH  15  20
ATOM     20  O   UNL     1       4.959  -7.981  12.858  1.00  0.00    -0.385 OA
ATOM     21  H   UNL     1       4.083  -8.388  12.637  1.00  0.00     0.211 HD
ENDBRANCH  15  20
ENDBRANCH   8   9
ENDBRANCH   7   8
ENDBRANCH   1   7
BRANCH   2  22
ATOM     22  O   UNL     1       3.482 -10.001  11.252  1.00  0.00    -0.387 OA
ATOM     23  H   UNL     1       4.130 -10.508  11.810  1.00  0.00     0.211 HD
ENDBRANCH   2  22
BRANCH   3  24
ATOM     24  O   UNL     1       0.944 -10.715   9.336  1.00  0.00    -0.387 OA
ATOM     25  H   UNL     1      -0.017 -10.915   9.206  1.00  0.00     0.211 HD
ENDBRANCH   3  24
BRANCH   5  26
ATOM     26  O   UNL     1      -1.229  -9.658  13.458  1.00  0.00    -0.454 OA
BRANCH  26  27
ATOM     27  C   UNL     1      -2.104 -10.256  14.385  1.00  0.00     0.214 A 
ATOM     28  C   UNL     1      -1.703 -10.535  15.718  1.00  0.00     0.180 A 
ATOM     29  C   UNL     1      -3.459 -10.492  14.046  1.00  0.00     0.239 A 
ATOM     30  O   UNL     1      -2.616 -10.776  16.652  1.00  0.00    -0.452 OA
ATOM     31  C   UNL     1      -4.423 -10.583  15.080  1.00  0.00     0.111 A 
ATOM     32  O   UNL     1      -3.815 -10.617  12.836  1.00  0.00    -0.285 OA
ATOM     33  C   UNL     1      -3.920 -10.724  16.406  1.00  0.00     0.146 A 
ATOM     34  C   UNL     1      -5.812 -10.390  14.899  1.00  0.00     0.134 A 
ATOM     35  C   UNL     1      -4.790 -10.789  17.480  1.00  0.00     0.094 A 
ATOM     36  C   UNL     1      -6.627 -10.231  16.012  1.00  0.00     0.093 A 
ATOM     37  C   UNL     1      -6.139 -10.489  17.295  1.00  0.00     0.123 A 
BRANCH  28  38
ATOM     38  C   UNL     1      -0.293 -10.586  16.156  1.00  0.00     0.025 A 
ATOM     39  C   UNL     1       0.342  -9.399  16.563  1.00  0.00     0.062 A 
ATOM     40  C   UNL     1       0.229 -11.808  16.547  1.00  0.00     0.016 A 
ATOM     41  C   UNL     1       1.472  -9.444  17.407  1.00  0.00     0.158 A 
ATOM     42  C   UNL     1       1.332 -11.863  17.428  1.00  0.00     0.051 A 
ATOM     43  C   UNL     1       1.951 -10.681  17.889  1.00  0.00     0.157 A 
BRANCH  41  44
ATOM     44  O   UNL     1       2.139  -8.272  17.775  1.00  0.00    -0.504 OA
ATOM     45  H   UNL     1       1.773  -7.327  17.573  1.00  0.00     0.293 HD
ENDBRANCH  41  44
BRANCH  43  46
ATOM     46  O   UNL     1       2.955 -10.704  18.855  1.00  0.00    -0.504 OA
ATOM     47  H   UNL     1       3.847 -11.151  18.665  1.00  0.00     0.293 HD
ENDBRANCH  43  46
ENDBRANCH  28  38
BRANCH  34  48
ATOM     48  O   UNL     1      -6.362 -10.324  13.597  1.00  0.00    -0.507 OA
ATOM     49  H   UNL     1      -6.852  -9.485  13.259  1.00  0.00     0.293 HD
ENDBRANCH  34  48
BRANCH  37  50
ATOM     50  O   UNL     1      -6.983 -10.425  18.419  1.00  0.00    -0.508 OA
ATOM     51  H   UNL     1      -7.504 -11.249  18.706  1.00  0.00     0.293 HD
ENDBRANCH  37  50
ENDBRANCH  26  27
ENDBRANCH   5  26
BRANCH   4  52
ATOM     52  O   UNL     1      -1.243  -9.560  10.296  1.00  0.00    -0.384 OA
ATOM     53  H   UNL     1      -1.901 -10.228  10.646  1.00  0.00     0.211 HD
ENDBRANCH   4  52
TORSDOF 16
ENDMDL
MODEL 4
REMARK VINA RESULT:    -6.379      1.659      4.911
REMARK INTER + INTRA:         -12.661
REMARK INTER:                 -10.712
REMARK INTRA:                  -1.949
REMARK UNBOUND:                -2.180
REMARK SMILES C[C@@H]1O[C@H](OC[C@@H]2O[C@@H](Oc3c(-c4ccc(O)c(O)c4)oc4cc(O)cc(O)c4c3=O)[C@H](O)[C@H](O)[C@H]2O)[C@@H](O)[C@H](O)[C@H]1O
REMARK SMILES IDX 7 1 36 2 34 3 32 4 9 5 8 6 6 7 5 8 4 9 1 10 2 11 42 12 3 13
REMARK SMILES IDX 40 14 38 15 43 16 41 18 39 20 37 22 35 24 10 26 11 27 12 28
REMARK SMILES IDX 30 29 21 30 29 31 31 32 22 33 27 34 23 35 26 36 24 37 13 38
REMARK SMILES IDX 20 39 14 40 18 41 15 42 16 43 19 44 17 46 28 48 25 50 33 52
REMARK H PARENT 43 17 41 19 39 21 37 23 35 25 19 45 17 47 28 49 25 51 33 53
REMARK Flexibility Score: inf
ROOT
ATOM      1  C   UNL     1       0.995 -10.285  13.353  1.00  0.00     0.180 C 
ATOM      2  C   UNL     1       1.847 -10.255  12.073  1.00  0.00     0.177 C 
ATOM      3  C   UNL     1       1.002  -9.680  10.890  1.00  0.00     0.180 C 
ATOM      4  C   UNL     1      -0.533  -9.537  11.216  1.00  0.00     0.214 C 
ATOM      5  C   UNL     1      -1.092 -10.555  12.256  1.00  0.00     0.339 C 
ATOM      6  O   UNL     1      -0.096 -11.152  13.081  1.00  0.00    -0.332 OA
ENDROOT
BRANCH   1   7
ATOM      7  C   UNL     1       1.770 -10.853  14.548  1.00  0.00     0.198 C 
BRANCH   7   8
ATOM      8  O   UNL     1       1.868  -9.877  15.583  1.00  0.00    -0.347 OA
BRANCH   8   9
ATOM      9  C   UNL     1       3.211  -9.699  16.023  1.00  0.00     0.281 C 
ATOM     10  C   UNL     1       5.977  -7.983  14.452  1.00  0.00     0.041 C 
ATOM     11  C   UNL     1       5.412  -9.177  15.260  1.00  0.00     0.150 C 
ATOM     12  C   UNL     1       5.760  -9.030  16.769  1.00  0.00     0.174 C 
ATOM     13  O   UNL     1       4.016  -9.263  14.943  1.00  0.00    -0.344 OA
ATOM     14  C   UNL     1       4.691  -8.217  17.538  1.00  0.00     0.179 C 
ATOM     15  C   UNL     1       3.241  -8.635  17.149  1.00  0.00     0.202 C 
BRANCH  12  16
ATOM     16  O   UNL     1       5.854 -10.304  17.338  1.00  0.00    -0.388 OA
ATOM     17  H   UNL     1       6.643 -10.302  17.951  1.00  0.00     0.211 HD
ENDBRANCH  12  16
BRANCH  14  18
ATOM     18  O   UNL     1       4.855  -6.835  17.316  1.00  0.00    -0.387 OA
ATOM     19  H   UNL     1       3.983  -6.414  17.592  1.00  0.00     0.211 HD
ENDBRANCH  14  18
BRANCH  15  20
ATOM     20  O   UNL     1       2.542  -9.102  18.272  1.00  0.00    -0.385 OA
ATOM     21  H   UNL     1       2.129  -8.327  18.730  1.00  0.00     0.211 HD
ENDBRANCH  15  20
ENDBRANCH   8   9
ENDBRANCH   7   8
ENDBRANCH   1   7
BRANCH   2  22
ATOM     22  O   UNL     1       3.006  -9.481  12.252  1.00  0.00    -0.387 OA
ATOM     23  H   UNL     1       3.271  -9.141  11.356  1.00  0.00     0.211 HD
ENDBRANCH   2  22
BRANCH   3  24
ATOM     24  O   UNL     1       1.222 -10.410   9.686  1.00  0.00    -0.387 OA
ATOM     25  H   UNL     1       0.836  -9.952   8.898  1.00  0.00     0.211 HD
ENDBRANCH   3  24
BRANCH   5  26
ATOM     26  O   UNL     1      -2.116  -9.989  13.079  1.00  0.00    -0.454 OA
BRANCH  26  27
ATOM     27  C   UNL     1      -3.417 -10.526  13.144  1.00  0.00     0.214 A 
ATOM     28  C   UNL     1      -4.038 -10.827  14.385  1.00  0.00     0.180 A 
ATOM     29  C   UNL     1      -4.193 -10.674  11.969  1.00  0.00     0.239 A 
ATOM     30  O   UNL     1      -5.353 -11.005  14.444  1.00  0.00    -0.452 OA
ATOM     31  C   UNL     1      -5.605 -10.700  12.075  1.00  0.00     0.111 A 
ATOM     32  O   UNL     1      -3.641 -10.779  10.833  1.00  0.00    -0.285 OA
ATOM     33  C   UNL     1      -6.141 -10.869  13.384  1.00  0.00     0.146 A 
ATOM     34  C   UNL     1      -6.493 -10.418  11.010  1.00  0.00     0.134 A 
ATOM     35  C   UNL     1      -7.510 -10.875  13.585  1.00  0.00     0.094 A 
ATOM     36  C   UNL     1      -7.837 -10.203  11.285  1.00  0.00     0.093 A 
ATOM     37  C   UNL     1      -8.361 -10.489  12.549  1.00  0.00     0.123 A 
BRANCH  28  38
ATOM     38  C   UNL     1      -3.302 -10.968  15.657  1.00  0.00     0.025 A 
ATOM     39  C   UNL     1      -2.041 -10.359  15.791  1.00  0.00     0.062 A 
ATOM     40  C   UNL     1      -4.014 -11.319  16.793  1.00  0.00     0.016 A 
ATOM     41  C   UNL     1      -1.522 -10.057  17.068  1.00  0.00     0.158 A 
ATOM     42  C   UNL     1      -3.524 -10.982  18.074  1.00  0.00     0.051 A 
ATOM     43  C   UNL     1      -2.284 -10.323  18.226  1.00  0.00     0.157 A 
BRANCH  41  44
ATOM     44  O   UNL     1      -0.250  -9.497  17.212  1.00  0.00    -0.504 OA
ATOM     45  H   UNL     1       0.607  -9.940  16.839  1.00  0.00     0.293 HD
ENDBRANCH  41  44
BRANCH  43  46
ATOM     46  O   UNL     1      -1.841  -9.866  19.465  1.00  0.00    -0.504 OA
ATOM     47  H   UNL     1      -2.425  -9.959  20.291  1.00  0.00     0.293 HD
ENDBRANCH  43  46
ENDBRANCH  28  38
BRANCH  34  48
ATOM     48  O   UNL     1      -6.013 -10.320   9.683  1.00  0.00    -0.507 OA
ATOM     49  H   UNL     1      -5.821  -9.411   9.244  1.00  0.00     0.293 HD
ENDBRANCH  34  48
BRANCH  37  50
ATOM     50  O   UNL     1      -9.738 -10.367  12.808  1.00  0.00    -0.508 OA
ATOM     51  H   UNL     1     -10.316  -9.789  12.204  1.00  0.00     0.293 HD
ENDBRANCH  37  50
ENDBRANCH  26  27
ENDBRANCH   5  26
BRANCH   4  52
ATOM     52  O   UNL     1      -1.298  -9.658  10.040  1.00  0.00    -0.384 OA
ATOM     53  H   UNL     1      -2.135  -9.131  10.185  1.00  0.00     0.211 HD
ENDBRANCH   4  52
TORSDOF 16
ENDMDL
MODEL 5
REMARK VINA RESULT:    -6.242      2.222      5.678
REMARK INTER + INTRA:         -12.435
REMARK INTER:                  -9.608
REMARK INTRA:                  -2.827
REMARK UNBOUND:                -2.180
REMARK SMILES C[C@@H]1O[C@H](OC[C@@H]2O[C@@H](Oc3c(-c4ccc(O)c(O)c4)oc4cc(O)cc(O)c4c3=O)[C@H](O)[C@H](O)[C@H]2O)[C@@H](O)[C@H](O)[C@H]1O
REMARK SMILES IDX 7 1 36 2 34 3 32 4 9 5 8 6 6 7 5 8 4 9 1 10 2 11 42 12 3 13
REMARK SMILES IDX 40 14 38 15 43 16 41 18 39 20 37 22 35 24 10 26 11 27 12 28
REMARK SMILES IDX 30 29 21 30 29 31 31 32 22 33 27 34 23 35 26 36 24 37 13 38
REMARK SMILES IDX 20 39 14 40 18 41 15 42 16 43 19 44 17 46 28 48 25 50 33 52
REMARK H PARENT 43 17 41 19 39 21 37 23 35 25 19 45 17 47 28 49 25 51 33 53
REMARK Flexibility Score: inf
ROOT
ATOM      1  C   UNL     1       2.986  -9.317  13.038  1.00  0.00     0.180 C 
ATOM      2  C   UNL     1       2.978  -9.649  11.536  1.00  0.00     0.177 C 
ATOM      3  C   UNL     1       1.509  -9.636  11.001  1.00  0.00     0.180 C 
ATOM      4  C   UNL     1       0.419  -9.562  12.136  1.00  0.00     0.214 C 
ATOM      5  C   UNL     1       0.831 -10.198  13.499  1.00  0.00     0.339 C 
ATOM      6  O   UNL     1       2.237 -10.342  13.673  1.00  0.00    -0.332 OA
ENDROOT
BRANCH   1   7
ATOM      7  C   UNL     1       4.403  -9.327  13.623  1.00  0.00     0.198 C 
BRANCH   7   8
ATOM      8  O   UNL     1       4.359  -9.102  15.030  1.00  0.00    -0.347 OA
BRANCH   8   9
ATOM      9  C   UNL     1       5.478  -9.677  15.697  1.00  0.00     0.281 C 
ATOM     10  C   UNL     1       8.411 -11.313  14.360  1.00  0.00     0.041 C 
ATOM     11  C   UNL     1       7.281 -11.216  15.414  1.00  0.00     0.150 C 
ATOM     12  C   UNL     1       7.824 -10.624  16.746  1.00  0.00     0.174 C 
ATOM     13  O   UNL     1       6.206 -10.494  14.800  1.00  0.00    -0.344 OA
ATOM     14  C   UNL     1       7.752  -9.078  16.771  1.00  0.00     0.179 C 
ATOM     15  C   UNL     1       6.397  -8.544  16.220  1.00  0.00     0.202 C 
BRANCH  12  16
ATOM     16  O   UNL     1       7.066 -11.128  17.809  1.00  0.00    -0.388 OA
ATOM     17  H   UNL     1       6.284 -10.519  17.934  1.00  0.00     0.211 HD
ENDBRANCH  12  16
BRANCH  14  18
ATOM     18  O   UNL     1       8.812  -8.515  16.032  1.00  0.00    -0.387 OA
ATOM     19  H   UNL     1       8.459  -8.410  15.095  1.00  0.00     0.211 HD
ENDBRANCH  14  18
BRANCH  15  20
ATOM     20  O   UNL     1       5.726  -7.793  17.198  1.00  0.00    -0.385 OA
ATOM     21  H   UNL     1       5.755  -6.838  16.936  1.00  0.00     0.211 HD
ENDBRANCH  15  20
ENDBRANCH   8   9
ENDBRANCH   7   8
ENDBRANCH   1   7
BRANCH   2  22
ATOM     22  O   UNL     1       3.760  -8.736  10.810  1.00  0.00    -0.387 OA
ATOM     23  H   UNL     1       4.525  -9.244  10.430  1.00  0.00     0.211 HD
ENDBRANCH   2  22
BRANCH   3  24
ATOM     24  O   UNL     1       1.269 -10.717  10.105  1.00  0.00    -0.387 OA
ATOM     25  H   UNL     1       1.791 -11.524  10.347  1.00  0.00     0.211 HD
ENDBRANCH   3  24
BRANCH   5  26
ATOM     26  O   UNL     1       0.281  -9.496  14.617  1.00  0.00    -0.454 OA
BRANCH  26  27
ATOM     27  C   UNL     1      -0.459 -10.142  15.626  1.00  0.00     0.214 A 
ATOM     28  C   UNL     1       0.038 -10.273  16.950  1.00  0.00     0.180 A 
ATOM     29  C   UNL     1      -1.782 -10.583  15.377  1.00  0.00     0.239 A 
ATOM     30  O   UNL     1      -0.789 -10.571  17.945  1.00  0.00    -0.452 OA
ATOM     31  C   UNL     1      -2.675 -10.734  16.465  1.00  0.00     0.111 A 
ATOM     32  O   UNL     1      -2.172 -10.838  14.198  1.00  0.00    -0.285 OA
ATOM     33  C   UNL     1      -2.098 -10.714  17.768  1.00  0.00     0.146 A 
ATOM     34  C   UNL     1      -4.084 -10.745  16.349  1.00  0.00     0.134 A 
ATOM     35  C   UNL     1      -2.899 -10.823  18.891  1.00  0.00     0.094 A 
ATOM     36  C   UNL     1      -4.862 -10.622  17.494  1.00  0.00     0.093 A 
ATOM     37  C   UNL     1      -4.284 -10.723  18.762  1.00  0.00     0.123 A 
BRANCH  28  38
ATOM     38  C   UNL     1       1.460 -10.101  17.311  1.00  0.00     0.025 A 
ATOM     39  C   UNL     1       1.869  -8.913  17.944  1.00  0.00     0.062 A 
ATOM     40  C   UNL     1       2.254 -11.232  17.406  1.00  0.00     0.016 A 
ATOM     41  C   UNL     1       3.050  -8.880  18.714  1.00  0.00     0.158 A 
ATOM     42  C   UNL     1       3.415 -11.223  18.211  1.00  0.00     0.051 A 
ATOM     43  C   UNL     1       3.814 -10.054  18.896  1.00  0.00     0.157 A 
BRANCH  41  44
ATOM     44  O   UNL     1       3.489  -7.692  19.304  1.00  0.00    -0.504 OA
ATOM     45  H   UNL     1       2.846  -6.993  19.711  1.00  0.00     0.293 HD
ENDBRANCH  41  44
BRANCH  43  46
ATOM     46  O   UNL     1       4.878 -10.054  19.794  1.00  0.00    -0.504 OA
ATOM     47  H   UNL     1       4.741  -9.770  20.760  1.00  0.00     0.293 HD
ENDBRANCH  43  46
ENDBRANCH  28  38
BRANCH  34  48
ATOM     48  O   UNL     1      -4.698 -10.844  15.078  1.00  0.00    -0.507 OA
ATOM     49  H   UNL     1      -5.538 -10.300  14.840  1.00  0.00     0.293 HD
ENDBRANCH  34  48
BRANCH  37  50
ATOM     50  O   UNL     1      -5.076 -10.698  19.924  1.00  0.00    -0.508 OA
ATOM     51  H   UNL     1      -5.547 -11.544  20.232  1.00  0.00     0.293 HD
ENDBRANCH  37  50
ENDBRANCH  26  27
ENDBRANCH   5  26
BRANCH   4  52
ATOM     52  O   UNL     1      -0.772 -10.182  11.713  1.00  0.00    -0.384 OA
ATOM     53  H   UNL     1      -1.435  -9.450  11.549  1.00  0.00     0.211 HD
ENDBRANCH   4  52
TORSDOF 16
ENDMDL
MODEL 6
REMARK VINA RESULT:    -5.985      1.882      5.574
REMARK INTER + INTRA:         -12.014
REMARK INTER:                 -10.301
REMARK INTRA:                  -1.713
REMARK UNBOUND:                -2.180
REMARK SMILES C[C@@H]1O[C@H](OC[C@@H]2O[C@@H](Oc3c(-c4ccc(O)c(O)c4)oc4cc(O)cc(O)c4c3=O)[C@H](O)[C@H](O)[C@H]2O)[C@@H](O)[C@H](O)[C@H]1O
REMARK SMILES IDX 7 1 36 2 34 3 32 4 9 5 8 6 6 7 5 8 4 9 1 10 2 11 42 12 3 13
REMARK SMILES IDX 40 14 38 15 43 16 41 18 39 20 37 22 35 24 10 26 11 27 12 28
REMARK SMILES IDX 30 29 21 30 29 31 31 32 22 33 27 34 23 35 26 36 24 37 13 38
REMARK SMILES IDX 20 39 14 40 18 41 15 42 16 43 19 44 17 46 28 48 25 50 33 52
REMARK H PARENT 43 17 41 19 39 21 37 23 35 25 19 45 17 47 28 49 25 51 33 53
REMARK Flexibility Score: inf
ROOT
ATOM      1  C   UNL     1      -0.069 -10.713  13.992  1.00  0.00     0.180 C 
ATOM      2  C   UNL     1       0.882 -11.321  12.947  1.00  0.00     0.177 C 
ATOM      3  C   UNL     1       0.383 -10.964  11.509  1.00  0.00     0.180 C 
ATOM      4  C   UNL     1      -1.059 -10.332  11.474  1.00  0.00     0.214 C 
ATOM      5  C   UNL     1      -2.010 -10.777  12.628  1.00  0.00     0.339 C 
ATOM      6  O   UNL     1      -1.338 -11.308  13.765  1.00  0.00    -0.332 OA
ENDROOT
BRANCH   1   7
ATOM      7  C   UNL     1       0.364 -11.042  15.425  1.00  0.00     0.198 C 
BRANCH   7   8
ATOM      8  O   UNL     1       0.699  -9.847  16.127  1.00  0.00    -0.347 OA
BRANCH   8   9
ATOM      9  C   UNL     1       1.999  -9.913  16.704  1.00  0.00     0.281 C 
ATOM     10  C   UNL     1       5.033  -8.150  15.839  1.00  0.00     0.041 C 
ATOM     11  C   UNL     1       4.300  -9.442  16.276  1.00  0.00     0.150 C 
ATOM     12  C   UNL     1       4.501  -9.699  17.797  1.00  0.00     0.174 C 
ATOM     13  O   UNL     1       2.941  -9.312  15.836  1.00  0.00    -0.344 OA
ATOM     14  C   UNL     1       3.424  -8.995  18.656  1.00  0.00     0.179 C 
ATOM     15  C   UNL     1       1.994  -9.161  18.059  1.00  0.00     0.202 C 
BRANCH  12  16
ATOM     16  O   UNL     1       4.440 -11.076  18.036  1.00  0.00    -0.388 OA
ATOM     17  H   UNL     1       4.529 -11.538  17.154  1.00  0.00     0.211 HD
ENDBRANCH  12  16
BRANCH  14  18
ATOM     18  O   UNL     1       3.714  -7.623  18.800  1.00  0.00    -0.387 OA
ATOM     19  H   UNL     1       3.533  -7.412  19.767  1.00  0.00     0.211 HD
ENDBRANCH  14  18
BRANCH  15  20
ATOM     20  O   UNL     1       1.150  -9.815  18.970  1.00  0.00    -0.385 OA
ATOM     21  H   UNL     1       0.961 -10.725  18.626  1.00  0.00     0.211 HD
ENDBRANCH  15  20
ENDBRANCH   8   9
ENDBRANCH   7   8
ENDBRANCH   1   7
BRANCH   2  22
ATOM     22  O   UNL     1       2.196 -10.858  13.126  1.00  0.00    -0.387 OA
ATOM     23  H   UNL     1       2.556 -11.306  13.936  1.00  0.00     0.211 HD
ENDBRANCH   2  22
BRANCH   3  24
ATOM     24  O   UNL     1       0.496 -12.075  10.625  1.00  0.00    -0.387 OA
ATOM     25  H   UNL     1       0.663 -11.792   9.690  1.00  0.00     0.211 HD
ENDBRANCH   3  24
BRANCH   5  26
ATOM     26  O   UNL     1      -2.893  -9.730  13.042  1.00  0.00    -0.454 OA
BRANCH  26  27
ATOM     27  C   UNL     1      -3.641  -9.799  14.233  1.00  0.00     0.214 A 
ATOM     28  C   UNL     1      -4.962 -10.318  14.256  1.00  0.00     0.180 A 
ATOM     29  C   UNL     1      -3.050  -9.456  15.474  1.00  0.00     0.239 A 
ATOM     30  O   UNL     1      -5.513 -10.683  15.408  1.00  0.00    -0.452 OA
ATOM     31  C   UNL     1      -3.583 -10.002  16.666  1.00  0.00     0.111 A 
ATOM     32  O   UNL     1      -2.054  -8.673  15.526  1.00  0.00    -0.285 OA
ATOM     33  C   UNL     1      -4.860 -10.628  16.563  1.00  0.00     0.146 A 
ATOM     34  C   UNL     1      -2.877 -10.102  17.887  1.00  0.00     0.134 A 
ATOM     35  C   UNL     1      -5.443 -11.217  17.671  1.00  0.00     0.094 A 
ATOM     36  C   UNL     1      -3.389 -10.896  18.906  1.00  0.00     0.093 A 
ATOM     37  C   UNL     1      -4.690 -11.400  18.830  1.00  0.00     0.123 A 
BRANCH  28  38
ATOM     38  C   UNL     1      -5.800 -10.479  13.051  1.00  0.00     0.025 A 
ATOM     39  C   UNL     1      -6.996  -9.746  12.943  1.00  0.00     0.062 A 
ATOM     40  C   UNL     1      -5.214 -10.999  11.908  1.00  0.00     0.016 A 
ATOM     41  C   UNL     1      -7.571  -9.493  11.680  1.00  0.00     0.158 A 
ATOM     42  C   UNL     1      -5.756 -10.715  10.636  1.00  0.00     0.051 A 
ATOM     43  C   UNL     1      -6.928  -9.936  10.504  1.00  0.00     0.157 A 
BRANCH  41  44
ATOM     44  O   UNL     1      -8.784  -8.808  11.568  1.00  0.00    -0.504 OA
ATOM     45  H   UNL     1      -9.220  -8.578  10.659  1.00  0.00     0.293 HD
ENDBRANCH  41  44
BRANCH  43  46
ATOM     46  O   UNL     1      -7.408  -9.535   9.260  1.00  0.00    -0.504 OA
ATOM     47  H   UNL     1      -6.999  -8.740   8.777  1.00  0.00     0.293 HD
ENDBRANCH  43  46
ENDBRANCH  28  38
BRANCH  34  48
ATOM     48  O   UNL     1      -1.644  -9.431  18.059  1.00  0.00    -0.507 OA
ATOM     49  H   UNL     1      -0.814  -9.673  17.501  1.00  0.00     0.293 HD
ENDBRANCH  34  48
BRANCH  37  50
ATOM     50  O   UNL     1      -5.251 -12.123  19.899  1.00  0.00    -0.508 OA
ATOM     51  H   UNL     1      -6.255 -12.275  19.932  1.00  0.00     0.293 HD
ENDBRANCH  37  50
ENDBRANCH  26  27
ENDBRANCH   5  26
BRANCH   4  52
ATOM     52  O   UNL     1      -1.695 -10.626  10.254  1.00  0.00    -0.384 OA
ATOM     53  H   UNL     1      -1.797  -9.759   9.765  1.00  0.00     0.211 HD
ENDBRANCH   4  52
TORSDOF 16
ENDMDL
MODEL 7
REMARK VINA RESULT:    -5.983      2.320     10.281
REMARK INTER + INTRA:         -12.010
REMARK INTER:                  -9.174
REMARK INTRA:                  -2.836
REMARK UNBOUND:                -2.180
REMARK SMILES C[C@@H]1O[C@H](OC[C@@H]2O[C@@H](Oc3c(-c4ccc(O)c(O)c4)oc4cc(O)cc(O)c4c3=O)[C@H](O)[C@H](O)[C@H]2O)[C@@H](O)[C@H](O)[C@H]1O
REMARK SMILES IDX 7 1 36 2 34 3 32 4 9 5 8 6 6 7 5 8 4 9 1 10 2 11 42 12 3 13
REMARK SMILES IDX 40 14 38 15 43 16 41 18 39 20 37 22 35 24 10 26 11 27 12 28
REMARK SMILES IDX 30 29 21 30 29 31 31 32 22 33 27 34 23 35 26 36 24 37 13 38
REMARK SMILES IDX 20 39 14 40 18 41 15 42 16 43 19 44 17 46 28 48 25 50 33 52
REMARK H PARENT 43 17 41 19 39 21 37 23 35 25 19 45 17 47 28 49 25 51 33 53
REMARK Flexibility Score: inf
ROOT
ATOM      1  C   UNL     1      -3.795 -11.628  11.568  1.00  0.00     0.180 C 
ATOM      2  C   UNL     1      -3.766 -11.143  10.109  1.00  0.00     0.177 C 
ATOM      3  C   UNL     1      -2.287 -10.893   9.665  1.00  0.00     0.180 C 
ATOM      4  C   UNL     1      -1.253 -10.931  10.853  1.00  0.00     0.214 C 
ATOM      5  C   UNL     1      -1.817 -10.505  12.243  1.00  0.00     0.339 C 
ATOM      6  O   UNL     1      -3.235 -10.579  12.344  1.00  0.00    -0.332 OA
ENDROOT
BRANCH   1   7
ATOM      7  C   UNL     1      -5.225 -11.878  12.062  1.00  0.00     0.198 C 
BRANCH   7   8
ATOM      8  O   UNL     1      -5.974 -10.665  12.044  1.00  0.00    -0.347 OA
BRANCH   8   9
ATOM      9  C   UNL     1      -7.302 -10.866  11.570  1.00  0.00     0.281 C 
ATOM     10  C   UNL     1     -10.456 -10.736  13.330  1.00  0.00     0.041 C 
ATOM     11  C   UNL     1      -9.520 -11.387  12.282  1.00  0.00     0.150 C 
ATOM     12  C   UNL     1      -9.940 -10.974  10.842  1.00  0.00     0.174 C 
ATOM     13  O   UNL     1      -8.180 -11.052  12.665  1.00  0.00    -0.344 OA
ATOM     14  C   UNL     1      -9.259  -9.659  10.389  1.00  0.00     0.179 C 
ATOM     15  C   UNL     1      -7.747  -9.622  10.760  1.00  0.00     0.202 C 
BRANCH  12  16
ATOM     16  O   UNL     1      -9.582 -11.995   9.956  1.00  0.00    -0.388 OA
ATOM     17  H   UNL     1      -8.584 -12.026   9.921  1.00  0.00     0.211 HD
ENDBRANCH  12  16
BRANCH  14  18
ATOM     18  O   UNL     1      -9.906  -8.540  10.951  1.00  0.00    -0.387 OA
ATOM     19  H   UNL     1      -9.468  -7.738  10.528  1.00  0.00     0.211 HD
ENDBRANCH  14  18
BRANCH  15  20
ATOM     20  O   UNL     1      -6.957  -9.490   9.608  1.00  0.00    -0.385 OA
ATOM     21  H   UNL     1      -6.086  -9.933   9.772  1.00  0.00     0.211 HD
ENDBRANCH  15  20
ENDBRANCH   8   9
ENDBRANCH   7   8
ENDBRANCH   1   7
BRANCH   2  22
ATOM     22  O   UNL     1      -4.370 -12.077   9.250  1.00  0.00    -0.387 OA
ATOM     23  H   UNL     1      -3.642 -12.506   8.727  1.00  0.00     0.211 HD
ENDBRANCH   2  22
BRANCH   3  24
ATOM     24  O   UNL     1      -2.166  -9.701   8.894  1.00  0.00    -0.387 OA
ATOM     25  H   UNL     1      -1.293  -9.645   8.431  1.00  0.00     0.211 HD
ENDBRANCH   3  24
BRANCH   5  26
ATOM     26  O   UNL     1      -1.223 -11.235  13.320  1.00  0.00    -0.454 OA
BRANCH  26  27
ATOM     27  C   UNL     1      -0.532 -10.603  14.372  1.00  0.00     0.214 A 
ATOM     28  C   UNL     1      -1.094 -10.487  15.671  1.00  0.00     0.180 A 
ATOM     29  C   UNL     1       0.802 -10.162  14.194  1.00  0.00     0.239 A 
ATOM     30  O   UNL     1      -0.316 -10.203  16.709  1.00  0.00    -0.452 OA
ATOM     31  C   UNL     1       1.640 -10.027  15.327  1.00  0.00     0.111 A 
ATOM     32  O   UNL     1       1.250  -9.894  13.039  1.00  0.00    -0.285 OA
ATOM     33  C   UNL     1       0.999 -10.061  16.599  1.00  0.00     0.146 A 
ATOM     34  C   UNL     1       3.054 -10.018  15.281  1.00  0.00     0.134 A 
ATOM     35  C   UNL     1       1.745  -9.968  17.761  1.00  0.00     0.094 A 
ATOM     36  C   UNL     1       3.774 -10.157  16.460  1.00  0.00     0.093 A 
ATOM     37  C   UNL     1       3.134 -10.069  17.699  1.00  0.00     0.123 A 
BRANCH  28  38
ATOM     38  C   UNL     1      -2.533 -10.659  15.960  1.00  0.00     0.025 A 
ATOM     39  C   UNL     1      -3.389  -9.547  15.864  1.00  0.00     0.062 A 
ATOM     40  C   UNL     1      -3.065 -11.937  15.905  1.00  0.00     0.016 A 
ATOM     41  C   UNL     1      -4.774  -9.724  15.662  1.00  0.00     0.158 A 
ATOM     42  C   UNL     1      -4.443 -12.125  15.659  1.00  0.00     0.051 A 
ATOM     43  C   UNL     1      -5.310 -11.020  15.508  1.00  0.00     0.157 A 
BRANCH  41  44
ATOM     44  O   UNL     1      -5.638  -8.627  15.616  1.00  0.00    -0.504 OA
ATOM     45  H   UNL     1      -6.026  -8.178  16.463  1.00  0.00     0.293 HD
ENDBRANCH  41  44
BRANCH  43  46
ATOM     46  O   UNL     1      -6.643 -11.177  15.138  1.00  0.00    -0.504 OA
ATOM     47  H   UNL     1      -7.012 -12.094  14.902  1.00  0.00     0.293 HD
ENDBRANCH  43  46
ENDBRANCH  28  38
BRANCH  34  48
ATOM     48  O   UNL     1       3.729  -9.906  14.043  1.00  0.00    -0.507 OA
ATOM     49  H   UNL     1       3.876 -10.719  13.431  1.00  0.00     0.293 HD
ENDBRANCH  34  48
BRANCH  37  50
ATOM     50  O   UNL     1       3.868 -10.111  18.899  1.00  0.00    -0.508 OA
ATOM     51  H   UNL     1       4.236 -10.996  19.235  1.00  0.00     0.293 HD
ENDBRANCH  37  50
ENDBRANCH  26  27
ENDBRANCH   5  26
BRANCH   4  52
ATOM     52  O   UNL     1      -0.147 -10.109  10.566  1.00  0.00    -0.384 OA
ATOM     53  H   UNL     1      -0.489  -9.169  10.523  1.00  0.00     0.211 HD
ENDBRANCH   4  52
TORSDOF 16
ENDMDL
MODEL 8
REMARK VINA RESULT:    -5.884     14.480     18.212
REMARK INTER + INTRA:         -11.848
REMARK INTER:                 -10.249
REMARK INTRA:                  -1.600
REMARK UNBOUND:                -2.180
REMARK SMILES C[C@@H]1O[C@H](OC[C@@H]2O[C@@H](Oc3c(-c4ccc(O)c(O)c4)oc4cc(O)cc(O)c4c3=O)[C@H](O)[C@H](O)[C@H]2O)[C@@H](O)[C@H](O)[C@H]1O
REMARK SMILES IDX 7 1 36 2 34 3 32 4 9 5 8 6 6 7 5 8 4 9 1 10 2 11 42 12 3 13
REMARK SMILES IDX 40 14 38 15 43 16 41 18 39 20 37 22 35 24 10 26 11 27 12 28
REMARK SMILES IDX 30 29 21 30 29 31 31 32 22 33 27 34 23 35 26 36 24 37 13 38
REMARK SMILES IDX 20 39 14 40 18 41 15 42 16 43 19 44 17 46 28 48 25 50 33 52
REMARK H PARENT 43 17 41 19 39 21 37 23 35 25 19 45 17 47 28 49 25 51 33 53
REMARK Flexibility Score: inf
ROOT
ATOM      1  C   UNL     1      -4.853   5.777  11.018  1.00  0.00     0.180 C 
ATOM      2  C   UNL     1      -4.463   6.729   9.876  1.00  0.00     0.177 C 
ATOM      3  C   UNL     1      -2.908   6.747   9.711  1.00  0.00     0.180 C 
ATOM      4  C   UNL     1      -2.137   6.030  10.882  1.00  0.00     0.214 C 
ATOM      5  C   UNL     1      -2.854   6.055  12.266  1.00  0.00     0.339 C 
ATOM      6  O   UNL     1      -4.254   6.303  12.193  1.00  0.00    -0.332 OA
ENDROOT
BRANCH   1   7
ATOM      7  C   UNL     1      -6.370   5.728  11.235  1.00  0.00     0.198 C 
BRANCH   7   8
ATOM      8  O   UNL     1      -6.966   4.783  10.349  1.00  0.00    -0.347 OA
BRANCH   8   9
ATOM      9  C   UNL     1      -8.236   5.222   9.877  1.00  0.00     0.281 C 
ATOM     10  C   UNL     1      -9.079   7.409   7.126  1.00  0.00     0.041 C 
ATOM     11  C   UNL     1      -9.304   6.915   8.576  1.00  0.00     0.150 C 
ATOM     12  C   UNL     1     -10.560   6.001   8.655  1.00  0.00     0.174 C 
ATOM     13  O   UNL     1      -8.070   6.323   9.005  1.00  0.00    -0.344 OA
ATOM     14  C   UNL     1     -10.220   4.516   8.379  1.00  0.00     0.179 C 
ATOM     15  C   UNL     1      -8.925   4.062   9.116  1.00  0.00     0.202 C 
BRANCH  12  16
ATOM     16  O   UNL     1     -11.117   6.105   9.934  1.00  0.00    -0.388 OA
ATOM     17  H   UNL     1     -10.412   6.473  10.539  1.00  0.00     0.211 HD
ENDBRANCH  12  16
BRANCH  14  18
ATOM     18  O   UNL     1     -10.077   4.283   6.996  1.00  0.00    -0.387 OA
ATOM     19  H   UNL     1      -9.168   3.864   6.888  1.00  0.00     0.211 HD
ENDBRANCH  14  18
BRANCH  15  20
ATOM     20  O   UNL     1      -9.202   3.005   9.996  1.00  0.00    -0.385 OA
ATOM     21  H   UNL     1      -9.167   3.351  10.924  1.00  0.00     0.211 HD
ENDBRANCH  15  20
ENDBRANCH   8   9
ENDBRANCH   7   8
ENDBRANCH   1   7
BRANCH   2  22
ATOM     22  O   UNL     1      -5.067   6.347   8.667  1.00  0.00    -0.387 OA
ATOM     23  H   UNL     1      -5.855   5.786   8.898  1.00  0.00     0.211 HD
ENDBRANCH   2  22
BRANCH   3  24
ATOM     24  O   UNL     1      -2.421   8.066   9.483  1.00  0.00    -0.387 OA
ATOM     25  H   UNL     1      -2.915   8.526   8.759  1.00  0.00     0.211 HD
ENDBRANCH   3  24
BRANCH   5  26
ATOM     26  O   UNL     1      -2.620   4.864  13.024  1.00  0.00    -0.454 OA
BRANCH  26  27
ATOM     27  C   UNL     1      -1.477   4.692  13.829  1.00  0.00     0.214 A 
ATOM     28  C   UNL     1      -0.883   3.417  14.019  1.00  0.00     0.180 A 
ATOM     29  C   UNL     1      -0.814   5.813  14.385  1.00  0.00     0.239 A 
ATOM     30  O   UNL     1       0.356   3.324  14.488  1.00  0.00    -0.452 OA
ATOM     31  C   UNL     1       0.556   5.706  14.723  1.00  0.00     0.111 A 
ATOM     32  O   UNL     1      -1.431   6.905  14.578  1.00  0.00    -0.285 OA
ATOM     33  C   UNL     1       1.102   4.390  14.754  1.00  0.00     0.146 A 
ATOM     34  C   UNL     1       1.432   6.806  14.874  1.00  0.00     0.134 A 
ATOM     35  C   UNL     1       2.440   4.193  15.044  1.00  0.00     0.094 A 
ATOM     36  C   UNL     1       2.802   6.582  14.934  1.00  0.00     0.093 A 
ATOM     37  C   UNL     1       3.305   5.287  15.082  1.00  0.00     0.123 A 
BRANCH  28  38
ATOM     38  C   UNL     1      -1.569   2.141  13.730  1.00  0.00     0.025 A 
ATOM     39  C   UNL     1      -1.069   1.309  12.712  1.00  0.00     0.062 A 
ATOM     40  C   UNL     1      -2.400   1.607  14.701  1.00  0.00     0.016 A 
ATOM     41  C   UNL     1      -1.363  -0.071  12.705  1.00  0.00     0.158 A 
ATOM     42  C   UNL     1      -2.665   0.220  14.729  1.00  0.00     0.051 A 
ATOM     43  C   UNL     1      -2.128  -0.641  13.745  1.00  0.00     0.157 A 
BRANCH  41  44
ATOM     44  O   UNL     1      -0.912  -0.895  11.671  1.00  0.00    -0.504 OA
ATOM     45  H   UNL     1      -0.179  -0.609  10.999  1.00  0.00     0.293 HD
ENDBRANCH  41  44
BRANCH  43  46
ATOM     46  O   UNL     1      -2.268  -2.024  13.823  1.00  0.00    -0.504 OA
ATOM     47  H   UNL     1      -2.221  -2.598  12.986  1.00  0.00     0.293 HD
ENDBRANCH  43  46
ENDBRANCH  28  38
BRANCH  34  48
ATOM     48  O   UNL     1       0.924   8.125  14.928  1.00  0.00    -0.507 OA
ATOM     49  H   UNL     1       1.205   8.841  14.246  1.00  0.00     0.293 HD
ENDBRANCH  34  48
BRANCH  37  50
ATOM     50  O   UNL     1       4.684   5.058  15.241  1.00  0.00    -0.508 OA
ATOM     51  H   UNL     1       5.095   4.193  14.901  1.00  0.00     0.293 HD
ENDBRANCH  37  50
ENDBRANCH  26  27
ENDBRANCH   5  26
BRANCH   4  52
ATOM     52  O   UNL     1      -0.860   6.599  11.048  1.00  0.00    -0.384 OA
ATOM     53  H   UNL     1      -0.974   7.397  11.641  1.00  0.00     0.211 HD
ENDBRANCH   4  52
TORSDOF 16
ENDMDL
MODEL 9
REMARK VINA RESULT:    -5.721      1.711      4.951
REMARK INTER + INTRA:         -11.580
REMARK INTER:                 -10.098
REMARK INTRA:                  -1.482
REMARK UNBOUND:                -2.180
REMARK SMILES C[C@@H]1O[C@H](OC[C@@H]2O[C@@H](Oc3c(-c4ccc(O)c(O)c4)oc4cc(O)cc(O)c4c3=O)[C@H](O)[C@H](O)[C@H]2O)[C@@H](O)[C@H](O)[C@H]1O
REMARK SMILES IDX 7 1 36 2 34 3 32 4 9 5 8 6 6 7 5 8 4 9 1 10 2 11 42 12 3 13
REMARK SMILES IDX 40 14 38 15 43 16 41 18 39 20 37 22 35 24 10 26 11 27 12 28
REMARK SMILES IDX 30 29 21 30 29 31 31 32 22 33 27 34 23 35 26 36 24 37 13 38
REMARK SMILES IDX 20 39 14 40 18 41 15 42 16 43 19 44 17 46 28 48 25 50 33 52
REMARK H PARENT 43 17 41 19 39 21 37 23 35 25 19 45 17 47 28 49 25 51 33 53
REMARK Flexibility Score: inf
ROOT
ATOM      1  C   UNL     1       2.020 -10.728  14.254  1.00  0.00     0.180 C 
ATOM      2  C   UNL     1       2.759 -10.350  12.959  1.00  0.00     0.177 C 
ATOM      3  C   UNL     1       1.811  -9.516  12.036  1.00  0.00     0.180 C 
ATOM      4  C   UNL     1       0.309  -9.503  12.512  1.00  0.00     0.214 C 
ATOM      5  C   UNL     1      -0.152 -10.767  13.299  1.00  0.00     0.339 C 
ATOM      6  O   UNL     1       0.915 -11.526  13.859  1.00  0.00    -0.332 OA
ENDROOT
BRANCH   1   7
ATOM      7  C   UNL     1       2.899 -11.559  15.196  1.00  0.00     0.198 C 
BRANCH   7   8
ATOM      8  O   UNL     1       4.070 -10.829  15.554  1.00  0.00    -0.347 OA
BRANCH   8   9
ATOM      9  C   UNL     1       3.893 -10.097  16.763  1.00  0.00     0.281 C 
ATOM     10  C   UNL     1       5.038 -10.811  20.116  1.00  0.00     0.041 C 
ATOM     11  C   UNL     1       3.947 -10.305  19.141  1.00  0.00     0.150 C 
ATOM     12  C   UNL     1       3.884  -8.751  19.148  1.00  0.00     0.174 C 
ATOM     13  O   UNL     1       4.215 -10.916  17.872  1.00  0.00    -0.344 OA
ATOM     14  C   UNL     1       4.857  -8.122  18.123  1.00  0.00     0.179 C 
ATOM     15  C   UNL     1       4.823  -8.859  16.751  1.00  0.00     0.202 C 
BRANCH  12  16
ATOM     16  O   UNL     1       2.581  -8.349  18.838  1.00  0.00    -0.388 OA
ATOM     17  H   UNL     1       2.126  -9.121  18.397  1.00  0.00     0.211 HD
ENDBRANCH  12  16
BRANCH  14  18
ATOM     18  O   UNL     1       6.177  -8.119  18.619  1.00  0.00    -0.387 OA
ATOM     19  H   UNL     1       6.748  -7.793  17.857  1.00  0.00     0.211 HD
ENDBRANCH  14  18
BRANCH  15  20
ATOM     20  O   UNL     1       4.441  -7.980  15.726  1.00  0.00    -0.385 OA
ATOM     21  H   UNL     1       5.099  -8.052  14.988  1.00  0.00     0.211 HD
ENDBRANCH  15  20
ENDBRANCH   8   9
ENDBRANCH   7   8
ENDBRANCH   1   7
BRANCH   2  22
ATOM     22  O   UNL     1       3.924  -9.616  13.234  1.00  0.00    -0.387 OA
ATOM     23  H   UNL     1       4.272  -9.937  14.108  1.00  0.00     0.211 HD
ENDBRANCH   2  22
BRANCH   3  24
ATOM     24  O   UNL     1       1.931  -9.909  10.671  1.00  0.00    -0.387 OA
ATOM     25  H   UNL     1       2.084  -9.135  10.073  1.00  0.00     0.211 HD
ENDBRANCH   3  24
BRANCH   5  26
ATOM     26  O   UNL     1      -1.104 -10.457  14.320  1.00  0.00    -0.454 OA
BRANCH  26  27
ATOM     27  C   UNL     1      -2.448 -10.875  14.254  1.00  0.00     0.214 A 
ATOM     28  C   UNL     1      -3.257 -10.976  15.417  1.00  0.00     0.180 A 
ATOM     29  C   UNL     1      -3.070 -11.099  13.001  1.00  0.00     0.239 A 
ATOM     30  O   UNL     1      -4.578 -11.039  15.304  1.00  0.00    -0.452 OA
ATOM     31  C   UNL     1      -4.479 -10.998  12.904  1.00  0.00     0.111 A 
ATOM     32  O   UNL     1      -2.383 -11.382  11.974  1.00  0.00    -0.285 OA
ATOM     33  C   UNL     1      -5.200 -10.966  14.133  1.00  0.00     0.146 A 
ATOM     34  C   UNL     1      -5.184 -10.773  11.699  1.00  0.00     0.134 A 
ATOM     35  C   UNL     1      -6.578 -10.838  14.133  1.00  0.00     0.094 A 
ATOM     36  C   UNL     1      -6.526 -10.418  11.752  1.00  0.00     0.093 A 
ATOM     37  C   UNL     1      -7.240 -10.509  12.950  1.00  0.00     0.123 A 
BRANCH  28  38
ATOM     38  C   UNL     1      -2.715 -11.025  16.790  1.00  0.00     0.025 A 
ATOM     39  C   UNL     1      -1.321 -11.056  16.976  1.00  0.00     0.062 A 
ATOM     40  C   UNL     1      -3.534 -10.626  17.833  1.00  0.00     0.016 A 
ATOM     41  C   UNL     1      -0.751 -10.637  18.196  1.00  0.00     0.158 A 
ATOM     42  C   UNL     1      -2.972 -10.161  19.043  1.00  0.00     0.051 A 
ATOM     43  C   UNL     1      -1.572 -10.136  19.230  1.00  0.00     0.157 A 
BRANCH  41  44
ATOM     44  O   UNL     1       0.628 -10.712  18.408  1.00  0.00    -0.504 OA
ATOM     45  H   UNL     1       1.249 -11.336  17.866  1.00  0.00     0.293 HD
ENDBRANCH  41  44
BRANCH  43  46
ATOM     46  O   UNL     1      -0.991  -9.565  20.359  1.00  0.00    -0.504 OA
ATOM     47  H   UNL     1      -1.170  -9.947  21.284  1.00  0.00     0.293 HD
ENDBRANCH  43  46
ENDBRANCH  28  38
BRANCH  34  48
ATOM     48  O   UNL     1      -4.523 -10.872  10.452  1.00  0.00    -0.507 OA
ATOM     49  H   UNL     1      -4.137 -11.763  10.114  1.00  0.00     0.293 HD
ENDBRANCH  34  48
BRANCH  37  50
ATOM     50  O   UNL     1      -8.621 -10.247  12.993  1.00  0.00    -0.508 OA
ATOM     51  H   UNL     1      -8.961  -9.411  13.461  1.00  0.00     0.293 HD
ENDBRANCH  37  50
ENDBRANCH  26  27
ENDBRANCH   5  26
BRANCH   4  52
ATOM     52  O   UNL     1      -0.553  -9.341  11.412  1.00  0.00    -0.384 OA
ATOM     53  H   UNL     1      -1.179  -8.596  11.643  1.00  0.00     0.211 HD
ENDBRANCH   4  52
TORSDOF 16
ENDMDL
