MODEL 1
REMARK VINA RESULT:    -2.948      0.000      0.000
REMARK INTER + INTRA:          -3.625
REMARK INTER:                  -4.499
REMARK INTRA:                   0.874
REMARK UNBOUND:                 0.874
REMARK SMILES CC1=CCC[C@H](C)C(=O)C[C@H](C(C)C)C(=O)C1
REMARK SMILES IDX 8 1 9 2 6 3 7 4 5 5 4 6 3 7 2 8 1 9 10 11 11 12 15 13 16 14
REMARK SMILES IDX 17 15 12 17 13 18 14 19
REMARK H PARENT
REMARK Flexibility Score: 70.00
ROOT
ATOM      1  C   UNL     1      11.141  10.232   3.519  1.00  0.00     0.136 C 
ATOM      2  O   UNL     1      10.602  10.664   4.528  1.00  0.00    -0.299 OA
ENDROOT
BRANCH   1   3
ATOM      3  C   UNL     1      12.367   9.331   3.629  1.00  0.00     0.053 C 
ATOM      4  C   UNL     1      13.046   9.433   5.005  1.00  0.00     0.016 C 
BRANCH   3   5
ATOM      5  C   UNL     1      12.048   7.862   3.269  1.00  0.00     0.015 C 
BRANCH   5   6
ATOM      6  C   UNL     1      12.688   7.408   1.945  1.00  0.00     0.028 C 
BRANCH   6   7
ATOM      7  C   UNL     1      11.835   6.430   1.173  1.00  0.00    -0.028 C 
ATOM      8  C   UNL     1      10.576   6.645   0.709  1.00  0.00    -0.070 CG0
ATOM      9  C   UNL     1       9.870   5.473   0.070  1.00  0.00     0.039 C 
ATOM     10  G   UNL     1       9.862   7.997   0.718  1.00  0.00     0.000 G0
ENDBRANCH   6   7
ENDBRANCH   5   6
ENDBRANCH   3   5
ENDBRANCH   1   3
BRANCH   1  11
ATOM     11  C   UNL     1      10.608  10.636   2.165  1.00  0.00     0.087 C 
BRANCH  11  12
ATOM     12  C   UNL     1      11.418  10.081   0.956  1.00  0.00     0.066 C 
BRANCH  12  13
ATOM     13  C   UNL     1      10.558   9.152   0.101  1.00  0.00     0.140 C 
ATOM     14  O   UNL     1      10.500   9.302  -1.113  1.00  0.00    -0.299 OA
BRANCH  13  15
ATOM     15  C   UNL     1       9.837   7.990   0.736  1.00  0.00     0.106 CG0
ATOM     16  G   UNL     1      10.591   6.662   0.691  1.00  0.00     0.000 G0
ENDBRANCH  13  15
ENDBRANCH  12  13
BRANCH  12  17
ATOM     17  C   UNL     1      12.149  11.174   0.098  1.00  0.00    -0.006 C 
ATOM     18  C   UNL     1      11.178  12.125  -0.626  1.00  0.00     0.008 C 
ATOM     19  C   UNL     1      13.090  12.019   0.979  1.00  0.00     0.008 C 
ENDBRANCH  12  17
ENDBRANCH  11  12
ENDBRANCH   1  11
TORSDOF 1
ENDMDL
MODEL 2
REMARK VINA RESULT:    -2.620      1.817      4.828
REMARK INTER + INTRA:          -3.124
REMARK INTER:                  -4.432
REMARK INTRA:                   1.308
REMARK UNBOUND:                 0.874
REMARK SMILES CC1=CCC[C@H](C)C(=O)C[C@H](C(C)C)C(=O)C1
REMARK SMILES IDX 8 1 9 2 6 3 7 4 5 5 4 6 3 7 2 8 1 9 10 11 11 12 15 13 16 14
REMARK SMILES IDX 17 15 12 17 13 18 14 19
REMARK H PARENT
REMARK Flexibility Score: 70.00
ROOT
ATOM      1  C   UNL     1      11.820   9.425  -0.529  1.00  0.00     0.136 C 
ATOM      2  O   UNL     1      10.738   9.034  -0.942  1.00  0.00    -0.299 OA
ENDROOT
BRANCH   1   3
ATOM      3  C   UNL     1      12.218  10.889  -0.684  1.00  0.00     0.053 C 
ATOM      4  C   UNL     1      11.012  11.793  -0.991  1.00  0.00     0.016 C 
BRANCH   3   5
ATOM      5  C   UNL     1      13.013  11.413   0.534  1.00  0.00     0.015 C 
BRANCH   5   6
ATOM      6  C   UNL     1      12.126  11.713   1.755  1.00  0.00     0.028 C 
BRANCH   6   7
ATOM      7  C   UNL     1      12.517  10.929   2.986  1.00  0.00    -0.028 C 
ATOM      8  C   UNL     1      12.007   9.731   3.377  1.00  0.00    -0.070 CG0
ATOM      9  C   UNL     1      12.463   9.195   4.713  1.00  0.00     0.039 C 
ATOM     10  G   UNL     1      11.078   8.861   2.532  1.00  0.00     0.000 G0
ENDBRANCH   6   7
ENDBRANCH   5   6
ENDBRANCH   3   5
ENDBRANCH   1   3
BRANCH   1  11
ATOM     11  C   UNL     1      12.775   8.436   0.097  1.00  0.00     0.087 C 
BRANCH  11  12
ATOM     12  C   UNL     1      12.092   7.189   0.734  1.00  0.00     0.066 C 
BRANCH  12  13
ATOM     13  C   UNL     1      11.629   7.487   2.159  1.00  0.00     0.140 C 
ATOM     14  O   UNL     1      11.762   6.650   3.042  1.00  0.00    -0.299 OA
BRANCH  13  15
ATOM     15  C   UNL     1      11.080   8.847   2.508  1.00  0.00     0.106 CG0
ATOM     16  G   UNL     1      12.009   9.721   3.350  1.00  0.00     0.000 G0
ENDBRANCH  13  15
ENDBRANCH  12  13
BRANCH  12  17
ATOM     17  C   UNL     1      10.958   6.543  -0.139  1.00  0.00    -0.006 C 
ATOM     18  C   UNL     1      11.422   5.290  -0.903  1.00  0.00     0.008 C 
ATOM     19  C   UNL     1       9.749   6.159   0.736  1.00  0.00     0.008 C 
ENDBRANCH  12  17
ENDBRANCH  11  12
ENDBRANCH   1  11
TORSDOF 1
ENDMDL
MODEL 3
REMARK VINA RESULT:    -1.451      1.671      3.747
REMARK INTER + INTRA:          -1.340
REMARK INTER:                  -3.070
REMARK INTRA:                   1.730
REMARK UNBOUND:                 0.874
REMARK SMILES CC1=CCC[C@H](C)C(=O)C[C@H](C(C)C)C(=O)C1
REMARK SMILES IDX 8 1 9 2 6 3 7 4 5 5 4 6 3 7 2 8 1 9 10 11 11 12 15 13 16 14
REMARK SMILES IDX 17 15 12 17 13 18 14 19
REMARK H PARENT
REMARK Flexibility Score: 70.00
ROOT
ATOM      1  C   UNL     1      12.057   8.282   3.028  1.00  0.00     0.136 C 
ATOM      2  O   UNL     1      11.320   7.939   3.941  1.00  0.00    -0.299 OA
ENDROOT
BRANCH   1   3
ATOM      3  C   UNL     1      12.351   9.760   2.792  1.00  0.00     0.053 C 
ATOM      4  C   UNL     1      13.124  10.000   1.484  1.00  0.00     0.016 C 
BRANCH   3   5
ATOM      5  C   UNL     1      11.074  10.629   2.855  1.00  0.00     0.015 C 
BRANCH   5   6
ATOM      6  C   UNL     1      10.366  10.767   1.496  1.00  0.00     0.028 C 
BRANCH   6   7
ATOM      7  C   UNL     1       9.421   9.628   1.195  1.00  0.00    -0.028 C 
ATOM      8  C   UNL     1       9.513   8.753   0.160  1.00  0.00    -0.070 CG0
ATOM      9  C   UNL     1       8.379   7.770  -0.011  1.00  0.00     0.039 C 
ATOM     10  G   UNL     1      10.709   8.642  -0.785  1.00  0.00     0.000 G0
ENDBRANCH   6   7
ENDBRANCH   5   6
ENDBRANCH   3   5
ENDBRANCH   1   3
BRANCH   1  11
ATOM     11  C   UNL     1      12.636   7.231   2.110  1.00  0.00     0.087 C 
BRANCH  11  12
ATOM     12  C   UNL     1      11.751   6.889   0.875  1.00  0.00     0.066 C 
BRANCH  12  13
ATOM     13  C   UNL     1      11.919   7.936  -0.225  1.00  0.00     0.140 C 
ATOM     14  O   UNL     1      13.024   8.168  -0.697  1.00  0.00    -0.299 OA
BRANCH  13  15
ATOM     15  C   UNL     1      10.711   8.634  -0.797  1.00  0.00     0.106 CG0
ATOM     16  G   UNL     1       9.527   8.761   0.161  1.00  0.00     0.000 G0
ENDBRANCH  13  15
ENDBRANCH  12  13
BRANCH  12  17
ATOM     17  C   UNL     1      11.916   5.425   0.334  1.00  0.00    -0.006 C 
ATOM     18  C   UNL     1      10.587   4.794  -0.120  1.00  0.00     0.008 C 
ATOM     19  C   UNL     1      12.902   5.388  -0.850  1.00  0.00     0.008 C 
ENDBRANCH  12  17
ENDBRANCH  11  12
ENDBRANCH   1  11
TORSDOF 1
ENDMDL
