MODEL 1
REMARK VINA RESULT:    -6.920      0.000      0.000
REMARK INTER + INTRA:          -8.543
REMARK INTER:                  -8.538
REMARK INTRA:                  -0.005
REMARK UNBOUND:                -0.005
REMARK SMILES O=c1c(O)c(-c2cc(O)c(O)c(O)c2)oc2cc(O)cc(O)c12
REMARK SMILES IDX 5 1 3 2 2 3 1 4 23 5 21 6 20 7 18 8 17 9 16 10 15 11 6 12
REMARK SMILES IDX 7 13 8 14 14 15 10 16 12 17 9 18 11 20 13 22 4 24 22 26
REMARK SMILES IDX 19 28
REMARK H PARENT 9 19 11 21 13 23 4 25 22 27 19 29
REMARK Flexibility Score: inf
ROOT
ATOM      1  C   UNL     1     -45.724  11.402 -12.233  1.00  0.00     0.180 A 
ATOM      2  C   UNL     1     -46.839  12.234 -12.026  1.00  0.00     0.208 A 
ATOM      3  C   UNL     1     -48.117  11.657 -11.970  1.00  0.00     0.238 A 
ATOM      4  O   UNL     1     -49.116  12.415 -11.860  1.00  0.00    -0.285 OA
ATOM      5  C   UNL     1     -48.262  10.252 -12.064  1.00  0.00     0.111 A 
ATOM      6  C   UNL     1     -49.506   9.555 -11.976  1.00  0.00     0.134 A 
ATOM      7  C   UNL     1     -49.538   8.171 -12.190  1.00  0.00     0.093 A 
ATOM      8  C   UNL     1     -48.366   7.451 -12.425  1.00  0.00     0.123 A 
ATOM      9  C   UNL     1     -47.142   8.112 -12.460  1.00  0.00     0.094 A 
ATOM     10  C   UNL     1     -47.080   9.498 -12.288  1.00  0.00     0.146 A 
ATOM     11  O   UNL     1     -45.894  10.091 -12.350  1.00  0.00    -0.452 OA
ENDROOT
BRANCH   1  12
ATOM     12  C   UNL     1     -44.346  11.937 -12.317  1.00  0.00     0.029 A 
ATOM     13  C   UNL     1     -43.313  11.429 -11.510  1.00  0.00     0.062 A 
ATOM     14  C   UNL     1     -42.020  11.964 -11.586  1.00  0.00     0.162 A 
ATOM     15  C   UNL     1     -44.075  13.013 -13.176  1.00  0.00     0.062 A 
ATOM     16  C   UNL     1     -41.753  13.026 -12.467  1.00  0.00     0.200 A 
ATOM     17  C   UNL     1     -42.783  13.551 -13.259  1.00  0.00     0.162 A 
BRANCH  14  18
ATOM     18  O   UNL     1     -41.001  11.449 -10.786  1.00  0.00    -0.504 OA
ATOM     19  H   UNL     1     -40.073  11.276 -11.153  1.00  0.00     0.293 HD
ENDBRANCH  14  18
BRANCH  16  20
ATOM     20  O   UNL     1     -40.473  13.573 -12.564  1.00  0.00    -0.502 OA
ATOM     21  H   UNL     1     -39.931  13.823 -11.746  1.00  0.00     0.293 HD
ENDBRANCH  16  20
BRANCH  17  22
ATOM     22  O   UNL     1     -42.516  14.610 -14.125  1.00  0.00    -0.504 OA
ATOM     23  H   UNL     1     -41.969  15.410 -13.831  1.00  0.00     0.293 HD
ENDBRANCH  17  22
ENDBRANCH   1  12
BRANCH   2  24
ATOM     24  O   UNL     1     -46.667  13.611 -11.859  1.00  0.00    -0.502 OA
ATOM     25  H   UNL     1     -47.101  14.125 -11.102  1.00  0.00     0.293 HD
ENDBRANCH   2  24
BRANCH   6  26
ATOM     26  O   UNL     1     -50.724  10.165 -11.657  1.00  0.00    -0.507 OA
ATOM     27  H   UNL     1     -51.202  10.837 -12.236  1.00  0.00     0.293 HD
ENDBRANCH   6  26
BRANCH   8  28
ATOM     28  O   UNL     1     -48.408   6.072 -12.620  1.00  0.00    -0.508 OA
ATOM     29  H   UNL     1     -49.086   5.489 -12.144  1.00  0.00     0.293 HD
ENDBRANCH   8  28
TORSDOF 7
ENDMDL
MODEL 2
REMARK VINA RESULT:    -6.856      1.522      7.041
REMARK INTER + INTRA:          -8.464
REMARK INTER:                  -8.104
REMARK INTRA:                  -0.360
REMARK UNBOUND:                -0.005
REMARK SMILES O=c1c(O)c(-c2cc(O)c(O)c(O)c2)oc2cc(O)cc(O)c12
REMARK SMILES IDX 5 1 3 2 2 3 1 4 23 5 21 6 20 7 18 8 17 9 16 10 15 11 6 12
REMARK SMILES IDX 7 13 8 14 14 15 10 16 12 17 9 18 11 20 13 22 4 24 22 26
REMARK SMILES IDX 19 28
REMARK H PARENT 9 19 11 21 13 23 4 25 22 27 19 29
REMARK Flexibility Score: inf
ROOT
ATOM      1  C   UNL     1     -45.216  11.348 -12.141  1.00  0.00     0.180 A 
ATOM      2  C   UNL     1     -45.316  12.395 -13.074  1.00  0.00     0.208 A 
ATOM      3  C   UNL     1     -44.196  13.210 -13.304  1.00  0.00     0.238 A 
ATOM      4  O   UNL     1     -44.315  14.191 -14.085  1.00  0.00    -0.285 OA
ATOM      5  C   UNL     1     -42.975  12.935 -12.643  1.00  0.00     0.111 A 
ATOM      6  C   UNL     1     -41.764  13.669 -12.833  1.00  0.00     0.134 A 
ATOM      7  C   UNL     1     -40.646  13.372 -12.043  1.00  0.00     0.093 A 
ATOM      8  C   UNL     1     -40.675  12.328 -11.117  1.00  0.00     0.123 A 
ATOM      9  C   UNL     1     -41.833  11.572 -10.961  1.00  0.00     0.094 A 
ATOM     10  C   UNL     1     -42.978  11.867 -11.707  1.00  0.00     0.146 A 
ATOM     11  O   UNL     1     -44.068  11.135 -11.512  1.00  0.00    -0.452 OA
ENDROOT
BRANCH   1  12
ATOM     12  C   UNL     1     -46.356  10.455 -11.835  1.00  0.00     0.029 A 
ATOM     13  C   UNL     1     -47.335  10.815 -10.891  1.00  0.00     0.062 A 
ATOM     14  C   UNL     1     -48.394   9.945 -10.596  1.00  0.00     0.162 A 
ATOM     15  C   UNL     1     -46.433   9.197 -12.452  1.00  0.00     0.062 A 
ATOM     16  C   UNL     1     -48.475   8.697 -11.238  1.00  0.00     0.200 A 
ATOM     17  C   UNL     1     -47.491   8.324 -12.162  1.00  0.00     0.162 A 
BRANCH  14  18
ATOM     18  O   UNL     1     -49.363  10.314  -9.664  1.00  0.00    -0.504 OA
ATOM     19  H   UNL     1     -49.209  10.211  -8.667  1.00  0.00     0.293 HD
ENDBRANCH  14  18
BRANCH  16  20
ATOM     20  O   UNL     1     -49.521   7.817 -10.963  1.00  0.00    -0.502 OA
ATOM     21  H   UNL     1     -49.381   6.816 -10.898  1.00  0.00     0.293 HD
ENDBRANCH  16  20
BRANCH  17  22
ATOM     22  O   UNL     1     -47.570   7.082 -12.790  1.00  0.00    -0.504 OA
ATOM     23  H   UNL     1     -48.076   6.309 -12.374  1.00  0.00     0.293 HD
ENDBRANCH  17  22
ENDBRANCH   1  12
BRANCH   2  24
ATOM     24  O   UNL     1     -46.508  12.602 -13.774  1.00  0.00    -0.502 OA
ATOM     25  H   UNL     1     -46.556  13.176 -14.608  1.00  0.00     0.293 HD
ENDBRANCH   2  24
BRANCH   6  26
ATOM     26  O   UNL     1     -41.599  14.672 -13.794  1.00  0.00    -0.507 OA
ATOM     27  H   UNL     1     -42.348  15.102 -14.313  1.00  0.00     0.293 HD
ENDBRANCH   6  26
BRANCH   8  28
ATOM     28  O   UNL     1     -39.552  12.030 -10.348  1.00  0.00    -0.508 OA
ATOM     29  H   UNL     1     -39.263  11.073 -10.179  1.00  0.00     0.293 HD
ENDBRANCH   8  28
TORSDOF 7
ENDMDL
MODEL 3
REMARK VINA RESULT:    -6.492      3.455      8.932
REMARK INTER + INTRA:          -8.015
REMARK INTER:                  -7.708
REMARK INTRA:                  -0.308
REMARK UNBOUND:                -0.005
REMARK SMILES O=c1c(O)c(-c2cc(O)c(O)c(O)c2)oc2cc(O)cc(O)c12
REMARK SMILES IDX 5 1 3 2 2 3 1 4 23 5 21 6 20 7 18 8 17 9 16 10 15 11 6 12
REMARK SMILES IDX 7 13 8 14 14 15 10 16 12 17 9 18 11 20 13 22 4 24 22 26
REMARK SMILES IDX 19 28
REMARK H PARENT 9 19 11 21 13 23 4 25 22 27 19 29
REMARK Flexibility Score: inf
ROOT
ATOM      1  C   UNL     1     -40.624  12.414 -11.372  1.00  0.00     0.180 A 
ATOM      2  C   UNL     1     -40.360  12.817 -10.051  1.00  0.00     0.208 A 
ATOM      3  C   UNL     1     -39.026  12.983  -9.644  1.00  0.00     0.238 A 
ATOM      4  O   UNL     1     -38.794  13.272  -8.441  1.00  0.00    -0.285 OA
ATOM      5  C   UNL     1     -37.976  12.800 -10.577  1.00  0.00     0.111 A 
ATOM      6  C   UNL     1     -36.590  12.985 -10.285  1.00  0.00     0.134 A 
ATOM      7  C   UNL     1     -35.633  12.671 -11.259  1.00  0.00     0.093 A 
ATOM      8  C   UNL     1     -36.014  12.241 -12.532  1.00  0.00     0.123 A 
ATOM      9  C   UNL     1     -37.364  12.109 -12.842  1.00  0.00     0.094 A 
ATOM     10  C   UNL     1     -38.342  12.378 -11.882  1.00  0.00     0.146 A 
ATOM     11  O   UNL     1     -39.617  12.218 -12.214  1.00  0.00    -0.452 OA
ENDROOT
BRANCH   1  12
ATOM     12  C   UNL     1     -42.002  12.204 -11.871  1.00  0.00     0.029 A 
ATOM     13  C   UNL     1     -42.652  13.174 -12.655  1.00  0.00     0.062 A 
ATOM     14  C   UNL     1     -43.966  12.969 -13.098  1.00  0.00     0.162 A 
ATOM     15  C   UNL     1     -42.699  11.042 -11.507  1.00  0.00     0.062 A 
ATOM     16  C   UNL     1     -44.646  11.790 -12.748  1.00  0.00     0.200 A 
ATOM     17  C   UNL     1     -44.012  10.830 -11.949  1.00  0.00     0.162 A 
BRANCH  14  18
ATOM     18  O   UNL     1     -44.599  13.934 -13.881  1.00  0.00    -0.504 OA
ATOM     19  H   UNL     1     -45.588  13.881 -14.093  1.00  0.00     0.293 HD
ENDBRANCH  14  18
BRANCH  16  20
ATOM     20  O   UNL     1     -45.953  11.562 -13.180  1.00  0.00    -0.502 OA
ATOM     21  H   UNL     1     -46.345  10.630 -13.242  1.00  0.00     0.293 HD
ENDBRANCH  16  20
BRANCH  17  22
ATOM     22  O   UNL     1     -44.694   9.667 -11.597  1.00  0.00    -0.504 OA
ATOM     23  H   UNL     1     -44.214   8.873 -11.190  1.00  0.00     0.293 HD
ENDBRANCH  17  22
ENDBRANCH   1  12
BRANCH   2  24
ATOM     24  O   UNL     1     -41.413  13.067  -9.168  1.00  0.00    -0.502 OA
ATOM     25  H   UNL     1     -42.084  13.812  -9.318  1.00  0.00     0.293 HD
ENDBRANCH   2  24
BRANCH   6  26
ATOM     26  O   UNL     1     -36.105  13.495  -9.077  1.00  0.00    -0.507 OA
ATOM     27  H   UNL     1     -36.381  13.174  -8.162  1.00  0.00     0.293 HD
ENDBRANCH   6  26
BRANCH   8  28
ATOM     28  O   UNL     1     -35.054  11.947 -13.498  1.00  0.00    -0.508 OA
ATOM     29  H   UNL     1     -34.529  12.678 -13.964  1.00  0.00     0.293 HD
ENDBRANCH   8  28
TORSDOF 7
ENDMDL
MODEL 4
REMARK VINA RESULT:    -6.378      1.366      1.494
REMARK INTER + INTRA:          -7.875
REMARK INTER:                  -7.553
REMARK INTRA:                  -0.322
REMARK UNBOUND:                -0.005
REMARK SMILES O=c1c(O)c(-c2cc(O)c(O)c(O)c2)oc2cc(O)cc(O)c12
REMARK SMILES IDX 5 1 3 2 2 3 1 4 23 5 21 6 20 7 18 8 17 9 16 10 15 11 6 12
REMARK SMILES IDX 7 13 8 14 14 15 10 16 12 17 9 18 11 20 13 22 4 24 22 26
REMARK SMILES IDX 19 28
REMARK H PARENT 9 19 11 21 13 23 4 25 22 27 19 29
REMARK Flexibility Score: inf
ROOT
ATOM      1  C   UNL     1     -44.642  11.391 -12.013  1.00  0.00     0.180 A 
ATOM      2  C   UNL     1     -45.640  12.382 -12.033  1.00  0.00     0.208 A 
ATOM      3  C   UNL     1     -46.983  11.993 -12.156  1.00  0.00     0.238 A 
ATOM      4  O   UNL     1     -47.863  12.887 -12.249  1.00  0.00    -0.285 OA
ATOM      5  C   UNL     1     -47.318  10.618 -12.201  1.00  0.00     0.111 A 
ATOM      6  C   UNL     1     -48.650  10.108 -12.280  1.00  0.00     0.134 A 
ATOM      7  C   UNL     1     -48.854   8.730 -12.426  1.00  0.00     0.093 A 
ATOM      8  C   UNL     1     -47.779   7.839 -12.430  1.00  0.00     0.123 A 
ATOM      9  C   UNL     1     -46.480   8.321 -12.299  1.00  0.00     0.094 A 
ATOM     10  C   UNL     1     -46.240   9.693 -12.190  1.00  0.00     0.146 A 
ATOM     11  O   UNL     1     -44.985  10.111 -12.089  1.00  0.00    -0.452 OA
ENDROOT
BRANCH   1  12
ATOM     12  C   UNL     1     -43.204  11.723 -11.899  1.00  0.00     0.029 A 
ATOM     13  C   UNL     1     -42.629  12.072 -10.664  1.00  0.00     0.062 A 
ATOM     14  C   UNL     1     -41.270  12.407 -10.580  1.00  0.00     0.162 A 
ATOM     15  C   UNL     1     -42.408  11.748 -13.054  1.00  0.00     0.062 A 
ATOM     16  C   UNL     1     -40.476  12.406 -11.739  1.00  0.00     0.200 A 
ATOM     17  C   UNL     1     -41.048  12.080 -12.976  1.00  0.00     0.162 A 
BRANCH  14  18
ATOM     18  O   UNL     1     -40.708  12.746  -9.350  1.00  0.00    -0.504 OA
ATOM     19  H   UNL     1     -39.807  12.384  -9.059  1.00  0.00     0.293 HD
ENDBRANCH  14  18
BRANCH  16  20
ATOM     20  O   UNL     1     -39.121  12.732 -11.680  1.00  0.00    -0.502 OA
ATOM     21  H   UNL     1     -38.679  13.326 -12.371  1.00  0.00     0.293 HD
ENDBRANCH  16  20
BRANCH  17  22
ATOM     22  O   UNL     1     -40.259  12.089 -14.125  1.00  0.00    -0.504 OA
ATOM     23  H   UNL     1     -40.345  11.370 -14.833  1.00  0.00     0.293 HD
ENDBRANCH  17  22
ENDBRANCH   1  12
BRANCH   2  24
ATOM     24  O   UNL     1     -45.294  13.730 -11.911  1.00  0.00    -0.502 OA
ATOM     25  H   UNL     1     -44.470  14.123 -12.352  1.00  0.00     0.293 HD
ENDBRANCH   2  24
BRANCH   6  26
ATOM     26  O   UNL     1     -49.798  10.902 -12.196  1.00  0.00    -0.507 OA
ATOM     27  H   UNL     1     -50.560  10.888 -12.856  1.00  0.00     0.293 HD
ENDBRANCH   6  26
BRANCH   8  28
ATOM     28  O   UNL     1     -47.994   6.468 -12.559  1.00  0.00    -0.508 OA
ATOM     29  H   UNL     1     -48.049   5.862 -11.749  1.00  0.00     0.293 HD
ENDBRANCH   8  28
TORSDOF 7
ENDMDL
MODEL 5
REMARK VINA RESULT:    -6.260      3.082      8.611
REMARK INTER + INTRA:          -7.729
REMARK INTER:                  -7.412
REMARK INTRA:                  -0.318
REMARK UNBOUND:                -0.005
REMARK SMILES O=c1c(O)c(-c2cc(O)c(O)c(O)c2)oc2cc(O)cc(O)c12
REMARK SMILES IDX 5 1 3 2 2 3 1 4 23 5 21 6 20 7 18 8 17 9 16 10 15 11 6 12
REMARK SMILES IDX 7 13 8 14 14 15 10 16 12 17 9 18 11 20 13 22 4 24 22 26
REMARK SMILES IDX 19 28
REMARK H PARENT 9 19 11 21 13 23 4 25 22 27 19 29
REMARK Flexibility Score: inf
ROOT
ATOM      1  C   UNL     1     -41.369  12.775 -12.102  1.00  0.00     0.180 A 
ATOM      2  C   UNL     1     -40.610  12.111 -13.083  1.00  0.00     0.208 A 
ATOM      3  C   UNL     1     -39.209  12.137 -12.992  1.00  0.00     0.238 A 
ATOM      4  O   UNL     1     -38.536  11.605 -13.913  1.00  0.00    -0.285 OA
ATOM      5  C   UNL     1     -38.585  12.775 -11.893  1.00  0.00     0.111 A 
ATOM      6  C   UNL     1     -37.174  12.823 -11.676  1.00  0.00     0.134 A 
ATOM      7  C   UNL     1     -36.665  13.575 -10.609  1.00  0.00     0.093 A 
ATOM      8  C   UNL     1     -37.518  14.227  -9.716  1.00  0.00     0.123 A 
ATOM      9  C   UNL     1     -38.896  14.141  -9.887  1.00  0.00     0.094 A 
ATOM     10  C   UNL     1     -39.434  13.430 -10.963  1.00  0.00     0.146 A 
ATOM     11  O   UNL     1     -40.754  13.392 -11.101  1.00  0.00    -0.452 OA
ENDROOT
BRANCH   1  12
ATOM     12  C   UNL     1     -42.848  12.805 -12.137  1.00  0.00     0.029 A 
ATOM     13  C   UNL     1     -43.612  11.693 -11.739  1.00  0.00     0.062 A 
ATOM     14  C   UNL     1     -45.012  11.731 -11.802  1.00  0.00     0.162 A 
ATOM     15  C   UNL     1     -43.504  13.942 -12.632  1.00  0.00     0.062 A 
ATOM     16  C   UNL     1     -45.660  12.884 -12.277  1.00  0.00     0.200 A 
ATOM     17  C   UNL     1     -44.904  13.987 -12.695  1.00  0.00     0.162 A 
BRANCH  14  18
ATOM     18  O   UNL     1     -45.761  10.626 -11.399  1.00  0.00    -0.504 OA
ATOM     19  H   UNL     1     -45.417   9.680 -11.515  1.00  0.00     0.293 HD
ENDBRANCH  14  18
BRANCH  16  20
ATOM     20  O   UNL     1     -47.052  12.947 -12.345  1.00  0.00    -0.502 OA
ATOM     21  H   UNL     1     -47.622  13.177 -11.540  1.00  0.00     0.293 HD
ENDBRANCH  16  20
BRANCH  17  22
ATOM     22  O   UNL     1     -45.551  15.125 -13.174  1.00  0.00    -0.504 OA
ATOM     23  H   UNL     1     -45.635  15.963 -12.612  1.00  0.00     0.293 HD
ENDBRANCH  17  22
ENDBRANCH   1  12
BRANCH   2  24
ATOM     24  O   UNL     1     -41.248  11.422 -14.118  1.00  0.00    -0.502 OA
ATOM     25  H   UNL     1     -41.774  10.570 -13.961  1.00  0.00     0.293 HD
ENDBRANCH   2  24
BRANCH   6  26
ATOM     26  O   UNL     1     -36.238  12.136 -12.455  1.00  0.00    -0.507 OA
ATOM     27  H   UNL     1     -36.418  11.750 -13.369  1.00  0.00     0.293 HD
ENDBRANCH   6  26
BRANCH   8  28
ATOM     28  O   UNL     1     -37.002  14.959  -8.648  1.00  0.00    -0.508 OA
ATOM     29  H   UNL     1     -36.562  15.860  -8.787  1.00  0.00     0.293 HD
ENDBRANCH   8  28
TORSDOF 7
ENDMDL
MODEL 6
REMARK VINA RESULT:    -5.901      1.937      7.588
REMARK INTER + INTRA:          -7.286
REMARK INTER:                  -7.063
REMARK INTRA:                  -0.224
REMARK UNBOUND:                -0.005
REMARK SMILES O=c1c(O)c(-c2cc(O)c(O)c(O)c2)oc2cc(O)cc(O)c12
REMARK SMILES IDX 5 1 3 2 2 3 1 4 23 5 21 6 20 7 18 8 17 9 16 10 15 11 6 12
REMARK SMILES IDX 7 13 8 14 14 15 10 16 12 17 9 18 11 20 13 22 4 24 22 26
REMARK SMILES IDX 19 28
REMARK H PARENT 9 19 11 21 13 23 4 25 22 27 19 29
REMARK Flexibility Score: inf
ROOT
ATOM      1  C   UNL     1     -43.278  12.396 -11.948  1.00  0.00     0.180 A 
ATOM      2  C   UNL     1     -42.816  13.203 -13.003  1.00  0.00     0.208 A 
ATOM      3  C   UNL     1     -41.531  13.764 -12.918  1.00  0.00     0.238 A 
ATOM      4  O   UNL     1     -41.153  14.544 -13.830  1.00  0.00    -0.285 OA
ATOM      5  C   UNL     1     -40.704  13.467 -11.808  1.00  0.00     0.111 A 
ATOM      6  C   UNL     1     -39.368  13.945 -11.639  1.00  0.00     0.134 A 
ATOM      7  C   UNL     1     -38.683  13.672 -10.448  1.00  0.00     0.093 A 
ATOM      8  C   UNL     1     -39.260  12.887  -9.448  1.00  0.00     0.123 A 
ATOM      9  C   UNL     1     -40.541  12.372  -9.626  1.00  0.00     0.094 A 
ATOM     10  C   UNL     1     -41.265  12.657 -10.786  1.00  0.00     0.146 A 
ATOM     11  O   UNL     1     -42.492  12.163 -10.905  1.00  0.00    -0.452 OA
ENDROOT
BRANCH   1  12
ATOM     12  C   UNL     1     -44.625  11.781 -11.958  1.00  0.00     0.029 A 
ATOM     13  C   UNL     1     -44.794  10.393 -12.111  1.00  0.00     0.062 A 
ATOM     14  C   UNL     1     -46.078   9.832 -12.143  1.00  0.00     0.162 A 
ATOM     15  C   UNL     1     -45.759  12.602 -11.873  1.00  0.00     0.062 A 
ATOM     16  C   UNL     1     -47.208  10.660 -12.033  1.00  0.00     0.200 A 
ATOM     17  C   UNL     1     -47.046  12.046 -11.902  1.00  0.00     0.162 A 
BRANCH  14  18
ATOM     18  O   UNL     1     -46.235   8.454 -12.289  1.00  0.00    -0.504 OA
ATOM     19  H   UNL     1     -45.758   7.939 -13.020  1.00  0.00     0.293 HD
ENDBRANCH  14  18
BRANCH  16  20
ATOM     20  O   UNL     1     -48.495  10.124 -12.058  1.00  0.00    -0.502 OA
ATOM     21  H   UNL     1     -49.160  10.282 -11.311  1.00  0.00     0.293 HD
ENDBRANCH  16  20
BRANCH  17  22
ATOM     22  O   UNL     1     -48.169  12.864 -11.802  1.00  0.00    -0.504 OA
ATOM     23  H   UNL     1     -48.168  13.812 -12.159  1.00  0.00     0.293 HD
ENDBRANCH  17  22
ENDBRANCH   1  12
BRANCH   2  24
ATOM     24  O   UNL     1     -43.619  13.421 -14.125  1.00  0.00    -0.502 OA
ATOM     25  H   UNL     1     -44.512  13.896 -14.070  1.00  0.00     0.293 HD
ENDBRANCH   2  24
BRANCH   6  26
ATOM     26  O   UNL     1     -38.665  14.662 -12.612  1.00  0.00    -0.507 OA
ATOM     27  H   UNL     1     -38.453  14.325 -13.538  1.00  0.00     0.293 HD
ENDBRANCH   6  26
BRANCH   8  28
ATOM     28  O   UNL     1     -38.564  12.608  -8.274  1.00  0.00    -0.508 OA
ATOM     29  H   UNL     1     -39.032  12.565  -7.377  1.00  0.00     0.293 HD
ENDBRANCH   8  28
TORSDOF 7
ENDMDL
MODEL 7
REMARK VINA RESULT:    -5.824      1.960      7.743
REMARK INTER + INTRA:          -7.190
REMARK INTER:                  -6.955
REMARK INTRA:                  -0.235
REMARK UNBOUND:                -0.005
REMARK SMILES O=c1c(O)c(-c2cc(O)c(O)c(O)c2)oc2cc(O)cc(O)c12
REMARK SMILES IDX 5 1 3 2 2 3 1 4 23 5 21 6 20 7 18 8 17 9 16 10 15 11 6 12
REMARK SMILES IDX 7 13 8 14 14 15 10 16 12 17 9 18 11 20 13 22 4 24 22 26
REMARK SMILES IDX 19 28
REMARK H PARENT 9 19 11 21 13 23 4 25 22 27 19 29
REMARK Flexibility Score: inf
ROOT
ATOM      1  C   UNL     1     -43.300  12.648 -12.027  1.00  0.00     0.180 A 
ATOM      2  C   UNL     1     -42.903  13.534 -13.044  1.00  0.00     0.208 A 
ATOM      3  C   UNL     1     -41.637  14.135 -12.967  1.00  0.00     0.238 A 
ATOM      4  O   UNL     1     -41.318  14.984 -13.840  1.00  0.00    -0.285 OA
ATOM      5  C   UNL     1     -40.760  13.801 -11.906  1.00  0.00     0.111 A 
ATOM      6  C   UNL     1     -39.437  14.316 -11.753  1.00  0.00     0.134 A 
ATOM      7  C   UNL     1     -38.701  13.995 -10.604  1.00  0.00     0.093 A 
ATOM      8  C   UNL     1     -39.215  13.129  -9.637  1.00  0.00     0.123 A 
ATOM      9  C   UNL     1     -40.483  12.580  -9.804  1.00  0.00     0.094 A 
ATOM     10  C   UNL     1     -41.257  12.909 -10.919  1.00  0.00     0.146 A 
ATOM     11  O   UNL     1     -42.470  12.379 -11.028  1.00  0.00    -0.452 OA
ENDROOT
BRANCH   1  12
ATOM     12  C   UNL     1     -44.624  11.986 -12.032  1.00  0.00     0.029 A 
ATOM     13  C   UNL     1     -45.812  12.723 -11.875  1.00  0.00     0.062 A 
ATOM     14  C   UNL     1     -47.055  12.075 -11.857  1.00  0.00     0.162 A 
ATOM     15  C   UNL     1     -44.697  10.588 -12.134  1.00  0.00     0.062 A 
ATOM     16  C   UNL     1     -47.118  10.677 -11.985  1.00  0.00     0.200 A 
ATOM     17  C   UNL     1     -45.937   9.935 -12.119  1.00  0.00     0.162 A 
BRANCH  14  18
ATOM     18  O   UNL     1     -48.227  12.816 -11.708  1.00  0.00    -0.504 OA
ATOM     19  H   UNL     1     -48.915  12.586 -11.001  1.00  0.00     0.293 HD
ENDBRANCH  14  18
BRANCH  16  20
ATOM     20  O   UNL     1     -48.344  10.011 -11.973  1.00  0.00    -0.502 OA
ATOM     21  H   UNL     1     -48.511   9.180 -12.527  1.00  0.00     0.293 HD
ENDBRANCH  16  20
BRANCH  17  22
ATOM     22  O   UNL     1     -46.004   8.548 -12.236  1.00  0.00    -0.504 OA
ATOM     23  H   UNL     1     -46.050   8.094 -13.140  1.00  0.00     0.293 HD
ENDBRANCH  17  22
ENDBRANCH   1  12
BRANCH   2  24
ATOM     24  O   UNL     1     -43.753  13.792 -14.123  1.00  0.00    -0.502 OA
ATOM     25  H   UNL     1     -44.696  13.426 -14.172  1.00  0.00     0.293 HD
ENDBRANCH   2  24
BRANCH   6  26
ATOM     26  O   UNL     1     -38.793  15.117 -12.701  1.00  0.00    -0.507 OA
ATOM     27  H   UNL     1     -38.853  16.122 -12.744  1.00  0.00     0.293 HD
ENDBRANCH   6  26
BRANCH   8  28
ATOM     28  O   UNL     1     -38.468  12.803  -8.507  1.00  0.00    -0.508 OA
ATOM     29  H   UNL     1     -37.527  12.436  -8.581  1.00  0.00     0.293 HD
ENDBRANCH   8  28
TORSDOF 7
ENDMDL
MODEL 8
REMARK VINA RESULT:    -5.403      4.244      9.743
REMARK INTER + INTRA:          -6.672
REMARK INTER:                  -6.413
REMARK INTRA:                  -0.259
REMARK UNBOUND:                -0.005
REMARK SMILES O=c1c(O)c(-c2cc(O)c(O)c(O)c2)oc2cc(O)cc(O)c12
REMARK SMILES IDX 5 1 3 2 2 3 1 4 23 5 21 6 20 7 18 8 17 9 16 10 15 11 6 12
REMARK SMILES IDX 7 13 8 14 14 15 10 16 12 17 9 18 11 20 13 22 4 24 22 26
REMARK SMILES IDX 19 28
REMARK H PARENT 9 19 11 21 13 23 4 25 22 27 19 29
REMARK Flexibility Score: inf
ROOT
ATOM      1  C   UNL     1     -39.316  12.802 -11.711  1.00  0.00     0.180 A 
ATOM      2  C   UNL     1     -38.568  12.974 -12.889  1.00  0.00     0.208 A 
ATOM      3  C   UNL     1     -37.168  13.029 -12.805  1.00  0.00     0.238 A 
ATOM      4  O   UNL     1     -36.509  13.257 -13.853  1.00  0.00    -0.285 OA
ATOM      5  C   UNL     1     -36.529  12.855 -11.553  1.00  0.00     0.111 A 
ATOM      6  C   UNL     1     -35.114  12.848 -11.357  1.00  0.00     0.134 A 
ATOM      7  C   UNL     1     -34.599  12.775 -10.056  1.00  0.00     0.093 A 
ATOM      8  C   UNL     1     -35.443  12.643  -8.952  1.00  0.00     0.123 A 
ATOM      9  C   UNL     1     -36.822  12.595  -9.138  1.00  0.00     0.094 A 
ATOM     10  C   UNL     1     -37.369  12.704 -10.419  1.00  0.00     0.146 A 
ATOM     11  O   UNL     1     -38.690  12.675 -10.548  1.00  0.00    -0.452 OA
ENDROOT
BRANCH   1  12
ATOM     12  C   UNL     1     -40.795  12.747 -11.718  1.00  0.00     0.029 A 
ATOM     13  C   UNL     1     -41.484  11.536 -11.525  1.00  0.00     0.062 A 
ATOM     14  C   UNL     1     -42.884  11.500 -11.559  1.00  0.00     0.162 A 
ATOM     15  C   UNL     1     -41.528  13.915 -11.980  1.00  0.00     0.062 A 
ATOM     16  C   UNL     1     -43.610  12.680 -11.798  1.00  0.00     0.200 A 
ATOM     17  C   UNL     1     -42.929  13.886 -12.012  1.00  0.00     0.162 A 
BRANCH  14  18
ATOM     18  O   UNL     1     -43.558  10.296 -11.360  1.00  0.00    -0.504 OA
ATOM     19  H   UNL     1     -44.570  10.251 -11.332  1.00  0.00     0.293 HD
ENDBRANCH  14  18
BRANCH  16  20
ATOM     20  O   UNL     1     -45.004  12.670 -11.832  1.00  0.00    -0.502 OA
ATOM     21  H   UNL     1     -45.542  11.836 -11.629  1.00  0.00     0.293 HD
ENDBRANCH  16  20
BRANCH  17  22
ATOM     22  O   UNL     1     -43.652  15.051 -12.258  1.00  0.00    -0.504 OA
ATOM     23  H   UNL     1     -44.430  15.327 -11.671  1.00  0.00     0.293 HD
ENDBRANCH  17  22
ENDBRANCH   1  12
BRANCH   2  24
ATOM     24  O   UNL     1     -39.214  13.066 -14.125  1.00  0.00    -0.502 OA
ATOM     25  H   UNL     1     -38.960  13.757 -14.821  1.00  0.00     0.293 HD
ENDBRANCH   2  24
BRANCH   6  26
ATOM     26  O   UNL     1     -34.179  12.885 -12.396  1.00  0.00    -0.507 OA
ATOM     27  H   UNL     1     -33.520  13.631 -12.554  1.00  0.00     0.293 HD
ENDBRANCH   6  26
BRANCH   8  28
ATOM     28  O   UNL     1     -34.919  12.554  -7.664  1.00  0.00    -0.508 OA
ATOM     29  H   UNL     1     -34.809  11.661  -7.197  1.00  0.00     0.293 HD
ENDBRANCH   8  28
TORSDOF 7
ENDMDL
