MODEL 1
REMARK VINA RESULT:    -3.102      0.000      0.000
REMARK INTER + INTRA:          -3.657
REMARK INTER:                  -3.646
REMARK INTRA:                  -0.010
REMARK UNBOUND:                -0.010
REMARK SMILES O=C([O-])CCC(=O)[O-]
REMARK SMILES IDX 4 1 2 2 1 3 3 4 5 5 6 6 7 7 8 8
REMARK H PARENT
REMARK Flexibility Score: inf
ROOT
ATOM      1  C   UNL     1       1.183   1.730 -38.452  1.00  0.00     0.059 C 
ENDROOT
BRANCH   1   2
ATOM      2  C   UNL     1       1.931   0.471 -38.147  1.00  0.00     0.042 C 
ATOM      3  O   UNL     1       2.801   0.455 -37.237  1.00  0.00    -0.550 OA
ATOM      4  O   UNL     1       1.632  -0.699 -38.833  1.00  0.00    -0.550 OA
ENDBRANCH   1   2
BRANCH   1   5
ATOM      5  C   UNL     1       1.904   2.530 -39.538  1.00  0.00     0.059 C 
BRANCH   5   6
ATOM      6  C   UNL     1       2.977   3.381 -38.936  1.00  0.00     0.042 C 
ATOM      7  O   UNL     1       4.147   2.930 -38.811  1.00  0.00    -0.550 OA
ATOM      8  O   UNL     1       2.677   4.653 -38.468  1.00  0.00    -0.550 OA
ENDBRANCH   5   6
ENDBRANCH   1   5
TORSDOF 3
ENDMDL
MODEL 2
REMARK VINA RESULT:    -3.081      0.064      3.639
REMARK INTER + INTRA:          -3.632
REMARK INTER:                  -3.616
REMARK INTRA:                  -0.016
REMARK UNBOUND:                -0.010
REMARK SMILES O=C([O-])CCC(=O)[O-]
REMARK SMILES IDX 4 1 2 2 1 3 3 4 5 5 6 6 7 7 8 8
REMARK H PARENT
REMARK Flexibility Score: inf
ROOT
ATOM      1  C   UNL     1       1.964   2.543 -39.539  1.00  0.00     0.059 C 
ENDROOT
BRANCH   1   2
ATOM      2  C   UNL     1       2.987   3.414 -38.882  1.00  0.00     0.042 C 
ATOM      3  O   UNL     1       4.164   2.996 -38.717  1.00  0.00    -0.550 OA
ATOM      4  O   UNL     1       2.656   4.706 -38.495  1.00  0.00    -0.550 OA
ENDBRANCH   1   2
BRANCH   1   5
ATOM      5  C   UNL     1       1.177   1.757 -38.491  1.00  0.00     0.059 C 
BRANCH   5   6
ATOM      6  C   UNL     1       1.894   0.493 -38.137  1.00  0.00     0.042 C 
ATOM      7  O   UNL     1       2.770   0.494 -37.232  1.00  0.00    -0.550 OA
ATOM      8  O   UNL     1       1.631  -0.676 -38.838  1.00  0.00    -0.550 OA
ENDBRANCH   5   6
ENDBRANCH   1   5
TORSDOF 3
ENDMDL
MODEL 3
REMARK VINA RESULT:    -2.885      1.448      3.453
REMARK INTER + INTRA:          -3.402
REMARK INTER:                  -3.401
REMARK INTRA:                  -0.001
REMARK UNBOUND:                -0.010
REMARK SMILES O=C([O-])CCC(=O)[O-]
REMARK SMILES IDX 4 1 2 2 1 3 3 4 5 5 6 6 7 7 8 8
REMARK H PARENT
REMARK Flexibility Score: inf
ROOT
ATOM      1  C   UNL     1       2.562   2.416 -39.955  1.00  0.00     0.059 C 
ENDROOT
BRANCH   1   2
ATOM      2  C   UNL     1       3.166   3.239 -38.862  1.00  0.00     0.042 C 
ATOM      3  O   UNL     1       4.110   2.777 -38.169  1.00  0.00    -0.550 OA
ATOM      4  O   UNL     1       2.720   4.535 -38.641  1.00  0.00    -0.550 OA
ENDBRANCH   1   2
BRANCH   1   5
ATOM      5  C   UNL     1       1.055   2.271 -39.746  1.00  0.00     0.059 C 
BRANCH   5   6
ATOM      6  C   UNL     1       0.757   1.884 -38.332  1.00  0.00     0.042 C 
ATOM      7  O   UNL     1       0.000   2.601 -37.625  1.00  0.00    -0.550 OA
ATOM      8  O   UNL     1       1.353   0.759 -37.778  1.00  0.00    -0.550 OA
ENDBRANCH   5   6
ENDBRANCH   1   5
TORSDOF 3
ENDMDL
MODEL 4
REMARK VINA RESULT:    -2.849      1.453      1.683
REMARK INTER + INTRA:          -3.359
REMARK INTER:                  -3.274
REMARK INTRA:                  -0.085
REMARK UNBOUND:                -0.010
REMARK SMILES O=C([O-])CCC(=O)[O-]
REMARK SMILES IDX 4 1 2 2 1 3 3 4 5 5 6 6 7 7 8 8
REMARK H PARENT
REMARK Flexibility Score: inf
ROOT
ATOM      1  C   UNL     1       1.414   1.594 -37.613  1.00  0.00     0.059 C 
ENDROOT
BRANCH   1   2
ATOM      2  C   UNL     1       2.220   0.394 -38.000  1.00  0.00     0.042 C 
ATOM      3  O   UNL     1       3.430   0.308 -37.661  1.00  0.00    -0.550 OA
ATOM      4  O   UNL     1       1.623  -0.650 -38.693  1.00  0.00    -0.550 OA
ENDBRANCH   1   2
BRANCH   1   5
ATOM      5  C   UNL     1       0.734   2.201 -38.840  1.00  0.00     0.059 C 
BRANCH   5   6
ATOM      6  C   UNL     1       1.740   2.480 -39.912  1.00  0.00     0.042 C 
ATOM      7  O   UNL     1       1.587   1.998 -41.065  1.00  0.00    -0.550 OA
ATOM      8  O   UNL     1       2.871   3.232 -39.625  1.00  0.00    -0.550 OA
ENDBRANCH   5   6
ENDBRANCH   1   5
TORSDOF 3
ENDMDL
MODEL 5
REMARK VINA RESULT:    -2.831      1.492      3.458
REMARK INTER + INTRA:          -3.337
REMARK INTER:                  -3.315
REMARK INTRA:                  -0.022
REMARK UNBOUND:                -0.010
REMARK SMILES O=C([O-])CCC(=O)[O-]
REMARK SMILES IDX 4 1 2 2 1 3 3 4 5 5 6 6 7 7 8 8
REMARK H PARENT
REMARK Flexibility Score: inf
ROOT
ATOM      1  C   UNL     1       0.609   2.208 -38.993  1.00  0.00     0.059 C 
ENDROOT
BRANCH   1   2
ATOM      2  C   UNL     1       1.673   2.460 -40.014  1.00  0.00     0.042 C 
ATOM      3  O   UNL     1       1.561   1.988 -41.176  1.00  0.00    -0.550 OA
ATOM      4  O   UNL     1       2.764   3.258 -39.698  1.00  0.00    -0.550 OA
ENDBRANCH   1   2
BRANCH   1   5
ATOM      5  C   UNL     1       1.224   1.674 -37.699  1.00  0.00     0.059 C 
BRANCH   5   6
ATOM      6  C   UNL     1       2.141   0.529 -37.989  1.00  0.00     0.042 C 
ATOM      7  O   UNL     1       3.347   0.577 -37.631  1.00  0.00    -0.550 OA
ATOM      8  O   UNL     1       1.677  -0.571 -38.698  1.00  0.00    -0.550 OA
ENDBRANCH   5   6
ENDBRANCH   1   5
TORSDOF 3
ENDMDL
MODEL 6
REMARK VINA RESULT:    -2.544      1.971      2.409
REMARK INTER + INTRA:          -3.000
REMARK INTER:                  -2.989
REMARK INTRA:                  -0.012
REMARK UNBOUND:                -0.010
REMARK SMILES O=C([O-])CCC(=O)[O-]
REMARK SMILES IDX 4 1 2 2 1 3 3 4 5 5 6 6 7 7 8 8
REMARK H PARENT
REMARK Flexibility Score: inf
ROOT
ATOM      1  C   UNL     1       1.531   1.045 -38.280  1.00  0.00     0.059 C 
ENDROOT
BRANCH   1   2
ATOM      2  C   UNL     1       0.520   2.095 -38.616  1.00  0.00     0.042 C 
ATOM      3  O   UNL     1       0.253   2.356 -39.819  1.00  0.00    -0.550 OA
ATOM      4  O   UNL     1      -0.165   2.750 -37.602  1.00  0.00    -0.550 OA
ENDBRANCH   1   2
BRANCH   1   5
ATOM      5  C   UNL     1       2.827   1.689 -37.786  1.00  0.00     0.059 C 
BRANCH   5   6
ATOM      6  C   UNL     1       3.257   2.780 -38.715  1.00  0.00     0.042 C 
ATOM      7  O   UNL     1       3.601   2.508 -39.896  1.00  0.00    -0.550 OA
ATOM      8  O   UNL     1       3.325   4.091 -38.264  1.00  0.00    -0.550 OA
ENDBRANCH   5   6
ENDBRANCH   1   5
TORSDOF 3
ENDMDL
MODEL 7
REMARK VINA RESULT:    -2.540      1.987      3.332
REMARK INTER + INTRA:          -2.996
REMARK INTER:                  -2.964
REMARK INTRA:                  -0.032
REMARK UNBOUND:                -0.010
REMARK SMILES O=C([O-])CCC(=O)[O-]
REMARK SMILES IDX 4 1 2 2 1 3 3 4 5 5 6 6 7 7 8 8
REMARK H PARENT
REMARK Flexibility Score: inf
ROOT
ATOM      1  C   UNL     1       2.892   1.623 -37.852  1.00  0.00     0.059 C 
ENDROOT
BRANCH   1   2
ATOM      2  C   UNL     1       3.324   2.731 -38.759  1.00  0.00     0.042 C 
ATOM      3  O   UNL     1       3.528   2.505 -39.981  1.00  0.00    -0.550 OA
ATOM      4  O   UNL     1       3.454   4.022 -38.267  1.00  0.00    -0.550 OA
ENDBRANCH   1   2
BRANCH   1   5
ATOM      5  C   UNL     1       1.590   0.998 -38.352  1.00  0.00     0.059 C 
BRANCH   5   6
ATOM      6  C   UNL     1       0.558   2.055 -38.588  1.00  0.00     0.042 C 
ATOM      7  O   UNL     1       0.211   2.350 -39.762  1.00  0.00    -0.550 OA
ATOM      8  O   UNL     1       0.017   2.750 -37.516  1.00  0.00    -0.550 OA
ENDBRANCH   5   6
ENDBRANCH   1   5
TORSDOF 3
ENDMDL
MODEL 8
REMARK VINA RESULT:    -2.359      2.569      3.579
REMARK INTER + INTRA:          -2.783
REMARK INTER:                  -2.778
REMARK INTRA:                  -0.005
REMARK UNBOUND:                -0.010
REMARK SMILES O=C([O-])CCC(=O)[O-]
REMARK SMILES IDX 4 1 2 2 1 3 3 4 5 5 6 6 7 7 8 8
REMARK H PARENT
REMARK Flexibility Score: inf
ROOT
ATOM      1  C   UNL     1       2.192   1.783 -40.459  1.00  0.00     0.059 C 
ENDROOT
BRANCH   1   2
ATOM      2  C   UNL     1       1.008   2.309 -41.207  1.00  0.00     0.042 C 
ATOM      3  O   UNL     1      -0.121   2.363 -40.650  1.00  0.00    -0.550 OA
ATOM      4  O   UNL     1       1.160   2.786 -42.502  1.00  0.00    -0.550 OA
ENDBRANCH   1   2
BRANCH   1   5
ATOM      5  C   UNL     1       2.433   2.605 -39.193  1.00  0.00     0.059 C 
BRANCH   5   6
ATOM      6  C   UNL     1       1.763   1.965 -38.018  1.00  0.00     0.042 C 
ATOM      7  O   UNL     1       0.756   2.508 -37.490  1.00  0.00    -0.550 OA
ATOM      8  O   UNL     1       2.278   0.796 -37.475  1.00  0.00    -0.550 OA
ENDBRANCH   5   6
ENDBRANCH   1   5
TORSDOF 3
ENDMDL
MODEL 9
REMARK VINA RESULT:    -2.339      2.638      3.435
REMARK INTER + INTRA:          -2.760
REMARK INTER:                  -2.767
REMARK INTRA:                   0.007
REMARK UNBOUND:                -0.010
REMARK SMILES O=C([O-])CCC(=O)[O-]
REMARK SMILES IDX 4 1 2 2 1 3 3 4 5 5 6 6 7 7 8 8
REMARK H PARENT
REMARK Flexibility Score: inf
ROOT
ATOM      1  C   UNL     1       1.638   1.331 -38.467  1.00  0.00     0.059 C 
ENDROOT
BRANCH   1   2
ATOM      2  C   UNL     1       2.375   1.967 -39.603  1.00  0.00     0.042 C 
ATOM      3  O   UNL     1       3.420   2.635 -39.385  1.00  0.00    -0.550 OA
ATOM      4  O   UNL     1       1.935   1.782 -40.907  1.00  0.00    -0.550 OA
ENDBRANCH   1   2
BRANCH   1   5
ATOM      5  C   UNL     1       0.903   2.389 -37.645  1.00  0.00     0.059 C 
BRANCH   5   6
ATOM      6  C   UNL     1      -0.516   2.515 -38.103  1.00  0.00     0.042 C 
ATOM      7  O   UNL     1      -1.460   2.408 -37.275  1.00  0.00    -0.550 OA
ATOM      8  O   UNL     1      -0.799   2.701 -39.449  1.00  0.00    -0.550 OA
ENDBRANCH   5   6
ENDBRANCH   1   5
TORSDOF 3
ENDMDL
