MODEL 1
REMARK VINA RESULT:    -7.528      0.000      0.000
REMARK INTER + INTRA:          -9.434
REMARK INTER:                  -9.068
REMARK INTRA:                  -0.365
REMARK UNBOUND:                -0.365
REMARK SMILES Oc1cc(O)c2c(c1)O[C@@H](c1ccc(O)c(O)c1)[C@H](O)C2
REMARK SMILES IDX 21 1 19 2 10 3 9 4 7 5 8 6 2 7 3 8 4 9 6 10 20 11 11 13
REMARK SMILES IDX 18 14 12 15 16 16 13 17 14 18 17 19 15 21 5 23 1 25
REMARK H PARENT 20 12 17 20 15 22 5 24 1 26
REMARK Flexibility Score: inf
ROOT
ATOM      1  C   UNL     1      16.540  24.948  43.279  1.00  0.00     0.079 C 
ATOM      2  C   UNL     1      17.219  23.980  42.293  1.00  0.00     0.164 C 
ATOM      3  C   UNL     1      18.010  24.784  41.243  1.00  0.00     0.232 C 
ATOM      4  O   UNL     1      18.948  25.651  41.886  1.00  0.00    -0.482 OA
ATOM      5  C   UNL     1      18.675  26.283  43.104  1.00  0.00     0.131 A 
ATOM      6  C   UNL     1      19.577  27.225  43.604  1.00  0.00     0.093 A 
ATOM      7  C   UNL     1      19.327  27.866  44.823  1.00  0.00     0.122 A 
ATOM      8  C   UNL     1      18.166  27.563  45.541  1.00  0.00     0.092 A 
ATOM      9  C   UNL     1      17.254  26.616  45.052  1.00  0.00     0.126 A 
ATOM     10  C   UNL     1      17.517  25.957  43.837  1.00  0.00     0.039 A 
ENDROOT
BRANCH   2  11
ATOM     11  O   UNL     1      16.248  23.192  41.654  1.00  0.00    -0.389 OA
ATOM     12  H   UNL     1      16.427  22.252  41.915  1.00  0.00     0.211 HD
ENDBRANCH   2  11
BRANCH   3  13
ATOM     13  C   UNL     1      18.742  23.866  40.291  1.00  0.00    -0.001 A 
ATOM     14  C   UNL     1      19.805  23.066  40.747  1.00  0.00     0.057 A 
ATOM     15  C   UNL     1      18.340  23.771  38.949  1.00  0.00     0.012 A 
ATOM     16  C   UNL     1      20.465  22.194  39.874  1.00  0.00     0.157 A 
ATOM     17  C   UNL     1      18.997  22.901  38.075  1.00  0.00     0.050 A 
ATOM     18  C   UNL     1      20.062  22.113  38.530  1.00  0.00     0.157 A 
BRANCH  16  19
ATOM     19  O   UNL     1      21.509  21.408  40.363  1.00  0.00    -0.504 OA
ATOM     20  H   UNL     1      21.553  20.410  40.198  1.00  0.00     0.293 HD
ENDBRANCH  16  19
BRANCH  18  21
ATOM     21  O   UNL     1      20.713  21.242  37.657  1.00  0.00    -0.504 OA
ATOM     22  H   UNL     1      20.394  21.111  36.705  1.00  0.00     0.293 HD
ENDBRANCH  18  21
ENDBRANCH   3  13
BRANCH   9  23
ATOM     23  O   UNL     1      16.093  26.330  45.769  1.00  0.00    -0.507 OA
ATOM     24  H   UNL     1      15.885  26.788  46.648  1.00  0.00     0.293 HD
ENDBRANCH   9  23
BRANCH   7  25
ATOM     25  O   UNL     1      20.222  28.807  45.329  1.00  0.00    -0.508 OA
ATOM     26  H   UNL     1      20.380  29.693  44.864  1.00  0.00     0.293 HD
ENDBRANCH   7  25
TORSDOF 6
ENDMDL
MODEL 2
REMARK VINA RESULT:    -7.057      0.618      1.492
REMARK INTER + INTRA:          -8.866
REMARK INTER:                  -8.498
REMARK INTRA:                  -0.368
REMARK UNBOUND:                -0.365
REMARK SMILES Oc1cc(O)c2c(c1)O[C@@H](c1ccc(O)c(O)c1)[C@H](O)C2
REMARK SMILES IDX 21 1 19 2 10 3 9 4 7 5 8 6 2 7 3 8 4 9 6 10 20 11 11 13
REMARK SMILES IDX 18 14 12 15 16 16 13 17 14 18 17 19 15 21 5 23 1 25
REMARK H PARENT 20 12 17 20 15 22 5 24 1 26
REMARK Flexibility Score: inf
ROOT
ATOM      1  C   UNL     1      16.590  24.897  43.259  1.00  0.00     0.079 C 
ATOM      2  C   UNL     1      17.256  23.900  42.293  1.00  0.00     0.164 C 
ATOM      3  C   UNL     1      18.051  24.672  41.222  1.00  0.00     0.232 C 
ATOM      4  O   UNL     1      19.000  25.544  41.843  1.00  0.00    -0.482 OA
ATOM      5  C   UNL     1      18.738  26.207  43.047  1.00  0.00     0.131 A 
ATOM      6  C   UNL     1      19.651  27.150  43.522  1.00  0.00     0.093 A 
ATOM      7  C   UNL     1      19.411  27.821  44.728  1.00  0.00     0.122 A 
ATOM      8  C   UNL     1      18.250  27.547  45.455  1.00  0.00     0.092 A 
ATOM      9  C   UNL     1      17.327  26.598  44.991  1.00  0.00     0.126 A 
ATOM     10  C   UNL     1      17.579  25.908  43.791  1.00  0.00     0.039 A 
ENDROOT
BRANCH   2  11
ATOM     11  O   UNL     1      16.275  23.107  41.676  1.00  0.00    -0.389 OA
ATOM     12  H   UNL     1      15.525  23.713  41.442  1.00  0.00     0.211 HD
ENDBRANCH   2  11
BRANCH   3  13
ATOM     13  C   UNL     1      18.770  23.725  40.290  1.00  0.00    -0.001 A 
ATOM     14  C   UNL     1      18.397  23.634  38.937  1.00  0.00     0.057 A 
ATOM     15  C   UNL     1      19.849  22.956  40.755  1.00  0.00     0.012 A 
ATOM     16  C   UNL     1      19.080  22.780  38.066  1.00  0.00     0.157 A 
ATOM     17  C   UNL     1      20.534  22.102  39.887  1.00  0.00     0.050 A 
ATOM     18  C   UNL     1      20.153  22.007  38.542  1.00  0.00     0.157 A 
BRANCH  16  19
ATOM     19  O   UNL     1      18.688  22.722  36.728  1.00  0.00    -0.504 OA
ATOM     20  H   UNL     1      19.340  22.498  35.985  1.00  0.00     0.293 HD
ENDBRANCH  16  19
BRANCH  18  21
ATOM     21  O   UNL     1      20.840  21.157  37.677  1.00  0.00    -0.504 OA
ATOM     22  H   UNL     1      20.513  20.219  37.484  1.00  0.00     0.293 HD
ENDBRANCH  18  21
ENDBRANCH   3  13
BRANCH   9  23
ATOM     23  O   UNL     1      16.166  26.339  45.719  1.00  0.00    -0.507 OA
ATOM     24  H   UNL     1      15.249  26.571  45.356  1.00  0.00     0.293 HD
ENDBRANCH   9  23
BRANCH   7  25
ATOM     25  O   UNL     1      20.318  28.764  45.209  1.00  0.00    -0.508 OA
ATOM     26  H   UNL     1      20.079  29.747  45.269  1.00  0.00     0.293 HD
ENDBRANCH   7  25
TORSDOF 6
ENDMDL
MODEL 3
REMARK VINA RESULT:    -6.520      1.295      2.831
REMARK INTER + INTRA:          -8.220
REMARK INTER:                  -7.864
REMARK INTRA:                  -0.355
REMARK UNBOUND:                -0.365
REMARK SMILES Oc1cc(O)c2c(c1)O[C@@H](c1ccc(O)c(O)c1)[C@H](O)C2
REMARK SMILES IDX 21 1 19 2 10 3 9 4 7 5 8 6 2 7 3 8 4 9 6 10 20 11 11 13
REMARK SMILES IDX 18 14 12 15 16 16 13 17 14 18 17 19 15 21 5 23 1 25
REMARK H PARENT 20 12 17 20 15 22 5 24 1 26
REMARK Flexibility Score: inf
ROOT
ATOM      1  C   UNL     1      19.937  26.735  42.676  1.00  0.00     0.079 C 
ATOM      2  C   UNL     1      19.700  26.105  41.292  1.00  0.00     0.164 C 
ATOM      3  C   UNL     1      19.362  24.611  41.456  1.00  0.00     0.232 C 
ATOM      4  O   UNL     1      18.237  24.450  42.325  1.00  0.00    -0.482 OA
ATOM      5  C   UNL     1      18.014  25.282  43.428  1.00  0.00     0.131 A 
ATOM      6  C   UNL     1      16.976  24.982  44.314  1.00  0.00     0.093 A 
ATOM      7  C   UNL     1      16.732  25.804  45.420  1.00  0.00     0.122 A 
ATOM      8  C   UNL     1      17.532  26.928  45.640  1.00  0.00     0.092 A 
ATOM      9  C   UNL     1      18.575  27.243  44.756  1.00  0.00     0.126 A 
ATOM     10  C   UNL     1      18.807  26.429  43.632  1.00  0.00     0.039 A 
ENDROOT
BRANCH   2  11
ATOM     11  O   UNL     1      20.853  26.245  40.501  1.00  0.00    -0.389 OA
ATOM     12  H   UNL     1      21.446  25.482  40.724  1.00  0.00     0.211 HD
ENDBRANCH   2  11
BRANCH   3  13
ATOM     13  C   UNL     1      19.063  23.969  40.121  1.00  0.00    -0.001 A 
ATOM     14  C   UNL     1      19.965  23.053  39.551  1.00  0.00     0.057 A 
ATOM     15  C   UNL     1      17.860  24.250  39.454  1.00  0.00     0.012 A 
ATOM     16  C   UNL     1      19.676  22.436  38.329  1.00  0.00     0.157 A 
ATOM     17  C   UNL     1      17.568  23.635  38.233  1.00  0.00     0.050 A 
ATOM     18  C   UNL     1      18.474  22.730  37.664  1.00  0.00     0.157 A 
BRANCH  16  19
ATOM     19  O   UNL     1      20.590  21.525  37.798  1.00  0.00    -0.504 OA
ATOM     20  H   UNL     1      20.302  20.762  37.199  1.00  0.00     0.293 HD
ENDBRANCH  16  19
BRANCH  18  21
ATOM     21  O   UNL     1      18.179  22.115  36.448  1.00  0.00    -0.504 OA
ATOM     22  H   UNL     1      18.795  21.422  36.042  1.00  0.00     0.293 HD
ENDBRANCH  18  21
ENDBRANCH   3  13
BRANCH   9  23
ATOM     23  O   UNL     1      19.376  28.360  44.991  1.00  0.00    -0.507 OA
ATOM     24  H   UNL     1      18.985  29.294  45.041  1.00  0.00     0.293 HD
ENDBRANCH   9  23
BRANCH   7  25
ATOM     25  O   UNL     1      15.698  25.512  46.308  1.00  0.00    -0.508 OA
ATOM     26  H   UNL     1      15.574  26.033  47.169  1.00  0.00     0.293 HD
ENDBRANCH   7  25
TORSDOF 6
ENDMDL
MODEL 4
REMARK VINA RESULT:    -6.426      1.587      6.860
REMARK INTER + INTRA:          -8.106
REMARK INTER:                  -7.747
REMARK INTRA:                  -0.358
REMARK UNBOUND:                -0.365
REMARK SMILES Oc1cc(O)c2c(c1)O[C@@H](c1ccc(O)c(O)c1)[C@H](O)C2
REMARK SMILES IDX 21 1 19 2 10 3 9 4 7 5 8 6 2 7 3 8 4 9 6 10 20 11 11 13
REMARK SMILES IDX 18 14 12 15 16 16 13 17 14 18 17 19 15 21 5 23 1 25
REMARK H PARENT 20 12 17 20 15 22 5 24 1 26
REMARK Flexibility Score: inf
ROOT
ATOM      1  C   UNL     1      16.981  24.857  40.077  1.00  0.00     0.079 C 
ATOM      2  C   UNL     1      16.862  25.675  41.377  1.00  0.00     0.164 C 
ATOM      3  C   UNL     1      16.973  24.734  42.591  1.00  0.00     0.232 C 
ATOM      4  O   UNL     1      18.192  23.988  42.530  1.00  0.00    -0.482 OA
ATOM      5  C   UNL     1      18.741  23.542  41.322  1.00  0.00     0.131 A 
ATOM      6  C   UNL     1      19.855  22.700  41.345  1.00  0.00     0.093 A 
ATOM      7  C   UNL     1      20.424  22.247  40.149  1.00  0.00     0.122 A 
ATOM      8  C   UNL     1      19.871  22.637  38.926  1.00  0.00     0.092 A 
ATOM      9  C   UNL     1      18.755  23.486  38.889  1.00  0.00     0.126 A 
ATOM     10  C   UNL     1      18.196  23.959  40.091  1.00  0.00     0.039 A 
ENDROOT
BRANCH   2  11
ATOM     11  O   UNL     1      15.627  26.343  41.406  1.00  0.00    -0.389 OA
ATOM     12  H   UNL     1      15.080  25.901  42.106  1.00  0.00     0.211 HD
ENDBRANCH   2  11
BRANCH   3  13
ATOM     13  C   UNL     1      16.921  25.508  43.887  1.00  0.00    -0.001 A 
ATOM     14  C   UNL     1      17.792  26.591  44.109  1.00  0.00     0.057 A 
ATOM     15  C   UNL     1      15.973  25.182  44.871  1.00  0.00     0.012 A 
ATOM     16  C   UNL     1      17.725  27.327  45.296  1.00  0.00     0.157 A 
ATOM     17  C   UNL     1      15.904  25.915  46.058  1.00  0.00     0.050 A 
ATOM     18  C   UNL     1      16.779  26.987  46.278  1.00  0.00     0.157 A 
BRANCH  16  19
ATOM     19  O   UNL     1      18.598  28.400  45.477  1.00  0.00    -0.504 OA
ATOM     20  H   UNL     1      18.657  28.904  46.353  1.00  0.00     0.293 HD
ENDBRANCH  16  19
BRANCH  18  21
ATOM     21  O   UNL     1      16.706  27.720  47.461  1.00  0.00    -0.504 OA
ATOM     22  H   UNL     1      16.237  28.617  47.501  1.00  0.00     0.293 HD
ENDBRANCH  18  21
ENDBRANCH   3  13
BRANCH   9  23
ATOM     23  O   UNL     1      18.203  23.860  37.664  1.00  0.00    -0.507 OA
ATOM     24  H   UNL     1      18.157  23.217  36.883  1.00  0.00     0.293 HD
ENDBRANCH   9  23
BRANCH   7  25
ATOM     25  O   UNL     1      21.536  21.407  40.164  1.00  0.00    -0.508 OA
ATOM     26  H   UNL     1      22.449  21.741  40.448  1.00  0.00     0.293 HD
ENDBRANCH   7  25
TORSDOF 6
ENDMDL
MODEL 5
REMARK VINA RESULT:    -6.303      2.553      7.122
REMARK INTER + INTRA:          -7.957
REMARK INTER:                  -7.588
REMARK INTRA:                  -0.369
REMARK UNBOUND:                -0.365
REMARK SMILES Oc1cc(O)c2c(c1)O[C@@H](c1ccc(O)c(O)c1)[C@H](O)C2
REMARK SMILES IDX 21 1 19 2 10 3 9 4 7 5 8 6 2 7 3 8 4 9 6 10 20 11 11 13
REMARK SMILES IDX 18 14 12 15 16 16 13 17 14 18 17 19 15 21 5 23 1 25
REMARK H PARENT 20 12 17 20 15 22 5 24 1 26
REMARK Flexibility Score: inf
ROOT
ATOM      1  C   UNL     1      19.528  22.527  38.617  1.00  0.00     0.079 C 
ATOM      2  C   UNL     1      19.750  23.373  39.885  1.00  0.00     0.164 C 
ATOM      3  C   UNL     1      19.764  24.867  39.512  1.00  0.00     0.232 C 
ATOM      4  O   UNL     1      18.559  25.219  38.828  1.00  0.00    -0.482 OA
ATOM      5  C   UNL     1      17.911  24.346  37.947  1.00  0.00     0.131 A 
ATOM      6  C   UNL     1      16.818  24.805  37.207  1.00  0.00     0.093 A 
ATOM      7  C   UNL     1      16.152  23.947  36.324  1.00  0.00     0.122 A 
ATOM      8  C   UNL     1      16.586  22.626  36.180  1.00  0.00     0.092 A 
ATOM      9  C   UNL     1      17.679  22.152  36.920  1.00  0.00     0.126 A 
ATOM     10  C   UNL     1      18.335  23.008  37.824  1.00  0.00     0.039 A 
ENDROOT
BRANCH   2  11
ATOM     11  O   UNL     1      20.970  23.021  40.484  1.00  0.00    -0.389 OA
ATOM     12  H   UNL     1      20.774  22.285  41.120  1.00  0.00     0.211 HD
ENDBRANCH   2  11
BRANCH   3  13
ATOM     13  C   UNL     1      19.919  25.734  40.739  1.00  0.00    -0.001 A 
ATOM     14  C   UNL     1      20.968  26.667  40.828  1.00  0.00     0.057 A 
ATOM     15  C   UNL     1      18.992  25.647  41.790  1.00  0.00     0.012 A 
ATOM     16  C   UNL     1      21.097  27.490  41.951  1.00  0.00     0.157 A 
ATOM     17  C   UNL     1      19.116  26.468  42.913  1.00  0.00     0.050 A 
ATOM     18  C   UNL     1      20.169  27.390  43.001  1.00  0.00     0.157 A 
BRANCH  16  19
ATOM     19  O   UNL     1      22.144  28.410  42.000  1.00  0.00    -0.504 OA
ATOM     20  H   UNL     1      22.974  28.252  42.559  1.00  0.00     0.293 HD
ENDBRANCH  16  19
BRANCH  18  21
ATOM     21  O   UNL     1      20.289  28.211  44.121  1.00  0.00    -0.504 OA
ATOM     22  H   UNL     1      20.598  27.848  45.014  1.00  0.00     0.293 HD
ENDBRANCH  18  21
ENDBRANCH   3  13
BRANCH   9  23
ATOM     23  O   UNL     1      18.112  20.835  36.761  1.00  0.00    -0.507 OA
ATOM     24  H   UNL     1      19.040  20.618  36.419  1.00  0.00     0.293 HD
ENDBRANCH   9  23
BRANCH   7  25
ATOM     25  O   UNL     1      15.061  24.397  35.583  1.00  0.00    -0.508 OA
ATOM     26  H   UNL     1      15.118  25.228  35.007  1.00  0.00     0.293 HD
ENDBRANCH   7  25
TORSDOF 6
ENDMDL
MODEL 6
REMARK VINA RESULT:    -6.203      1.884      3.494
REMARK INTER + INTRA:          -7.838
REMARK INTER:                  -7.477
REMARK INTRA:                  -0.361
REMARK UNBOUND:                -0.365
REMARK SMILES Oc1cc(O)c2c(c1)O[C@@H](c1ccc(O)c(O)c1)[C@H](O)C2
REMARK SMILES IDX 21 1 19 2 10 3 9 4 7 5 8 6 2 7 3 8 4 9 6 10 20 11 11 13
REMARK SMILES IDX 18 14 12 15 16 16 13 17 14 18 17 19 15 21 5 23 1 25
REMARK H PARENT 20 12 17 20 15 22 5 24 1 26
REMARK Flexibility Score: inf
ROOT
ATOM      1  C   UNL     1      20.124  27.123  42.890  1.00  0.00     0.079 C 
ATOM      2  C   UNL     1      19.918  26.712  41.421  1.00  0.00     0.164 C 
ATOM      3  C   UNL     1      19.423  25.255  41.356  1.00  0.00     0.232 C 
ATOM      4  O   UNL     1      18.233  25.101  42.135  1.00  0.00    -0.482 OA
ATOM      5  C   UNL     1      18.021  25.797  43.330  1.00  0.00     0.131 A 
ATOM      6  C   UNL     1      16.903  25.494  44.111  1.00  0.00     0.093 A 
ATOM      7  C   UNL     1      16.669  26.182  45.307  1.00  0.00     0.122 A 
ATOM      8  C   UNL     1      17.561  27.173  45.724  1.00  0.00     0.092 A 
ATOM      9  C   UNL     1      18.685  27.490  44.948  1.00  0.00     0.126 A 
ATOM     10  C   UNL     1      18.909  26.814  43.734  1.00  0.00     0.039 A 
ENDROOT
BRANCH   2  11
ATOM     11  O   UNL     1      21.128  26.833  40.718  1.00  0.00    -0.389 OA
ATOM     12  H   UNL     1      21.058  27.657  40.170  1.00  0.00     0.211 HD
ENDBRANCH   2  11
BRANCH   3  13
ATOM     13  C   UNL     1      19.150  24.834  39.931  1.00  0.00    -0.001 A 
ATOM     14  C   UNL     1      18.298  25.596  39.112  1.00  0.00     0.057 A 
ATOM     15  C   UNL     1      19.779  23.699  39.395  1.00  0.00     0.012 A 
ATOM     16  C   UNL     1      18.067  25.224  37.783  1.00  0.00     0.157 A 
ATOM     17  C   UNL     1      19.552  23.325  38.068  1.00  0.00     0.050 A 
ATOM     18  C   UNL     1      18.694  24.081  37.258  1.00  0.00     0.157 A 
BRANCH  16  19
ATOM     19  O   UNL     1      17.223  26.009  36.997  1.00  0.00    -0.504 OA
ATOM     20  H   UNL     1      16.359  26.395  37.356  1.00  0.00     0.293 HD
ENDBRANCH  16  19
BRANCH  18  21
ATOM     21  O   UNL     1      18.472  23.709  35.933  1.00  0.00    -0.504 OA
ATOM     22  H   UNL     1      18.420  22.736  35.658  1.00  0.00     0.293 HD
ENDBRANCH  18  21
ENDBRANCH   3  13
BRANCH   9  23
ATOM     23  O   UNL     1      19.576  28.474  45.378  1.00  0.00    -0.507 OA
ATOM     24  H   UNL     1      20.475  28.608  44.931  1.00  0.00     0.293 HD
ENDBRANCH   9  23
BRANCH   7  25
ATOM     25  O   UNL     1      15.555  25.886  46.091  1.00  0.00    -0.508 OA
ATOM     26  H   UNL     1      14.945  25.106  45.874  1.00  0.00     0.293 HD
ENDBRANCH   7  25
TORSDOF 6
ENDMDL
MODEL 7
REMARK VINA RESULT:    -6.136      3.325      6.071
REMARK INTER + INTRA:          -7.757
REMARK INTER:                  -7.508
REMARK INTRA:                  -0.249
REMARK UNBOUND:                -0.365
REMARK SMILES Oc1cc(O)c2c(c1)O[C@@H](c1ccc(O)c(O)c1)[C@H](O)C2
REMARK SMILES IDX 21 1 19 2 10 3 9 4 7 5 8 6 2 7 3 8 4 9 6 10 20 11 11 13
REMARK SMILES IDX 18 14 12 15 16 16 13 17 14 18 17 19 15 21 5 23 1 25
REMARK H PARENT 20 12 17 20 15 22 5 24 1 26
REMARK Flexibility Score: inf
ROOT
ATOM      1  C   UNL     1      14.752  23.367  42.915  1.00  0.00     0.079 C 
ATOM      2  C   UNL     1      15.861  24.364  42.532  1.00  0.00     0.164 C 
ATOM      3  C   UNL     1      16.816  24.558  43.726  1.00  0.00     0.232 C 
ATOM      4  O   UNL     1      17.342  23.298  44.149  1.00  0.00    -0.482 OA
ATOM      5  C   UNL     1      16.589  22.119  44.117  1.00  0.00     0.131 A 
ATOM      6  C   UNL     1      17.116  20.953  44.676  1.00  0.00     0.093 A 
ATOM      7  C   UNL     1      16.382  19.761  44.651  1.00  0.00     0.122 A 
ATOM      8  C   UNL     1      15.113  19.741  44.065  1.00  0.00     0.092 A 
ATOM      9  C   UNL     1      14.573  20.904  43.497  1.00  0.00     0.126 A 
ATOM     10  C   UNL     1      15.320  22.096  43.503  1.00  0.00     0.039 A 
ENDROOT
BRANCH   2  11
ATOM     11  O   UNL     1      15.291  25.597  42.176  1.00  0.00    -0.389 OA
ATOM     12  H   UNL     1      14.588  25.402  41.503  1.00  0.00     0.211 HD
ENDBRANCH   2  11
BRANCH   3  13
ATOM     13  C   UNL     1      17.955  25.485  43.368  1.00  0.00    -0.001 A 
ATOM     14  C   UNL     1      18.470  26.383  44.319  1.00  0.00     0.057 A 
ATOM     15  C   UNL     1      18.539  25.430  42.092  1.00  0.00     0.012 A 
ATOM     16  C   UNL     1      19.543  27.222  43.999  1.00  0.00     0.157 A 
ATOM     17  C   UNL     1      19.611  26.266  41.769  1.00  0.00     0.050 A 
ATOM     18  C   UNL     1      20.115  27.166  42.717  1.00  0.00     0.157 A 
BRANCH  16  19
ATOM     19  O   UNL     1      20.035  28.094  44.971  1.00  0.00    -0.504 OA
ATOM     20  H   UNL     1      20.315  27.773  45.889  1.00  0.00     0.293 HD
ENDBRANCH  16  19
BRANCH  18  21
ATOM     21  O   UNL     1      21.187  27.996  42.393  1.00  0.00    -0.504 OA
ATOM     22  H   UNL     1      21.045  28.947  42.075  1.00  0.00     0.293 HD
ENDBRANCH  18  21
ENDBRANCH   3  13
BRANCH   9  23
ATOM     23  O   UNL     1      13.301  20.876  42.925  1.00  0.00    -0.507 OA
ATOM     24  H   UNL     1      12.713  20.053  42.978  1.00  0.00     0.293 HD
ENDBRANCH   9  23
BRANCH   7  25
ATOM     25  O   UNL     1      16.901  18.594  45.206  1.00  0.00    -0.508 OA
ATOM     26  H   UNL     1      17.073  17.769  44.643  1.00  0.00     0.293 HD
ENDBRANCH   7  25
TORSDOF 6
ENDMDL
MODEL 8
REMARK VINA RESULT:    -6.042      2.253      7.422
REMARK INTER + INTRA:          -7.643
REMARK INTER:                  -7.408
REMARK INTRA:                  -0.235
REMARK UNBOUND:                -0.365
REMARK SMILES Oc1cc(O)c2c(c1)O[C@@H](c1ccc(O)c(O)c1)[C@H](O)C2
REMARK SMILES IDX 21 1 19 2 10 3 9 4 7 5 8 6 2 7 3 8 4 9 6 10 20 11 11 13
REMARK SMILES IDX 18 14 12 15 16 16 13 17 14 18 17 19 15 21 5 23 1 25
REMARK H PARENT 20 12 17 20 15 22 5 24 1 26
REMARK Flexibility Score: inf
ROOT
ATOM      1  C   UNL     1      19.928  27.112  43.085  1.00  0.00     0.079 C 
ATOM      2  C   UNL     1      19.281  26.825  44.453  1.00  0.00     0.164 C 
ATOM      3  C   UNL     1      17.748  26.795  44.303  1.00  0.00     0.232 C 
ATOM      4  O   UNL     1      17.366  25.839  43.310  1.00  0.00    -0.482 OA
ATOM      5  C   UNL     1      18.126  25.605  42.159  1.00  0.00     0.131 A 
ATOM      6  C   UNL     1      17.623  24.762  41.166  1.00  0.00     0.093 A 
ATOM      7  C   UNL     1      18.369  24.509  40.008  1.00  0.00     0.122 A 
ATOM      8  C   UNL     1      19.622  25.107  39.846  1.00  0.00     0.092 A 
ATOM      9  C   UNL     1      20.141  25.952  40.838  1.00  0.00     0.126 A 
ATOM     10  C   UNL     1      19.400  26.189  42.011  1.00  0.00     0.039 A 
ENDROOT
BRANCH   2  11
ATOM     11  O   UNL     1      19.649  27.821  45.371  1.00  0.00    -0.389 OA
ATOM     12  H   UNL     1      20.610  28.013  45.214  1.00  0.00     0.211 HD
ENDBRANCH   2  11
BRANCH   3  13
ATOM     13  C   UNL     1      17.079  26.456  45.614  1.00  0.00    -0.001 A 
ATOM     14  C   UNL     1      16.656  27.476  46.485  1.00  0.00     0.057 A 
ATOM     15  C   UNL     1      16.833  25.117  45.959  1.00  0.00     0.012 A 
ATOM     16  C   UNL     1      16.010  27.164  47.686  1.00  0.00     0.157 A 
ATOM     17  C   UNL     1      16.188  24.802  47.158  1.00  0.00     0.050 A 
ATOM     18  C   UNL     1      15.777  25.821  48.027  1.00  0.00     0.157 A 
BRANCH  16  19
ATOM     19  O   UNL     1      15.596  28.202  48.522  1.00  0.00    -0.504 OA
ATOM     20  H   UNL     1      15.412  28.059  49.507  1.00  0.00     0.293 HD
ENDBRANCH  16  19
BRANCH  18  21
ATOM     21  O   UNL     1      15.130  25.505  49.220  1.00  0.00    -0.504 OA
ATOM     22  H   UNL     1      15.069  26.169  49.982  1.00  0.00     0.293 HD
ENDBRANCH  18  21
ENDBRANCH   3  13
BRANCH   9  23
ATOM     23  O   UNL     1      21.387  26.553  40.662  1.00  0.00    -0.507 OA
ATOM     24  H   UNL     1      21.707  27.299  41.267  1.00  0.00     0.293 HD
ENDBRANCH   9  23
BRANCH   7  25
ATOM     25  O   UNL     1      17.874  23.669  39.013  1.00  0.00    -0.508 OA
ATOM     26  H   UNL     1      17.093  23.943  38.427  1.00  0.00     0.293 HD
ENDBRANCH   7  25
TORSDOF 6
ENDMDL
MODEL 9
REMARK VINA RESULT:    -6.001      4.136      7.517
REMARK INTER + INTRA:          -7.594
REMARK INTER:                  -7.759
REMARK INTRA:                   0.165
REMARK UNBOUND:                -0.365
REMARK SMILES Oc1cc(O)c2c(c1)O[C@@H](c1ccc(O)c(O)c1)[C@H](O)C2
REMARK SMILES IDX 21 1 19 2 10 3 9 4 7 5 8 6 2 7 3 8 4 9 6 10 20 11 11 13
REMARK SMILES IDX 18 14 12 15 16 16 13 17 14 18 17 19 15 21 5 23 1 25
REMARK H PARENT 20 12 17 20 15 22 5 24 1 26
REMARK Flexibility Score: inf
ROOT
ATOM      1  C   UNL     1      16.627  21.694  44.270  1.00  0.00     0.079 C 
ATOM      2  C   UNL     1      17.100  23.156  44.370  1.00  0.00     0.164 C 
ATOM      3  C   UNL     1      16.388  23.849  45.548  1.00  0.00     0.232 C 
ATOM      4  O   UNL     1      16.612  23.122  46.759  1.00  0.00    -0.482 OA
ATOM      5  C   UNL     1      16.695  21.725  46.793  1.00  0.00     0.131 A 
ATOM      6  C   UNL     1      16.773  21.073  48.026  1.00  0.00     0.093 A 
ATOM      7  C   UNL     1      16.863  19.678  48.083  1.00  0.00     0.122 A 
ATOM      8  C   UNL     1      16.870  18.934  46.901  1.00  0.00     0.092 A 
ATOM      9  C   UNL     1      16.796  19.576  45.656  1.00  0.00     0.126 A 
ATOM     10  C   UNL     1      16.728  20.980  45.598  1.00  0.00     0.039 A 
ENDROOT
BRANCH   2  11
ATOM     11  O   UNL     1      16.808  23.834  43.175  1.00  0.00    -0.389 OA
ATOM     12  H   UNL     1      16.118  23.299  42.705  1.00  0.00     0.211 HD
ENDBRANCH   2  11
BRANCH   3  13
ATOM     13  C   UNL     1      16.871  25.270  45.718  1.00  0.00    -0.001 A 
ATOM     14  C   UNL     1      17.916  25.770  44.919  1.00  0.00     0.057 A 
ATOM     15  C   UNL     1      16.254  26.123  46.647  1.00  0.00     0.012 A 
ATOM     16  C   UNL     1      18.345  27.094  45.054  1.00  0.00     0.157 A 
ATOM     17  C   UNL     1      16.680  27.447  46.784  1.00  0.00     0.050 A 
ATOM     18  C   UNL     1      17.727  27.937  45.993  1.00  0.00     0.157 A 
BRANCH  16  19
ATOM     19  O   UNL     1      19.378  27.558  44.238  1.00  0.00    -0.504 OA
ATOM     20  H   UNL     1      19.760  27.000  43.484  1.00  0.00     0.293 HD
ENDBRANCH  16  19
BRANCH  18  21
ATOM     21  O   UNL     1      18.148  29.259  46.129  1.00  0.00    -0.504 OA
ATOM     22  H   UNL     1      17.797  29.992  45.524  1.00  0.00     0.293 HD
ENDBRANCH  18  21
ENDBRANCH   3  13
BRANCH   9  23
ATOM     23  O   UNL     1      16.793  18.824  44.481  1.00  0.00    -0.507 OA
ATOM     24  H   UNL     1      16.160  19.033  43.718  1.00  0.00     0.293 HD
ENDBRANCH   9  23
BRANCH   7  25
ATOM     25  O   UNL     1      16.941  19.020  49.310  1.00  0.00    -0.508 OA
ATOM     26  H   UNL     1      17.630  18.297  49.481  1.00  0.00     0.293 HD
ENDBRANCH   7  25
TORSDOF 6
ENDMDL
