MODEL 1
REMARK VINA RESULT:    -4.501      0.000      0.000
REMARK INTER + INTRA:          -9.379
REMARK INTER:                  -7.659
REMARK INTRA:                  -1.720
REMARK UNBOUND:                -1.720
REMARK SMILES CCCCCCCCCCCCCC(=O)[O-]
REMARK SMILES IDX 8 1 9 2 10 3 11 4 12 5 13 6 14 7 15 8 16 9 7 10 6 11 5 12
REMARK SMILES IDX 4 13 3 14 2 15 1 16
REMARK H PARENT
REMARK Flexibility Score: inf
ROOT
ATOM      1  C   UNL     1       7.047  -8.471  27.493  1.00  0.00     0.000 C 
ENDROOT
BRANCH   1   2
ATOM      2  C   UNL     1       8.540  -8.100  27.530  1.00  0.00     0.000 C 
BRANCH   2   3
ATOM      3  C   UNL     1       8.872  -7.110  28.659  1.00  0.00     0.000 C 
BRANCH   3   4
ATOM      4  C   UNL     1       8.609  -5.644  28.265  1.00  0.00     0.000 C 
BRANCH   4   5
ATOM      5  C   UNL     1       7.310  -5.037  28.831  1.00  0.00     0.006 C 
BRANCH   5   6
ATOM      6  C   UNL     1       6.167  -4.909  27.811  1.00  0.00     0.053 C 
BRANCH   6   7
ATOM      7  C   UNL     1       6.675  -4.633  26.430  1.00  0.00     0.041 C 
ATOM      8  O   UNL     1       6.444  -5.445  25.496  1.00  0.00    -0.550 OA
ATOM      9  O   UNL     1       7.373  -3.460  26.166  1.00  0.00    -0.550 OA
ENDBRANCH   6   7
ENDBRANCH   5   6
ENDBRANCH   4   5
ENDBRANCH   3   4
ENDBRANCH   2   3
ENDBRANCH   1   2
BRANCH   1  10
ATOM     10  C   UNL     1       6.738  -9.744  28.299  1.00  0.00     0.000 C 
BRANCH  10  11
ATOM     11  C   UNL     1       5.641  -9.528  29.356  1.00  0.00    -0.000 C 
BRANCH  11  12
ATOM     12  C   UNL     1       5.495  -8.080  29.867  1.00  0.00    -0.000 C 
BRANCH  12  13
ATOM     13  C   UNL     1       6.153  -7.794  31.229  1.00  0.00    -0.000 C 
BRANCH  13  14
ATOM     14  C   UNL     1       5.301  -6.878  32.124  1.00  0.00    -0.000 C 
BRANCH  14  15
ATOM     15  C   UNL     1       6.013  -5.559  32.461  1.00  0.00    -0.003 C 
ATOM     16  C   UNL     1       7.534  -5.659  32.346  1.00  0.00     0.004 C 
ENDBRANCH  14  15
ENDBRANCH  13  14
ENDBRANCH  12  13
ENDBRANCH  11  12
ENDBRANCH  10  11
ENDBRANCH   1  10
TORSDOF 12
ENDMDL
MODEL 2
REMARK VINA RESULT:    -4.417      1.351      3.581
REMARK INTER + INTRA:          -9.237
REMARK INTER:                  -7.675
REMARK INTRA:                  -1.562
REMARK UNBOUND:                -1.720
REMARK SMILES CCCCCCCCCCCCCC(=O)[O-]
REMARK SMILES IDX 8 1 9 2 10 3 11 4 12 5 13 6 14 7 15 8 16 9 7 10 6 11 5 12
REMARK SMILES IDX 4 13 3 14 2 15 1 16
REMARK H PARENT
REMARK Flexibility Score: inf
ROOT
ATOM      1  C   UNL     1       7.547  -5.236  32.015  1.00  0.00     0.000 C 
ENDROOT
BRANCH   1   2
ATOM      2  C   UNL     1       8.347  -6.390  31.387  1.00  0.00     0.000 C 
BRANCH   2   3
ATOM      3  C   UNL     1       8.298  -6.371  29.850  1.00  0.00     0.000 C 
BRANCH   3   4
ATOM      4  C   UNL     1       7.425  -5.232  29.293  1.00  0.00     0.000 C 
BRANCH   4   5
ATOM      5  C   UNL     1       6.052  -5.668  28.744  1.00  0.00     0.006 C 
BRANCH   5   6
ATOM      6  C   UNL     1       5.616  -4.939  27.462  1.00  0.00     0.053 C 
BRANCH   6   7
ATOM      7  C   UNL     1       6.322  -5.464  26.250  1.00  0.00     0.041 C 
ATOM      8  O   UNL     1       6.623  -4.686  25.306  1.00  0.00    -0.550 OA
ATOM      9  O   UNL     1       6.679  -6.805  26.178  1.00  0.00    -0.550 OA
ENDBRANCH   6   7
ENDBRANCH   5   6
ENDBRANCH   4   5
ENDBRANCH   3   4
ENDBRANCH   2   3
ENDBRANCH   1   2
BRANCH   1  10
ATOM     10  C   UNL     1       6.589  -5.717  33.118  1.00  0.00     0.000 C 
BRANCH  10  11
ATOM     11  C   UNL     1       5.134  -5.842  32.630  1.00  0.00    -0.000 C 
BRANCH  11  12
ATOM     12  C   UNL     1       4.635  -7.286  32.412  1.00  0.00    -0.000 C 
BRANCH  12  13
ATOM     13  C   UNL     1       5.197  -7.993  31.165  1.00  0.00    -0.000 C 
BRANCH  13  14
ATOM     14  C   UNL     1       4.097  -8.464  30.199  1.00  0.00    -0.000 C 
BRANCH  14  15
ATOM     15  C   UNL     1       4.646  -9.353  29.072  1.00  0.00    -0.003 C 
ATOM     16  C   UNL     1       6.151  -9.594  29.186  1.00  0.00     0.004 C 
ENDBRANCH  14  15
ENDBRANCH  13  14
ENDBRANCH  12  13
ENDBRANCH  11  12
ENDBRANCH  10  11
ENDBRANCH   1  10
TORSDOF 12
ENDMDL
MODEL 3
REMARK VINA RESULT:    -4.328      2.465      4.919
REMARK INTER + INTRA:          -9.084
REMARK INTER:                  -7.174
REMARK INTRA:                  -1.911
REMARK UNBOUND:                -1.720
REMARK SMILES CCCCCCCCCCCCCC(=O)[O-]
REMARK SMILES IDX 8 1 9 2 10 3 11 4 12 5 13 6 14 7 15 8 16 9 7 10 6 11 5 12
REMARK SMILES IDX 4 13 3 14 2 15 1 16
REMARK H PARENT
REMARK Flexibility Score: inf
ROOT
ATOM      1  C   UNL     1       6.452  -9.041  27.263  1.00  0.00     0.000 C 
ENDROOT
BRANCH   1   2
ATOM      2  C   UNL     1       6.414  -9.577  28.705  1.00  0.00     0.000 C 
BRANCH   2   3
ATOM      3  C   UNL     1       5.046  -9.367  29.375  1.00  0.00     0.000 C 
BRANCH   3   4
ATOM      4  C   UNL     1       4.942  -8.020  30.114  1.00  0.00     0.000 C 
BRANCH   4   5
ATOM      5  C   UNL     1       5.955  -7.821  31.258  1.00  0.00     0.006 C 
BRANCH   5   6
ATOM      6  C   UNL     1       5.841  -6.471  31.985  1.00  0.00     0.053 C 
BRANCH   6   7
ATOM      7  C   UNL     1       7.182  -5.858  32.246  1.00  0.00     0.041 C 
ATOM      8  O   UNL     1       7.278  -4.827  32.963  1.00  0.00    -0.550 OA
ATOM      9  O   UNL     1       8.330  -6.446  31.729  1.00  0.00    -0.550 OA
ENDBRANCH   6   7
ENDBRANCH   5   6
ENDBRANCH   4   5
ENDBRANCH   3   4
ENDBRANCH   2   3
ENDBRANCH   1   2
BRANCH   1  10
ATOM     10  C   UNL     1       7.754  -8.282  26.952  1.00  0.00     0.000 C 
BRANCH  10  11
ATOM     11  C   UNL     1       8.297  -7.509  28.167  1.00  0.00    -0.000 C 
BRANCH  11  12
ATOM     12  C   UNL     1       8.249  -5.972  28.044  1.00  0.00    -0.000 C 
BRANCH  12  13
ATOM     13  C   UNL     1       6.999  -5.304  28.644  1.00  0.00    -0.000 C 
BRANCH  13  14
ATOM     14  C   UNL     1       5.967  -4.902  27.578  1.00  0.00    -0.000 C 
BRANCH  14  15
ATOM     15  C   UNL     1       6.560  -4.889  26.160  1.00  0.00    -0.003 C 
ATOM     16  C   UNL     1       5.708  -5.661  25.153  1.00  0.00     0.004 C 
ENDBRANCH  14  15
ENDBRANCH  13  14
ENDBRANCH  12  13
ENDBRANCH  11  12
ENDBRANCH  10  11
ENDBRANCH   1  10
TORSDOF 12
ENDMDL
MODEL 4
REMARK VINA RESULT:    -4.289      1.329      2.615
REMARK INTER + INTRA:          -9.017
REMARK INTER:                  -7.477
REMARK INTRA:                  -1.540
REMARK UNBOUND:                -1.720
REMARK SMILES CCCCCCCCCCCCCC(=O)[O-]
REMARK SMILES IDX 8 1 9 2 10 3 11 4 12 5 13 6 14 7 15 8 16 9 7 10 6 11 5 12
REMARK SMILES IDX 4 13 3 14 2 15 1 16
REMARK H PARENT
REMARK Flexibility Score: inf
ROOT
ATOM      1  C   UNL     1       4.481  -9.375  29.303  1.00  0.00     0.000 C 
ENDROOT
BRANCH   1   2
ATOM      2  C   UNL     1       6.003  -9.601  29.328  1.00  0.00     0.000 C 
BRANCH   2   3
ATOM      3  C   UNL     1       6.662  -9.322  27.966  1.00  0.00     0.000 C 
BRANCH   3   4
ATOM      4  C   UNL     1       7.286  -7.917  27.881  1.00  0.00     0.000 C 
BRANCH   4   5
ATOM      5  C   UNL     1       6.312  -6.790  27.482  1.00  0.00     0.006 C 
BRANCH   5   6
ATOM      6  C   UNL     1       6.339  -5.564  28.409  1.00  0.00     0.053 C 
BRANCH   6   7
ATOM      7  C   UNL     1       7.400  -4.584  28.014  1.00  0.00     0.041 C 
ATOM      8  O   UNL     1       8.612  -4.836  28.245  1.00  0.00    -0.550 OA
ATOM      9  O   UNL     1       7.054  -3.410  27.357  1.00  0.00    -0.550 OA
ENDBRANCH   6   7
ENDBRANCH   5   6
ENDBRANCH   4   5
ENDBRANCH   3   4
ENDBRANCH   2   3
ENDBRANCH   1   2
BRANCH   1  10
ATOM     10  C   UNL     1       4.038  -8.256  30.260  1.00  0.00     0.000 C 
BRANCH  10  11
ATOM     11  C   UNL     1       5.140  -7.851  31.255  1.00  0.00    -0.000 C 
BRANCH  11  12
ATOM     12  C   UNL     1       4.647  -7.132  32.528  1.00  0.00    -0.000 C 
BRANCH  12  13
ATOM     13  C   UNL     1       5.163  -5.693  32.711  1.00  0.00    -0.000 C 
BRANCH  13  14
ATOM     14  C   UNL     1       6.655  -5.637  33.084  1.00  0.00    -0.000 C 
BRANCH  14  15
ATOM     15  C   UNL     1       7.548  -5.288  31.884  1.00  0.00    -0.003 C 
ATOM     16  C   UNL     1       8.399  -6.469  31.415  1.00  0.00     0.004 C 
ENDBRANCH  14  15
ENDBRANCH  13  14
ENDBRANCH  12  13
ENDBRANCH  11  12
ENDBRANCH  10  11
ENDBRANCH   1  10
TORSDOF 12
ENDMDL
MODEL 5
REMARK VINA RESULT:    -4.251     11.295     13.896
REMARK INTER + INTRA:          -8.954
REMARK INTER:                  -7.957
REMARK INTRA:                  -0.997
REMARK UNBOUND:                -1.720
REMARK SMILES CCCCCCCCCCCCCC(=O)[O-]
REMARK SMILES IDX 8 1 9 2 10 3 11 4 12 5 13 6 14 7 15 8 16 9 7 10 6 11 5 12
REMARK SMILES IDX 4 13 3 14 2 15 1 16
REMARK H PARENT
REMARK Flexibility Score: inf
ROOT
ATOM      1  C   UNL     1      13.984  -5.575  17.327  1.00  0.00     0.000 C 
ENDROOT
BRANCH   1   2
ATOM      2  C   UNL     1      14.338  -4.784  18.598  1.00  0.00     0.000 C 
BRANCH   2   3
ATOM      3  C   UNL     1      14.478  -5.689  19.834  1.00  0.00     0.000 C 
BRANCH   3   4
ATOM      4  C   UNL     1      13.826  -5.088  21.093  1.00  0.00     0.000 C 
BRANCH   4   5
ATOM      5  C   UNL     1      13.448  -3.597  20.986  1.00  0.00     0.006 C 
BRANCH   5   6
ATOM      6  C   UNL     1      12.808  -3.008  22.254  1.00  0.00     0.053 C 
BRANCH   6   7
ATOM      7  C   UNL     1      13.128  -1.555  22.422  1.00  0.00     0.041 C 
ATOM      8  O   UNL     1      12.200  -0.708  22.506  1.00  0.00    -0.550 OA
ATOM      9  O   UNL     1      14.451  -1.140  22.522  1.00  0.00    -0.550 OA
ENDBRANCH   6   7
ENDBRANCH   5   6
ENDBRANCH   4   5
ENDBRANCH   3   4
ENDBRANCH   2   3
ENDBRANCH   1   2
BRANCH   1  10
ATOM     10  C   UNL     1      12.594  -6.230  17.411  1.00  0.00     0.000 C 
BRANCH  10  11
ATOM     11  C   UNL     1      12.436  -7.417  16.444  1.00  0.00    -0.000 C 
BRANCH  11  12
ATOM     12  C   UNL     1      13.636  -8.387  16.390  1.00  0.00    -0.000 C 
BRANCH  12  13
ATOM     13  C   UNL     1      14.153  -8.713  14.977  1.00  0.00    -0.000 C 
BRANCH  13  14
ATOM     14  C   UNL     1      15.232  -7.728  14.494  1.00  0.00    -0.000 C 
BRANCH  14  15
ATOM     15  C   UNL     1      14.919  -7.148  13.106  1.00  0.00    -0.003 C 
ATOM     16  C   UNL     1      13.654  -6.289  13.093  1.00  0.00     0.004 C 
ENDBRANCH  14  15
ENDBRANCH  13  14
ENDBRANCH  12  13
ENDBRANCH  11  12
ENDBRANCH  10  11
ENDBRANCH   1  10
TORSDOF 12
ENDMDL
MODEL 6
REMARK VINA RESULT:    -4.248      0.951      3.843
REMARK INTER + INTRA:          -8.949
REMARK INTER:                  -7.386
REMARK INTRA:                  -1.563
REMARK UNBOUND:                -1.720
REMARK SMILES CCCCCCCCCCCCCC(=O)[O-]
REMARK SMILES IDX 8 1 9 2 10 3 11 4 12 5 13 6 14 7 15 8 16 9 7 10 6 11 5 12
REMARK SMILES IDX 4 13 3 14 2 15 1 16
REMARK H PARENT
REMARK Flexibility Score: inf
ROOT
ATOM      1  C   UNL     1       5.630  -5.821  32.096  1.00  0.00     0.000 C 
ENDROOT
BRANCH   1   2
ATOM      2  C   UNL     1       7.107  -5.406  31.980  1.00  0.00     0.000 C 
BRANCH   2   3
ATOM      3  C   UNL     1       8.001  -6.547  31.467  1.00  0.00     0.000 C 
BRANCH   3   4
ATOM      4  C   UNL     1       8.483  -6.326  30.021  1.00  0.00     0.000 C 
BRANCH   4   5
ATOM      5  C   UNL     1       7.543  -5.480  29.139  1.00  0.00     0.006 C 
BRANCH   5   6
ATOM      6  C   UNL     1       8.178  -4.970  27.835  1.00  0.00     0.053 C 
BRANCH   6   7
ATOM      7  C   UNL     1       7.214  -4.166  27.018  1.00  0.00     0.041 C 
ATOM      8  O   UNL     1       7.130  -2.921  27.184  1.00  0.00    -0.550 OA
ATOM      9  O   UNL     1       6.436  -4.787  26.049  1.00  0.00    -0.550 OA
ENDBRANCH   6   7
ENDBRANCH   5   6
ENDBRANCH   4   5
ENDBRANCH   3   4
ENDBRANCH   2   3
ENDBRANCH   1   2
BRANCH   1  10
ATOM     10  C   UNL     1       5.441  -7.346  32.022  1.00  0.00     0.000 C 
BRANCH  10  11
ATOM     11  C   UNL     1       4.823  -7.806  30.690  1.00  0.00    -0.000 C 
BRANCH  11  12
ATOM     12  C   UNL     1       5.602  -8.913  29.950  1.00  0.00    -0.000 C 
BRANCH  12  13
ATOM     13  C   UNL     1       5.400  -8.949  28.424  1.00  0.00    -0.000 C 
BRANCH  13  14
ATOM     14  C   UNL     1       6.596  -9.567  27.678  1.00  0.00    -0.000 C 
BRANCH  14  15
ATOM     15  C   UNL     1       7.406  -8.520  26.899  1.00  0.00    -0.003 C 
ATOM     16  C   UNL     1       8.917  -8.712  27.042  1.00  0.00     0.004 C 
ENDBRANCH  14  15
ENDBRANCH  13  14
ENDBRANCH  12  13
ENDBRANCH  11  12
ENDBRANCH  10  11
ENDBRANCH   1  10
TORSDOF 12
ENDMDL
MODEL 7
REMARK VINA RESULT:    -4.242      1.619      4.838
REMARK INTER + INTRA:          -8.939
REMARK INTER:                  -7.298
REMARK INTRA:                  -1.640
REMARK UNBOUND:                -1.720
REMARK SMILES CCCCCCCCCCCCCC(=O)[O-]
REMARK SMILES IDX 8 1 9 2 10 3 11 4 12 5 13 6 14 7 15 8 16 9 7 10 6 11 5 12
REMARK SMILES IDX 4 13 3 14 2 15 1 16
REMARK H PARENT
REMARK Flexibility Score: inf
ROOT
ATOM      1  C   UNL     1       5.617  -5.601  32.385  1.00  0.00     0.000 C 
ENDROOT
BRANCH   1   2
ATOM      2  C   UNL     1       5.378  -7.120  32.348  1.00  0.00     0.000 C 
BRANCH   2   3
ATOM      3  C   UNL     1       4.842  -7.599  30.989  1.00  0.00     0.000 C 
BRANCH   3   4
ATOM      4  C   UNL     1       5.744  -8.658  30.329  1.00  0.00     0.000 C 
BRANCH   4   5
ATOM      5  C   UNL     1       5.643  -8.740  28.793  1.00  0.00     0.006 C 
BRANCH   5   6
ATOM      6  C   UNL     1       6.807  -9.480  28.114  1.00  0.00     0.053 C 
BRANCH   6   7
ATOM      7  C   UNL     1       7.625  -8.569  27.252  1.00  0.00     0.041 C 
ATOM      8  O   UNL     1       8.792  -8.246  27.602  1.00  0.00    -0.550 OA
ATOM      9  O   UNL     1       7.114  -8.106  26.046  1.00  0.00    -0.550 OA
ENDBRANCH   6   7
ENDBRANCH   5   6
ENDBRANCH   4   5
ENDBRANCH   3   4
ENDBRANCH   2   3
ENDBRANCH   1   2
BRANCH   1  10
ATOM     10  C   UNL     1       7.111  -5.242  32.451  1.00  0.00     0.000 C 
BRANCH  10  11
ATOM     11  C   UNL     1       8.016  -6.357  31.899  1.00  0.00    -0.000 C 
BRANCH  11  12
ATOM     12  C   UNL     1       8.479  -6.168  30.439  1.00  0.00    -0.000 C 
BRANCH  12  13
ATOM     13  C   UNL     1       7.467  -5.465  29.516  1.00  0.00    -0.000 C 
BRANCH  13  14
ATOM     14  C   UNL     1       8.132  -4.804  28.296  1.00  0.00    -0.000 C 
BRANCH  14  15
ATOM     15  C   UNL     1       7.169  -4.664  27.107  1.00  0.00    -0.003 C 
ATOM     16  C   UNL     1       5.753  -5.141  27.430  1.00  0.00     0.004 C 
ENDBRANCH  14  15
ENDBRANCH  13  14
ENDBRANCH  12  13
ENDBRANCH  11  12
ENDBRANCH  10  11
ENDBRANCH   1  10
TORSDOF 12
ENDMDL
MODEL 8
REMARK VINA RESULT:    -4.225      2.558      4.572
REMARK INTER + INTRA:          -8.908
REMARK INTER:                  -6.953
REMARK INTRA:                  -1.955
REMARK UNBOUND:                -1.720
REMARK SMILES CCCCCCCCCCCCCC(=O)[O-]
REMARK SMILES IDX 8 1 9 2 10 3 11 4 12 5 13 6 14 7 15 8 16 9 7 10 6 11 5 12
REMARK SMILES IDX 4 13 3 14 2 15 1 16
REMARK H PARENT
REMARK Flexibility Score: inf
ROOT
ATOM      1  C   UNL     1       6.864  -9.701  27.812  1.00  0.00     0.000 C 
ENDROOT
BRANCH   1   2
ATOM      2  C   UNL     1       6.367  -9.751  29.268  1.00  0.00     0.000 C 
BRANCH   2   3
ATOM      3  C   UNL     1       4.913  -9.270  29.409  1.00  0.00     0.000 C 
BRANCH   3   4
ATOM      4  C   UNL     1       4.776  -8.042  30.328  1.00  0.00     0.000 C 
BRANCH   4   5
ATOM      5  C   UNL     1       5.946  -7.823  31.308  1.00  0.00     0.006 C 
BRANCH   5   6
ATOM      6  C   UNL     1       5.838  -6.546  32.157  1.00  0.00     0.053 C 
BRANCH   6   7
ATOM      7  C   UNL     1       7.159  -5.858  32.308  1.00  0.00     0.041 C 
ATOM      8  O   UNL     1       7.225  -4.727  32.857  1.00  0.00    -0.550 OA
ATOM      9  O   UNL     1       8.323  -6.482  31.876  1.00  0.00    -0.550 OA
ENDBRANCH   6   7
ENDBRANCH   5   6
ENDBRANCH   4   5
ENDBRANCH   3   4
ENDBRANCH   2   3
ENDBRANCH   1   2
BRANCH   1  10
ATOM     10  C   UNL     1       5.811  -9.122  26.852  1.00  0.00     0.000 C 
BRANCH  10  11
ATOM     11  C   UNL     1       6.243  -7.781  26.233  1.00  0.00    -0.000 C 
BRANCH  11  12
ATOM     12  C   UNL     1       5.317  -6.585  26.539  1.00  0.00    -0.000 C 
BRANCH  12  13
ATOM     13  C   UNL     1       6.025  -5.324  27.066  1.00  0.00    -0.000 C 
BRANCH  13  14
ATOM     14  C   UNL     1       6.496  -5.469  28.523  1.00  0.00    -0.000 C 
BRANCH  14  15
ATOM     15  C   UNL     1       8.007  -5.232  28.678  1.00  0.00    -0.003 C 
ATOM     16  C   UNL     1       8.827  -6.514  28.527  1.00  0.00     0.004 C 
ENDBRANCH  14  15
ENDBRANCH  13  14
ENDBRANCH  12  13
ENDBRANCH  11  12
ENDBRANCH  10  11
ENDBRANCH   1  10
TORSDOF 12
ENDMDL
MODEL 9
REMARK VINA RESULT:    -4.117      1.916      3.534
REMARK INTER + INTRA:          -8.725
REMARK INTER:                  -6.886
REMARK INTRA:                  -1.838
REMARK UNBOUND:                -1.720
REMARK SMILES CCCCCCCCCCCCCC(=O)[O-]
REMARK SMILES IDX 8 1 9 2 10 3 11 4 12 5 13 6 14 7 15 8 16 9 7 10 6 11 5 12
REMARK SMILES IDX 4 13 3 14 2 15 1 16
REMARK H PARENT
REMARK Flexibility Score: inf
ROOT
ATOM      1  C   UNL     1       5.499  -9.336  29.358  1.00  0.00     0.000 C 
ENDROOT
BRANCH   1   2
ATOM      2  C   UNL     1       5.580  -8.931  27.876  1.00  0.00     0.000 C 
BRANCH   2   3
ATOM      3  C   UNL     1       4.821  -7.626  27.581  1.00  0.00     0.000 C 
BRANCH   3   4
ATOM      4  C   UNL     1       5.106  -7.073  26.173  1.00  0.00     0.000 C 
BRANCH   4   5
ATOM      5  C   UNL     1       5.657  -5.634  26.132  1.00  0.00     0.006 C 
BRANCH   5   6
ATOM      6  C   UNL     1       6.073  -5.148  24.735  1.00  0.00     0.053 C 
BRANCH   6   7
ATOM      7  C   UNL     1       5.094  -5.562  23.681  1.00  0.00     0.041 C 
ATOM      8  O   UNL     1       5.421  -6.413  22.812  1.00  0.00    -0.550 OA
ATOM      9  O   UNL     1       3.808  -5.036  23.679  1.00  0.00    -0.550 OA
ENDBRANCH   6   7
ENDBRANCH   5   6
ENDBRANCH   4   5
ENDBRANCH   3   4
ENDBRANCH   2   3
ENDBRANCH   1   2
BRANCH   1  10
ATOM     10  C   UNL     1       5.070  -8.169  30.264  1.00  0.00     0.000 C 
BRANCH  10  11
ATOM     11  C   UNL     1       6.037  -7.940  31.439  1.00  0.00    -0.000 C 
BRANCH  11  12
ATOM     12  C   UNL     1       6.914  -6.675  31.334  1.00  0.00    -0.000 C 
BRANCH  12  13
ATOM     13  C   UNL     1       6.486  -5.669  30.250  1.00  0.00    -0.000 C 
BRANCH  13  14
ATOM     14  C   UNL     1       7.631  -5.304  29.289  1.00  0.00    -0.000 C 
BRANCH  14  15
ATOM     15  C   UNL     1       8.710  -6.396  29.220  1.00  0.00    -0.003 C 
ATOM     16  C   UNL     1       8.690  -7.167  27.900  1.00  0.00     0.004 C 
ENDBRANCH  14  15
ENDBRANCH  13  14
ENDBRANCH  12  13
ENDBRANCH  11  12
ENDBRANCH  10  11
ENDBRANCH   1  10
TORSDOF 12
ENDMDL
