MODEL 1
REMARK VINA RESULT:    -5.513      0.000      0.000
REMARK INTER + INTRA:          -6.767
REMARK INTER:                  -6.641
REMARK INTRA:                  -0.126
REMARK UNBOUND:                -0.126
REMARK SMILES O=c1ccn([C@H]2O[C@H](CO)[C@@H](O)[C@H]2O)c(=O)[nH]1
REMARK SMILES IDX 6 1 13 2 11 3 8 4 7 5 5 6 3 7 4 8 2 9 17 10 1 11 15 12 16 14
REMARK SMILES IDX 14 15 12 17 9 19 10 20
REMARK H PARENT 17 13 14 16 12 18 10 21
REMARK Flexibility Score: inf
ROOT
ATOM      1  C   UNL     1       6.372 -14.371   9.331  1.00  0.00     0.255 C 
ATOM      2  C   UNL     1       7.828 -13.911   9.204  1.00  0.00     0.196 C 
ATOM      3  C   UNL     1       8.520 -15.204   8.841  1.00  0.00     0.179 C 
ATOM      4  C   UNL     1       7.431 -15.971   8.079  1.00  0.00     0.178 C 
ATOM      5  O   UNL     1       6.166 -15.490   8.490  1.00  0.00    -0.347 OA
ENDROOT
BRANCH   1   6
ATOM      6  N   UNL     1       5.416 -13.280   9.034  1.00  0.00    -0.271 N 
ATOM      7  C   UNL     1       4.108 -12.025   7.462  1.00  0.00     0.090 A 
ATOM      8  C   UNL     1       4.990 -13.062   7.750  1.00  0.00     0.099 A 
ATOM      9  C   UNL     1       3.675 -11.208   8.501  1.00  0.00     0.253 A 
ATOM     10  N   UNL     1       4.120 -11.431   9.765  1.00  0.00    -0.274 N 
ATOM     11  O   UNL     1       2.876 -10.262   8.269  1.00  0.00    -0.269 OA
ATOM     12  C   UNL     1       4.985 -12.447  10.038  1.00  0.00     0.330 A 
ATOM     13  H   UNL     1       3.797 -10.808  10.540  1.00  0.00     0.175 HD
ATOM     14  O   UNL     1       5.386 -12.611  11.224  1.00  0.00    -0.248 OA
ENDBRANCH   1   6
BRANCH   2  15
ATOM     15  O   UNL     1       7.997 -12.911   8.223  1.00  0.00    -0.386 OA
ATOM     16  H   UNL     1       8.613 -13.256   7.526  1.00  0.00     0.211 HD
ENDBRANCH   2  15
BRANCH   3  17
ATOM     17  O   UNL     1       9.707 -15.019   8.103  1.00  0.00    -0.387 OA
ATOM     18  H   UNL     1       9.539 -15.266   7.158  1.00  0.00     0.211 HD
ENDBRANCH   3  17
BRANCH   4  19
ATOM     19  C   UNL     1       7.524 -17.482   8.323  1.00  0.00     0.191 C 
BRANCH  19  20
ATOM     20  O   UNL     1       7.235 -17.780   9.662  1.00  0.00    -0.394 OA
ATOM     21  H   UNL     1       7.296 -18.766   9.756  1.00  0.00     0.210 HD
ENDBRANCH  19  20
ENDBRANCH   4  19
TORSDOF 5
ENDMDL
MODEL 2
REMARK VINA RESULT:    -5.502      7.287      9.517
REMARK INTER + INTRA:          -6.754
REMARK INTER:                  -6.512
REMARK INTRA:                  -0.241
REMARK UNBOUND:                -0.126
REMARK SMILES O=c1ccn([C@H]2O[C@H](CO)[C@@H](O)[C@H]2O)c(=O)[nH]1
REMARK SMILES IDX 6 1 13 2 11 3 8 4 7 5 5 6 3 7 4 8 2 9 17 10 1 11 15 12 16 14
REMARK SMILES IDX 14 15 12 17 9 19 10 20
REMARK H PARENT 17 13 14 16 12 18 10 21
REMARK Flexibility Score: inf
ROOT
ATOM      1  C   UNL     1       6.540 -11.341  16.154  1.00  0.00     0.255 C 
ATOM      2  C   UNL     1       6.515  -9.812  16.057  1.00  0.00     0.196 C 
ATOM      3  C   UNL     1       6.076  -9.609  14.626  1.00  0.00     0.179 C 
ATOM      4  C   UNL     1       5.206 -10.844  14.358  1.00  0.00     0.178 C 
ATOM      5  O   UNL     1       5.601 -11.877  15.241  1.00  0.00    -0.347 OA
ENDROOT
BRANCH   1   6
ATOM      6  N   UNL     1       6.293 -11.816  17.534  1.00  0.00    -0.271 N 
ATOM      7  C   UNL     1       4.777 -12.481  19.271  1.00  0.00     0.090 A 
ATOM      8  C   UNL     1       5.016 -12.055  17.968  1.00  0.00     0.099 A 
ATOM      9  C   UNL     1       5.859 -12.650  20.127  1.00  0.00     0.253 A 
ATOM     10  N   UNL     1       7.117 -12.394  19.684  1.00  0.00    -0.274 N 
ATOM     11  O   UNL     1       5.672 -13.036  21.312  1.00  0.00    -0.269 OA
ATOM     12  C   UNL     1       7.342 -11.976  18.407  1.00  0.00     0.330 A 
ATOM     13  H   UNL     1       7.926 -12.516  20.335  1.00  0.00     0.175 HD
ATOM     14  O   UNL     1       8.526 -11.735  18.039  1.00  0.00    -0.248 OA
ENDBRANCH   1   6
BRANCH   2  15
ATOM     15  O   UNL     1       5.630  -9.226  16.985  1.00  0.00    -0.386 OA
ATOM     16  H   UNL     1       5.036  -8.597  16.498  1.00  0.00     0.211 HD
ENDBRANCH   2  15
BRANCH   3  17
ATOM     17  O   UNL     1       5.409  -8.386  14.411  1.00  0.00    -0.387 OA
ATOM     18  H   UNL     1       4.632  -8.545  13.815  1.00  0.00     0.211 HD
ENDBRANCH   3  17
BRANCH   4  19
ATOM     19  C   UNL     1       5.327 -11.320  12.905  1.00  0.00     0.191 C 
BRANCH  19  20
ATOM     20  O   UNL     1       4.737 -10.391  12.036  1.00  0.00    -0.394 OA
ATOM     21  H   UNL     1       4.736  -9.517  12.507  1.00  0.00     0.210 HD
ENDBRANCH  19  20
ENDBRANCH   4  19
TORSDOF 5
ENDMDL
MODEL 3
REMARK VINA RESULT:    -5.487      7.024      8.918
REMARK INTER + INTRA:          -6.735
REMARK INTER:                  -6.998
REMARK INTRA:                   0.263
REMARK UNBOUND:                -0.126
REMARK SMILES O=c1ccn([C@H]2O[C@H](CO)[C@@H](O)[C@H]2O)c(=O)[nH]1
REMARK SMILES IDX 6 1 13 2 11 3 8 4 7 5 5 6 3 7 4 8 2 9 17 10 1 11 15 12 16 14
REMARK SMILES IDX 14 15 12 17 9 19 10 20
REMARK H PARENT 17 13 14 16 12 18 10 21
REMARK Flexibility Score: inf
ROOT
ATOM      1  C   UNL     1       7.141 -12.216  16.908  1.00  0.00     0.255 C 
ATOM      2  C   UNL     1       6.519 -13.423  17.617  1.00  0.00     0.196 C 
ATOM      3  C   UNL     1       6.775 -13.083  19.067  1.00  0.00     0.179 C 
ATOM      4  C   UNL     1       6.756 -11.549  19.066  1.00  0.00     0.178 C 
ATOM      5  O   UNL     1       7.079 -11.093  17.766  1.00  0.00    -0.347 OA
ENDROOT
BRANCH   1   6
ATOM      6  N   UNL     1       6.497 -11.943  15.603  1.00  0.00    -0.271 N 
ATOM      7  C   UNL     1       6.430 -12.192  13.217  1.00  0.00     0.090 A 
ATOM      8  C   UNL     1       7.019 -12.463  14.449  1.00  0.00     0.099 A 
ATOM      9  C   UNL     1       5.305 -11.374  13.181  1.00  0.00     0.253 A 
ATOM     10  N   UNL     1       4.810 -10.855  14.334  1.00  0.00    -0.274 N 
ATOM     11  O   UNL     1       4.752 -11.113  12.080  1.00  0.00    -0.269 OA
ATOM     12  C   UNL     1       5.395 -11.125  15.535  1.00  0.00     0.330 A 
ATOM     13  H   UNL     1       3.969 -10.235  14.299  1.00  0.00     0.175 HD
ATOM     14  O   UNL     1       4.912 -10.610  16.582  1.00  0.00    -0.248 OA
ENDBRANCH   1   6
BRANCH   2  15
ATOM     15  O   UNL     1       5.146 -13.572  17.328  1.00  0.00    -0.386 OA
ATOM     16  H   UNL     1       5.058 -14.043  16.459  1.00  0.00     0.211 HD
ENDBRANCH   2  15
BRANCH   3  17
ATOM     17  O   UNL     1       5.844 -13.663  19.953  1.00  0.00    -0.387 OA
ATOM     18  H   UNL     1       5.209 -14.218  19.432  1.00  0.00     0.211 HD
ENDBRANCH   3  17
BRANCH   4  19
ATOM     19  C   UNL     1       7.742 -10.969  20.088  1.00  0.00     0.191 C 
BRANCH  19  20
ATOM     20  O   UNL     1       8.110 -11.947  21.022  1.00  0.00    -0.394 OA
ATOM     21  H   UNL     1       7.365 -12.016  21.674  1.00  0.00     0.210 HD
ENDBRANCH  19  20
ENDBRANCH   4  19
TORSDOF 5
ENDMDL
MODEL 4
REMARK VINA RESULT:    -5.485      6.902      9.390
REMARK INTER + INTRA:          -6.733
REMARK INTER:                  -6.669
REMARK INTRA:                  -0.064
REMARK UNBOUND:                -0.126
REMARK SMILES O=c1ccn([C@H]2O[C@H](CO)[C@@H](O)[C@H]2O)c(=O)[nH]1
REMARK SMILES IDX 6 1 13 2 11 3 8 4 7 5 5 6 3 7 4 8 2 9 17 10 1 11 15 12 16 14
REMARK SMILES IDX 14 15 12 17 9 19 10 20
REMARK H PARENT 17 13 14 16 12 18 10 21
REMARK Flexibility Score: inf
ROOT
ATOM      1  C   UNL     1       6.550 -10.802  16.889  1.00  0.00     0.255 C 
ATOM      2  C   UNL     1       5.618 -11.632  17.778  1.00  0.00     0.196 C 
ATOM      3  C   UNL     1       5.646 -10.839  19.064  1.00  0.00     0.179 C 
ATOM      4  C   UNL     1       5.877  -9.404  18.574  1.00  0.00     0.178 C 
ATOM      5  O   UNL     1       6.509  -9.452  17.309  1.00  0.00    -0.347 OA
ENDROOT
BRANCH   1   6
ATOM      6  N   UNL     1       6.217 -10.938  15.453  1.00  0.00    -0.271 N 
ATOM      7  C   UNL     1       5.204 -10.073  13.456  1.00  0.00     0.090 A 
ATOM      8  C   UNL     1       5.539  -9.942  14.801  1.00  0.00     0.099 A 
ATOM      9  C   UNL     1       5.563 -11.240  12.790  1.00  0.00     0.253 A 
ATOM     10  N   UNL     1       6.222 -12.223  13.457  1.00  0.00    -0.274 N 
ATOM     11  O   UNL     1       5.273 -11.386  11.573  1.00  0.00    -0.269 OA
ATOM     12  C   UNL     1       6.545 -12.086  14.773  1.00  0.00     0.330 A 
ATOM     13  H   UNL     1       6.482 -13.101  12.952  1.00  0.00     0.175 HD
ATOM     14  O   UNL     1       7.144 -13.030  15.360  1.00  0.00    -0.248 OA
ENDBRANCH   1   6
BRANCH   2  15
ATOM     15  O   UNL     1       4.319 -11.748  17.240  1.00  0.00    -0.386 OA
ATOM     16  H   UNL     1       3.666 -11.702  17.986  1.00  0.00     0.211 HD
ENDBRANCH   2  15
BRANCH   3  17
ATOM     17  O   UNL     1       4.483 -10.994  19.845  1.00  0.00    -0.387 OA
ATOM     18  H   UNL     1       3.699 -10.706  19.313  1.00  0.00     0.211 HD
ENDBRANCH   3  17
BRANCH   4  19
ATOM     19  C   UNL     1       6.732  -8.598  19.560  1.00  0.00     0.191 C 
BRANCH  19  20
ATOM     20  O   UNL     1       6.419  -7.233  19.476  1.00  0.00    -0.394 OA
ATOM     21  H   UNL     1       7.282  -6.744  19.436  1.00  0.00     0.210 HD
ENDBRANCH  19  20
ENDBRANCH   4  19
TORSDOF 5
ENDMDL
MODEL 5
REMARK VINA RESULT:    -5.443      7.885      9.704
REMARK INTER + INTRA:          -6.682
REMARK INTER:                  -6.401
REMARK INTRA:                  -0.281
REMARK UNBOUND:                -0.126
REMARK SMILES O=c1ccn([C@H]2O[C@H](CO)[C@@H](O)[C@H]2O)c(=O)[nH]1
REMARK SMILES IDX 6 1 13 2 11 3 8 4 7 5 5 6 3 7 4 8 2 9 17 10 1 11 15 12 16 14
REMARK SMILES IDX 14 15 12 17 9 19 10 20
REMARK H PARENT 17 13 14 16 12 18 10 21
REMARK Flexibility Score: inf
ROOT
ATOM      1  C   UNL     1       5.507 -11.601  18.212  1.00  0.00     0.255 C 
ATOM      2  C   UNL     1       6.727 -11.187  19.041  1.00  0.00     0.196 C 
ATOM      3  C   UNL     1       6.553 -12.038  20.277  1.00  0.00     0.179 C 
ATOM      4  C   UNL     1       5.832 -13.280  19.737  1.00  0.00     0.178 C 
ATOM      5  O   UNL     1       5.146 -12.927  18.551  1.00  0.00    -0.347 OA
ENDROOT
BRANCH   1   6
ATOM      6  N   UNL     1       5.746 -11.455  16.758  1.00  0.00    -0.271 N 
ATOM      7  C   UNL     1       6.569 -12.331  14.681  1.00  0.00     0.090 A 
ATOM      8  C   UNL     1       6.323 -12.472  16.043  1.00  0.00     0.099 A 
ATOM      9  C   UNL     1       6.227 -11.134  14.061  1.00  0.00     0.253 A 
ATOM     10  N   UNL     1       5.669 -10.132  14.788  1.00  0.00    -0.274 N 
ATOM     11  O   UNL     1       6.438 -10.980  12.828  1.00  0.00    -0.269 OA
ATOM     12  C   UNL     1       5.433 -10.278  16.122  1.00  0.00     0.330 A 
ATOM     13  H   UNL     1       5.422  -9.232  14.317  1.00  0.00     0.175 HD
ATOM     14  O   UNL     1       4.928  -9.316  16.765  1.00  0.00    -0.248 OA
ENDBRANCH   1   6
BRANCH   2  15
ATOM     15  O   UNL     1       7.945 -11.441  18.375  1.00  0.00    -0.386 OA
ATOM     16  H   UNL     1       8.652 -10.882  18.791  1.00  0.00     0.211 HD
ENDBRANCH   2  15
BRANCH   3  17
ATOM     17  O   UNL     1       7.765 -12.325  20.938  1.00  0.00    -0.387 OA
ATOM     18  H   UNL     1       7.834 -13.305  21.069  1.00  0.00     0.211 HD
ENDBRANCH   3  17
BRANCH   4  19
ATOM     19  C   UNL     1       4.848 -13.857  20.762  1.00  0.00     0.191 C 
BRANCH  19  20
ATOM     20  O   UNL     1       5.215 -13.475  22.061  1.00  0.00    -0.394 OA
ATOM     21  H   UNL     1       6.016 -14.009  22.301  1.00  0.00     0.210 HD
ENDBRANCH  19  20
ENDBRANCH   4  19
TORSDOF 5
ENDMDL
MODEL 6
REMARK VINA RESULT:    -5.431      7.307      9.259
REMARK INTER + INTRA:          -6.667
REMARK INTER:                  -6.547
REMARK INTRA:                  -0.121
REMARK UNBOUND:                -0.126
REMARK SMILES O=c1ccn([C@H]2O[C@H](CO)[C@@H](O)[C@H]2O)c(=O)[nH]1
REMARK SMILES IDX 6 1 13 2 11 3 8 4 7 5 5 6 3 7 4 8 2 9 17 10 1 11 15 12 16 14
REMARK SMILES IDX 14 15 12 17 9 19 10 20
REMARK H PARENT 17 13 14 16 12 18 10 21
REMARK Flexibility Score: inf
ROOT
ATOM      1  C   UNL     1       7.235 -11.732  17.250  1.00  0.00     0.255 C 
ATOM      2  C   UNL     1       6.585 -12.998  17.818  1.00  0.00     0.196 C 
ATOM      3  C   UNL     1       6.775 -12.793  19.303  1.00  0.00     0.179 C 
ATOM      4  C   UNL     1       6.753 -11.265  19.441  1.00  0.00     0.178 C 
ATOM      5  O   UNL     1       7.132 -10.692  18.204  1.00  0.00    -0.347 OA
ENDROOT
BRANCH   1   6
ATOM      6  N   UNL     1       6.649 -11.341  15.949  1.00  0.00    -0.271 N 
ATOM      7  C   UNL     1       5.429  -9.777  14.597  1.00  0.00     0.090 A 
ATOM      8  C   UNL     1       6.001 -10.141  15.812  1.00  0.00     0.099 A 
ATOM      9  C   UNL     1       5.520 -10.660  13.526  1.00  0.00     0.253 A 
ATOM     10  N   UNL     1       6.154 -11.851  13.684  1.00  0.00    -0.274 N 
ATOM     11  O   UNL     1       5.012 -10.356  12.413  1.00  0.00    -0.269 OA
ATOM     12  C   UNL     1       6.709 -12.199  14.878  1.00  0.00     0.330 A 
ATOM     13  H   UNL     1       6.211 -12.513  12.876  1.00  0.00     0.175 HD
ATOM     14  O   UNL     1       7.276 -13.322  14.987  1.00  0.00    -0.248 OA
ENDBRANCH   1   6
BRANCH   2  15
ATOM     15  O   UNL     1       5.227 -13.118  17.456  1.00  0.00    -0.386 OA
ATOM     16  H   UNL     1       4.777 -12.253  17.638  1.00  0.00     0.211 HD
ENDBRANCH   2  15
BRANCH   3  17
ATOM     17  O   UNL     1       5.807 -13.450  20.090  1.00  0.00    -0.387 OA
ATOM     18  H   UNL     1       6.266 -13.948  20.813  1.00  0.00     0.211 HD
ENDBRANCH   3  17
BRANCH   4  19
ATOM     19  C   UNL     1       7.691 -10.782  20.554  1.00  0.00     0.191 C 
BRANCH  19  20
ATOM     20  O   UNL     1       8.071 -11.855  21.373  1.00  0.00    -0.394 OA
ATOM     21  H   UNL     1       7.304 -12.043  21.974  1.00  0.00     0.210 HD
ENDBRANCH  19  20
ENDBRANCH   4  19
TORSDOF 5
ENDMDL
MODEL 7
REMARK VINA RESULT:    -5.391      4.088      6.710
REMARK INTER + INTRA:          -6.619
REMARK INTER:                  -6.627
REMARK INTRA:                   0.007
REMARK UNBOUND:                -0.126
REMARK SMILES O=c1ccn([C@H]2O[C@H](CO)[C@@H](O)[C@H]2O)c(=O)[nH]1
REMARK SMILES IDX 6 1 13 2 11 3 8 4 7 5 5 6 3 7 4 8 2 9 17 10 1 11 15 12 16 14
REMARK SMILES IDX 14 15 12 17 9 19 10 20
REMARK H PARENT 17 13 14 16 12 18 10 21
REMARK Flexibility Score: inf
ROOT
ATOM      1  C   UNL     1       5.585 -11.930  13.658  1.00  0.00     0.255 C 
ATOM      2  C   UNL     1       5.196 -10.451  13.762  1.00  0.00     0.196 C 
ATOM      3  C   UNL     1       5.232 -10.236  15.257  1.00  0.00     0.179 C 
ATOM      4  C   UNL     1       6.304 -11.231  15.719  1.00  0.00     0.178 C 
ATOM      5  O   UNL     1       6.398 -12.272  14.765  1.00  0.00    -0.347 OA
ENDROOT
BRANCH   1   6
ATOM      6  N   UNL     1       6.252 -12.241  12.374  1.00  0.00    -0.271 N 
ATOM      7  C   UNL     1       8.194 -12.935  11.146  1.00  0.00     0.090 A 
ATOM      8  C   UNL     1       7.556 -12.661  12.352  1.00  0.00     0.099 A 
ATOM      9  C   UNL     1       7.485 -12.764   9.962  1.00  0.00     0.253 A 
ATOM     10  N   UNL     1       6.197 -12.332  10.002  1.00  0.00    -0.274 N 
ATOM     11  O   UNL     1       8.038 -13.005   8.856  1.00  0.00    -0.269 OA
ATOM     12  C   UNL     1       5.581 -12.066  11.187  1.00  0.00     0.330 A 
ATOM     13  H   UNL     1       5.673 -12.198   9.108  1.00  0.00     0.175 HD
ATOM     14  O   UNL     1       4.388 -11.652  11.180  1.00  0.00    -0.248 OA
ENDBRANCH   1   6
BRANCH   2  15
ATOM     15  O   UNL     1       6.089  -9.606  13.070  1.00  0.00    -0.386 OA
ATOM     16  H   UNL     1       7.005  -9.771  13.413  1.00  0.00     0.211 HD
ENDBRANCH   2  15
BRANCH   3  17
ATOM     17  O   UNL     1       5.497  -8.901  15.627  1.00  0.00    -0.387 OA
ATOM     18  H   UNL     1       5.297  -8.790  16.591  1.00  0.00     0.211 HD
ENDBRANCH   3  17
BRANCH   4  19
ATOM     19  C   UNL     1       5.983 -11.812  17.101  1.00  0.00     0.191 C 
BRANCH  19  20
ATOM     20  O   UNL     1       4.613 -12.097  17.206  1.00  0.00    -0.394 OA
ATOM     21  H   UNL     1       4.135 -11.229  17.151  1.00  0.00     0.210 HD
ENDBRANCH  19  20
ENDBRANCH   4  19
TORSDOF 5
ENDMDL
MODEL 8
REMARK VINA RESULT:    -5.360      2.274      2.584
REMARK INTER + INTRA:          -6.582
REMARK INTER:                  -6.449
REMARK INTRA:                  -0.133
REMARK UNBOUND:                -0.126
REMARK SMILES O=c1ccn([C@H]2O[C@H](CO)[C@@H](O)[C@H]2O)c(=O)[nH]1
REMARK SMILES IDX 6 1 13 2 11 3 8 4 7 5 5 6 3 7 4 8 2 9 17 10 1 11 15 12 16 14
REMARK SMILES IDX 14 15 12 17 9 19 10 20
REMARK H PARENT 17 13 14 16 12 18 10 21
REMARK Flexibility Score: inf
ROOT
ATOM      1  C   UNL     1       7.730 -14.776   9.874  1.00  0.00     0.255 C 
ATOM      2  C   UNL     1       8.637 -14.192   8.787  1.00  0.00     0.196 C 
ATOM      3  C   UNL     1       8.675 -15.325   7.787  1.00  0.00     0.179 C 
ATOM      4  C   UNL     1       7.308 -15.994   7.981  1.00  0.00     0.178 C 
ATOM      5  O   UNL     1       6.842 -15.707   9.285  1.00  0.00    -0.347 OA
ENDROOT
BRANCH   1   6
ATOM      6  N   UNL     1       7.003 -13.723  10.618  1.00  0.00    -0.271 N 
ATOM      7  C   UNL     1       5.046 -12.372  10.943  1.00  0.00     0.090 A 
ATOM      8  C   UNL     1       5.727 -13.376  10.261  1.00  0.00     0.099 A 
ATOM      9  C   UNL     1       5.692 -11.720  11.989  1.00  0.00     0.253 A 
ATOM     10  N   UNL     1       6.963 -12.067  12.319  1.00  0.00    -0.274 N 
ATOM     11  O   UNL     1       5.099 -10.807  12.624  1.00  0.00    -0.269 OA
ATOM     12  C   UNL     1       7.621 -13.050  11.645  1.00  0.00     0.330 A 
ATOM     13  H   UNL     1       7.445 -11.567  13.100  1.00  0.00     0.175 HD
ATOM     14  O   UNL     1       8.808 -13.332  11.973  1.00  0.00    -0.248 OA
ENDBRANCH   1   6
BRANCH   2  15
ATOM     15  O   UNL     1       8.123 -12.999   8.236  1.00  0.00    -0.386 OA
ATOM     16  H   UNL     1       7.985 -13.137   7.263  1.00  0.00     0.211 HD
ENDBRANCH   2  15
BRANCH   3  17
ATOM     17  O   UNL     1       8.919 -14.900   6.465  1.00  0.00    -0.387 OA
ATOM     18  H   UNL     1       8.484 -15.534   5.840  1.00  0.00     0.211 HD
ENDBRANCH   3  17
BRANCH   4  19
ATOM     19  C   UNL     1       7.385 -17.512   7.772  1.00  0.00     0.191 C 
BRANCH  19  20
ATOM     20  O   UNL     1       7.216 -18.183   8.992  1.00  0.00    -0.394 OA
ATOM     21  H   UNL     1       7.737 -17.679   9.670  1.00  0.00     0.210 HD
ENDBRANCH  19  20
ENDBRANCH   4  19
TORSDOF 5
ENDMDL
MODEL 9
REMARK VINA RESULT:    -5.208      8.539     10.670
REMARK INTER + INTRA:          -6.399
REMARK INTER:                  -6.300
REMARK INTRA:                  -0.098
REMARK UNBOUND:                -0.126
REMARK SMILES O=c1ccn([C@H]2O[C@H](CO)[C@@H](O)[C@H]2O)c(=O)[nH]1
REMARK SMILES IDX 6 1 13 2 11 3 8 4 7 5 5 6 3 7 4 8 2 9 17 10 1 11 15 12 16 14
REMARK SMILES IDX 14 15 12 17 9 19 10 20
REMARK H PARENT 17 13 14 16 12 18 10 21
REMARK Flexibility Score: inf
ROOT
ATOM      1  C   UNL     1       5.874 -10.693  18.823  1.00  0.00     0.255 C 
ATOM      2  C   UNL     1       5.202  -9.483  19.480  1.00  0.00     0.196 C 
ATOM      3  C   UNL     1       6.093  -9.261  20.680  1.00  0.00     0.179 C 
ATOM      4  C   UNL     1       7.458  -9.757  20.188  1.00  0.00     0.178 C 
ATOM      5  O   UNL     1       7.253 -10.685  19.140  1.00  0.00    -0.347 OA
ENDROOT
BRANCH   1   6
ATOM      6  N   UNL     1       5.650 -10.729  17.360  1.00  0.00    -0.271 N 
ATOM      7  C   UNL     1       6.402 -10.292  15.124  1.00  0.00     0.090 A 
ATOM      8  C   UNL     1       6.616 -10.281  16.498  1.00  0.00     0.099 A 
ATOM      9  C   UNL     1       5.183 -10.758  14.641  1.00  0.00     0.253 A 
ATOM     10  N   UNL     1       4.231 -11.184  15.512  1.00  0.00    -0.274 N 
ATOM     11  O   UNL     1       4.963 -10.780  13.401  1.00  0.00    -0.269 OA
ATOM     12  C   UNL     1       4.449 -11.168  16.856  1.00  0.00     0.330 A 
ATOM     13  H   UNL     1       3.314 -11.526  15.143  1.00  0.00     0.175 HD
ATOM     14  O   UNL     1       3.532 -11.559  17.632  1.00  0.00    -0.248 OA
ENDBRANCH   1   6
BRANCH   2  15
ATOM     15  O   UNL     1       5.152  -8.362  18.626  1.00  0.00    -0.386 OA
ATOM     16  H   UNL     1       4.906  -7.567  19.166  1.00  0.00     0.211 HD
ENDBRANCH   2  15
BRANCH   3  17
ATOM     17  O   UNL     1       6.101  -7.926  21.134  1.00  0.00    -0.387 OA
ATOM     18  H   UNL     1       6.983  -7.524  20.928  1.00  0.00     0.211 HD
ENDBRANCH   3  17
BRANCH   4  19
ATOM     19  C   UNL     1       8.267 -10.408  21.316  1.00  0.00     0.191 C 
BRANCH  19  20
ATOM     20  O   UNL     1       9.498 -10.873  20.831  1.00  0.00    -0.394 OA
ATOM     21  H   UNL     1       9.325 -11.257  19.932  1.00  0.00     0.210 HD
ENDBRANCH  19  20
ENDBRANCH   4  19
TORSDOF 5
ENDMDL
