MODEL 1
REMARK VINA RESULT:    -3.494      0.000      0.000
REMARK INTER + INTRA:          -6.587
REMARK INTER:                  -5.333
REMARK INTRA:                  -1.255
REMARK UNBOUND:                -1.255
REMARK SMILES CCCCCCCCCCC(=O)[O-]
REMARK SMILES IDX 7 1 8 2 9 3 10 4 11 5 12 6 13 7 6 8 5 9 4 10 3 11 2 12 1 13
REMARK H PARENT
REMARK Flexibility Score: inf
ROOT
ATOM      1  C   UNL     1       0.843  22.873  24.019  1.00  0.00     0.000 C 
ENDROOT
BRANCH   1   2
ATOM      2  C   UNL     1       1.731  22.613  25.244  1.00  0.00     0.000 C 
BRANCH   2   3
ATOM      3  C   UNL     1       1.764  23.837  26.167  1.00  0.00     0.006 C 
BRANCH   3   4
ATOM      4  C   UNL     1       1.065  25.034  25.515  1.00  0.00     0.053 C 
BRANCH   4   5
ATOM      5  C   UNL     1      -0.105  25.470  26.338  1.00  0.00     0.041 C 
ATOM      6  O   UNL     1      -0.215  26.672  26.698  1.00  0.00    -0.550 OA
ATOM      7  O   UNL     1      -1.102  24.559  26.665  1.00  0.00    -0.550 OA
ENDBRANCH   4   5
ENDBRANCH   3   4
ENDBRANCH   2   3
ENDBRANCH   1   2
BRANCH   1   8
ATOM      8  C   UNL     1       1.338  22.143  22.756  1.00  0.00     0.000 C 
BRANCH   8   9
ATOM      9  C   UNL     1       2.306  22.952  21.869  1.00  0.00    -0.000 C 
BRANCH   9  10
ATOM     10  C   UNL     1       2.180  24.482  21.983  1.00  0.00    -0.000 C 
BRANCH  10  11
ATOM     11  C   UNL     1       3.310  25.114  22.813  1.00  0.00    -0.000 C 
BRANCH  11  12
ATOM     12  C   UNL     1       4.454  24.127  23.095  1.00  0.00    -0.003 C 
ATOM     13  C   UNL     1       5.000  24.243  24.519  1.00  0.00     0.004 C 
ENDBRANCH  11  12
ENDBRANCH  10  11
ENDBRANCH   9  10
ENDBRANCH   8   9
ENDBRANCH   1   8
TORSDOF 9
ENDMDL
MODEL 2
REMARK VINA RESULT:    -3.427      1.048      2.815
REMARK INTER + INTRA:          -6.484
REMARK INTER:                  -5.417
REMARK INTRA:                  -1.067
REMARK UNBOUND:                -1.255
REMARK SMILES CCCCCCCCCCC(=O)[O-]
REMARK SMILES IDX 7 1 8 2 9 3 10 4 11 5 12 6 13 7 6 8 5 9 4 10 3 11 2 12 1 13
REMARK H PARENT
REMARK Flexibility Score: inf
ROOT
ATOM      1  C   UNL     1       3.411  22.803  26.833  1.00  0.00     0.000 C 
ENDROOT
BRANCH   1   2
ATOM      2  C   UNL     1       2.303  22.116  26.021  1.00  0.00     0.000 C 
BRANCH   2   3
ATOM      3  C   UNL     1       0.950  22.799  26.253  1.00  0.00     0.006 C 
BRANCH   3   4
ATOM      4  C   UNL     1       1.138  24.252  26.700  1.00  0.00     0.053 C 
BRANCH   4   5
ATOM      5  C   UNL     1      -0.106  25.043  26.449  1.00  0.00     0.041 C 
ATOM      6  O   UNL     1      -1.232  24.481  26.480  1.00  0.00    -0.550 OA
ATOM      7  O   UNL     1      -0.026  26.413  26.231  1.00  0.00    -0.550 OA
ENDBRANCH   4   5
ENDBRANCH   3   4
ENDBRANCH   2   3
ENDBRANCH   1   2
BRANCH   1   8
ATOM      8  C   UNL     1       4.649  23.148  25.983  1.00  0.00     0.000 C 
BRANCH   8   9
ATOM      9  C   UNL     1       4.499  24.391  25.083  1.00  0.00    -0.000 C 
BRANCH   9  10
ATOM     10  C   UNL     1       4.226  24.099  23.597  1.00  0.00    -0.000 C 
BRANCH  10  11
ATOM     11  C   UNL     1       2.826  24.549  23.148  1.00  0.00    -0.000 C 
BRANCH  11  12
ATOM     12  C   UNL     1       2.274  23.693  21.997  1.00  0.00    -0.003 C 
ATOM     13  C   UNL     1       1.547  22.439  22.486  1.00  0.00     0.004 C 
ENDBRANCH  11  12
ENDBRANCH  10  11
ENDBRANCH   9  10
ENDBRANCH   8   9
ENDBRANCH   1   8
TORSDOF 9
ENDMDL
MODEL 3
REMARK VINA RESULT:    -3.371      1.013      2.002
REMARK INTER + INTRA:          -6.400
REMARK INTER:                  -5.488
REMARK INTRA:                  -0.912
REMARK UNBOUND:                -1.255
REMARK SMILES CCCCCCCCCCC(=O)[O-]
REMARK SMILES IDX 7 1 8 2 9 3 10 4 11 5 12 6 13 7 6 8 5 9 4 10 3 11 2 12 1 13
REMARK H PARENT
REMARK Flexibility Score: inf
ROOT
ATOM      1  C   UNL     1       1.707  22.926  22.671  1.00  0.00     0.000 C 
ENDROOT
BRANCH   1   2
ATOM      2  C   UNL     1       1.879  22.619  24.166  1.00  0.00     0.000 C 
BRANCH   2   3
ATOM      3  C   UNL     1       0.733  23.226  24.985  1.00  0.00     0.006 C 
BRANCH   3   4
ATOM      4  C   UNL     1       0.981  24.713  25.256  1.00  0.00     0.053 C 
BRANCH   4   5
ATOM      5  C   UNL     1      -0.043  25.251  26.205  1.00  0.00     0.041 C 
ATOM      6  O   UNL     1      -0.085  26.483  26.461  1.00  0.00    -0.550 OA
ATOM      7  O   UNL     1      -0.985  24.398  26.767  1.00  0.00    -0.550 OA
ENDBRANCH   4   5
ENDBRANCH   3   4
ENDBRANCH   2   3
ENDBRANCH   1   2
BRANCH   1   8
ATOM      8  C   UNL     1       2.853  23.782  22.101  1.00  0.00     0.000 C 
BRANCH   8   9
ATOM      9  C   UNL     1       3.695  24.533  23.152  1.00  0.00    -0.000 C 
BRANCH   9  10
ATOM     10  C   UNL     1       5.148  24.047  23.300  1.00  0.00    -0.000 C 
BRANCH  10  11
ATOM     11  C   UNL     1       5.775  24.445  24.647  1.00  0.00    -0.000 C 
BRANCH  11  12
ATOM     12  C   UNL     1       4.772  24.367  25.809  1.00  0.00    -0.003 C 
ATOM     13  C   UNL     1       4.743  22.992  26.477  1.00  0.00     0.004 C 
ENDBRANCH  11  12
ENDBRANCH  10  11
ENDBRANCH   9  10
ENDBRANCH   8   9
ENDBRANCH   1   8
TORSDOF 9
ENDMDL
MODEL 4
REMARK VINA RESULT:    -3.314      2.662      4.823
REMARK INTER + INTRA:          -6.312
REMARK INTER:                  -5.428
REMARK INTRA:                  -0.885
REMARK UNBOUND:                -1.255
REMARK SMILES CCCCCCCCCCC(=O)[O-]
REMARK SMILES IDX 7 1 8 2 9 3 10 4 11 5 12 6 13 7 6 8 5 9 4 10 3 11 2 12 1 13
REMARK H PARENT
REMARK Flexibility Score: inf
ROOT
ATOM      1  C   UNL     1       1.875  22.754  22.550  1.00  0.00     0.000 C 
ENDROOT
BRANCH   1   2
ATOM      2  C   UNL     1       2.199  24.146  21.987  1.00  0.00     0.000 C 
BRANCH   2   3
ATOM      3  C   UNL     1       3.211  24.875  22.879  1.00  0.00     0.006 C 
BRANCH   3   4
ATOM      4  C   UNL     1       4.445  24.004  23.135  1.00  0.00     0.053 C 
BRANCH   4   5
ATOM      5  C   UNL     1       5.231  24.536  24.291  1.00  0.00     0.041 C 
ATOM      6  O   UNL     1       4.766  24.467  25.459  1.00  0.00    -0.550 OA
ATOM      7  O   UNL     1       6.501  25.060  24.085  1.00  0.00    -0.550 OA
ENDBRANCH   4   5
ENDBRANCH   3   4
ENDBRANCH   2   3
ENDBRANCH   1   2
BRANCH   1   8
ATOM      8  C   UNL     1       1.006  22.809  23.820  1.00  0.00     0.000 C 
BRANCH   8   9
ATOM      9  C   UNL     1       1.742  22.467  25.132  1.00  0.00    -0.000 C 
BRANCH   9  10
ATOM     10  C   UNL     1       1.412  23.378  26.328  1.00  0.00    -0.000 C 
BRANCH  10  11
ATOM     11  C   UNL     1      -0.099  23.593  26.514  1.00  0.00    -0.000 C 
BRANCH  11  12
ATOM     12  C   UNL     1      -0.478  25.081  26.570  1.00  0.00    -0.003 C 
ATOM     13  C   UNL     1       0.318  25.934  25.582  1.00  0.00     0.004 C 
ENDBRANCH  11  12
ENDBRANCH  10  11
ENDBRANCH   9  10
ENDBRANCH   8   9
ENDBRANCH   1   8
TORSDOF 9
ENDMDL
MODEL 5
REMARK VINA RESULT:    -3.274      3.305      4.496
REMARK INTER + INTRA:          -6.251
REMARK INTER:                  -5.222
REMARK INTRA:                  -1.030
REMARK UNBOUND:                -1.255
REMARK SMILES CCCCCCCCCCC(=O)[O-]
REMARK SMILES IDX 7 1 8 2 9 3 10 4 11 5 12 6 13 7 6 8 5 9 4 10 3 11 2 12 1 13
REMARK H PARENT
REMARK Flexibility Score: inf
ROOT
ATOM      1  C   UNL     1       2.141  22.401  26.134  1.00  0.00     0.000 C 
ENDROOT
BRANCH   1   2
ATOM      2  C   UNL     1       3.154  23.179  26.986  1.00  0.00     0.000 C 
BRANCH   2   3
ATOM      3  C   UNL     1       4.577  23.003  26.442  1.00  0.00     0.006 C 
BRANCH   3   4
ATOM      4  C   UNL     1       5.109  24.317  25.862  1.00  0.00     0.053 C 
BRANCH   4   5
ATOM      5  C   UNL     1       6.150  24.048  24.821  1.00  0.00     0.041 C 
ATOM      6  O   UNL     1       6.307  24.846  23.860  1.00  0.00    -0.550 OA
ATOM      7  O   UNL     1       6.981  22.941  24.941  1.00  0.00    -0.550 OA
ENDBRANCH   4   5
ENDBRANCH   3   4
ENDBRANCH   2   3
ENDBRANCH   1   2
BRANCH   1   8
ATOM      8  C   UNL     1       1.015  23.293  25.580  1.00  0.00     0.000 C 
BRANCH   8   9
ATOM      9  C   UNL     1       1.427  24.744  25.260  1.00  0.00    -0.000 C 
BRANCH   9  10
ATOM     10  C   UNL     1       1.565  25.074  23.763  1.00  0.00    -0.000 C 
BRANCH  10  11
ATOM     11  C   UNL     1       2.768  24.375  23.107  1.00  0.00    -0.000 C 
BRANCH  11  12
ATOM     12  C   UNL     1       2.382  23.622  21.824  1.00  0.00    -0.003 C 
ATOM     13  C   UNL     1       1.562  22.362  22.099  1.00  0.00     0.004 C 
ENDBRANCH  11  12
ENDBRANCH  10  11
ENDBRANCH   9  10
ENDBRANCH   8   9
ENDBRANCH   1   8
TORSDOF 9
ENDMDL
MODEL 6
REMARK VINA RESULT:    -3.254      3.443      4.700
REMARK INTER + INTRA:          -6.221
REMARK INTER:                  -5.693
REMARK INTRA:                  -0.528
REMARK UNBOUND:                -1.255
REMARK SMILES CCCCCCCCCCC(=O)[O-]
REMARK SMILES IDX 7 1 8 2 9 3 10 4 11 5 12 6 13 7 6 8 5 9 4 10 3 11 2 12 1 13
REMARK H PARENT
REMARK Flexibility Score: inf
ROOT
ATOM      1  C   UNL     1       2.540  25.037  22.249  1.00  0.00     0.000 C 
ENDROOT
BRANCH   1   2
ATOM      2  C   UNL     1       2.153  23.559  22.090  1.00  0.00     0.000 C 
BRANCH   2   3
ATOM      3  C   UNL     1       1.537  23.013  23.384  1.00  0.00     0.006 C 
BRANCH   3   4
ATOM      4  C   UNL     1       2.224  23.612  24.615  1.00  0.00     0.053 C 
BRANCH   4   5
ATOM      5  C   UNL     1       1.208  24.153  25.570  1.00  0.00     0.041 C 
ATOM      6  O   UNL     1       0.486  25.131  25.242  1.00  0.00    -0.550 OA
ATOM      7  O   UNL     1       1.023  23.543  26.805  1.00  0.00    -0.550 OA
ENDBRANCH   4   5
ENDBRANCH   3   4
ENDBRANCH   2   3
ENDBRANCH   1   2
BRANCH   1   8
ATOM      8  C   UNL     1       1.506  25.996  21.629  1.00  0.00     0.000 C 
BRANCH   8   9
ATOM      9  C   UNL     1       1.099  27.186  22.522  1.00  0.00    -0.000 C 
BRANCH   9  10
ATOM     10  C   UNL     1       0.704  28.469  21.769  1.00  0.00    -0.000 C 
BRANCH  10  11
ATOM     11  C   UNL     1      -0.583  28.302  20.943  1.00  0.00    -0.000 C 
BRANCH  11  12
ATOM     12  C   UNL     1      -1.132  29.644  20.434  1.00  0.00    -0.003 C 
ATOM     13  C   UNL     1      -0.035  30.582  19.930  1.00  0.00     0.004 C 
ENDBRANCH  11  12
ENDBRANCH  10  11
ENDBRANCH   9  10
ENDBRANCH   8   9
ENDBRANCH   1   8
TORSDOF 9
ENDMDL
MODEL 7
REMARK VINA RESULT:    -3.175      2.771      4.125
REMARK INTER + INTRA:          -6.100
REMARK INTER:                  -5.165
REMARK INTRA:                  -0.936
REMARK UNBOUND:                -1.255
REMARK SMILES CCCCCCCCCCC(=O)[O-]
REMARK SMILES IDX 7 1 8 2 9 3 10 4 11 5 12 6 13 7 6 8 5 9 4 10 3 11 2 12 1 13
REMARK H PARENT
REMARK Flexibility Score: inf
ROOT
ATOM      1  C   UNL     1       0.674  22.883  25.791  1.00  0.00     0.000 C 
ENDROOT
BRANCH   1   2
ATOM      2  C   UNL     1       0.693  24.419  25.779  1.00  0.00     0.000 C 
BRANCH   2   3
ATOM      3  C   UNL     1       1.498  24.948  24.586  1.00  0.00     0.006 C 
BRANCH   3   4
ATOM      4  C   UNL     1       1.759  23.837  23.564  1.00  0.00     0.053 C 
BRANCH   4   5
ATOM      5  C   UNL     1       2.377  24.400  22.324  1.00  0.00     0.041 C 
ATOM      6  O   UNL     1       2.990  23.646  21.523  1.00  0.00    -0.550 OA
ATOM      7  O   UNL     1       2.232  25.749  22.027  1.00  0.00    -0.550 OA
ENDBRANCH   4   5
ENDBRANCH   3   4
ENDBRANCH   2   3
ENDBRANCH   1   2
BRANCH   1   8
ATOM      8  C   UNL     1       1.444  22.285  26.983  1.00  0.00     0.000 C 
BRANCH   8   9
ATOM      9  C   UNL     1       2.941  22.018  26.728  1.00  0.00    -0.000 C 
BRANCH   9  10
ATOM     10  C   UNL     1       3.877  23.212  26.993  1.00  0.00    -0.000 C 
BRANCH  10  11
ATOM     11  C   UNL     1       5.091  23.238  26.049  1.00  0.00    -0.000 C 
BRANCH  11  12
ATOM     12  C   UNL     1       5.223  24.571  25.296  1.00  0.00    -0.003 C 
ATOM     13  C   UNL     1       6.366  25.439  25.822  1.00  0.00     0.004 C 
ENDBRANCH  11  12
ENDBRANCH  10  11
ENDBRANCH   9  10
ENDBRANCH   8   9
ENDBRANCH   1   8
TORSDOF 9
ENDMDL
MODEL 8
REMARK VINA RESULT:    -2.994      2.436      4.804
REMARK INTER + INTRA:          -5.824
REMARK INTER:                  -4.857
REMARK INTRA:                  -0.967
REMARK UNBOUND:                -1.255
REMARK SMILES CCCCCCCCCCC(=O)[O-]
REMARK SMILES IDX 7 1 8 2 9 3 10 4 11 5 12 6 13 7 6 8 5 9 4 10 3 11 2 12 1 13
REMARK H PARENT
REMARK Flexibility Score: inf
ROOT
ATOM      1  C   UNL     1       4.071  24.052  25.944  1.00  0.00     0.000 C 
ENDROOT
BRANCH   1   2
ATOM      2  C   UNL     1       5.008  24.018  24.727  1.00  0.00     0.000 C 
BRANCH   2   3
ATOM      3  C   UNL     1       4.215  24.158  23.421  1.00  0.00     0.006 C 
BRANCH   3   4
ATOM      4  C   UNL     1       2.734  24.423  23.704  1.00  0.00     0.053 C 
BRANCH   4   5
ATOM      5  C   UNL     1       1.872  23.528  22.871  1.00  0.00     0.041 C 
ATOM      6  O   UNL     1       1.858  23.648  21.618  1.00  0.00    -0.550 OA
ATOM      7  O   UNL     1       1.123  22.526  23.476  1.00  0.00    -0.550 OA
ENDBRANCH   4   5
ENDBRANCH   3   4
ENDBRANCH   2   3
ENDBRANCH   1   2
BRANCH   1   8
ATOM      8  C   UNL     1       3.883  22.668  26.593  1.00  0.00     0.000 C 
BRANCH   8   9
ATOM      9  C   UNL     1       2.417  22.234  26.796  1.00  0.00    -0.000 C 
BRANCH   9  10
ATOM     10  C   UNL     1       1.427  23.377  27.085  1.00  0.00    -0.000 C 
BRANCH  10  11
ATOM     11  C   UNL     1      -0.019  23.024  26.699  1.00  0.00    -0.000 C 
BRANCH  11  12
ATOM     12  C   UNL     1      -0.875  24.270  26.421  1.00  0.00    -0.003 C 
ATOM     13  C   UNL     1      -0.039  25.484  26.014  1.00  0.00     0.004 C 
ENDBRANCH  11  12
ENDBRANCH  10  11
ENDBRANCH   9  10
ENDBRANCH   8   9
ENDBRANCH   1   8
TORSDOF 9
ENDMDL
MODEL 9
REMARK VINA RESULT:    -2.892      1.838      3.188
REMARK INTER + INTRA:          -5.668
REMARK INTER:                  -5.123
REMARK INTRA:                  -0.545
REMARK UNBOUND:                -1.255
REMARK SMILES CCCCCCCCCCC(=O)[O-]
REMARK SMILES IDX 7 1 8 2 9 3 10 4 11 5 12 6 13 7 6 8 5 9 4 10 3 11 2 12 1 13
REMARK H PARENT
REMARK Flexibility Score: inf
ROOT
ATOM      1  C   UNL     1       2.264  23.705  23.473  1.00  0.00     0.000 C 
ENDROOT
BRANCH   1   2
ATOM      2  C   UNL     1       1.495  25.002  23.769  1.00  0.00     0.000 C 
BRANCH   2   3
ATOM      3  C   UNL     1       1.024  25.039  25.228  1.00  0.00     0.006 C 
BRANCH   3   4
ATOM      4  C   UNL     1       1.279  23.697  25.921  1.00  0.00     0.053 C 
BRANCH   4   5
ATOM      5  C   UNL     1       0.016  23.172  26.527  1.00  0.00     0.041 C 
ATOM      6  O   UNL     1      -0.044  21.983  26.937  1.00  0.00    -0.550 OA
ATOM      7  O   UNL     1      -1.079  24.011  26.685  1.00  0.00    -0.550 OA
ENDBRANCH   4   5
ENDBRANCH   3   4
ENDBRANCH   2   3
ENDBRANCH   1   2
BRANCH   1   8
ATOM      8  C   UNL     1       3.721  23.958  23.042  1.00  0.00     0.000 C 
BRANCH   8   9
ATOM      9  C   UNL     1       4.698  24.273  24.193  1.00  0.00    -0.000 C 
BRANCH   9  10
ATOM     10  C   UNL     1       6.190  24.114  23.850  1.00  0.00    -0.000 C 
BRANCH  10  11
ATOM     11  C   UNL     1       7.111  24.399  25.049  1.00  0.00    -0.000 C 
BRANCH  11  12
ATOM     12  C   UNL     1       6.418  25.232  26.138  1.00  0.00    -0.003 C 
ATOM     13  C   UNL     1       6.972  26.653  26.242  1.00  0.00     0.004 C 
ENDBRANCH  11  12
ENDBRANCH  10  11
ENDBRANCH   9  10
ENDBRANCH   8   9
ENDBRANCH   1   8
TORSDOF 9
ENDMDL
