MODEL 1
REMARK VINA RESULT:    -4.208      0.000      0.000
REMARK INTER + INTRA:          -5.669
REMARK INTER:                  -5.192
REMARK INTRA:                  -0.477
REMARK UNBOUND:                -0.477
REMARK SMILES C=CC[C@@H](C)C(=O)CC
REMARK SMILES IDX 4 1 5 2 6 3 7 4 8 5 9 6 3 7 2 8 1 9
REMARK H PARENT
REMARK Flexibility Score: inf
ROOT
ATOM      1  C   UNL     1     -12.232 -17.709  31.345  1.00  0.00     0.057 C 
ATOM      2  C   UNL     1     -13.089 -18.926  31.718  1.00  0.00     0.016 C 
ENDROOT
BRANCH   1   3
ATOM      3  C   UNL     1     -12.488 -17.319  29.907  1.00  0.00     0.135 C 
ATOM      4  O   UNL     1     -13.167 -18.045  29.194  1.00  0.00    -0.299 OA
BRANCH   3   5
ATOM      5  C   UNL     1     -11.900 -16.037  29.365  1.00  0.00     0.072 C 
ATOM      6  C   UNL     1     -12.925 -15.164  28.640  1.00  0.00     0.012 C 
ENDBRANCH   3   5
ENDBRANCH   1   3
BRANCH   1   7
ATOM      7  C   UNL     1     -12.508 -16.508  32.275  1.00  0.00     0.038 C 
BRANCH   7   8
ATOM      8  C   UNL     1     -13.978 -16.213  32.409  1.00  0.00    -0.034 C 
ATOM      9  C   UNL     1     -14.482 -15.004  32.146  1.00  0.00     0.004 C 
ENDBRANCH   7   8
ENDBRANCH   1   7
TORSDOF 4
ENDMDL
MODEL 2
REMARK VINA RESULT:    -4.167      1.548      2.673
REMARK INTER + INTRA:          -5.618
REMARK INTER:                  -5.355
REMARK INTRA:                  -0.264
REMARK UNBOUND:                -0.477
REMARK SMILES C=CC[C@@H](C)C(=O)CC
REMARK SMILES IDX 4 1 5 2 6 3 7 4 8 5 9 6 3 7 2 8 1 9
REMARK H PARENT
REMARK Flexibility Score: inf
ROOT
ATOM      1  C   UNL     1     -12.719 -16.295  31.971  1.00  0.00     0.057 C 
ATOM      2  C   UNL     1     -11.379 -16.314  32.718  1.00  0.00     0.016 C 
ENDROOT
BRANCH   1   3
ATOM      3  C   UNL     1     -12.838 -17.522  31.095  1.00  0.00     0.135 C 
ATOM      4  O   UNL     1     -12.840 -17.399  29.877  1.00  0.00    -0.299 OA
BRANCH   3   5
ATOM      5  C   UNL     1     -12.954 -18.887  31.732  1.00  0.00     0.072 C 
ATOM      6  C   UNL     1     -12.882 -20.032  30.722  1.00  0.00     0.012 C 
ENDBRANCH   3   5
ENDBRANCH   1   3
BRANCH   1   7
ATOM      7  C   UNL     1     -13.916 -16.222  32.942  1.00  0.00     0.038 C 
BRANCH   7   8
ATOM      8  C   UNL     1     -14.822 -15.056  32.647  1.00  0.00    -0.034 C 
ATOM      9  C   UNL     1     -14.759 -14.390  31.490  1.00  0.00     0.004 C 
ENDBRANCH   7   8
ENDBRANCH   1   7
TORSDOF 4
ENDMDL
MODEL 3
REMARK VINA RESULT:    -4.092      1.718      4.296
REMARK INTER + INTRA:          -5.526
REMARK INTER:                  -5.348
REMARK INTRA:                  -0.179
REMARK UNBOUND:                -0.477
REMARK SMILES C=CC[C@@H](C)C(=O)CC
REMARK SMILES IDX 4 1 5 2 6 3 7 4 8 5 9 6 3 7 2 8 1 9
REMARK H PARENT
REMARK Flexibility Score: inf
ROOT
ATOM      1  C   UNL     1     -12.091 -16.053  29.350  1.00  0.00     0.057 C 
ATOM      2  C   UNL     1     -13.009 -15.080  28.599  1.00  0.00     0.016 C 
ENDROOT
BRANCH   1   3
ATOM      3  C   UNL     1     -12.843 -16.691  30.496  1.00  0.00     0.135 C 
ATOM      4  O   UNL     1     -13.007 -17.904  30.513  1.00  0.00    -0.299 OA
BRANCH   3   5
ATOM      5  C   UNL     1     -13.386 -15.824  31.608  1.00  0.00     0.072 C 
ATOM      6  C   UNL     1     -13.988 -16.629  32.760  1.00  0.00     0.012 C 
ENDBRANCH   3   5
ENDBRANCH   1   3
BRANCH   1   7
ATOM      7  C   UNL     1     -11.527 -17.146  28.416  1.00  0.00     0.038 C 
BRANCH   7   8
ATOM      8  C   UNL     1     -11.968 -16.961  26.988  1.00  0.00    -0.034 C 
ATOM      9  C   UNL     1     -11.172 -17.268  25.960  1.00  0.00     0.004 C 
ENDBRANCH   7   8
ENDBRANCH   1   7
TORSDOF 4
ENDMDL
MODEL 4
REMARK VINA RESULT:    -4.091      1.753      3.358
REMARK INTER + INTRA:          -5.525
REMARK INTER:                  -5.104
REMARK INTRA:                  -0.421
REMARK UNBOUND:                -0.477
REMARK SMILES C=CC[C@@H](C)C(=O)CC
REMARK SMILES IDX 4 1 5 2 6 3 7 4 8 5 9 6 3 7 2 8 1 9
REMARK H PARENT
REMARK Flexibility Score: inf
ROOT
ATOM      1  C   UNL     1     -12.703 -16.637  31.124  1.00  0.00     0.057 C 
ATOM      2  C   UNL     1     -12.831 -18.158  31.274  1.00  0.00     0.016 C 
ENDROOT
BRANCH   1   3
ATOM      3  C   UNL     1     -12.688 -15.983  32.487  1.00  0.00     0.135 C 
ATOM      4  O   UNL     1     -11.677 -16.036  33.174  1.00  0.00    -0.299 OA
BRANCH   3   5
ATOM      5  C   UNL     1     -13.924 -15.271  32.987  1.00  0.00     0.072 C 
ATOM      6  C   UNL     1     -14.712 -14.579  31.876  1.00  0.00     0.012 C 
ENDBRANCH   3   5
ENDBRANCH   1   3
BRANCH   1   7
ATOM      7  C   UNL     1     -11.434 -16.244  30.337  1.00  0.00     0.038 C 
BRANCH   7   8
ATOM      8  C   UNL     1     -11.751 -15.753  28.948  1.00  0.00    -0.034 C 
ATOM      9  C   UNL     1     -12.926 -15.193  28.651  1.00  0.00     0.004 C 
ENDBRANCH   7   8
ENDBRANCH   1   7
TORSDOF 4
ENDMDL
MODEL 5
REMARK VINA RESULT:    -4.046      1.182      2.775
REMARK INTER + INTRA:          -5.469
REMARK INTER:                  -5.176
REMARK INTRA:                  -0.293
REMARK UNBOUND:                -0.477
REMARK SMILES C=CC[C@@H](C)C(=O)CC
REMARK SMILES IDX 4 1 5 2 6 3 7 4 8 5 9 6 3 7 2 8 1 9
REMARK H PARENT
REMARK Flexibility Score: inf
ROOT
ATOM      1  C   UNL     1     -12.875 -16.504  29.839  1.00  0.00     0.057 C 
ATOM      2  C   UNL     1     -12.432 -15.481  28.785  1.00  0.00     0.016 C 
ENDROOT
BRANCH   1   3
ATOM      3  C   UNL     1     -12.157 -17.817  29.617  1.00  0.00     0.135 C 
ATOM      4  O   UNL     1     -10.957 -17.818  29.376  1.00  0.00    -0.299 OA
BRANCH   3   5
ATOM      5  C   UNL     1     -12.929 -19.113  29.695  1.00  0.00     0.072 C 
ATOM      6  C   UNL     1     -12.965 -19.710  31.101  1.00  0.00     0.012 C 
ENDBRANCH   3   5
ENDBRANCH   1   3
BRANCH   1   7
ATOM      7  C   UNL     1     -12.616 -15.997  31.274  1.00  0.00     0.038 C 
BRANCH   7   8
ATOM      8  C   UNL     1     -13.876 -15.942  32.097  1.00  0.00    -0.034 C 
ATOM      9  C   UNL     1     -14.600 -14.824  32.201  1.00  0.00     0.004 C 
ENDBRANCH   7   8
ENDBRANCH   1   7
TORSDOF 4
ENDMDL
MODEL 6
REMARK VINA RESULT:    -4.029      1.574      3.786
REMARK INTER + INTRA:          -5.448
REMARK INTER:                  -5.129
REMARK INTRA:                  -0.319
REMARK UNBOUND:                -0.477
REMARK SMILES C=CC[C@@H](C)C(=O)CC
REMARK SMILES IDX 4 1 5 2 6 3 7 4 8 5 9 6 3 7 2 8 1 9
REMARK H PARENT
REMARK Flexibility Score: inf
ROOT
ATOM      1  C   UNL     1     -12.977 -15.947  31.147  1.00  0.00     0.057 C 
ATOM      2  C   UNL     1     -14.156 -15.016  31.456  1.00  0.00     0.016 C 
ENDROOT
BRANCH   1   3
ATOM      3  C   UNL     1     -13.115 -17.233  31.931  1.00  0.00     0.135 C 
ATOM      4  O   UNL     1     -14.013 -17.346  32.755  1.00  0.00    -0.299 OA
BRANCH   3   5
ATOM      5  C   UNL     1     -12.143 -18.364  31.690  1.00  0.00     0.072 C 
ATOM      6  C   UNL     1     -12.830 -19.702  31.418  1.00  0.00     0.012 C 
ENDBRANCH   3   5
ENDBRANCH   1   3
BRANCH   1   7
ATOM      7  C   UNL     1     -12.872 -16.258  29.638  1.00  0.00     0.038 C 
BRANCH   7   8
ATOM      8  C   UNL     1     -11.720 -15.540  28.985  1.00  0.00    -0.034 C 
ATOM      9  C   UNL     1     -10.475 -16.022  29.026  1.00  0.00     0.004 C 
ENDBRANCH   7   8
ENDBRANCH   1   7
TORSDOF 4
ENDMDL
MODEL 7
REMARK VINA RESULT:    -3.967      1.656      2.913
REMARK INTER + INTRA:          -5.371
REMARK INTER:                  -5.006
REMARK INTRA:                  -0.366
REMARK UNBOUND:                -0.477
REMARK SMILES C=CC[C@@H](C)C(=O)CC
REMARK SMILES IDX 4 1 5 2 6 3 7 4 8 5 9 6 3 7 2 8 1 9
REMARK H PARENT
REMARK Flexibility Score: inf
ROOT
ATOM      1  C   UNL     1     -12.871 -17.458  31.202  1.00  0.00     0.057 C 
ATOM      2  C   UNL     1     -13.615 -16.757  32.345  1.00  0.00     0.016 C 
ENDROOT
BRANCH   1   3
ATOM      3  C   UNL     1     -11.759 -16.571  30.688  1.00  0.00     0.135 C 
ATOM      4  O   UNL     1     -10.967 -16.074  31.478  1.00  0.00    -0.299 OA
BRANCH   3   5
ATOM      5  C   UNL     1     -11.638 -16.307  29.206  1.00  0.00     0.072 C 
ATOM      6  C   UNL     1     -12.758 -15.424  28.657  1.00  0.00     0.012 C 
ENDBRANCH   3   5
ENDBRANCH   1   3
BRANCH   1   7
ATOM      7  C   UNL     1     -12.297 -18.822  31.643  1.00  0.00     0.038 C 
BRANCH   7   8
ATOM      8  C   UNL     1     -12.880 -19.969  30.860  1.00  0.00    -0.034 C 
ATOM      9  C   UNL     1     -13.301 -19.819  29.600  1.00  0.00     0.004 C 
ENDBRANCH   7   8
ENDBRANCH   1   7
TORSDOF 4
ENDMDL
MODEL 8
REMARK VINA RESULT:    -3.958      1.441      3.652
REMARK INTER + INTRA:          -5.361
REMARK INTER:                  -5.011
REMARK INTRA:                  -0.350
REMARK UNBOUND:                -0.477
REMARK SMILES C=CC[C@@H](C)C(=O)CC
REMARK SMILES IDX 4 1 5 2 6 3 7 4 8 5 9 6 3 7 2 8 1 9
REMARK H PARENT
REMARK Flexibility Score: inf
ROOT
ATOM      1  C   UNL     1     -11.845 -16.248  30.596  1.00  0.00     0.057 C 
ATOM      2  C   UNL     1     -13.257 -15.829  31.023  1.00  0.00     0.016 C 
ENDROOT
BRANCH   1   3
ATOM      3  C   UNL     1     -11.695 -17.748  30.707  1.00  0.00     0.135 C 
ATOM      4  O   UNL     1     -10.758 -18.306  30.150  1.00  0.00    -0.299 OA
BRANCH   3   5
ATOM      5  C   UNL     1     -12.704 -18.543  31.502  1.00  0.00     0.072 C 
ATOM      6  C   UNL     1     -12.916 -19.957  30.962  1.00  0.00     0.012 C 
ENDBRANCH   3   5
ENDBRANCH   1   3
BRANCH   1   7
ATOM      7  C   UNL     1     -11.521 -15.789  29.158  1.00  0.00     0.038 C 
BRANCH   7   8
ATOM      8  C   UNL     1     -12.741 -15.772  28.275  1.00  0.00    -0.034 C 
ATOM      9  C   UNL     1     -12.897 -16.641  27.272  1.00  0.00     0.004 C 
ENDBRANCH   7   8
ENDBRANCH   1   7
TORSDOF 4
ENDMDL
MODEL 9
REMARK VINA RESULT:    -3.933      1.621      3.705
REMARK INTER + INTRA:          -5.330
REMARK INTER:                  -5.057
REMARK INTRA:                  -0.273
REMARK UNBOUND:                -0.477
REMARK SMILES C=CC[C@@H](C)C(=O)CC
REMARK SMILES IDX 4 1 5 2 6 3 7 4 8 5 9 6 3 7 2 8 1 9
REMARK H PARENT
REMARK Flexibility Score: inf
ROOT
ATOM      1  C   UNL     1     -12.109 -16.447  30.104  1.00  0.00     0.057 C 
ATOM      2  C   UNL     1     -12.496 -15.617  28.874  1.00  0.00     0.016 C 
ENDROOT
BRANCH   1   3
ATOM      3  C   UNL     1     -13.175 -16.319  31.169  1.00  0.00     0.135 C 
ATOM      4  O   UNL     1     -13.329 -17.221  31.982  1.00  0.00    -0.299 OA
BRANCH   3   5
ATOM      5  C   UNL     1     -14.038 -15.081  31.218  1.00  0.00     0.072 C 
ATOM      6  C   UNL     1     -14.531 -14.745  32.625  1.00  0.00     0.012 C 
ENDBRANCH   3   5
ENDBRANCH   1   3
BRANCH   1   7
ATOM      7  C   UNL     1     -11.894 -17.934  29.748  1.00  0.00     0.038 C 
BRANCH   7   8
ATOM      8  C   UNL     1     -12.757 -18.376  28.595  1.00  0.00    -0.034 C 
ATOM      9  C   UNL     1     -13.571 -19.432  28.689  1.00  0.00     0.004 C 
ENDBRANCH   7   8
ENDBRANCH   1   7
TORSDOF 4
ENDMDL
