MODEL 1
REMARK VINA RESULT:    -5.126      0.000      0.000
REMARK INTER + INTRA:          -7.017
REMARK INTER:                  -6.624
REMARK INTRA:                  -0.393
REMARK UNBOUND:                -0.393
REMARK SMILES CCO[C@H]1O[C@H](CO)[C@H](O)[C@H](O)[C@@H]1O
REMARK SMILES IDX 4 1 13 2 11 3 9 4 6 5 5 6 3 7 2 8 1 9 14 10 12 12 7 14 8 15
REMARK SMILES IDX 10 17
REMARK H PARENT 14 11 12 13 8 16 10 18
REMARK Flexibility Score: inf
ROOT
ATOM      1  C   UNL     1     -17.137   6.567 -43.293  1.00  0.00     0.281 C 
ATOM      2  C   UNL     1     -17.446   7.857 -42.485  1.00  0.00     0.202 C 
ATOM      3  C   UNL     1     -16.943   7.739 -41.030  1.00  0.00     0.179 C 
ATOM      4  C   UNL     1     -17.362   6.401 -40.395  1.00  0.00     0.177 C 
ATOM      5  C   UNL     1     -16.990   5.246 -41.351  1.00  0.00     0.178 C 
ATOM      6  O   UNL     1     -17.611   5.410 -42.618  1.00  0.00    -0.341 OA
ENDROOT
BRANCH   1   7
ATOM      7  O   UNL     1     -15.740   6.454 -43.538  1.00  0.00    -0.350 OA
BRANCH   7   8
ATOM      8  C   UNL     1     -15.470   6.379 -44.922  1.00  0.00     0.160 C 
ATOM      9  C   UNL     1     -15.238   4.926 -45.307  1.00  0.00     0.035 C 
ENDBRANCH   7   8
ENDBRANCH   1   7
BRANCH   2  10
ATOM     10  O   UNL     1     -18.816   8.178 -42.529  1.00  0.00    -0.385 OA
ATOM     11  H   UNL     1     -19.171   7.923 -43.418  1.00  0.00     0.211 HD
ENDBRANCH   2  10
BRANCH   3  12
ATOM     12  O   UNL     1     -17.415   8.810 -40.254  1.00  0.00    -0.387 OA
ATOM     13  H   UNL     1     -18.224   8.485 -39.780  1.00  0.00     0.211 HD
ENDBRANCH   3  12
BRANCH   5  14
ATOM     14  C   UNL     1     -17.377   3.877 -40.774  1.00  0.00     0.191 C 
BRANCH  14  15
ATOM     15  O   UNL     1     -18.700   3.555 -41.105  1.00  0.00    -0.394 OA
ATOM     16  H   UNL     1     -19.190   3.483 -40.245  1.00  0.00     0.210 HD
ENDBRANCH  14  15
ENDBRANCH   5  14
BRANCH   4  17
ATOM     17  O   UNL     1     -18.743   6.390 -40.130  1.00  0.00    -0.387 OA
ATOM     18  H   UNL     1     -19.090   7.292 -40.358  1.00  0.00     0.211 HD
ENDBRANCH   4  17
TORSDOF 7
ENDMDL
MODEL 2
REMARK VINA RESULT:    -5.115      9.640     11.188
REMARK INTER + INTRA:          -7.004
REMARK INTER:                  -6.602
REMARK INTRA:                  -0.402
REMARK UNBOUND:                -0.393
REMARK SMILES CCO[C@H]1O[C@H](CO)[C@H](O)[C@H](O)[C@@H]1O
REMARK SMILES IDX 4 1 13 2 11 3 9 4 6 5 5 6 3 7 2 8 1 9 14 10 12 12 7 14 8 15
REMARK SMILES IDX 10 17
REMARK H PARENT 14 11 12 13 8 16 10 18
REMARK Flexibility Score: inf
ROOT
ATOM      1  C   UNL     1      -8.610   0.048 -40.025  1.00  0.00     0.281 C 
ATOM      2  C   UNL     1      -8.014  -0.900 -41.101  1.00  0.00     0.202 C 
ATOM      3  C   UNL     1      -9.129  -1.574 -41.931  1.00  0.00     0.179 C 
ATOM      4  C   UNL     1     -10.233  -2.151 -41.027  1.00  0.00     0.177 C 
ATOM      5  C   UNL     1     -10.680  -1.071 -40.018  1.00  0.00     0.178 C 
ATOM      6  O   UNL     1      -9.585  -0.618 -39.234  1.00  0.00    -0.341 OA
ENDROOT
BRANCH   1   7
ATOM      7  O   UNL     1      -9.177   1.202 -40.634  1.00  0.00    -0.350 OA
BRANCH   7   8
ATOM      8  C   UNL     1      -9.203   2.291 -39.737  1.00  0.00     0.160 C 
ATOM      9  C   UNL     1     -10.639   2.759 -39.561  1.00  0.00     0.035 C 
ENDBRANCH   7   8
ENDBRANCH   1   7
BRANCH   2  10
ATOM     10  O   UNL     1      -7.153  -1.855 -40.529  1.00  0.00    -0.385 OA
ATOM     11  H   UNL     1      -7.278  -2.715 -41.004  1.00  0.00     0.211 HD
ENDBRANCH   2  10
BRANCH   3  12
ATOM     12  O   UNL     1      -8.596  -2.585 -42.747  1.00  0.00    -0.387 OA
ATOM     13  H   UNL     1      -8.564  -3.411 -42.196  1.00  0.00     0.211 HD
ENDBRANCH   3  12
BRANCH   5  14
ATOM     14  C   UNL     1     -11.789  -1.581 -39.086  1.00  0.00     0.191 C 
BRANCH  14  15
ATOM     15  O   UNL     1     -12.490  -2.638 -39.682  1.00  0.00    -0.394 OA
ATOM     16  H   UNL     1     -13.447  -2.376 -39.670  1.00  0.00     0.210 HD
ENDBRANCH  14  15
ENDBRANCH   5  14
BRANCH   4  17
ATOM     17  O   UNL     1      -9.771  -3.294 -40.349  1.00  0.00    -0.387 OA
ATOM     18  H   UNL     1     -10.226  -3.312 -39.466  1.00  0.00     0.211 HD
ENDBRANCH   4  17
TORSDOF 7
ENDMDL
MODEL 3
REMARK VINA RESULT:    -4.998      1.492      3.186
REMARK INTER + INTRA:          -6.853
REMARK INTER:                  -6.566
REMARK INTRA:                  -0.287
REMARK UNBOUND:                -0.393
REMARK SMILES CCO[C@H]1O[C@H](CO)[C@H](O)[C@H](O)[C@@H]1O
REMARK SMILES IDX 4 1 13 2 11 3 9 4 6 5 5 6 3 7 2 8 1 9 14 10 12 12 7 14 8 15
REMARK SMILES IDX 10 17
REMARK H PARENT 14 11 12 13 8 16 10 18
REMARK Flexibility Score: inf
ROOT
ATOM      1  C   UNL     1     -16.346   5.284 -42.193  1.00  0.00     0.281 C 
ATOM      2  C   UNL     1     -17.813   5.029 -41.753  1.00  0.00     0.202 C 
ATOM      3  C   UNL     1     -18.688   6.282 -41.974  1.00  0.00     0.179 C 
ATOM      4  C   UNL     1     -18.006   7.549 -41.427  1.00  0.00     0.177 C 
ATOM      5  C   UNL     1     -16.557   7.616 -41.958  1.00  0.00     0.178 C 
ATOM      6  O   UNL     1     -15.822   6.458 -41.588  1.00  0.00    -0.341 OA
ENDROOT
BRANCH   1   7
ATOM      7  O   UNL     1     -16.259   5.382 -43.610  1.00  0.00    -0.350 OA
BRANCH   7   8
ATOM      8  C   UNL     1     -14.935   5.175 -44.055  1.00  0.00     0.160 C 
ATOM      9  C   UNL     1     -14.954   4.839 -45.537  1.00  0.00     0.035 C 
ENDBRANCH   7   8
ENDBRANCH   1   7
BRANCH   2  10
ATOM     10  O   UNL     1     -17.883   4.584 -40.419  1.00  0.00    -0.385 OA
ATOM     11  H   UNL     1     -18.038   3.605 -40.423  1.00  0.00     0.211 HD
ENDBRANCH   2  10
BRANCH   3  12
ATOM     12  O   UNL     1     -19.949   6.118 -41.377  1.00  0.00    -0.387 OA
ATOM     13  H   UNL     1     -20.593   6.644 -41.919  1.00  0.00     0.211 HD
ENDBRANCH   3  12
BRANCH   5  14
ATOM     14  C   UNL     1     -15.818   8.864 -41.454  1.00  0.00     0.191 C 
BRANCH  14  15
ATOM     15  O   UNL     1     -16.719   9.781 -40.895  1.00  0.00    -0.394 OA
ATOM     16  H   UNL     1     -16.886   9.472 -39.967  1.00  0.00     0.210 HD
ENDBRANCH  14  15
ENDBRANCH   5  14
BRANCH   4  17
ATOM     17  O   UNL     1     -18.012   7.547 -40.021  1.00  0.00    -0.387 OA
ATOM     18  H   UNL     1     -17.239   6.997 -39.727  1.00  0.00     0.211 HD
ENDBRANCH   4  17
TORSDOF 7
ENDMDL
MODEL 4
REMARK VINA RESULT:    -4.878      1.890      3.866
REMARK INTER + INTRA:          -6.697
REMARK INTER:                  -6.281
REMARK INTRA:                  -0.416
REMARK UNBOUND:                -0.393
REMARK SMILES CCO[C@H]1O[C@H](CO)[C@H](O)[C@H](O)[C@@H]1O
REMARK SMILES IDX 4 1 13 2 11 3 9 4 6 5 5 6 3 7 2 8 1 9 14 10 12 12 7 14 8 15
REMARK SMILES IDX 10 17
REMARK H PARENT 14 11 12 13 8 16 10 18
REMARK Flexibility Score: inf
ROOT
ATOM      1  C   UNL     1     -17.028   5.328 -40.539  1.00  0.00     0.281 C 
ATOM      2  C   UNL     1     -18.158   6.360 -40.798  1.00  0.00     0.202 C 
ATOM      3  C   UNL     1     -17.853   7.223 -42.041  1.00  0.00     0.179 C 
ATOM      4  C   UNL     1     -16.410   7.760 -42.013  1.00  0.00     0.177 C 
ATOM      5  C   UNL     1     -15.439   6.594 -41.726  1.00  0.00     0.178 C 
ATOM      6  O   UNL     1     -15.755   5.956 -40.496  1.00  0.00    -0.341 OA
ENDROOT
BRANCH   1   7
ATOM      7  O   UNL     1     -17.040   4.313 -41.536  1.00  0.00    -0.350 OA
BRANCH   7   8
ATOM      8  C   UNL     1     -18.124   3.428 -41.350  1.00  0.00     0.160 C 
ATOM      9  C   UNL     1     -17.766   2.419 -40.271  1.00  0.00     0.035 C 
ENDBRANCH   7   8
ENDBRANCH   1   7
BRANCH   2  10
ATOM     10  O   UNL     1     -18.397   7.160 -39.665  1.00  0.00    -0.385 OA
ATOM     11  H   UNL     1     -17.618   7.084 -39.057  1.00  0.00     0.211 HD
ENDBRANCH   2  10
BRANCH   3  12
ATOM     12  O   UNL     1     -18.762   8.289 -42.140  1.00  0.00    -0.387 OA
ATOM     13  H   UNL     1     -18.310   9.003 -42.661  1.00  0.00     0.211 HD
ENDBRANCH   3  12
BRANCH   5  14
ATOM     14  C   UNL     1     -13.977   7.061 -41.691  1.00  0.00     0.191 C 
BRANCH  14  15
ATOM     15  O   UNL     1     -13.792   8.175 -42.521  1.00  0.00    -0.394 OA
ATOM     16  H   UNL     1     -13.210   8.801 -42.017  1.00  0.00     0.210 HD
ENDBRANCH  14  15
ENDBRANCH   5  14
BRANCH   4  17
ATOM     17  O   UNL     1     -16.274   8.763 -41.036  1.00  0.00    -0.387 OA
ATOM     18  H   UNL     1     -15.310   8.995 -40.991  1.00  0.00     0.211 HD
ENDBRANCH   4  17
TORSDOF 7
ENDMDL
MODEL 5
REMARK VINA RESULT:    -4.843      9.635     11.465
REMARK INTER + INTRA:          -6.652
REMARK INTER:                  -6.270
REMARK INTRA:                  -0.382
REMARK UNBOUND:                -0.393
REMARK SMILES CCO[C@H]1O[C@H](CO)[C@H](O)[C@H](O)[C@@H]1O
REMARK SMILES IDX 4 1 13 2 11 3 9 4 6 5 5 6 3 7 2 8 1 9 14 10 12 12 7 14 8 15
REMARK SMILES IDX 10 17
REMARK H PARENT 14 11 12 13 8 16 10 18
REMARK Flexibility Score: inf
ROOT
ATOM      1  C   UNL     1     -10.832  -1.089 -41.083  1.00  0.00     0.281 C 
ATOM      2  C   UNL     1      -9.917  -2.297 -40.745  1.00  0.00     0.202 C 
ATOM      3  C   UNL     1      -8.758  -1.877 -39.815  1.00  0.00     0.179 C 
ATOM      4  C   UNL     1      -8.066  -0.597 -40.320  1.00  0.00     0.177 C 
ATOM      5  C   UNL     1      -9.137   0.476 -40.617  1.00  0.00     0.178 C 
ATOM      6  O   UNL     1     -10.076   0.009 -41.576  1.00  0.00    -0.341 OA
ENDROOT
BRANCH   1   7
ATOM      7  O   UNL     1     -11.582  -0.695 -39.941  1.00  0.00    -0.350 OA
BRANCH   7   8
ATOM      8  C   UNL     1     -12.375  -1.759 -39.458  1.00  0.00     0.160 C 
ATOM      9  C   UNL     1     -13.797  -1.593 -39.968  1.00  0.00     0.035 C 
ENDBRANCH   7   8
ENDBRANCH   1   7
BRANCH   2  10
ATOM     10  O   UNL     1      -9.436  -2.924 -41.911  1.00  0.00    -0.385 OA
ATOM     11  H   UNL     1     -10.058  -2.721 -42.655  1.00  0.00     0.211 HD
ENDBRANCH   2  10
BRANCH   3  12
ATOM     12  O   UNL     1      -7.819  -2.915 -39.692  1.00  0.00    -0.387 OA
ATOM     13  H   UNL     1      -7.976  -3.339 -38.808  1.00  0.00     0.211 HD
ENDBRANCH   3  12
BRANCH   5  14
ATOM     14  C   UNL     1      -8.513   1.785 -41.120  1.00  0.00     0.191 C 
BRANCH  14  15
ATOM     15  O   UNL     1      -7.159   1.858 -40.764  1.00  0.00    -0.394 OA
ATOM     16  H   UNL     1      -6.843   2.749 -41.063  1.00  0.00     0.210 HD
ENDBRANCH  14  15
ENDBRANCH   5  14
BRANCH   4  17
ATOM     17  O   UNL     1      -7.308  -0.865 -41.474  1.00  0.00    -0.387 OA
ATOM     18  H   UNL     1      -6.359  -0.926 -41.190  1.00  0.00     0.211 HD
ENDBRANCH   4  17
TORSDOF 7
ENDMDL
MODEL 6
REMARK VINA RESULT:    -4.830      1.866      2.355
REMARK INTER + INTRA:          -6.636
REMARK INTER:                  -6.251
REMARK INTRA:                  -0.385
REMARK UNBOUND:                -0.393
REMARK SMILES CCO[C@H]1O[C@H](CO)[C@H](O)[C@H](O)[C@@H]1O
REMARK SMILES IDX 4 1 13 2 11 3 9 4 6 5 5 6 3 7 2 8 1 9 14 10 12 12 7 14 8 15
REMARK SMILES IDX 10 17
REMARK H PARENT 14 11 12 13 8 16 10 18
REMARK Flexibility Score: inf
ROOT
ATOM      1  C   UNL     1     -17.933   6.793 -42.926  1.00  0.00     0.281 C 
ATOM      2  C   UNL     1     -18.825   7.004 -41.673  1.00  0.00     0.202 C 
ATOM      3  C   UNL     1     -17.968   7.171 -40.399  1.00  0.00     0.179 C 
ATOM      4  C   UNL     1     -16.879   6.087 -40.306  1.00  0.00     0.177 C 
ATOM      5  C   UNL     1     -16.117   6.016 -41.648  1.00  0.00     0.178 C 
ATOM      6  O   UNL     1     -17.001   5.740 -42.725  1.00  0.00    -0.341 OA
ENDROOT
BRANCH   1   7
ATOM      7  O   UNL     1     -17.250   7.995 -43.261  1.00  0.00    -0.350 OA
BRANCH   7   8
ATOM      8  C   UNL     1     -17.113   8.131 -44.660  1.00  0.00     0.160 C 
ATOM      9  C   UNL     1     -18.324   7.515 -45.342  1.00  0.00     0.035 C 
ENDBRANCH   7   8
ENDBRANCH   1   7
BRANCH   2  10
ATOM     10  O   UNL     1     -19.764   5.966 -41.525  1.00  0.00    -0.385 OA
ATOM     11  H   UNL     1     -19.298   5.101 -41.655  1.00  0.00     0.211 HD
ENDBRANCH   2  10
BRANCH   3  12
ATOM     12  O   UNL     1     -18.776   7.143 -39.250  1.00  0.00    -0.387 OA
ATOM     13  H   UNL     1     -19.034   6.195 -39.106  1.00  0.00     0.211 HD
ENDBRANCH   3  12
BRANCH   5  14
ATOM     14  C   UNL     1     -15.008   4.955 -41.622  1.00  0.00     0.191 C 
BRANCH  14  15
ATOM     15  O   UNL     1     -14.606   4.689 -40.305  1.00  0.00    -0.394 OA
ATOM     16  H   UNL     1     -13.762   5.192 -40.168  1.00  0.00     0.210 HD
ENDBRANCH  14  15
ENDBRANCH   5  14
BRANCH   4  17
ATOM     17  O   UNL     1     -17.449   4.838 -40.000  1.00  0.00    -0.387 OA
ATOM     18  H   UNL     1     -18.374   4.845 -40.359  1.00  0.00     0.211 HD
ENDBRANCH   4  17
TORSDOF 7
ENDMDL
MODEL 7
REMARK VINA RESULT:    -4.806      1.972      3.768
REMARK INTER + INTRA:          -6.604
REMARK INTER:                  -6.227
REMARK INTRA:                  -0.378
REMARK UNBOUND:                -0.393
REMARK SMILES CCO[C@H]1O[C@H](CO)[C@H](O)[C@H](O)[C@@H]1O
REMARK SMILES IDX 4 1 13 2 11 3 9 4 6 5 5 6 3 7 2 8 1 9 14 10 12 12 7 14 8 15
REMARK SMILES IDX 10 17
REMARK H PARENT 14 11 12 13 8 16 10 18
REMARK Flexibility Score: inf
ROOT
ATOM      1  C   UNL     1     -15.878   6.134 -41.051  1.00  0.00     0.281 C 
ATOM      2  C   UNL     1     -17.269   5.602 -40.614  1.00  0.00     0.202 C 
ATOM      3  C   UNL     1     -18.253   5.565 -41.804  1.00  0.00     0.179 C 
ATOM      4  C   UNL     1     -18.227   6.885 -42.596  1.00  0.00     0.177 C 
ATOM      5  C   UNL     1     -16.763   7.255 -42.921  1.00  0.00     0.178 C 
ATOM      6  O   UNL     1     -15.991   7.374 -41.734  1.00  0.00    -0.341 OA
ENDROOT
BRANCH   1   7
ATOM      7  O   UNL     1     -15.214   5.180 -41.872  1.00  0.00    -0.350 OA
BRANCH   7   8
ATOM      8  C   UNL     1     -13.824   5.176 -41.627  1.00  0.00     0.160 C 
ATOM      9  C   UNL     1     -13.477   3.992 -40.739  1.00  0.00     0.035 C 
ENDBRANCH   7   8
ENDBRANCH   1   7
BRANCH   2  10
ATOM     10  O   UNL     1     -17.793   6.346 -39.540  1.00  0.00    -0.385 OA
ATOM     11  H   UNL     1     -17.749   7.308 -39.773  1.00  0.00     0.211 HD
ENDBRANCH   2  10
BRANCH   3  12
ATOM     12  O   UNL     1     -19.558   5.294 -41.361  1.00  0.00    -0.387 OA
ATOM     13  H   UNL     1     -19.474   4.866 -40.469  1.00  0.00     0.211 HD
ENDBRANCH   3  12
BRANCH   5  14
ATOM     14  C   UNL     1     -16.666   8.563 -43.719  1.00  0.00     0.191 C 
BRANCH  14  15
ATOM     15  O   UNL     1     -16.797   9.672 -42.872  1.00  0.00    -0.394 OA
ATOM     16  H   UNL     1     -16.029  10.266 -43.075  1.00  0.00     0.210 HD
ENDBRANCH  14  15
ENDBRANCH   5  14
BRANCH   4  17
ATOM     17  O   UNL     1     -18.842   7.915 -41.862  1.00  0.00    -0.387 OA
ATOM     18  H   UNL     1     -19.570   8.282 -42.429  1.00  0.00     0.211 HD
ENDBRANCH   4  17
TORSDOF 7
ENDMDL
MODEL 8
REMARK VINA RESULT:    -4.745     10.324     11.946
REMARK INTER + INTRA:          -6.526
REMARK INTER:                  -6.135
REMARK INTRA:                  -0.391
REMARK UNBOUND:                -0.393
REMARK SMILES CCO[C@H]1O[C@H](CO)[C@H](O)[C@H](O)[C@@H]1O
REMARK SMILES IDX 4 1 13 2 11 3 9 4 6 5 5 6 3 7 2 8 1 9 14 10 12 12 7 14 8 15
REMARK SMILES IDX 10 17
REMARK H PARENT 14 11 12 13 8 16 10 18
REMARK Flexibility Score: inf
ROOT
ATOM      1  C   UNL     1      -9.101  -1.430 -38.063  1.00  0.00     0.281 C 
ATOM      2  C   UNL     1      -7.990  -1.648 -39.124  1.00  0.00     0.202 C 
ATOM      3  C   UNL     1      -8.407  -1.074 -40.496  1.00  0.00     0.179 C 
ATOM      4  C   UNL     1      -9.833  -1.510 -40.879  1.00  0.00     0.177 C 
ATOM      5  C   UNL     1     -10.785  -1.231 -39.695  1.00  0.00     0.178 C 
ATOM      6  O   UNL     1     -10.357  -1.911 -38.523  1.00  0.00    -0.341 OA
ENDROOT
BRANCH   1   7
ATOM      7  O   UNL     1      -9.200  -0.053 -37.718  1.00  0.00    -0.350 OA
BRANCH   7   8
ATOM      8  C   UNL     1      -9.235   0.121 -36.318  1.00  0.00     0.160 C 
ATOM      9  C   UNL     1     -10.663   0.418 -35.887  1.00  0.00     0.035 C 
ENDBRANCH   7   8
ENDBRANCH   1   7
BRANCH   2  10
ATOM     10  O   UNL     1      -7.631  -3.006 -39.225  1.00  0.00    -0.385 OA
ATOM     11  H   UNL     1      -8.052  -3.498 -38.476  1.00  0.00     0.211 HD
ENDBRANCH   2  10
BRANCH   3  12
ATOM     12  O   UNL     1      -7.499  -1.465 -41.494  1.00  0.00    -0.387 OA
ATOM     13  H   UNL     1      -6.643  -1.673 -41.036  1.00  0.00     0.211 HD
ENDBRANCH   3  12
BRANCH   5  14
ATOM     14  C   UNL     1     -12.231  -1.637 -40.014  1.00  0.00     0.191 C 
BRANCH  14  15
ATOM     15  O   UNL     1     -12.468  -2.965 -39.631  1.00  0.00    -0.394 OA
ATOM     16  H   UNL     1     -11.880  -3.136 -38.851  1.00  0.00     0.210 HD
ENDBRANCH  14  15
ENDBRANCH   5  14
BRANCH   4  17
ATOM     17  O   UNL     1      -9.860  -2.874 -41.218  1.00  0.00    -0.387 OA
ATOM     18  H   UNL     1      -9.364  -3.360 -40.509  1.00  0.00     0.211 HD
ENDBRANCH   4  17
TORSDOF 7
ENDMDL
MODEL 9
REMARK VINA RESULT:    -4.574      9.907     11.540
REMARK INTER + INTRA:          -6.305
REMARK INTER:                  -5.922
REMARK INTRA:                  -0.383
REMARK UNBOUND:                -0.393
REMARK SMILES CCO[C@H]1O[C@H](CO)[C@H](O)[C@H](O)[C@@H]1O
REMARK SMILES IDX 4 1 13 2 11 3 9 4 6 5 5 6 3 7 2 8 1 9 14 10 12 12 7 14 8 15
REMARK SMILES IDX 10 17
REMARK H PARENT 14 11 12 13 8 16 10 18
REMARK Flexibility Score: inf
ROOT
ATOM      1  C   UNL     1     -10.808  -0.726 -40.221  1.00  0.00     0.281 C 
ATOM      2  C   UNL     1     -10.449  -1.342 -41.600  1.00  0.00     0.202 C 
ATOM      3  C   UNL     1      -9.196  -2.239 -41.502  1.00  0.00     0.179 C 
ATOM      4  C   UNL     1      -8.061  -1.539 -40.734  1.00  0.00     0.177 C 
ATOM      5  C   UNL     1      -8.616  -0.980 -39.405  1.00  0.00     0.178 C 
ATOM      6  O   UNL     1      -9.687  -0.076 -39.639  1.00  0.00    -0.341 OA
ENDROOT
BRANCH   1   7
ATOM      7  O   UNL     1     -11.307  -1.726 -39.342  1.00  0.00    -0.350 OA
BRANCH   7   8
ATOM      8  C   UNL     1     -12.714  -1.668 -39.248  1.00  0.00     0.160 C 
ATOM      9  C   UNL     1     -13.277  -3.079 -39.299  1.00  0.00     0.035 C 
ENDBRANCH   7   8
ENDBRANCH   1   7
BRANCH   2  10
ATOM     10  O   UNL     1     -10.291  -0.348 -42.585  1.00  0.00    -0.385 OA
ATOM     11  H   UNL     1     -10.620   0.512 -42.219  1.00  0.00     0.211 HD
ENDBRANCH   2  10
BRANCH   3  12
ATOM     12  O   UNL     1      -8.753  -2.614 -42.782  1.00  0.00    -0.387 OA
ATOM     13  H   UNL     1      -9.524  -2.502 -43.396  1.00  0.00     0.211 HD
ENDBRANCH   3  12
BRANCH   5  14
ATOM     14  C   UNL     1      -7.529  -0.272 -38.583  1.00  0.00     0.191 C 
BRANCH  14  15
ATOM     15  O   UNL     1      -7.382   1.059 -38.997  1.00  0.00    -0.394 OA
ATOM     16  H   UNL     1      -7.561   1.618 -38.196  1.00  0.00     0.210 HD
ENDBRANCH  14  15
ENDBRANCH   5  14
BRANCH   4  17
ATOM     17  O   UNL     1      -7.504  -0.505 -41.506  1.00  0.00    -0.387 OA
ATOM     18  H   UNL     1      -6.526  -0.670 -41.552  1.00  0.00     0.211 HD
ENDBRANCH   4  17
TORSDOF 7
ENDMDL
