MODEL 1
REMARK VINA RESULT:    -4.958      0.000      0.000
REMARK INTER + INTRA:          -6.688
REMARK INTER:                  -6.407
REMARK INTRA:                  -0.281
REMARK UNBOUND:                -0.281
REMARK SMILES C=CC(=O)CCCCC
REMARK SMILES IDX 6 1 7 2 8 3 9 4 5 5 3 6 4 7 2 8 1 9
REMARK H PARENT
REMARK Flexibility Score: inf
ROOT
ATOM      1  C   UNL     1      30.847   6.451 105.971  1.00  0.00     0.008 C 
ENDROOT
BRANCH   1   2
ATOM      2  C   UNL     1      30.633   7.652 105.041  1.00  0.00     0.000 C 
BRANCH   2   3
ATOM      3  C   UNL     1      31.444   8.864 105.512  1.00  0.00    -0.003 C 
ATOM      4  C   UNL     1      30.665  10.160 105.309  1.00  0.00     0.004 C 
ENDBRANCH   2   3
ENDBRANCH   1   2
BRANCH   1   5
ATOM      5  C   UNL     1      31.392   6.898 107.331  1.00  0.00     0.080 C 
BRANCH   5   6
ATOM      6  C   UNL     1      32.388   5.905 107.852  1.00  0.00     0.155 C 
ATOM      7  O   UNL     1      33.209   6.262 108.741  1.00  0.00    -0.295 OA
BRANCH   6   8
ATOM      8  C   UNL     1      32.372   4.514 107.358  1.00  0.00     0.039 C 
ATOM      9  C   UNL     1      33.479   3.877 106.982  1.00  0.00     0.012 C 
ENDBRANCH   6   8
ENDBRANCH   5   6
ENDBRANCH   1   5
TORSDOF 5
ENDMDL
MODEL 2
REMARK VINA RESULT:    -4.864      1.877      4.829
REMARK INTER + INTRA:          -6.568
REMARK INTER:                  -6.294
REMARK INTRA:                  -0.274
REMARK UNBOUND:                -0.281
REMARK SMILES C=CC(=O)CCCCC
REMARK SMILES IDX 6 1 7 2 8 3 9 4 5 5 3 6 4 7 2 8 1 9
REMARK H PARENT
REMARK Flexibility Score: inf
ROOT
ATOM      1  C   UNL     1      31.592   6.905 107.534  1.00  0.00     0.008 C 
ENDROOT
BRANCH   1   2
ATOM      2  C   UNL     1      32.339   5.749 108.212  1.00  0.00     0.000 C 
BRANCH   2   3
ATOM      3  C   UNL     1      32.154   4.443 107.432  1.00  0.00    -0.003 C 
ATOM      4  C   UNL     1      33.501   3.822 107.069  1.00  0.00     0.004 C 
ENDBRANCH   2   3
ENDBRANCH   1   2
BRANCH   1   5
ATOM      5  C   UNL     1      30.857   6.425 106.279  1.00  0.00     0.080 C 
BRANCH   5   6
ATOM      6  C   UNL     1      30.788   7.521 105.257  1.00  0.00     0.155 C 
ATOM      7  O   UNL     1      30.175   7.318 104.174  1.00  0.00    -0.295 OA
BRANCH   6   8
ATOM      8  C   UNL     1      31.396   8.835 105.542  1.00  0.00     0.039 C 
ATOM      9  C   UNL     1      30.759   9.982 105.313  1.00  0.00     0.012 C 
ENDBRANCH   6   8
ENDBRANCH   5   6
ENDBRANCH   1   5
TORSDOF 5
ENDMDL
MODEL 3
REMARK VINA RESULT:    -4.716      1.929      4.082
REMARK INTER + INTRA:          -6.375
REMARK INTER:                  -5.926
REMARK INTRA:                  -0.450
REMARK UNBOUND:                -0.281
REMARK SMILES C=CC(=O)CCCCC
REMARK SMILES IDX 6 1 7 2 8 3 9 4 5 5 3 6 4 7 2 8 1 9
REMARK H PARENT
REMARK Flexibility Score: inf
ROOT
ATOM      1  C   UNL     1      30.628   6.170 106.490  1.00  0.00     0.008 C 
ENDROOT
BRANCH   1   2
ATOM      2  C   UNL     1      31.487   4.956 106.113  1.00  0.00     0.000 C 
BRANCH   2   3
ATOM      3  C   UNL     1      32.214   4.395 107.340  1.00  0.00    -0.003 C 
ATOM      4  C   UNL     1      33.609   3.896 106.974  1.00  0.00     0.004 C 
ENDBRANCH   2   3
ENDBRANCH   1   2
BRANCH   1   5
ATOM      5  C   UNL     1      30.890   7.345 105.543  1.00  0.00     0.080 C 
BRANCH   5   6
ATOM      6  C   UNL     1      31.766   8.368 106.202  1.00  0.00     0.155 C 
ATOM      7  O   UNL     1      32.102   9.400 105.560  1.00  0.00    -0.295 OA
BRANCH   6   8
ATOM      8  C   UNL     1      32.189   8.185 107.604  1.00  0.00     0.039 C 
ATOM      9  C   UNL     1      33.466   8.037 107.952  1.00  0.00     0.012 C 
ENDBRANCH   6   8
ENDBRANCH   5   6
ENDBRANCH   1   5
TORSDOF 5
ENDMDL
MODEL 4
REMARK VINA RESULT:    -4.661      1.322      1.913
REMARK INTER + INTRA:          -6.304
REMARK INTER:                  -5.898
REMARK INTRA:                  -0.407
REMARK UNBOUND:                -0.281
REMARK SMILES C=CC(=O)CCCCC
REMARK SMILES IDX 6 1 7 2 8 3 9 4 5 5 3 6 4 7 2 8 1 9
REMARK H PARENT
REMARK Flexibility Score: inf
ROOT
ATOM      1  C   UNL     1      30.642   6.273 106.252  1.00  0.00     0.008 C 
ENDROOT
BRANCH   1   2
ATOM      2  C   UNL     1      30.608   6.889 104.848  1.00  0.00     0.000 C 
BRANCH   2   3
ATOM      3  C   UNL     1      30.687   8.418 104.916  1.00  0.00    -0.003 C 
ATOM      4  C   UNL     1      31.752   8.870 105.911  1.00  0.00     0.004 C 
ENDBRANCH   2   3
ENDBRANCH   1   2
BRANCH   1   5
ATOM      5  C   UNL     1      31.446   4.969 106.262  1.00  0.00     0.080 C 
BRANCH   5   6
ATOM      6  C   UNL     1      32.446   4.976 107.379  1.00  0.00     0.155 C 
ATOM      7  O   UNL     1      33.419   4.173 107.344  1.00  0.00    -0.295 OA
BRANCH   6   8
ATOM      8  C   UNL     1      32.313   5.946 108.484  1.00  0.00     0.039 C 
ATOM      9  C   UNL     1      33.216   6.897 108.712  1.00  0.00     0.012 C 
ENDBRANCH   6   8
ENDBRANCH   5   6
ENDBRANCH   1   5
TORSDOF 5
ENDMDL
MODEL 5
REMARK VINA RESULT:    -4.537      1.273      4.203
REMARK INTER + INTRA:          -6.145
REMARK INTER:                  -5.777
REMARK INTRA:                  -0.368
REMARK UNBOUND:                -0.281
REMARK SMILES C=CC(=O)CCCCC
REMARK SMILES IDX 6 1 7 2 8 3 9 4 5 5 3 6 4 7 2 8 1 9
REMARK H PARENT
REMARK Flexibility Score: inf
ROOT
ATOM      1  C   UNL     1      32.230   5.770 108.117  1.00  0.00     0.008 C 
ENDROOT
BRANCH   1   2
ATOM      2  C   UNL     1      31.754   4.782 107.045  1.00  0.00     0.000 C 
BRANCH   2   3
ATOM      3  C   UNL     1      32.936   4.029 106.427  1.00  0.00    -0.003 C 
ATOM      4  C   UNL     1      34.133   4.009 107.374  1.00  0.00     0.004 C 
ENDBRANCH   2   3
ENDBRANCH   1   2
BRANCH   1   5
ATOM      5  C   UNL     1      31.435   7.078 108.054  1.00  0.00     0.080 C 
BRANCH   5   6
ATOM      6  C   UNL     1      32.129   8.076 107.177  1.00  0.00     0.155 C 
ATOM      7  O   UNL     1      33.306   8.434 107.459  1.00  0.00    -0.295 OA
BRANCH   6   8
ATOM      8  C   UNL     1      31.454   8.596 105.972  1.00  0.00     0.039 C 
ATOM      9  C   UNL     1      30.746   7.817 105.157  1.00  0.00     0.012 C 
ENDBRANCH   6   8
ENDBRANCH   5   6
ENDBRANCH   1   5
TORSDOF 5
ENDMDL
MODEL 6
REMARK VINA RESULT:    -4.534      1.423      1.952
REMARK INTER + INTRA:          -6.140
REMARK INTER:                  -5.864
REMARK INTRA:                  -0.276
REMARK UNBOUND:                -0.281
REMARK SMILES C=CC(=O)CCCCC
REMARK SMILES IDX 6 1 7 2 8 3 9 4 5 5 3 6 4 7 2 8 1 9
REMARK H PARENT
REMARK Flexibility Score: inf
ROOT
ATOM      1  C   UNL     1      31.367   7.157 107.643  1.00  0.00     0.008 C 
ENDROOT
BRANCH   1   2
ATOM      2  C   UNL     1      32.194   8.250 106.956  1.00  0.00     0.000 C 
BRANCH   2   3
ATOM      3  C   UNL     1      31.437   8.845 105.763  1.00  0.00    -0.003 C 
ATOM      4  C   UNL     1      30.645   7.771 105.023  1.00  0.00     0.004 C 
ENDBRANCH   2   3
ENDBRANCH   1   2
BRANCH   1   5
ATOM      5  C   UNL     1      32.254   5.986 108.077  1.00  0.00     0.080 C 
BRANCH   5   6
ATOM      6  C   UNL     1      32.064   4.813 107.163  1.00  0.00     0.155 C 
ATOM      7  O   UNL     1      31.005   4.723 106.483  1.00  0.00    -0.295 OA
BRANCH   6   8
ATOM      8  C   UNL     1      33.129   3.800 107.031  1.00  0.00     0.039 C 
ATOM      9  C   UNL     1      34.394   4.044 107.367  1.00  0.00     0.012 C 
ENDBRANCH   6   8
ENDBRANCH   5   6
ENDBRANCH   1   5
TORSDOF 5
ENDMDL
MODEL 7
REMARK VINA RESULT:    -4.391      2.203      2.739
REMARK INTER + INTRA:          -5.955
REMARK INTER:                  -5.590
REMARK INTRA:                  -0.366
REMARK UNBOUND:                -0.281
REMARK SMILES C=CC(=O)CCCCC
REMARK SMILES IDX 6 1 7 2 8 3 9 4 5 5 3 6 4 7 2 8 1 9
REMARK H PARENT
REMARK Flexibility Score: inf
ROOT
ATOM      1  C   UNL     1      31.375   7.037 107.984  1.00  0.00     0.008 C 
ENDROOT
BRANCH   1   2
ATOM      2  C   UNL     1      32.323   8.099 107.413  1.00  0.00     0.000 C 
BRANCH   2   3
ATOM      3  C   UNL     1      33.672   8.079 108.140  1.00  0.00    -0.003 C 
ATOM      4  C   UNL     1      34.674   9.013 107.468  1.00  0.00     0.004 C 
ENDBRANCH   2   3
ENDBRANCH   1   2
BRANCH   1   5
ATOM      5  C   UNL     1      32.116   5.724 108.253  1.00  0.00     0.080 C 
BRANCH   5   6
ATOM      6  C   UNL     1      32.015   4.809 107.070  1.00  0.00     0.155 C 
ATOM      7  O   UNL     1      30.974   4.831 106.358  1.00  0.00    -0.295 OA
BRANCH   6   8
ATOM      8  C   UNL     1      33.145   3.925 106.720  1.00  0.00     0.039 C 
ATOM      9  C   UNL     1      34.305   3.958 107.372  1.00  0.00     0.012 C 
ENDBRANCH   6   8
ENDBRANCH   5   6
ENDBRANCH   1   5
TORSDOF 5
ENDMDL
MODEL 8
REMARK VINA RESULT:    -4.317      2.108      3.708
REMARK INTER + INTRA:          -5.860
REMARK INTER:                  -5.526
REMARK INTRA:                  -0.334
REMARK UNBOUND:                -0.281
REMARK SMILES C=CC(=O)CCCCC
REMARK SMILES IDX 6 1 7 2 8 3 9 4 5 5 3 6 4 7 2 8 1 9
REMARK H PARENT
REMARK Flexibility Score: inf
ROOT
ATOM      1  C   UNL     1      32.457   6.146 108.245  1.00  0.00     0.008 C 
ENDROOT
BRANCH   1   2
ATOM      2  C   UNL     1      33.429   7.248 108.683  1.00  0.00     0.000 C 
BRANCH   2   3
ATOM      3  C   UNL     1      33.401   8.427 107.705  1.00  0.00    -0.003 C 
ATOM      4  C   UNL     1      34.778   9.073 107.580  1.00  0.00     0.004 C 
ENDBRANCH   2   3
ENDBRANCH   1   2
BRANCH   1   5
ATOM      5  C   UNL     1      31.227   6.740 107.553  1.00  0.00     0.080 C 
BRANCH   5   6
ATOM      6  C   UNL     1      31.053   6.146 106.187  1.00  0.00     0.155 C 
ATOM      7  O   UNL     1      31.257   4.913 106.018  1.00  0.00    -0.295 OA
BRANCH   6   8
ATOM      8  C   UNL     1      30.602   6.993 105.065  1.00  0.00     0.039 C 
ATOM      9  C   UNL     1      30.868   8.296 105.002  1.00  0.00     0.012 C 
ENDBRANCH   6   8
ENDBRANCH   5   6
ENDBRANCH   1   5
TORSDOF 5
ENDMDL
MODEL 9
REMARK VINA RESULT:    -4.003      2.003      3.588
REMARK INTER + INTRA:          -5.454
REMARK INTER:                  -5.107
REMARK INTRA:                  -0.347
REMARK UNBOUND:                -0.281
REMARK SMILES C=CC(=O)CCCCC
REMARK SMILES IDX 6 1 7 2 8 3 9 4 5 5 3 6 4 7 2 8 1 9
REMARK H PARENT
REMARK Flexibility Score: inf
ROOT
ATOM      1  C   UNL     1      33.077   5.313 107.742  1.00  0.00     0.008 C 
ENDROOT
BRANCH   1   2
ATOM      2  C   UNL     1      31.681   4.822 107.339  1.00  0.00     0.000 C 
BRANCH   2   3
ATOM      3  C   UNL     1      31.408   5.097 105.856  1.00  0.00    -0.003 C 
ATOM      4  C   UNL     1      30.730   6.451 105.663  1.00  0.00     0.004 C 
ENDBRANCH   2   3
ENDBRANCH   1   2
BRANCH   1   5
ATOM      5  C   UNL     1      32.996   6.317 108.895  1.00  0.00     0.080 C 
BRANCH   5   6
ATOM      6  C   UNL     1      32.943   7.720 108.370  1.00  0.00     0.155 C 
ATOM      7  O   UNL     1      31.826   8.296 108.254  1.00  0.00    -0.295 OA
BRANCH   6   8
ATOM      8  C   UNL     1      34.193   8.432 108.035  1.00  0.00     0.039 C 
ATOM      9  C   UNL     1      34.302   9.221 106.969  1.00  0.00     0.012 C 
ENDBRANCH   6   8
ENDBRANCH   5   6
ENDBRANCH   1   5
TORSDOF 5
ENDMDL
