MODEL 1
REMARK VINA RESULT:    -4.152      0.000      0.000
REMARK INTER + INTRA:          -5.376
REMARK INTER:                  -5.123
REMARK INTRA:                  -0.253
REMARK UNBOUND:                -0.253
REMARK SMILES CCCCCC(=O)[O-]
REMARK SMILES IDX 4 1 5 2 6 3 7 4 8 5 3 6 2 7 1 8
REMARK H PARENT
REMARK Flexibility Score: inf
ROOT
ATOM      1  C   UNL     1      52.168  53.721  21.467  1.00  0.00     0.006 C 
ENDROOT
BRANCH   1   2
ATOM      2  C   UNL     1      52.850  54.434  22.642  1.00  0.00     0.053 C 
BRANCH   2   3
ATOM      3  C   UNL     1      52.530  53.741  23.929  1.00  0.00     0.041 C 
ATOM      4  O   UNL     1      51.385  53.849  24.439  1.00  0.00    -0.550 OA
ATOM      5  O   UNL     1      53.514  53.019  24.592  1.00  0.00    -0.550 OA
ENDBRANCH   2   3
ENDBRANCH   1   2
BRANCH   1   6
ATOM      6  C   UNL     1      52.755  52.325  21.191  1.00  0.00     0.000 C 
BRANCH   6   7
ATOM      7  C   UNL     1      51.716  51.193  21.101  1.00  0.00    -0.003 C 
ATOM      8  C   UNL     1      50.355  51.583  21.678  1.00  0.00     0.004 C 
ENDBRANCH   6   7
ENDBRANCH   1   6
TORSDOF 4
ENDMDL
MODEL 2
REMARK VINA RESULT:    -4.115      2.320      3.646
REMARK INTER + INTRA:          -5.330
REMARK INTER:                  -5.212
REMARK INTRA:                  -0.118
REMARK UNBOUND:                -0.253
REMARK SMILES CCCCCC(=O)[O-]
REMARK SMILES IDX 4 1 5 2 6 3 7 4 8 5 3 6 2 7 1 8
REMARK H PARENT
REMARK Flexibility Score: inf
ROOT
ATOM      1  C   UNL     1      53.217  52.903  22.557  1.00  0.00     0.006 C 
ENDROOT
BRANCH   1   2
ATOM      2  C   UNL     1      52.704  52.206  21.291  1.00  0.00     0.053 C 
BRANCH   2   3
ATOM      3  C   UNL     1      51.453  51.441  21.585  1.00  0.00     0.041 C 
ATOM      4  O   UNL     1      50.833  50.859  20.657  1.00  0.00    -0.550 OA
ATOM      5  O   UNL     1      50.943  51.414  22.877  1.00  0.00    -0.550 OA
ENDBRANCH   2   3
ENDBRANCH   1   2
BRANCH   1   6
ATOM      6  C   UNL     1      52.906  54.410  22.580  1.00  0.00     0.000 C 
BRANCH   6   7
ATOM      7  C   UNL     1      52.176  54.939  21.332  1.00  0.00    -0.003 C 
ATOM      8  C   UNL     1      52.576  56.368  20.966  1.00  0.00     0.004 C 
ENDBRANCH   6   7
ENDBRANCH   1   6
TORSDOF 4
ENDMDL
MODEL 3
REMARK VINA RESULT:    -4.011      1.822      3.559
REMARK INTER + INTRA:          -5.202
REMARK INTER:                  -4.969
REMARK INTRA:                  -0.233
REMARK UNBOUND:                -0.253
REMARK SMILES CCCCCC(=O)[O-]
REMARK SMILES IDX 4 1 5 2 6 3 7 4 8 5 3 6 2 7 1 8
REMARK H PARENT
REMARK Flexibility Score: inf
ROOT
ATOM      1  C   UNL     1      52.611  52.189  21.270  1.00  0.00     0.006 C 
ENDROOT
BRANCH   1   2
ATOM      2  C   UNL     1      51.389  51.291  21.042  1.00  0.00     0.053 C 
BRANCH   2   3
ATOM      3  C   UNL     1      50.367  51.519  22.110  1.00  0.00     0.041 C 
ATOM      4  O   UNL     1      50.611  51.188  23.301  1.00  0.00    -0.550 OA
ATOM      5  O   UNL     1      49.126  52.049  21.784  1.00  0.00    -0.550 OA
ENDBRANCH   2   3
ENDBRANCH   1   2
BRANCH   1   6
ATOM      6  C   UNL     1      52.237  53.665  21.495  1.00  0.00     0.000 C 
BRANCH   6   7
ATOM      7  C   UNL     1      52.946  54.337  22.685  1.00  0.00    -0.003 C 
ATOM      8  C   UNL     1      53.754  53.354  23.533  1.00  0.00     0.004 C 
ENDBRANCH   6   7
ENDBRANCH   1   6
TORSDOF 4
ENDMDL
MODEL 4
REMARK VINA RESULT:    -4.008      1.101      1.850
REMARK INTER + INTRA:          -5.198
REMARK INTER:                  -5.094
REMARK INTRA:                  -0.104
REMARK UNBOUND:                -0.253
REMARK SMILES CCCCCC(=O)[O-]
REMARK SMILES IDX 4 1 5 2 6 3 7 4 8 5 3 6 2 7 1 8
REMARK H PARENT
REMARK Flexibility Score: inf
ROOT
ATOM      1  C   UNL     1      52.730  52.164  21.286  1.00  0.00     0.006 C 
ENDROOT
BRANCH   1   2
ATOM      2  C   UNL     1      52.299  53.503  21.898  1.00  0.00     0.053 C 
BRANCH   2   3
ATOM      3  C   UNL     1      52.965  53.712  23.221  1.00  0.00     0.041 C 
ATOM      4  O   UNL     1      54.123  53.263  23.425  1.00  0.00    -0.550 OA
ATOM      5  O   UNL     1      52.287  54.358  24.246  1.00  0.00    -0.550 OA
ENDBRANCH   2   3
ENDBRANCH   1   2
BRANCH   1   6
ATOM      6  C   UNL     1      51.548  51.211  21.035  1.00  0.00     0.000 C 
BRANCH   6   7
ATOM      7  C   UNL     1      50.743  50.835  22.291  1.00  0.00    -0.003 C 
ATOM      8  C   UNL     1      50.014  49.498  22.156  1.00  0.00     0.004 C 
ENDBRANCH   6   7
ENDBRANCH   1   6
TORSDOF 4
ENDMDL
MODEL 5
REMARK VINA RESULT:    -3.979      2.219      3.617
REMARK INTER + INTRA:          -5.163
REMARK INTER:                  -5.020
REMARK INTRA:                  -0.142
REMARK UNBOUND:                -0.253
REMARK SMILES CCCCCC(=O)[O-]
REMARK SMILES IDX 4 1 5 2 6 3 7 4 8 5 3 6 2 7 1 8
REMARK H PARENT
REMARK Flexibility Score: inf
ROOT
ATOM      1  C   UNL     1      52.512  52.135  21.347  1.00  0.00     0.006 C 
ENDROOT
BRANCH   1   2
ATOM      2  C   UNL     1      51.297  51.281  20.964  1.00  0.00     0.053 C 
BRANCH   2   3
ATOM      3  C   UNL     1      50.741  50.593  22.170  1.00  0.00     0.041 C 
ATOM      4  O   UNL     1      50.320  51.268  23.146  1.00  0.00    -0.550 OA
ATOM      5  O   UNL     1      50.734  49.206  22.238  1.00  0.00    -0.550 OA
ENDBRANCH   2   3
ENDBRANCH   1   2
BRANCH   1   6
ATOM      6  C   UNL     1      52.168  53.626  21.514  1.00  0.00     0.000 C 
BRANCH   6   7
ATOM      7  C   UNL     1      52.914  54.338  22.656  1.00  0.00    -0.003 C 
ATOM      8  C   UNL     1      53.604  53.369  23.615  1.00  0.00     0.004 C 
ENDBRANCH   6   7
ENDBRANCH   1   6
TORSDOF 4
ENDMDL
MODEL 6
REMARK VINA RESULT:    -3.872      1.203      1.903
REMARK INTER + INTRA:          -5.030
REMARK INTER:                  -4.833
REMARK INTRA:                  -0.198
REMARK UNBOUND:                -0.253
REMARK SMILES CCCCCC(=O)[O-]
REMARK SMILES IDX 4 1 5 2 6 3 7 4 8 5 3 6 2 7 1 8
REMARK H PARENT
REMARK Flexibility Score: inf
ROOT
ATOM      1  C   UNL     1      50.486  53.106  22.844  1.00  0.00     0.006 C 
ENDROOT
BRANCH   1   2
ATOM      2  C   UNL     1      51.028  53.590  24.195  1.00  0.00     0.053 C 
BRANCH   2   3
ATOM      3  C   UNL     1      52.502  53.830  24.111  1.00  0.00     0.041 C 
ATOM      4  O   UNL     1      52.947  54.828  23.485  1.00  0.00    -0.550 OA
ATOM      5  O   UNL     1      53.387  52.924  24.680  1.00  0.00    -0.550 OA
ENDBRANCH   2   3
ENDBRANCH   1   2
BRANCH   1   6
ATOM      6  C   UNL     1      50.834  51.635  22.552  1.00  0.00     0.000 C 
BRANCH   6   7
ATOM      7  C   UNL     1      51.525  51.391  21.199  1.00  0.00    -0.003 C 
ATOM      8  C   UNL     1      52.860  52.125  21.068  1.00  0.00     0.004 C 
ENDBRANCH   6   7
ENDBRANCH   1   6
TORSDOF 4
ENDMDL
MODEL 7
REMARK VINA RESULT:    -3.766      2.065      2.883
REMARK INTER + INTRA:          -4.899
REMARK INTER:                  -4.846
REMARK INTRA:                  -0.054
REMARK UNBOUND:                -0.253
REMARK SMILES CCCCCC(=O)[O-]
REMARK SMILES IDX 4 1 5 2 6 3 7 4 8 5 3 6 2 7 1 8
REMARK H PARENT
REMARK Flexibility Score: inf
ROOT
ATOM      1  C   UNL     1      51.042  51.687  21.467  1.00  0.00     0.006 C 
ENDROOT
BRANCH   1   2
ATOM      2  C   UNL     1      52.502  52.153  21.413  1.00  0.00     0.053 C 
BRANCH   2   3
ATOM      3  C   UNL     1      52.628  53.540  21.959  1.00  0.00     0.041 C 
ATOM      4  O   UNL     1      53.352  53.761  22.965  1.00  0.00    -0.550 OA
ATOM      5  O   UNL     1      51.906  54.580  21.389  1.00  0.00    -0.550 OA
ENDBRANCH   2   3
ENDBRANCH   1   2
BRANCH   1   6
ATOM      6  C   UNL     1      50.904  50.156  21.540  1.00  0.00     0.000 C 
BRANCH   6   7
ATOM      7  C   UNL     1      49.930  49.644  22.617  1.00  0.00    -0.003 C 
ATOM      8  C   UNL     1      50.454  48.416  23.361  1.00  0.00     0.004 C 
ENDBRANCH   6   7
ENDBRANCH   1   6
TORSDOF 4
ENDMDL
MODEL 8
REMARK VINA RESULT:    -3.750      1.586      2.087
REMARK INTER + INTRA:          -4.880
REMARK INTER:                  -4.701
REMARK INTRA:                  -0.179
REMARK UNBOUND:                -0.253
REMARK SMILES CCCCCC(=O)[O-]
REMARK SMILES IDX 4 1 5 2 6 3 7 4 8 5 3 6 2 7 1 8
REMARK H PARENT
REMARK Flexibility Score: inf
ROOT
ATOM      1  C   UNL     1      51.856  52.337  21.823  1.00  0.00     0.006 C 
ENDROOT
BRANCH   1   2
ATOM      2  C   UNL     1      50.588  53.101  22.227  1.00  0.00     0.053 C 
BRANCH   2   3
ATOM      3  C   UNL     1      50.542  53.290  23.710  1.00  0.00     0.041 C 
ATOM      4  O   UNL     1      49.563  52.858  24.373  1.00  0.00    -0.550 OA
ATOM      5  O   UNL     1      51.555  53.988  24.353  1.00  0.00    -0.550 OA
ENDBRANCH   2   3
ENDBRANCH   1   2
BRANCH   1   6
ATOM      6  C   UNL     1      51.553  51.017  21.091  1.00  0.00     0.000 C 
BRANCH   6   7
ATOM      7  C   UNL     1      50.223  50.350  21.485  1.00  0.00    -0.003 C 
ATOM      8  C   UNL     1      50.386  49.289  22.574  1.00  0.00     0.004 C 
ENDBRANCH   6   7
ENDBRANCH   1   6
TORSDOF 4
ENDMDL
MODEL 9
REMARK VINA RESULT:    -3.739      2.045      2.558
REMARK INTER + INTRA:          -4.866
REMARK INTER:                  -4.714
REMARK INTRA:                  -0.153
REMARK UNBOUND:                -0.253
REMARK SMILES CCCCCC(=O)[O-]
REMARK SMILES IDX 4 1 5 2 6 3 7 4 8 5 3 6 2 7 1 8
REMARK H PARENT
REMARK Flexibility Score: inf
ROOT
ATOM      1  C   UNL     1      50.864  53.552  22.205  1.00  0.00     0.006 C 
ENDROOT
BRANCH   1   2
ATOM      2  C   UNL     1      50.897  53.538  23.738  1.00  0.00     0.053 C 
BRANCH   2   3
ATOM      3  C   UNL     1      49.677  52.864  24.280  1.00  0.00     0.041 C 
ATOM      4  O   UNL     1      49.062  52.012  23.586  1.00  0.00    -0.550 OA
ATOM      5  O   UNL     1      49.189  53.212  25.533  1.00  0.00    -0.550 OA
ENDBRANCH   2   3
ENDBRANCH   1   2
BRANCH   1   6
ATOM      6  C   UNL     1      52.269  53.528  21.575  1.00  0.00     0.000 C 
BRANCH   6   7
ATOM      7  C   UNL     1      52.769  52.132  21.163  1.00  0.00    -0.003 C 
ATOM      8  C   UNL     1      51.650  51.092  21.094  1.00  0.00     0.004 C 
ENDBRANCH   6   7
ENDBRANCH   1   6
TORSDOF 4
ENDMDL
