MODEL 1
REMARK VINA RESULT:    -4.032      0.000      0.000
REMARK INTER + INTRA:          -5.169
REMARK INTER:                  -4.975
REMARK INTRA:                  -0.194
REMARK UNBOUND:                -0.194
REMARK SMILES [NH3+][C@H](Cc1ccc(O)cc1)C(=O)[O-]
REMARK SMILES IDX 3 1 2 2 1 3 11 7 12 8 13 9 4 10 5 11 10 12 6 13 9 14 7 15
REMARK SMILES IDX 8 16
REMARK H PARENT 1 4 1 5 1 6 8 17
REMARK Flexibility Score: inf
ROOT
ATOM      1  C   UNL     1      14.563  -7.154  24.267  1.00  0.00     0.107 C 
ENDROOT
BRANCH   1   2
ATOM      2  C   UNL     1      13.843  -6.072  25.100  1.00  0.00     0.232 C 
BRANCH   2   3
ATOM      3  N   UNL     1      14.530  -5.828  26.375  1.00  0.00    -0.350 N 
ATOM      4  H   UNL     1      13.972  -5.183  26.980  1.00  0.00     0.345 HD
ATOM      5  H   UNL     1      14.673  -6.732  26.879  1.00  0.00     0.345 HD
ATOM      6  H   UNL     1      15.472  -5.407  26.199  1.00  0.00     0.345 HD
ENDBRANCH   2   3
BRANCH   2   7
ATOM      7  C   UNL     1      13.759  -4.796  24.305  1.00  0.00     0.099 C 
ATOM      8  O   UNL     1      12.638  -4.330  23.971  1.00  0.00    -0.544 OA
ATOM      9  O   UNL     1      14.919  -4.135  23.917  1.00  0.00    -0.544 OA
ENDBRANCH   2   7
ENDBRANCH   1   2
BRANCH   1  10
ATOM     10  C   UNL     1      13.592  -8.131  23.655  1.00  0.00    -0.041 A 
ATOM     11  C   UNL     1      12.214  -8.017  23.904  1.00  0.00     0.008 A 
ATOM     12  C   UNL     1      14.055  -9.145  22.800  1.00  0.00     0.008 A 
ATOM     13  C   UNL     1      11.315  -8.912  23.315  1.00  0.00     0.046 A 
ATOM     14  C   UNL     1      13.154 -10.039  22.212  1.00  0.00     0.046 A 
ATOM     15  C   UNL     1      11.783  -9.925  22.468  1.00  0.00     0.115 A 
BRANCH  15  16
ATOM     16  O   UNL     1      10.898 -10.821  21.875  1.00  0.00    -0.508 OA
ATOM     17  H   UNL     1      11.194 -11.448  21.135  1.00  0.00     0.293 HD
ENDBRANCH  15  16
ENDBRANCH   1  10
TORSDOF 5
ENDMDL
MODEL 2
REMARK VINA RESULT:    -3.805      1.588      2.474
REMARK INTER + INTRA:          -4.889
REMARK INTER:                  -4.695
REMARK INTRA:                  -0.193
REMARK UNBOUND:                -0.194
REMARK SMILES [NH3+][C@H](Cc1ccc(O)cc1)C(=O)[O-]
REMARK SMILES IDX 3 1 2 2 1 3 11 7 12 8 13 9 4 10 5 11 10 12 6 13 9 14 7 15
REMARK SMILES IDX 8 16
REMARK H PARENT 1 4 1 5 1 6 8 17
REMARK Flexibility Score: inf
ROOT
ATOM      1  C   UNL     1      13.201  -8.171  23.457  1.00  0.00     0.107 C 
ENDROOT
BRANCH   1   2
ATOM      2  C   UNL     1      13.284  -7.218  24.669  1.00  0.00     0.232 C 
BRANCH   2   3
ATOM      3  N   UNL     1      14.324  -7.641  25.616  1.00  0.00    -0.350 N 
ATOM      4  H   UNL     1      15.227  -7.150  25.419  1.00  0.00     0.345 HD
ATOM      5  H   UNL     1      14.023  -7.425  26.593  1.00  0.00     0.345 HD
ATOM      6  H   UNL     1      14.472  -8.674  25.548  1.00  0.00     0.345 HD
ENDBRANCH   2   3
BRANCH   2   7
ATOM      7  C   UNL     1      13.557  -5.817  24.191  1.00  0.00     0.099 C 
ATOM      8  O   UNL     1      14.727  -5.352  24.230  1.00  0.00    -0.544 OA
ATOM      9  O   UNL     1      12.518  -5.020  23.725  1.00  0.00    -0.544 OA
ENDBRANCH   2   7
ENDBRANCH   1   2
BRANCH   1  10
ATOM     10  C   UNL     1      11.944  -9.000  23.478  1.00  0.00    -0.041 A 
ATOM     11  C   UNL     1      11.590  -9.787  22.369  1.00  0.00     0.008 A 
ATOM     12  C   UNL     1      11.131  -9.023  24.624  1.00  0.00     0.008 A 
ATOM     13  C   UNL     1      10.434 -10.573  22.401  1.00  0.00     0.046 A 
ATOM     14  C   UNL     1       9.975  -9.809  24.654  1.00  0.00     0.046 A 
ATOM     15  C   UNL     1       9.623 -10.586  23.545  1.00  0.00     0.115 A 
BRANCH  15  16
ATOM     16  O   UNL     1       8.470 -11.365  23.589  1.00  0.00    -0.508 OA
ATOM     17  H   UNL     1       7.560 -10.978  23.369  1.00  0.00     0.293 HD
ENDBRANCH  15  16
ENDBRANCH   1  10
TORSDOF 5
ENDMDL
MODEL 3
REMARK VINA RESULT:    -3.704      1.753      2.035
REMARK INTER + INTRA:          -4.764
REMARK INTER:                  -4.535
REMARK INTRA:                  -0.229
REMARK UNBOUND:                -0.194
REMARK SMILES [NH3+][C@H](Cc1ccc(O)cc1)C(=O)[O-]
REMARK SMILES IDX 3 1 2 2 1 3 11 7 12 8 13 9 4 10 5 11 10 12 6 13 9 14 7 15
REMARK SMILES IDX 8 16
REMARK H PARENT 1 4 1 5 1 6 8 17
REMARK Flexibility Score: inf
ROOT
ATOM      1  C   UNL     1      14.065  -7.175  24.118  1.00  0.00     0.107 C 
ENDROOT
BRANCH   1   2
ATOM      2  C   UNL     1      14.163  -5.941  25.039  1.00  0.00     0.232 C 
BRANCH   2   3
ATOM      3  N   UNL     1      15.526  -5.766  25.561  1.00  0.00    -0.350 N 
ATOM      4  H   UNL     1      15.514  -5.228  26.457  1.00  0.00     0.345 HD
ATOM      5  H   UNL     1      15.964  -6.701  25.728  1.00  0.00     0.345 HD
ATOM      6  H   UNL     1      16.114  -5.258  24.862  1.00  0.00     0.345 HD
ENDBRANCH   2   3
BRANCH   2   7
ATOM      7  C   UNL     1      13.738  -4.711  24.282  1.00  0.00     0.099 C 
ATOM      8  O   UNL     1      12.564  -4.616  23.837  1.00  0.00    -0.544 OA
ATOM      9  O   UNL     1      14.643  -3.682  24.051  1.00  0.00    -0.544 OA
ENDBRANCH   2   7
ENDBRANCH   1   2
BRANCH   1  10
ATOM     10  C   UNL     1      12.973  -8.118  24.555  1.00  0.00    -0.041 A 
ATOM     11  C   UNL     1      11.731  -8.124  23.898  1.00  0.00     0.008 A 
ATOM     12  C   UNL     1      13.201  -9.025  25.603  1.00  0.00     0.008 A 
ATOM     13  C   UNL     1      10.730  -9.016  24.292  1.00  0.00     0.046 A 
ATOM     14  C   UNL     1      12.198  -9.917  25.996  1.00  0.00     0.046 A 
ATOM     15  C   UNL     1      10.961  -9.915  25.342  1.00  0.00     0.115 A 
BRANCH  15  16
ATOM     16  O   UNL     1       9.971 -10.809  25.743  1.00  0.00    -0.508 OA
ATOM     17  H   UNL     1       9.973 -11.775  25.434  1.00  0.00     0.293 HD
ENDBRANCH  15  16
ENDBRANCH   1  10
TORSDOF 5
ENDMDL
MODEL 4
REMARK VINA RESULT:    -3.704      2.462      5.431
REMARK INTER + INTRA:          -4.763
REMARK INTER:                  -4.532
REMARK INTRA:                  -0.231
REMARK UNBOUND:                -0.194
REMARK SMILES [NH3+][C@H](Cc1ccc(O)cc1)C(=O)[O-]
REMARK SMILES IDX 3 1 2 2 1 3 11 7 12 8 13 9 4 10 5 11 10 12 6 13 9 14 7 15
REMARK SMILES IDX 8 16
REMARK H PARENT 1 4 1 5 1 6 8 17
REMARK Flexibility Score: inf
ROOT
ATOM      1  C   UNL     1      12.757  -9.116  23.316  1.00  0.00     0.107 C 
ENDROOT
BRANCH   1   2
ATOM      2  C   UNL     1      11.228  -9.030  23.120  1.00  0.00     0.232 C 
BRANCH   2   3
ATOM      3  N   UNL     1      10.822  -9.577  21.818  1.00  0.00    -0.350 N 
ATOM      4  H   UNL     1       9.861  -9.252  21.562  1.00  0.00     0.345 HD
ATOM      5  H   UNL     1      11.495  -9.272  21.079  1.00  0.00     0.345 HD
ATOM      6  H   UNL     1      10.834 -10.623  21.850  1.00  0.00     0.345 HD
ENDBRANCH   2   3
BRANCH   2   7
ATOM      7  C   UNL     1      10.534  -9.771  24.231  1.00  0.00     0.099 C 
ATOM      8  O   UNL     1      11.070  -9.855  25.368  1.00  0.00    -0.544 OA
ATOM      9  O   UNL     1       9.308 -10.385  24.006  1.00  0.00    -0.544 OA
ENDBRANCH   2   7
ENDBRANCH   1   2
BRANCH   1  10
ATOM     10  C   UNL     1      13.354  -7.778  23.668  1.00  0.00    -0.041 A 
ATOM     11  C   UNL     1      14.739  -7.648  23.869  1.00  0.00     0.008 A 
ATOM     12  C   UNL     1      12.535  -6.641  23.762  1.00  0.00     0.008 A 
ATOM     13  C   UNL     1      15.292  -6.399  24.172  1.00  0.00     0.046 A 
ATOM     14  C   UNL     1      13.091  -5.394  24.066  1.00  0.00     0.046 A 
ATOM     15  C   UNL     1      14.469  -5.269  24.272  1.00  0.00     0.115 A 
BRANCH  15  16
ATOM     16  O   UNL     1      15.009  -4.021  24.572  1.00  0.00    -0.508 OA
ATOM     17  H   UNL     1      15.986  -3.912  24.819  1.00  0.00     0.293 HD
ENDBRANCH  15  16
ENDBRANCH   1  10
TORSDOF 5
ENDMDL
MODEL 5
REMARK VINA RESULT:    -3.658     10.307     11.737
REMARK INTER + INTRA:          -4.707
REMARK INTER:                  -4.477
REMARK INTRA:                  -0.231
REMARK UNBOUND:                -0.194
REMARK SMILES [NH3+][C@H](Cc1ccc(O)cc1)C(=O)[O-]
REMARK SMILES IDX 3 1 2 2 1 3 11 7 12 8 13 9 4 10 5 11 10 12 6 13 9 14 7 15
REMARK SMILES IDX 8 16
REMARK H PARENT 1 4 1 5 1 6 8 17
REMARK Flexibility Score: inf
ROOT
ATOM      1  C   UNL     1       5.854  -4.356  16.571  1.00  0.00     0.107 C 
ENDROOT
BRANCH   1   2
ATOM      2  C   UNL     1       4.689  -3.686  15.812  1.00  0.00     0.232 C 
BRANCH   2   3
ATOM      3  N   UNL     1       5.007  -3.503  14.389  1.00  0.00    -0.350 N 
ATOM      4  H   UNL     1       4.782  -2.530  14.081  1.00  0.00     0.345 HD
ATOM      5  H   UNL     1       6.023  -3.688  14.227  1.00  0.00     0.345 HD
ATOM      6  H   UNL     1       4.462  -4.183  13.810  1.00  0.00     0.345 HD
ENDBRANCH   2   3
BRANCH   2   7
ATOM      7  C   UNL     1       3.445  -4.520  15.960  1.00  0.00     0.099 C 
ATOM      8  O   UNL     1       2.876  -4.996  14.942  1.00  0.00    -0.544 OA
ATOM      9  O   UNL     1       2.902  -4.753  17.218  1.00  0.00    -0.544 OA
ENDBRANCH   2   7
ENDBRANCH   1   2
BRANCH   1  10
ATOM     10  C   UNL     1       6.213  -3.606  17.827  1.00  0.00    -0.041 A 
ATOM     11  C   UNL     1       6.845  -2.354  17.753  1.00  0.00     0.008 A 
ATOM     12  C   UNL     1       5.884  -4.137  19.085  1.00  0.00     0.008 A 
ATOM     13  C   UNL     1       7.155  -1.650  18.922  1.00  0.00     0.046 A 
ATOM     14  C   UNL     1       6.194  -3.432  20.253  1.00  0.00     0.046 A 
ATOM     15  C   UNL     1       6.830  -2.188  20.175  1.00  0.00     0.115 A 
BRANCH  15  16
ATOM     16  O   UNL     1       7.133  -1.497  21.345  1.00  0.00    -0.508 OA
ATOM     17  H   UNL     1       6.465  -0.868  21.776  1.00  0.00     0.293 HD
ENDBRANCH  15  16
ENDBRANCH   1  10
TORSDOF 5
ENDMDL
MODEL 6
REMARK VINA RESULT:    -3.656      9.844     10.477
REMARK INTER + INTRA:          -4.704
REMARK INTER:                  -4.522
REMARK INTRA:                  -0.182
REMARK UNBOUND:                -0.194
REMARK SMILES [NH3+][C@H](Cc1ccc(O)cc1)C(=O)[O-]
REMARK SMILES IDX 3 1 2 2 1 3 11 7 12 8 13 9 4 10 5 11 10 12 6 13 9 14 7 15
REMARK SMILES IDX 8 16
REMARK H PARENT 1 4 1 5 1 6 8 17
REMARK Flexibility Score: inf
ROOT
ATOM      1  C   UNL     1       7.098  -2.321  19.384  1.00  0.00     0.107 C 
ENDROOT
BRANCH   1   2
ATOM      2  C   UNL     1       6.023  -2.104  20.469  1.00  0.00     0.232 C 
BRANCH   2   3
ATOM      3  N   UNL     1       5.875  -3.288  21.325  1.00  0.00    -0.350 N 
ATOM      4  H   UNL     1       5.263  -3.079  22.147  1.00  0.00     0.345 HD
ATOM      5  H   UNL     1       5.456  -4.073  20.776  1.00  0.00     0.345 HD
ATOM      6  H   UNL     1       6.813  -3.603  21.666  1.00  0.00     0.345 HD
ENDBRANCH   2   3
BRANCH   2   7
ATOM      7  C   UNL     1       6.383  -0.904  21.304  1.00  0.00     0.099 C 
ATOM      8  O   UNL     1       7.114   0.004  20.826  1.00  0.00    -0.544 OA
ATOM      9  O   UNL     1       5.930  -0.800  22.613  1.00  0.00    -0.544 OA
ENDBRANCH   2   7
ENDBRANCH   1   2
BRANCH   1  10
ATOM     10  C   UNL     1       6.489  -2.648  18.045  1.00  0.00    -0.041 A 
ATOM     11  C   UNL     1       6.362  -1.655  17.059  1.00  0.00     0.008 A 
ATOM     12  C   UNL     1       6.074  -3.959  17.758  1.00  0.00     0.008 A 
ATOM     13  C   UNL     1       5.816  -1.968  15.809  1.00  0.00     0.046 A 
ATOM     14  C   UNL     1       5.529  -4.270  16.509  1.00  0.00     0.046 A 
ATOM     15  C   UNL     1       5.398  -3.277  15.531  1.00  0.00     0.115 A 
BRANCH  15  16
ATOM     16  O   UNL     1       4.855  -3.601  14.291  1.00  0.00    -0.508 OA
ATOM     17  H   UNL     1       4.000  -3.170  13.958  1.00  0.00     0.293 HD
ENDBRANCH  15  16
ENDBRANCH   1  10
TORSDOF 5
ENDMDL
MODEL 7
REMARK VINA RESULT:    -3.604      2.357      5.589
REMARK INTER + INTRA:          -4.640
REMARK INTER:                  -4.506
REMARK INTRA:                  -0.134
REMARK UNBOUND:                -0.194
REMARK SMILES [NH3+][C@H](Cc1ccc(O)cc1)C(=O)[O-]
REMARK SMILES IDX 3 1 2 2 1 3 11 7 12 8 13 9 4 10 5 11 10 12 6 13 9 14 7 15
REMARK SMILES IDX 8 16
REMARK H PARENT 1 4 1 5 1 6 8 17
REMARK Flexibility Score: inf
ROOT
ATOM      1  C   UNL     1      11.532  -9.514  24.187  1.00  0.00     0.107 C 
ENDROOT
BRANCH   1   2
ATOM      2  C   UNL     1      11.089  -9.635  22.714  1.00  0.00     0.232 C 
BRANCH   2   3
ATOM      3  N   UNL     1      12.200 -10.055  21.850  1.00  0.00    -0.350 N 
ATOM      4  H   UNL     1      12.297  -9.412  21.031  1.00  0.00     0.345 HD
ATOM      5  H   UNL     1      13.093 -10.054  22.395  1.00  0.00     0.345 HD
ATOM      6  H   UNL     1      12.038 -11.029  21.505  1.00  0.00     0.345 HD
ENDBRANCH   2   3
BRANCH   2   7
ATOM      7  C   UNL     1       9.952 -10.617  22.608  1.00  0.00     0.099 C 
ATOM      8  O   UNL     1       9.841 -11.349  21.588  1.00  0.00    -0.544 OA
ATOM      9  O   UNL     1       9.007 -10.708  23.623  1.00  0.00    -0.544 OA
ENDBRANCH   2   7
ENDBRANCH   1   2
BRANCH   1  10
ATOM     10  C   UNL     1      12.397  -8.302  24.416  1.00  0.00    -0.041 A 
ATOM     11  C   UNL     1      12.163  -7.114  23.703  1.00  0.00     0.008 A 
ATOM     12  C   UNL     1      13.425  -8.338  25.373  1.00  0.00     0.008 A 
ATOM     13  C   UNL     1      12.954  -5.985  23.936  1.00  0.00     0.046 A 
ATOM     14  C   UNL     1      14.215  -7.208  25.604  1.00  0.00     0.046 A 
ATOM     15  C   UNL     1      13.982  -6.029  24.887  1.00  0.00     0.115 A 
BRANCH  15  16
ATOM     16  O   UNL     1      14.775  -4.910  25.128  1.00  0.00    -0.508 OA
ATOM     17  H   UNL     1      14.591  -4.022  24.675  1.00  0.00     0.293 HD
ENDBRANCH  15  16
ENDBRANCH   1  10
TORSDOF 5
ENDMDL
MODEL 8
REMARK VINA RESULT:    -3.591      9.966     11.400
REMARK INTER + INTRA:          -4.625
REMARK INTER:                  -4.412
REMARK INTRA:                  -0.212
REMARK UNBOUND:                -0.194
REMARK SMILES [NH3+][C@H](Cc1ccc(O)cc1)C(=O)[O-]
REMARK SMILES IDX 3 1 2 2 1 3 11 7 12 8 13 9 4 10 5 11 10 12 6 13 9 14 7 15
REMARK SMILES IDX 8 16
REMARK H PARENT 1 4 1 5 1 6 8 17
REMARK Flexibility Score: inf
ROOT
ATOM      1  C   UNL     1      13.196 -11.401  12.643  1.00  0.00     0.107 C 
ENDROOT
BRANCH   1   2
ATOM      2  C   UNL     1      14.238 -11.510  13.777  1.00  0.00     0.232 C 
BRANCH   2   3
ATOM      3  N   UNL     1      15.584 -11.770  13.248  1.00  0.00    -0.350 N 
ATOM      4  H   UNL     1      15.534 -12.313  12.356  1.00  0.00     0.345 HD
ATOM      5  H   UNL     1      16.076 -10.865  13.072  1.00  0.00     0.345 HD
ATOM      6  H   UNL     1      16.145 -12.308  13.948  1.00  0.00     0.345 HD
ENDBRANCH   2   3
BRANCH   2   7
ATOM      7  C   UNL     1      14.237 -10.242  14.587  1.00  0.00     0.099 C 
ATOM      8  O   UNL     1      13.386 -10.075  15.501  1.00  0.00    -0.544 OA
ATOM      9  O   UNL     1      15.159  -9.238  14.319  1.00  0.00    -0.544 OA
ENDBRANCH   2   7
ENDBRANCH   1   2
BRANCH   1  10
ATOM     10  C   UNL     1      12.022 -12.319  12.868  1.00  0.00    -0.041 A 
ATOM     11  C   UNL     1      10.720 -11.799  12.963  1.00  0.00     0.008 A 
ATOM     12  C   UNL     1      12.216 -13.708  12.948  1.00  0.00     0.008 A 
ATOM     13  C   UNL     1       9.631 -12.657  13.149  1.00  0.00     0.046 A 
ATOM     14  C   UNL     1      11.126 -14.563  13.133  1.00  0.00     0.046 A 
ATOM     15  C   UNL     1       9.831 -14.041  13.234  1.00  0.00     0.115 A 
BRANCH  15  16
ATOM     16  O   UNL     1       8.755 -14.905  13.418  1.00  0.00    -0.508 OA
ATOM     17  H   UNL     1       8.591 -15.366  14.305  1.00  0.00     0.293 HD
ENDBRANCH  15  16
ENDBRANCH   1  10
TORSDOF 5
ENDMDL
MODEL 9
REMARK VINA RESULT:    -3.472     12.385     13.182
REMARK INTER + INTRA:          -4.478
REMARK INTER:                  -4.276
REMARK INTRA:                  -0.201
REMARK UNBOUND:                -0.194
REMARK SMILES [NH3+][C@H](Cc1ccc(O)cc1)C(=O)[O-]
REMARK SMILES IDX 3 1 2 2 1 3 11 7 12 8 13 9 4 10 5 11 10 12 6 13 9 14 7 15
REMARK SMILES IDX 8 16
REMARK H PARENT 1 4 1 5 1 6 8 17
REMARK Flexibility Score: inf
ROOT
ATOM      1  C   UNL     1       8.685 -14.468  13.565  1.00  0.00     0.107 C 
ENDROOT
BRANCH   1   2
ATOM      2  C   UNL     1       7.434 -13.616  13.263  1.00  0.00     0.232 C 
BRANCH   2   3
ATOM      3  N   UNL     1       6.489 -14.337  12.399  1.00  0.00    -0.350 N 
ATOM      4  H   UNL     1       6.959 -14.663  11.525  1.00  0.00     0.345 HD
ATOM      5  H   UNL     1       6.102 -15.164  12.909  1.00  0.00     0.345 HD
ATOM      6  H   UNL     1       5.687 -13.714  12.147  1.00  0.00     0.345 HD
ENDBRANCH   2   3
BRANCH   2   7
ATOM      7  C   UNL     1       6.763 -13.229  14.554  1.00  0.00     0.099 C 
ATOM      8  O   UNL     1       6.953 -12.087  15.048  1.00  0.00    -0.544 OA
ATOM      9  O   UNL     1       5.947 -14.136  15.219  1.00  0.00    -0.544 OA
ENDBRANCH   2   7
ENDBRANCH   1   2
BRANCH   1  10
ATOM     10  C   UNL     1       9.959 -13.730  13.242  1.00  0.00    -0.041 A 
ATOM     11  C   UNL     1       9.953 -12.333  13.085  1.00  0.00     0.008 A 
ATOM     12  C   UNL     1      11.172 -14.429  13.130  1.00  0.00     0.008 A 
ATOM     13  C   UNL     1      11.141 -11.650  12.808  1.00  0.00     0.046 A 
ATOM     14  C   UNL     1      12.359 -13.744  12.853  1.00  0.00     0.046 A 
ATOM     15  C   UNL     1      12.348 -12.354  12.692  1.00  0.00     0.115 A 
BRANCH  15  16
ATOM     16  O   UNL     1      13.537 -11.685  12.417  1.00  0.00    -0.508 OA
ATOM     17  H   UNL     1      13.542 -10.764  11.993  1.00  0.00     0.293 HD
ENDBRANCH  15  16
ENDBRANCH   1  10
TORSDOF 5
ENDMDL
