MODEL 1
REMARK VINA RESULT:    12.534      0.000      0.000
REMARK INTER + INTRA:          26.125
REMARK INTER:                  20.594
REMARK INTRA:                   5.531
REMARK UNBOUND:                 5.531
REMARK SMILES C[C@@H]1O[C@@H](OC[C@@H]2O[C@H](Oc3c(-c4ccc(O)c(O)c4)oc4cc(O)cc(O)c4c3=O)[C@H](O)[C@H](O)[C@@H]2O)[C@@H](O)[C@H](O)[C@H]1O
REMARK SMILES IDX 7 1 36 2 34 3 32 4 9 5 8 6 6 7 5 8 4 9 1 10 2 11 42 12 3 13
REMARK SMILES IDX 40 14 38 15 43 16 41 18 39 20 37 22 35 24 10 26 11 27 12 28
REMARK SMILES IDX 30 29 21 30 29 31 31 32 22 33 27 34 23 35 26 36 24 37 13 38
REMARK SMILES IDX 20 39 14 40 18 41 15 42 16 43 19 44 17 46 28 48 25 50 33 52
REMARK H PARENT 43 17 41 19 39 21 37 23 35 25 19 45 17 47 28 49 25 51 33 53
REMARK Flexibility Score: inf
ROOT
ATOM      1  C   UNL     1      28.677  39.528  25.556  1.00  0.00     0.180 C 
ATOM      2  C   UNL     1      27.792  40.470  24.679  1.00  0.00     0.177 C 
ATOM      3  C   UNL     1      26.758  41.217  25.533  1.00  0.00     0.180 C 
ATOM      4  C   UNL     1      26.118  40.228  26.517  1.00  0.00     0.214 C 
ATOM      5  C   UNL     1      27.211  39.677  27.468  1.00  0.00     0.339 C 
ATOM      6  O   UNL     1      28.545  39.766  26.960  1.00  0.00    -0.332 OA
ENDROOT
BRANCH   1   7
ATOM      7  C   UNL     1      28.591  38.019  25.225  1.00  0.00     0.198 C 
BRANCH   7   8
ATOM      8  O   UNL     1      29.485  37.731  24.154  1.00  0.00    -0.347 OA
BRANCH   8   9
ATOM      9  C   UNL     1      30.657  38.542  24.143  1.00  0.00     0.281 C 
ATOM     10  C   UNL     1      32.402  36.994  21.289  1.00  0.00     0.041 C 
ATOM     11  C   UNL     1      31.778  37.075  22.683  1.00  0.00     0.150 C 
ATOM     12  C   UNL     1      32.798  36.649  23.765  1.00  0.00     0.174 C 
ATOM     13  O   UNL     1      31.343  38.407  22.905  1.00  0.00    -0.344 OA
ATOM     14  C   UNL     1      32.166  36.771  25.161  1.00  0.00     0.179 C 
ATOM     15  C   UNL     1      31.573  38.181  25.336  1.00  0.00     0.202 C 
BRANCH  12  16
ATOM     16  O   UNL     1      33.213  35.324  23.538  1.00  0.00    -0.388 OA
ATOM     17  H   UNL     1      34.090  35.217  23.993  1.00  0.00     0.211 HD
ENDBRANCH  12  16
BRANCH  14  18
ATOM     18  O   UNL     1      33.148  36.541  26.141  1.00  0.00    -0.387 OA
ATOM     19  H   UNL     1      32.842  36.996  26.972  1.00  0.00     0.211 HD
ENDBRANCH  14  18
BRANCH  15  20
ATOM     20  O   UNL     1      30.852  38.240  26.541  1.00  0.00    -0.385 OA
ATOM     21  H   UNL     1      31.462  37.910  27.256  1.00  0.00     0.211 HD
ENDBRANCH  15  20
ENDBRANCH   8   9
ENDBRANCH   7   8
ENDBRANCH   1   7
BRANCH   2  22
ATOM     22  O   UNL     1      27.145  39.754  23.650  1.00  0.00    -0.387 OA
ATOM     23  H   UNL     1      27.848  39.372  23.066  1.00  0.00     0.211 HD
ENDBRANCH   2  22
BRANCH   3  24
ATOM     24  O   UNL     1      25.771  41.806  24.719  1.00  0.00    -0.387 OA
ATOM     25  H   UNL     1      26.167  42.627  24.319  1.00  0.00     0.211 HD
ENDBRANCH   3  24
BRANCH   5  26
ATOM     26  O   UNL     1      26.904  38.338  27.865  1.00  0.00    -0.454 OA
BRANCH  26  27
ATOM     27  C   UNL     1      27.711  37.243  27.534  1.00  0.00     0.214 A 
ATOM     28  C   UNL     1      28.929  37.011  28.200  1.00  0.00     0.180 A 
ATOM     29  C   UNL     1      27.308  36.340  26.539  1.00  0.00     0.239 A 
ATOM     30  O   UNL     1      29.637  35.919  27.930  1.00  0.00    -0.452 OA
ATOM     31  C   UNL     1      28.078  35.186  26.290  1.00  0.00     0.111 A 
ATOM     32  O   UNL     1      26.265  36.580  25.879  1.00  0.00    -0.285 OA
ATOM     33  C   UNL     1      29.259  35.005  27.045  1.00  0.00     0.146 A 
ATOM     34  C   UNL     1      27.714  34.206  25.338  1.00  0.00     0.134 A 
ATOM     35  C   UNL     1      30.044  33.861  26.866  1.00  0.00     0.094 A 
ATOM     36  C   UNL     1      28.511  33.062  25.179  1.00  0.00     0.093 A 
ATOM     37  C   UNL     1      29.663  32.879  25.946  1.00  0.00     0.123 A 
BRANCH  28  38
ATOM     38  C   UNL     1      29.480  37.968  29.183  1.00  0.00     0.025 A 
ATOM     39  C   UNL     1      30.345  39.007  28.797  1.00  0.00     0.062 A 
ATOM     40  C   UNL     1      29.093  37.864  30.525  1.00  0.00     0.016 A 
ATOM     41  C   UNL     1      30.857  39.896  29.753  1.00  0.00     0.158 A 
ATOM     42  C   UNL     1      29.599  38.753  31.479  1.00  0.00     0.051 A 
ATOM     43  C   UNL     1      30.482  39.766  31.099  1.00  0.00     0.157 A 
BRANCH  41  44
ATOM     44  O   UNL     1      31.733  40.907  29.368  1.00  0.00    -0.504 OA
ATOM     45  H   UNL     1      31.385  41.809  29.063  1.00  0.00     0.293 HD
ENDBRANCH  41  44
BRANCH  43  46
ATOM     46  O   UNL     1      30.974  40.637  32.073  1.00  0.00    -0.504 OA
ATOM     47  H   UNL     1      31.917  40.549  32.446  1.00  0.00     0.293 HD
ENDBRANCH  43  46
ENDBRANCH  28  38
BRANCH  34  48
ATOM     48  O   UNL     1      26.574  34.367  24.550  1.00  0.00    -0.507 OA
ATOM     49  H   UNL     1      25.648  34.464  24.955  1.00  0.00     0.293 HD
ENDBRANCH  34  48
BRANCH  37  50
ATOM     50  O   UNL     1      30.416  31.715  25.796  1.00  0.00    -0.508 OA
ATOM     51  H   UNL     1      31.326  31.616  26.225  1.00  0.00     0.293 HD
ENDBRANCH  37  50
ENDBRANCH  26  27
ENDBRANCH   5  26
BRANCH   4  52
ATOM     52  O   UNL     1      25.482  39.166  25.847  1.00  0.00    -0.384 OA
ATOM     53  H   UNL     1      24.547  39.115  26.193  1.00  0.00     0.211 HD
ENDBRANCH   4  52
TORSDOF 16
ENDMDL
MODEL 2
REMARK VINA RESULT:    12.544      1.918      5.895
REMARK INTER + INTRA:          26.142
REMARK INTER:                  20.831
REMARK INTRA:                   5.310
REMARK UNBOUND:                 5.531
REMARK SMILES C[C@@H]1O[C@@H](OC[C@@H]2O[C@H](Oc3c(-c4ccc(O)c(O)c4)oc4cc(O)cc(O)c4c3=O)[C@H](O)[C@H](O)[C@@H]2O)[C@@H](O)[C@H](O)[C@H]1O
REMARK SMILES IDX 7 1 36 2 34 3 32 4 9 5 8 6 6 7 5 8 4 9 1 10 2 11 42 12 3 13
REMARK SMILES IDX 40 14 38 15 43 16 41 18 39 20 37 22 35 24 10 26 11 27 12 28
REMARK SMILES IDX 30 29 21 30 29 31 31 32 22 33 27 34 23 35 26 36 24 37 13 38
REMARK SMILES IDX 20 39 14 40 18 41 15 42 16 43 19 44 17 46 28 48 25 50 33 52
REMARK H PARENT 43 17 41 19 39 21 37 23 35 25 19 45 17 47 28 49 25 51 33 53
REMARK Flexibility Score: inf
ROOT
ATOM      1  C   UNL     1      28.672  37.822  29.084  1.00  0.00     0.180 C 
ATOM      2  C   UNL     1      27.833  38.157  30.359  1.00  0.00     0.177 C 
ATOM      3  C   UNL     1      26.741  37.105  30.600  1.00  0.00     0.180 C 
ATOM      4  C   UNL     1      26.051  36.789  29.266  1.00  0.00     0.214 C 
ATOM      5  C   UNL     1      27.089  36.183  28.287  1.00  0.00     0.339 C 
ATOM      6  O   UNL     1      28.451  36.499  28.588  1.00  0.00    -0.332 OA
ENDROOT
BRANCH   1   7
ATOM      7  C   UNL     1      28.620  38.870  27.948  1.00  0.00     0.198 C 
BRANCH   7   8
ATOM      8  O   UNL     1      29.629  39.849  28.178  1.00  0.00    -0.347 OA
BRANCH   8   9
ATOM      9  C   UNL     1      30.713  39.387  28.981  1.00  0.00     0.281 C 
ATOM     10  C   UNL     1      32.688  42.496  29.128  1.00  0.00     0.041 C 
ATOM     11  C   UNL     1      32.018  41.281  28.483  1.00  0.00     0.150 C 
ATOM     12  C   UNL     1      33.045  40.459  27.669  1.00  0.00     0.174 C 
ATOM     13  O   UNL     1      31.445  40.486  29.508  1.00  0.00    -0.344 OA
ATOM     14  C   UNL     1      32.364  39.223  27.058  1.00  0.00     0.179 C 
ATOM     15  C   UNL     1      31.626  38.444  28.163  1.00  0.00     0.202 C 
BRANCH  12  16
ATOM     16  O   UNL     1      33.598  41.255  26.651  1.00  0.00    -0.388 OA
ATOM     17  H   UNL     1      32.841  41.730  26.216  1.00  0.00     0.211 HD
ENDBRANCH  12  16
BRANCH  14  18
ATOM     18  O   UNL     1      33.335  38.400  26.462  1.00  0.00    -0.387 OA
ATOM     19  H   UNL     1      34.048  38.998  26.109  1.00  0.00     0.211 HD
ENDBRANCH  14  18
BRANCH  15  20
ATOM     20  O   UNL     1      30.868  37.413  27.582  1.00  0.00    -0.385 OA
ATOM     21  H   UNL     1      31.392  36.574  27.696  1.00  0.00     0.211 HD
ENDBRANCH  15  20
ENDBRANCH   8   9
ENDBRANCH   7   8
ENDBRANCH   1   7
BRANCH   2  22
ATOM     22  O   UNL     1      27.258  39.441  30.270  1.00  0.00    -0.387 OA
ATOM     23  H   UNL     1      27.708  40.017  30.939  1.00  0.00     0.211 HD
ENDBRANCH   2  22
BRANCH   3  24
ATOM     24  O   UNL     1      25.801  37.569  31.540  1.00  0.00    -0.387 OA
ATOM     25  H   UNL     1      26.010  38.525  31.722  1.00  0.00     0.211 HD
ENDBRANCH   3  24
BRANCH   5  26
ATOM     26  O   UNL     1      26.771  36.530  26.937  1.00  0.00    -0.454 OA
BRANCH  26  27
ATOM     27  C   UNL     1      27.609  37.316  26.137  1.00  0.00     0.214 A 
ATOM     28  C   UNL     1      28.778  36.780  25.565  1.00  0.00     0.180 A 
ATOM     29  C   UNL     1      27.286  38.654  25.872  1.00  0.00     0.239 A 
ATOM     30  O   UNL     1      29.513  37.518  24.740  1.00  0.00    -0.452 OA
ATOM     31  C   UNL     1      28.082  39.402  24.981  1.00  0.00     0.111 A 
ATOM     32  O   UNL     1      26.291  39.170  26.443  1.00  0.00    -0.285 OA
ATOM     33  C   UNL     1      29.207  38.766  24.409  1.00  0.00     0.146 A 
ATOM     34  C   UNL     1      27.794  40.741  24.627  1.00  0.00     0.134 A 
ATOM     35  C   UNL     1      30.013  39.447  23.490  1.00  0.00     0.094 A 
ATOM     36  C   UNL     1      28.611  41.404  23.697  1.00  0.00     0.093 A 
ATOM     37  C   UNL     1      29.707  40.761  23.119  1.00  0.00     0.123 A 
BRANCH  28  38
ATOM     38  C   UNL     1      29.250  35.414  25.878  1.00  0.00     0.025 A 
ATOM     39  C   UNL     1      30.148  35.165  26.931  1.00  0.00     0.062 A 
ATOM     40  C   UNL     1      28.752  34.335  25.136  1.00  0.00     0.016 A 
ATOM     41  C   UNL     1      30.582  33.860  27.200  1.00  0.00     0.158 A 
ATOM     42  C   UNL     1      29.181  33.032  25.406  1.00  0.00     0.051 A 
ATOM     43  C   UNL     1      30.096  32.790  26.433  1.00  0.00     0.157 A 
BRANCH  41  44
ATOM     44  O   UNL     1      31.491  33.624  28.228  1.00  0.00    -0.504 OA
ATOM     45  H   UNL     1      32.303  33.036  28.079  1.00  0.00     0.293 HD
ENDBRANCH  41  44
BRANCH  43  46
ATOM     46  O   UNL     1      30.509  31.479  26.678  1.00  0.00    -0.504 OA
ATOM     47  H   UNL     1      31.031  30.942  25.990  1.00  0.00     0.293 HD
ENDBRANCH  43  46
ENDBRANCH  28  38
BRANCH  34  48
ATOM     48  O   UNL     1      26.713  41.412  25.197  1.00  0.00    -0.507 OA
ATOM     49  H   UNL     1      26.451  42.351  24.914  1.00  0.00     0.293 HD
ENDBRANCH  34  48
BRANCH  37  50
ATOM     50  O   UNL     1      30.479  41.429  22.169  1.00  0.00    -0.508 OA
ATOM     51  H   UNL     1      31.312  41.012  21.778  1.00  0.00     0.293 HD
ENDBRANCH  37  50
ENDBRANCH  26  27
ENDBRANCH   5  26
BRANCH   4  52
ATOM     52  O   UNL     1      25.469  37.937  28.698  1.00  0.00    -0.384 OA
ATOM     53  H   UNL     1      25.777  38.722  29.232  1.00  0.00     0.211 HD
ENDBRANCH   4  52
TORSDOF 16
ENDMDL
MODEL 3
REMARK VINA RESULT:    12.570      1.559      7.023
REMARK INTER + INTRA:          26.183
REMARK INTER:                  25.619
REMARK INTRA:                   0.564
REMARK UNBOUND:                 5.531
REMARK SMILES C[C@@H]1O[C@@H](OC[C@@H]2O[C@H](Oc3c(-c4ccc(O)c(O)c4)oc4cc(O)cc(O)c4c3=O)[C@H](O)[C@H](O)[C@@H]2O)[C@@H](O)[C@H](O)[C@H]1O
REMARK SMILES IDX 7 1 36 2 34 3 32 4 9 5 8 6 6 7 5 8 4 9 1 10 2 11 42 12 3 13
REMARK SMILES IDX 40 14 38 15 43 16 41 18 39 20 37 22 35 24 10 26 11 27 12 28
REMARK SMILES IDX 30 29 21 30 29 31 31 32 22 33 27 34 23 35 26 36 24 37 13 38
REMARK SMILES IDX 20 39 14 40 18 41 15 42 16 43 19 44 17 46 28 48 25 50 33 52
REMARK H PARENT 43 17 41 19 39 21 37 23 35 25 19 45 17 47 28 49 25 51 33 53
REMARK Flexibility Score: inf
ROOT
ATOM      1  C   UNL     1      27.713  34.260  26.587  1.00  0.00     0.180 C 
ATOM      2  C   UNL     1      28.594  33.090  26.044  1.00  0.00     0.177 C 
ATOM      3  C   UNL     1      30.009  33.136  26.639  1.00  0.00     0.180 C 
ATOM      4  C   UNL     1      30.517  34.583  26.603  1.00  0.00     0.214 C 
ATOM      5  C   UNL     1      29.600  35.466  27.489  1.00  0.00     0.339 C 
ATOM      6  O   UNL     1      28.290  34.935  27.708  1.00  0.00    -0.332 OA
ENDROOT
BRANCH   1   7
ATOM      7  C   UNL     1      27.192  35.260  25.529  1.00  0.00     0.198 C 
BRANCH   7   8
ATOM      8  O   UNL     1      27.489  36.585  25.962  1.00  0.00    -0.347 OA
BRANCH   8   9
ATOM      9  C   UNL     1      26.336  37.380  26.224  1.00  0.00     0.281 C 
ATOM     10  C   UNL     1      27.449  40.537  24.681  1.00  0.00     0.041 C 
ATOM     11  C   UNL     1      27.462  39.372  25.671  1.00  0.00     0.150 C 
ATOM     12  C   UNL     1      27.425  39.892  27.128  1.00  0.00     0.174 C 
ATOM     13  O   UNL     1      26.339  38.545  25.409  1.00  0.00    -0.344 OA
ATOM     14  C   UNL     1      27.401  38.708  28.109  1.00  0.00     0.179 C 
ATOM     15  C   UNL     1      26.262  37.745  27.726  1.00  0.00     0.202 C 
BRANCH  12  16
ATOM     16  O   UNL     1      28.548  40.701  27.377  1.00  0.00    -0.388 OA
ATOM     17  H   UNL     1      29.331  40.092  27.438  1.00  0.00     0.211 HD
ENDBRANCH  12  16
BRANCH  14  18
ATOM     18  O   UNL     1      27.202  39.187  29.416  1.00  0.00    -0.387 OA
ATOM     19  H   UNL     1      27.760  38.627  30.020  1.00  0.00     0.211 HD
ENDBRANCH  14  18
BRANCH  15  20
ATOM     20  O   UNL     1      26.345  36.585  28.514  1.00  0.00    -0.385 OA
ATOM     21  H   UNL     1      25.717  36.712  29.277  1.00  0.00     0.211 HD
ENDBRANCH  15  20
ENDBRANCH   8   9
ENDBRANCH   7   8
ENDBRANCH   1   7
BRANCH   2  22
ATOM     22  O   UNL     1      28.659  33.109  24.636  1.00  0.00    -0.387 OA
ATOM     23  H   UNL     1      29.174  33.913  24.372  1.00  0.00     0.211 HD
ENDBRANCH   2  22
BRANCH   3  24
ATOM     24  O   UNL     1      30.879  32.294  25.919  1.00  0.00    -0.387 OA
ATOM     25  H   UNL     1      30.323  31.760  25.290  1.00  0.00     0.211 HD
ENDBRANCH   3  24
BRANCH   5  26
ATOM     26  O   UNL     1      29.531  36.797  26.972  1.00  0.00    -0.454 OA
BRANCH  26  27
ATOM     27  C   UNL     1      30.345  37.837  27.436  1.00  0.00     0.214 A 
ATOM     28  C   UNL     1      31.243  38.495  26.576  1.00  0.00     0.180 A 
ATOM     29  C   UNL     1      30.265  38.257  28.772  1.00  0.00     0.239 A 
ATOM     30  O   UNL     1      31.944  39.534  27.016  1.00  0.00    -0.452 OA
ATOM     31  C   UNL     1      31.014  39.373  29.199  1.00  0.00     0.111 A 
ATOM     32  O   UNL     1      29.528  37.625  29.572  1.00  0.00    -0.285 OA
ATOM     33  C   UNL     1      31.850  40.008  28.252  1.00  0.00     0.146 A 
ATOM     34  C   UNL     1      30.951  39.886  30.515  1.00  0.00     0.134 A 
ATOM     35  C   UNL     1      32.589  41.141  28.609  1.00  0.00     0.094 A 
ATOM     36  C   UNL     1      31.695  41.029  30.851  1.00  0.00     0.093 A 
ATOM     37  C   UNL     1      32.499  41.664  29.904  1.00  0.00     0.123 A 
BRANCH  28  38
ATOM     38  C   UNL     1      31.469  38.047  25.185  1.00  0.00     0.025 A 
ATOM     39  C   UNL     1      32.509  37.159  24.855  1.00  0.00     0.062 A 
ATOM     40  C   UNL     1      30.595  38.480  24.180  1.00  0.00     0.016 A 
ATOM     41  C   UNL     1      32.702  36.756  23.526  1.00  0.00     0.158 A 
ATOM     42  C   UNL     1      30.784  38.075  22.855  1.00  0.00     0.051 A 
ATOM     43  C   UNL     1      31.835  37.218  22.523  1.00  0.00     0.157 A 
BRANCH  41  44
ATOM     44  O   UNL     1      33.749  35.899  23.201  1.00  0.00    -0.504 OA
ATOM     45  H   UNL     1      33.568  34.969  22.838  1.00  0.00     0.293 HD
ENDBRANCH  41  44
BRANCH  43  46
ATOM     46  O   UNL     1      32.002  36.833  21.192  1.00  0.00    -0.504 OA
ATOM     47  H   UNL     1      31.327  37.079  20.472  1.00  0.00     0.293 HD
ENDBRANCH  43  46
ENDBRANCH  28  38
BRANCH  34  48
ATOM     48  O   UNL     1      30.164  39.266  31.485  1.00  0.00    -0.507 OA
ATOM     49  H   UNL     1      30.254  38.278  31.703  1.00  0.00     0.293 HD
ENDBRANCH  34  48
BRANCH  37  50
ATOM     50  O   UNL     1      33.198  42.820  30.252  1.00  0.00    -0.508 OA
ATOM     51  H   UNL     1      32.862  43.738  29.995  1.00  0.00     0.293 HD
ENDBRANCH  37  50
ENDBRANCH  26  27
ENDBRANCH   5  26
BRANCH   4  52
ATOM     52  O   UNL     1      30.551  35.091  25.292  1.00  0.00    -0.384 OA
ATOM     53  H   UNL     1      29.615  35.080  24.945  1.00  0.00     0.211 HD
ENDBRANCH   4  52
TORSDOF 16
ENDMDL
MODEL 4
REMARK VINA RESULT:    13.131      1.826      5.898
REMARK INTER + INTRA:          27.106
REMARK INTER:                  15.839
REMARK INTRA:                  11.267
REMARK UNBOUND:                 5.531
REMARK SMILES C[C@@H]1O[C@@H](OC[C@@H]2O[C@H](Oc3c(-c4ccc(O)c(O)c4)oc4cc(O)cc(O)c4c3=O)[C@H](O)[C@H](O)[C@@H]2O)[C@@H](O)[C@H](O)[C@H]1O
REMARK SMILES IDX 7 1 36 2 34 3 32 4 9 5 8 6 6 7 5 8 4 9 1 10 2 11 42 12 3 13
REMARK SMILES IDX 40 14 38 15 43 16 41 18 39 20 37 22 35 24 10 26 11 27 12 28
REMARK SMILES IDX 30 29 21 30 29 31 31 32 22 33 27 34 23 35 26 36 24 37 13 38
REMARK SMILES IDX 20 39 14 40 18 41 15 42 16 43 19 44 17 46 28 48 25 50 33 52
REMARK H PARENT 43 17 41 19 39 21 37 23 35 25 19 45 17 47 28 49 25 51 33 53
REMARK Flexibility Score: inf
ROOT
ATOM      1  C   UNL     1      28.754  37.539  28.788  1.00  0.00     0.180 C 
ATOM      2  C   UNL     1      28.103  37.973  30.141  1.00  0.00     0.177 C 
ATOM      3  C   UNL     1      26.810  37.191  30.412  1.00  0.00     0.180 C 
ATOM      4  C   UNL     1      25.980  37.138  29.123  1.00  0.00     0.214 C 
ATOM      5  C   UNL     1      26.779  36.373  28.035  1.00  0.00     0.339 C 
ATOM      6  O   UNL     1      28.193  36.341  28.245  1.00  0.00    -0.332 OA
ENDROOT
BRANCH   1   7
ATOM      7  C   UNL     1      28.881  38.644  27.714  1.00  0.00     0.198 C 
BRANCH   7   8
ATOM      8  O   UNL     1      29.250  39.864  28.351  1.00  0.00    -0.347 OA
BRANCH   8   9
ATOM      9  C   UNL     1      30.657  40.041  28.494  1.00  0.00     0.281 C 
ATOM     10  C   UNL     1      31.801  37.685  25.900  1.00  0.00     0.041 C 
ATOM     11  C   UNL     1      31.128  38.133  27.199  1.00  0.00     0.150 C 
ATOM     12  C   UNL     1      31.698  37.354  28.407  1.00  0.00     0.174 C 
ATOM     13  O   UNL     1      31.341  39.526  27.359  1.00  0.00    -0.344 OA
ATOM     14  C   UNL     1      31.037  37.842  29.707  1.00  0.00     0.179 C 
ATOM     15  C   UNL     1      31.153  39.375  29.799  1.00  0.00     0.202 C 
BRANCH  12  16
ATOM     16  O   UNL     1      31.472  35.976  28.240  1.00  0.00    -0.388 OA
ATOM     17  H   UNL     1      30.496  35.864  28.087  1.00  0.00     0.211 HD
ENDBRANCH  12  16
BRANCH  14  18
ATOM     18  O   UNL     1      31.677  37.248  30.809  1.00  0.00    -0.387 OA
ATOM     19  H   UNL     1      31.367  36.303  30.853  1.00  0.00     0.211 HD
ENDBRANCH  14  18
BRANCH  15  20
ATOM     20  O   UNL     1      30.407  39.836  30.897  1.00  0.00    -0.385 OA
ATOM     21  H   UNL     1      29.969  39.038  31.300  1.00  0.00     0.211 HD
ENDBRANCH  15  20
ENDBRANCH   8   9
ENDBRANCH   7   8
ENDBRANCH   1   7
BRANCH   2  22
ATOM     22  O   UNL     1      27.846  39.359  30.163  1.00  0.00    -0.387 OA
ATOM     23  H   UNL     1      27.215  39.557  29.425  1.00  0.00     0.211 HD
ENDBRANCH   2  22
BRANCH   3  24
ATOM     24  O   UNL     1      26.070  37.798  31.445  1.00  0.00    -0.387 OA
ATOM     25  H   UNL     1      26.378  38.741  31.518  1.00  0.00     0.211 HD
ENDBRANCH   3  24
BRANCH   5  26
ATOM     26  O   UNL     1      26.467  36.877  26.734  1.00  0.00    -0.454 OA
BRANCH  26  27
ATOM     27  C   UNL     1      27.393  37.569  25.945  1.00  0.00     0.214 A 
ATOM     28  C   UNL     1      28.480  36.903  25.348  1.00  0.00     0.180 A 
ATOM     29  C   UNL     1      27.240  38.944  25.716  1.00  0.00     0.239 A 
ATOM     30  O   UNL     1      29.297  37.562  24.534  1.00  0.00    -0.452 OA
ATOM     31  C   UNL     1      28.119  39.607  24.835  1.00  0.00     0.111 A 
ATOM     32  O   UNL     1      26.323  39.568  26.308  1.00  0.00    -0.285 OA
ATOM     33  C   UNL     1      29.151  38.847  24.237  1.00  0.00     0.146 A 
ATOM     34  C   UNL     1      28.003  40.979  24.516  1.00  0.00     0.134 A 
ATOM     35  C   UNL     1      30.031  39.443  23.327  1.00  0.00     0.094 A 
ATOM     36  C   UNL     1      28.891  41.557  23.595  1.00  0.00     0.093 A 
ATOM     37  C   UNL     1      29.892  40.794  22.991  1.00  0.00     0.123 A 
BRANCH  28  38
ATOM     38  C   UNL     1      28.776  35.481  25.623  1.00  0.00     0.025 A 
ATOM     39  C   UNL     1      27.781  34.593  26.072  1.00  0.00     0.062 A 
ATOM     40  C   UNL     1      30.068  34.996  25.386  1.00  0.00     0.016 A 
ATOM     41  C   UNL     1      28.093  33.251  26.330  1.00  0.00     0.158 A 
ATOM     42  C   UNL     1      30.379  33.657  25.639  1.00  0.00     0.051 A 
ATOM     43  C   UNL     1      29.399  32.783  26.113  1.00  0.00     0.157 A 
BRANCH  41  44
ATOM     44  O   UNL     1      27.111  32.383  26.799  1.00  0.00    -0.504 OA
ATOM     45  H   UNL     1      26.588  31.795  26.159  1.00  0.00     0.293 HD
ENDBRANCH  41  44
BRANCH  43  46
ATOM     46  O   UNL     1      29.738  31.452  26.360  1.00  0.00    -0.504 OA
ATOM     47  H   UNL     1      29.633  30.729  25.652  1.00  0.00     0.293 HD
ENDBRANCH  43  46
ENDBRANCH  28  38
BRANCH  34  48
ATOM     48  O   UNL     1      27.019  41.768  25.112  1.00  0.00    -0.507 OA
ATOM     49  H   UNL     1      26.210  41.364  25.574  1.00  0.00     0.293 HD
ENDBRANCH  34  48
BRANCH  37  50
ATOM     50  O   UNL     1      30.737  41.383  22.050  1.00  0.00    -0.508 OA
ATOM     51  H   UNL     1      31.742  41.351  22.150  1.00  0.00     0.293 HD
ENDBRANCH  37  50
ENDBRANCH  26  27
ENDBRANCH   5  26
BRANCH   4  52
ATOM     52  O   UNL     1      25.653  38.426  28.661  1.00  0.00    -0.384 OA
ATOM     53  H   UNL     1      25.116  38.314  27.826  1.00  0.00     0.211 HD
ENDBRANCH   4  52
TORSDOF 16
ENDMDL
MODEL 5
REMARK VINA RESULT:    13.676      1.968      6.251
REMARK INTER + INTRA:          28.001
REMARK INTER:                  26.258
REMARK INTRA:                   1.743
REMARK UNBOUND:                 5.531
REMARK SMILES C[C@@H]1O[C@@H](OC[C@@H]2O[C@H](Oc3c(-c4ccc(O)c(O)c4)oc4cc(O)cc(O)c4c3=O)[C@H](O)[C@H](O)[C@@H]2O)[C@@H](O)[C@H](O)[C@H]1O
REMARK SMILES IDX 7 1 36 2 34 3 32 4 9 5 8 6 6 7 5 8 4 9 1 10 2 11 42 12 3 13
REMARK SMILES IDX 40 14 38 15 43 16 41 18 39 20 37 22 35 24 10 26 11 27 12 28
REMARK SMILES IDX 30 29 21 30 29 31 31 32 22 33 27 34 23 35 26 36 24 37 13 38
REMARK SMILES IDX 20 39 14 40 18 41 15 42 16 43 19 44 17 46 28 48 25 50 33 52
REMARK H PARENT 43 17 41 19 39 21 37 23 35 25 19 45 17 47 28 49 25 51 33 53
REMARK Flexibility Score: inf
ROOT
ATOM      1  C   UNL     1      27.954  35.110  27.317  1.00  0.00     0.180 C 
ATOM      2  C   UNL     1      28.512  33.904  26.495  1.00  0.00     0.177 C 
ATOM      3  C   UNL     1      30.044  33.840  26.572  1.00  0.00     0.180 C 
ATOM      4  C   UNL     1      30.612  35.251  26.379  1.00  0.00     0.214 C 
ATOM      5  C   UNL     1      30.117  36.161  27.532  1.00  0.00     0.339 C 
ATOM      6  O   UNL     1      28.924  35.709  28.180  1.00  0.00    -0.332 OA
ENDROOT
BRANCH   1   7
ATOM      7  C   UNL     1      27.178  36.177  26.509  1.00  0.00     0.198 C 
BRANCH   7   8
ATOM      8  O   UNL     1      28.111  37.082  25.927  1.00  0.00    -0.347 OA
BRANCH   8   9
ATOM      9  C   UNL     1      27.707  37.594  24.659  1.00  0.00     0.281 C 
ATOM     10  C   UNL     1      31.027  38.410  23.282  1.00  0.00     0.041 C 
ATOM     11  C   UNL     1      29.836  38.504  24.237  1.00  0.00     0.150 C 
ATOM     12  C   UNL     1      29.321  39.960  24.328  1.00  0.00     0.174 C 
ATOM     13  O   UNL     1      28.813  37.642  23.767  1.00  0.00    -0.344 OA
ATOM     14  C   UNL     1      28.102  40.029  25.263  1.00  0.00     0.179 C 
ATOM     15  C   UNL     1      27.056  38.988  24.823  1.00  0.00     0.202 C 
BRANCH  12  16
ATOM     16  O   UNL     1      30.341  40.801  24.805  1.00  0.00    -0.388 OA
ATOM     17  H   UNL     1      30.624  41.370  24.040  1.00  0.00     0.211 HD
ENDBRANCH  12  16
BRANCH  14  18
ATOM     18  O   UNL     1      27.543  41.318  25.209  1.00  0.00    -0.387 OA
ATOM     19  H   UNL     1      28.293  41.954  25.052  1.00  0.00     0.211 HD
ENDBRANCH  14  18
BRANCH  15  20
ATOM     20  O   UNL     1      26.021  38.934  25.771  1.00  0.00    -0.385 OA
ATOM     21  H   UNL     1      25.419  38.190  25.496  1.00  0.00     0.211 HD
ENDBRANCH  15  20
ENDBRANCH   8   9
ENDBRANCH   7   8
ENDBRANCH   1   7
BRANCH   2  22
ATOM     22  O   UNL     1      28.095  33.967  25.149  1.00  0.00    -0.387 OA
ATOM     23  H   UNL     1      27.105  33.952  25.143  1.00  0.00     0.211 HD
ENDBRANCH   2  22
BRANCH   3  24
ATOM     24  O   UNL     1      30.554  32.968  25.591  1.00  0.00    -0.387 OA
ATOM     25  H   UNL     1      30.884  32.154  26.059  1.00  0.00     0.211 HD
ENDBRANCH   3  24
BRANCH   5  26
ATOM     26  O   UNL     1      29.972  37.511  27.082  1.00  0.00    -0.454 OA
BRANCH  26  27
ATOM     27  C   UNL     1      30.457  38.609  27.803  1.00  0.00     0.214 A 
ATOM     28  C   UNL     1      29.789  39.077  28.950  1.00  0.00     0.180 A 
ATOM     29  C   UNL     1      31.636  39.253  27.403  1.00  0.00     0.239 A 
ATOM     30  O   UNL     1      30.313  40.065  29.667  1.00  0.00    -0.452 OA
ATOM     31  C   UNL     1      32.169  40.289  28.197  1.00  0.00     0.111 A 
ATOM     32  O   UNL     1      32.198  38.900  26.335  1.00  0.00    -0.285 OA
ATOM     33  C   UNL     1      31.460  40.658  29.363  1.00  0.00     0.146 A 
ATOM     34  C   UNL     1      33.377  40.955  27.887  1.00  0.00     0.134 A 
ATOM     35  C   UNL     1      31.960  41.655  30.208  1.00  0.00     0.094 A 
ATOM     36  C   UNL     1      33.866  41.948  28.752  1.00  0.00     0.093 A 
ATOM     37  C   UNL     1      33.172  42.289  29.914  1.00  0.00     0.123 A 
BRANCH  28  38
ATOM     38  C   UNL     1      28.486  38.526  29.378  1.00  0.00     0.025 A 
ATOM     39  C   UNL     1      27.404  38.409  28.487  1.00  0.00     0.062 A 
ATOM     40  C   UNL     1      28.340  38.066  30.693  1.00  0.00     0.016 A 
ATOM     41  C   UNL     1      26.178  37.888  28.924  1.00  0.00     0.158 A 
ATOM     42  C   UNL     1      27.119  37.542  31.129  1.00  0.00     0.051 A 
ATOM     43  C   UNL     1      26.037  37.454  30.252  1.00  0.00     0.157 A 
BRANCH  41  44
ATOM     44  O   UNL     1      25.103  37.798  28.043  1.00  0.00    -0.504 OA
ATOM     45  H   UNL     1      24.981  36.984  27.452  1.00  0.00     0.293 HD
ENDBRANCH  41  44
BRANCH  43  46
ATOM     46  O   UNL     1      24.828  36.930  30.714  1.00  0.00    -0.504 OA
ATOM     47  H   UNL     1      24.741  35.960  31.009  1.00  0.00     0.293 HD
ENDBRANCH  43  46
ENDBRANCH  28  38
BRANCH  34  48
ATOM     48  O   UNL     1      34.086  40.642  26.728  1.00  0.00    -0.507 OA
ATOM     49  H   UNL     1      34.335  39.687  26.488  1.00  0.00     0.293 HD
ENDBRANCH  34  48
BRANCH  37  50
ATOM     50  O   UNL     1      33.698  43.251  30.776  1.00  0.00    -0.508 OA
ATOM     51  H   UNL     1      34.421  43.022  31.445  1.00  0.00     0.293 HD
ENDBRANCH  37  50
ENDBRANCH  26  27
ENDBRANCH   5  26
BRANCH   4  52
ATOM     52  O   UNL     1      30.235  35.799  25.139  1.00  0.00    -0.384 OA
ATOM     53  H   UNL     1      29.256  35.640  25.030  1.00  0.00     0.211 HD
ENDBRANCH   4  52
TORSDOF 16
ENDMDL
MODEL 6
REMARK VINA RESULT:    13.946      2.066      5.904
REMARK INTER + INTRA:          28.445
REMARK INTER:                  23.360
REMARK INTRA:                   5.085
REMARK UNBOUND:                 5.531
REMARK SMILES C[C@@H]1O[C@@H](OC[C@@H]2O[C@H](Oc3c(-c4ccc(O)c(O)c4)oc4cc(O)cc(O)c4c3=O)[C@H](O)[C@H](O)[C@@H]2O)[C@@H](O)[C@H](O)[C@H]1O
REMARK SMILES IDX 7 1 36 2 34 3 32 4 9 5 8 6 6 7 5 8 4 9 1 10 2 11 42 12 3 13
REMARK SMILES IDX 40 14 38 15 43 16 41 18 39 20 37 22 35 24 10 26 11 27 12 28
REMARK SMILES IDX 30 29 21 30 29 31 31 32 22 33 27 34 23 35 26 36 24 37 13 38
REMARK SMILES IDX 20 39 14 40 18 41 15 42 16 43 19 44 17 46 28 48 25 50 33 52
REMARK H PARENT 43 17 41 19 39 21 37 23 35 25 19 45 17 47 28 49 25 51 33 53
REMARK Flexibility Score: inf
ROOT
ATOM      1  C   UNL     1      28.405  35.676  25.899  1.00  0.00     0.180 C 
ATOM      2  C   UNL     1      27.556  34.413  25.545  1.00  0.00     0.177 C 
ATOM      3  C   UNL     1      26.374  34.774  24.633  1.00  0.00     0.180 C 
ATOM      4  C   UNL     1      25.703  36.046  25.169  1.00  0.00     0.214 C 
ATOM      5  C   UNL     1      26.718  37.216  25.117  1.00  0.00     0.339 C 
ATOM      6  O   UNL     1      28.092  36.817  25.095  1.00  0.00    -0.332 OA
ENDROOT
BRANCH   1   7
ATOM      7  C   UNL     1      28.476  36.041  27.400  1.00  0.00     0.198 C 
BRANCH   7   8
ATOM      8  O   UNL     1      29.445  35.209  28.031  1.00  0.00    -0.347 OA
BRANCH   8   9
ATOM      9  C   UNL     1      30.556  34.881  27.201  1.00  0.00     0.281 C 
ATOM     10  C   UNL     1      32.687  33.230  29.715  1.00  0.00     0.041 C 
ATOM     11  C   UNL     1      31.917  34.374  29.053  1.00  0.00     0.150 C 
ATOM     12  C   UNL     1      32.845  35.587  28.806  1.00  0.00     0.174 C 
ATOM     13  O   UNL     1      31.375  33.904  27.829  1.00  0.00    -0.344 OA
ATOM     14  C   UNL     1      32.063  36.713  28.108  1.00  0.00     0.179 C 
ATOM     15  C   UNL     1      31.365  36.154  26.855  1.00  0.00     0.202 C 
BRANCH  12  16
ATOM     16  O   UNL     1      33.366  36.049  30.027  1.00  0.00    -0.388 OA
ATOM     17  H   UNL     1      32.925  36.920  30.215  1.00  0.00     0.211 HD
ENDBRANCH  12  16
BRANCH  14  18
ATOM     18  O   UNL     1      32.951  37.740  27.741  1.00  0.00    -0.387 OA
ATOM     19  H   UNL     1      33.373  38.074  28.578  1.00  0.00     0.211 HD
ENDBRANCH  14  18
BRANCH  15  20
ATOM     20  O   UNL     1      30.519  37.137  26.312  1.00  0.00    -0.385 OA
ATOM     21  H   UNL     1      29.625  36.713  26.197  1.00  0.00     0.211 HD
ENDBRANCH  15  20
ENDBRANCH   8   9
ENDBRANCH   7   8
ENDBRANCH   1   7
BRANCH   2  22
ATOM     22  O   UNL     1      27.092  33.765  26.708  1.00  0.00    -0.387 OA
ATOM     23  H   UNL     1      26.103  33.829  26.710  1.00  0.00     0.211 HD
ENDBRANCH   2  22
BRANCH   3  24
ATOM     24  O   UNL     1      25.446  33.716  24.580  1.00  0.00    -0.387 OA
ATOM     25  H   UNL     1      25.673  33.162  23.785  1.00  0.00     0.211 HD
ENDBRANCH   3  24
BRANCH   5  26
ATOM     26  O   UNL     1      26.474  38.142  26.179  1.00  0.00    -0.454 OA
BRANCH  26  27
ATOM     27  C   UNL     1      27.429  38.450  27.155  1.00  0.00     0.214 A 
ATOM     28  C   UNL     1      28.536  39.266  26.856  1.00  0.00     0.180 A 
ATOM     29  C   UNL     1      27.287  37.964  28.463  1.00  0.00     0.239 A 
ATOM     30  O   UNL     1      29.384  39.614  27.817  1.00  0.00    -0.452 OA
ATOM     31  C   UNL     1      28.199  38.367  29.459  1.00  0.00     0.111 A 
ATOM     32  O   UNL     1      26.350  37.168  28.724  1.00  0.00    -0.285 OA
ATOM     33  C   UNL     1      29.251  39.233  29.081  1.00  0.00     0.146 A 
ATOM     34  C   UNL     1      28.096  37.959  30.810  1.00  0.00     0.134 A 
ATOM     35  C   UNL     1      30.164  39.695  30.035  1.00  0.00     0.094 A 
ATOM     36  C   UNL     1      29.018  38.440  31.753  1.00  0.00     0.093 A 
ATOM     37  C   UNL     1      30.040  39.314  31.375  1.00  0.00     0.123 A 
BRANCH  28  38
ATOM     38  C   UNL     1      28.819  39.730  25.481  1.00  0.00     0.025 A 
ATOM     39  C   UNL     1      27.802  39.848  24.516  1.00  0.00     0.062 A 
ATOM     40  C   UNL     1      30.125  40.108  25.146  1.00  0.00     0.016 A 
ATOM     41  C   UNL     1      28.102  40.286  23.219  1.00  0.00     0.158 A 
ATOM     42  C   UNL     1      30.426  40.549  23.853  1.00  0.00     0.051 A 
ATOM     43  C   UNL     1      29.421  40.637  22.887  1.00  0.00     0.157 A 
BRANCH  41  44
ATOM     44  O   UNL     1      27.096  40.375  22.261  1.00  0.00    -0.504 OA
ATOM     45  H   UNL     1      27.183  41.004  21.471  1.00  0.00     0.293 HD
ENDBRANCH  41  44
BRANCH  43  46
ATOM     46  O   UNL     1      29.749  41.077  21.604  1.00  0.00    -0.504 OA
ATOM     47  H   UNL     1      30.600  40.779  21.135  1.00  0.00     0.293 HD
ENDBRANCH  43  46
ENDBRANCH  28  38
BRANCH  34  48
ATOM     48  O   UNL     1      27.093  37.079  31.214  1.00  0.00    -0.507 OA
ATOM     49  H   UNL     1      26.282  36.883  30.635  1.00  0.00     0.293 HD
ENDBRANCH  34  48
BRANCH  37  50
ATOM     50  O   UNL     1      30.919  39.807  32.339  1.00  0.00    -0.508 OA
ATOM     51  H   UNL     1      30.606  40.036  33.272  1.00  0.00     0.293 HD
ENDBRANCH  37  50
ENDBRANCH  26  27
ENDBRANCH   5  26
BRANCH   4  52
ATOM     52  O   UNL     1      25.236  35.873  26.485  1.00  0.00    -0.384 OA
ATOM     53  H   UNL     1      24.258  36.075  26.481  1.00  0.00     0.211 HD
ENDBRANCH   4  52
TORSDOF 16
ENDMDL
MODEL 7
REMARK VINA RESULT:    13.949      2.133      4.533
REMARK INTER + INTRA:          28.450
REMARK INTER:                  28.091
REMARK INTRA:                   0.359
REMARK UNBOUND:                 5.531
REMARK SMILES C[C@@H]1O[C@@H](OC[C@@H]2O[C@H](Oc3c(-c4ccc(O)c(O)c4)oc4cc(O)cc(O)c4c3=O)[C@H](O)[C@H](O)[C@@H]2O)[C@@H](O)[C@H](O)[C@H]1O
REMARK SMILES IDX 7 1 36 2 34 3 32 4 9 5 8 6 6 7 5 8 4 9 1 10 2 11 42 12 3 13
REMARK SMILES IDX 40 14 38 15 43 16 41 18 39 20 37 22 35 24 10 26 11 27 12 28
REMARK SMILES IDX 30 29 21 30 29 31 31 32 22 33 27 34 23 35 26 36 24 37 13 38
REMARK SMILES IDX 20 39 14 40 18 41 15 42 16 43 19 44 17 46 28 48 25 50 33 52
REMARK H PARENT 43 17 41 19 39 21 37 23 35 25 19 45 17 47 28 49 25 51 33 53
REMARK Flexibility Score: inf
ROOT
ATOM      1  C   UNL     1      27.720  39.526  24.080  1.00  0.00     0.180 C 
ATOM      2  C   UNL     1      28.605  40.543  23.290  1.00  0.00     0.177 C 
ATOM      3  C   UNL     1      30.006  39.973  23.027  1.00  0.00     0.180 C 
ATOM      4  C   UNL     1      30.525  39.312  24.311  1.00  0.00     0.214 C 
ATOM      5  C   UNL     1      29.594  38.131  24.687  1.00  0.00     0.339 C 
ATOM      6  O   UNL     1      28.276  38.210  24.137  1.00  0.00    -0.332 OA
ENDROOT
BRANCH   1   7
ATOM      7  C   UNL     1      27.230  39.996  25.470  1.00  0.00     0.198 C 
BRANCH   7   8
ATOM      8  O   UNL     1      27.512  38.978  26.426  1.00  0.00    -0.347 OA
BRANCH   8   9
ATOM      9  C   UNL     1      26.351  38.400  27.017  1.00  0.00     0.281 C 
ATOM     10  C   UNL     1      27.520  38.193  30.506  1.00  0.00     0.041 C 
ATOM     11  C   UNL     1      27.497  37.887  29.008  1.00  0.00     0.150 C 
ATOM     12  C   UNL     1      27.408  36.362  28.761  1.00  0.00     0.174 C 
ATOM     13  O   UNL     1      26.384  38.550  28.430  1.00  0.00    -0.344 OA
ATOM     14  C   UNL     1      27.349  36.076  27.251  1.00  0.00     0.179 C 
ATOM     15  C   UNL     1      26.224  36.912  26.613  1.00  0.00     0.202 C 
BRANCH  12  16
ATOM     16  O   UNL     1      28.522  35.719  29.329  1.00  0.00    -0.388 OA
ATOM     17  H   UNL     1      28.972  36.387  29.911  1.00  0.00     0.211 HD
ENDBRANCH  12  16
BRANCH  14  18
ATOM     18  O   UNL     1      27.104  34.708  27.044  1.00  0.00    -0.387 OA
ATOM     19  H   UNL     1      27.597  34.444  26.221  1.00  0.00     0.211 HD
ENDBRANCH  14  18
BRANCH  15  20
ATOM     20  O   UNL     1      26.278  36.779  25.215  1.00  0.00    -0.385 OA
ATOM     21  H   UNL     1      27.102  37.250  24.914  1.00  0.00     0.211 HD
ENDBRANCH  15  20
ENDBRANCH   8   9
ENDBRANCH   7   8
ENDBRANCH   1   7
BRANCH   2  22
ATOM     22  O   UNL     1      28.702  41.774  23.971  1.00  0.00    -0.387 OA
ATOM     23  H   UNL     1      28.430  42.486  23.338  1.00  0.00     0.211 HD
ENDBRANCH   2  22
BRANCH   3  24
ATOM     24  O   UNL     1      30.886  40.990  22.609  1.00  0.00    -0.387 OA
ATOM     25  H   UNL     1      31.777  40.570  22.463  1.00  0.00     0.211 HD
ENDBRANCH   3  24
BRANCH   5  26
ATOM     26  O   UNL     1      29.546  37.959  26.105  1.00  0.00    -0.454 OA
BRANCH  26  27
ATOM     27  C   UNL     1      30.322  37.012  26.784  1.00  0.00     0.214 A 
ATOM     28  C   UNL     1      31.237  37.402  27.779  1.00  0.00     0.180 A 
ATOM     29  C   UNL     1      30.184  35.646  26.496  1.00  0.00     0.239 A 
ATOM     30  O   UNL     1      31.901  36.480  28.469  1.00  0.00    -0.452 OA
ATOM     31  C   UNL     1      30.894  34.697  27.259  1.00  0.00     0.111 A 
ATOM     32  O   UNL     1      29.432  35.289  25.554  1.00  0.00    -0.285 OA
ATOM     33  C   UNL     1      31.752  35.176  28.276  1.00  0.00     0.146 A 
ATOM     34  C   UNL     1      30.773  33.302  27.062  1.00  0.00     0.134 A 
ATOM     35  C   UNL     1      32.454  34.280  29.089  1.00  0.00     0.094 A 
ATOM     36  C   UNL     1      31.481  32.419  27.893  1.00  0.00     0.093 A 
ATOM     37  C   UNL     1      32.307  32.900  28.911  1.00  0.00     0.123 A 
BRANCH  28  38
ATOM     38  C   UNL     1      31.523  38.823  28.069  1.00  0.00     0.025 A 
ATOM     39  C   UNL     1      32.575  39.510  27.435  1.00  0.00     0.062 A 
ATOM     40  C   UNL     1      30.695  39.515  28.961  1.00  0.00     0.016 A 
ATOM     41  C   UNL     1      32.825  40.856  27.735  1.00  0.00     0.158 A 
ATOM     42  C   UNL     1      30.941  40.860  29.258  1.00  0.00     0.051 A 
ATOM     43  C   UNL     1      32.004  41.532  28.652  1.00  0.00     0.157 A 
BRANCH  41  44
ATOM     44  O   UNL     1      33.884  41.522  27.124  1.00  0.00    -0.504 OA
ATOM     45  H   UNL     1      34.103  41.365  26.147  1.00  0.00     0.293 HD
ENDBRANCH  41  44
BRANCH  43  46
ATOM     46  O   UNL     1      32.228  42.873  28.969  1.00  0.00    -0.504 OA
ATOM     47  H   UNL     1      32.044  43.244  29.898  1.00  0.00     0.293 HD
ENDBRANCH  43  46
ENDBRANCH  28  38
BRANCH  34  48
ATOM     48  O   UNL     1      29.964  32.793  26.047  1.00  0.00    -0.507 OA
ATOM     49  H   UNL     1      30.083  33.063  25.075  1.00  0.00     0.293 HD
ENDBRANCH  34  48
BRANCH  37  50
ATOM     50  O   UNL     1      32.969  32.001  29.747  1.00  0.00    -0.508 OA
ATOM     51  H   UNL     1      32.825  32.008  30.748  1.00  0.00     0.293 HD
ENDBRANCH  37  50
ENDBRANCH  26  27
ENDBRANCH   5  26
BRANCH   4  52
ATOM     52  O   UNL     1      30.592  40.228  25.377  1.00  0.00    -0.384 OA
ATOM     53  H   UNL     1      29.778  40.803  25.325  1.00  0.00     0.211 HD
ENDBRANCH   4  52
TORSDOF 16
ENDMDL
