MODEL 1
REMARK VINA RESULT:    -3.927      0.000      0.000
REMARK INTER + INTRA:          -5.018
REMARK INTER:                  -5.534
REMARK INTRA:                   0.516
REMARK UNBOUND:                 0.516
REMARK SMILES OCC1=C[C@@H](O)[C@@H]2C=CO[C@H](O[C@H]3O[C@@H](CO)[C@H](O)[C@H](O)[C@@H]3O)[C@@H]12
REMARK SMILES IDX 12 1 11 2 8 3 9 4 7 5 10 6 24 7 5 8 3 9 4 10 6 11 2 13 1 14
REMARK SMILES IDX 13 16 22 17 14 18 20 19 15 20 18 21 23 22 21 24 16 26 17 27
REMARK SMILES IDX 19 29
REMARK H PARENT 6 12 1 15 23 23 21 25 17 28 19 30
REMARK Flexibility Score: inf
ROOT
ATOM      1  O   UNL     1       0.805   8.011 -13.330  1.00  0.00    -0.310 OA
ENDROOT
BRANCH   1   2
ATOM      2  C   UNL     1       1.048   7.263 -14.522  1.00  0.00     0.316 C 
ATOM      3  C   UNL     1      -0.125   5.844 -16.789  1.00  0.00     0.018 C 
ATOM      4  C   UNL     1      -0.078   5.256 -15.586  1.00  0.00     0.186 C 
ATOM      5  C   UNL     1       0.660   7.102 -16.954  1.00  0.00     0.061 C 
ATOM      6  O   UNL     1       0.550   5.899 -14.491  1.00  0.00    -0.472 OA
ATOM      7  C   UNL     1       0.447   7.986 -15.739  1.00  0.00     0.096 C 
ATOM      8  C   UNL     1       0.372   8.036 -18.131  1.00  0.00     0.145 C 
ATOM      9  C   UNL     1       0.995   9.288 -16.229  1.00  0.00    -0.036 C 
ATOM     10  C   UNL     1       0.847   9.344 -17.562  1.00  0.00     0.007 C 
BRANCH   8  11
ATOM     11  O   UNL     1       1.118   7.696 -19.270  1.00  0.00    -0.388 OA
ATOM     12  H   UNL     1       0.468   7.587 -20.012  1.00  0.00     0.211 HD
ENDBRANCH   8  11
BRANCH   9  13
ATOM     13  C   UNL     1       1.312  10.477 -15.361  1.00  0.00     0.187 C 
BRANCH  13  14
ATOM     14  O   UNL     1       2.570  10.347 -14.755  1.00  0.00    -0.392 OA
ATOM     15  H   UNL     1       2.418  10.384 -13.776  1.00  0.00     0.211 HD
ENDBRANCH  13  14
ENDBRANCH   9  13
ENDBRANCH   1   2
BRANCH   1  16
ATOM     16  C   UNL     1       0.644   7.252 -12.140  1.00  0.00     0.286 C 
ATOM     17  C   UNL     1       1.592   7.783 -11.032  1.00  0.00     0.202 C 
ATOM     18  O   UNL     1       1.012   5.921 -12.452  1.00  0.00    -0.341 OA
ATOM     19  C   UNL     1       2.038   6.655 -10.070  1.00  0.00     0.179 C 
ATOM     20  C   UNL     1       0.637   5.005 -11.431  1.00  0.00     0.178 C 
ATOM     21  C   UNL     1       1.013   5.503  -9.990  1.00  0.00     0.177 C 
BRANCH  17  22
ATOM     22  O   UNL     1       0.988   8.825 -10.313  1.00  0.00    -0.385 OA
ATOM     23  H   UNL     1       0.451   8.404  -9.593  1.00  0.00     0.211 HD
ENDBRANCH  17  22
BRANCH  19  24
ATOM     24  O   UNL     1       2.338   7.165  -8.792  1.00  0.00    -0.387 OA
ATOM     25  H   UNL     1       2.094   6.459  -8.137  1.00  0.00     0.211 HD
ENDBRANCH  19  24
BRANCH  20  26
ATOM     26  C   UNL     1       1.339   3.674 -11.735  1.00  0.00     0.191 C 
BRANCH  26  27
ATOM     27  O   UNL     1       2.158   3.827 -12.867  1.00  0.00    -0.394 OA
ATOM     28  H   UNL     1       1.556   3.889 -13.657  1.00  0.00     0.210 HD
ENDBRANCH  26  27
ENDBRANCH  20  26
BRANCH  21  29
ATOM     29  O   UNL     1      -0.118   5.878  -9.237  1.00  0.00    -0.387 OA
ATOM     30  H   UNL     1      -0.077   5.435  -8.352  1.00  0.00     0.211 HD
ENDBRANCH  21  29
ENDBRANCH   1  16
TORSDOF 10
ENDMDL
MODEL 2
REMARK VINA RESULT:    -3.437      1.671      3.751
REMARK INTER + INTRA:          -4.328
REMARK INTER:                  -3.551
REMARK INTRA:                  -0.777
REMARK UNBOUND:                 0.516
REMARK SMILES OCC1=C[C@@H](O)[C@@H]2C=CO[C@H](O[C@H]3O[C@@H](CO)[C@H](O)[C@H](O)[C@@H]3O)[C@@H]12
REMARK SMILES IDX 12 1 11 2 8 3 9 4 7 5 10 6 24 7 5 8 3 9 4 10 6 11 2 13 1 14
REMARK SMILES IDX 13 16 22 17 14 18 20 19 15 20 18 21 23 22 21 24 16 26 17 27
REMARK SMILES IDX 19 29
REMARK H PARENT 6 12 1 15 23 23 21 25 17 28 19 30
REMARK Flexibility Score: inf
ROOT
ATOM      1  O   UNL     1       2.613   7.219 -13.441  1.00  0.00    -0.310 OA
ENDROOT
BRANCH   1   2
ATOM      2  C   UNL     1       2.339   8.554 -13.866  1.00  0.00     0.316 C 
ATOM      3  C   UNL     1       2.920  10.662 -15.802  1.00  0.00     0.018 C 
ATOM      4  C   UNL     1       3.778  10.420 -14.803  1.00  0.00     0.186 C 
ATOM      5  C   UNL     1       1.585  10.002 -15.718  1.00  0.00     0.061 C 
ATOM      6  O   UNL     1       3.482   9.450 -13.813  1.00  0.00    -0.472 OA
ATOM      7  C   UNL     1       1.770   8.556 -15.295  1.00  0.00     0.096 C 
ATOM      8  C   UNL     1       0.701   9.900 -16.962  1.00  0.00     0.145 C 
ATOM      9  C   UNL     1       0.421   7.990 -15.604  1.00  0.00    -0.036 C 
ATOM     10  C   UNL     1      -0.119   8.689 -16.614  1.00  0.00     0.007 C 
BRANCH   8  11
ATOM     11  O   UNL     1      -0.125  11.025 -17.116  1.00  0.00    -0.388 OA
ATOM     12  H   UNL     1      -0.036  11.313 -18.062  1.00  0.00     0.211 HD
ENDBRANCH   8  11
BRANCH   9  13
ATOM     13  C   UNL     1      -0.087   6.653 -15.132  1.00  0.00     0.187 C 
BRANCH  13  14
ATOM     14  O   UNL     1       0.398   5.610 -15.935  1.00  0.00    -0.392 OA
ATOM     15  H   UNL     1      -0.165   4.818 -15.741  1.00  0.00     0.211 HD
ENDBRANCH  13  14
ENDBRANCH   9  13
ENDBRANCH   1   2
BRANCH   1  16
ATOM     16  C   UNL     1       2.352   6.932 -12.076  1.00  0.00     0.286 C 
ATOM     17  C   UNL     1       1.829   5.479 -11.921  1.00  0.00     0.202 C 
ATOM     18  O   UNL     1       1.337   7.827 -11.658  1.00  0.00    -0.341 OA
ATOM     19  C   UNL     1       0.857   5.344 -10.724  1.00  0.00     0.179 C 
ATOM     20  C   UNL     1       1.173   7.836 -10.246  1.00  0.00     0.178 C 
ATOM     21  C   UNL     1       1.120   6.395  -9.624  1.00  0.00     0.177 C 
BRANCH  17  22
ATOM     22  O   UNL     1       2.893   4.575 -11.789  1.00  0.00    -0.385 OA
ATOM     23  H   UNL     1       3.087   4.500 -10.819  1.00  0.00     0.211 HD
ENDBRANCH  17  22
BRANCH  19  24
ATOM     24  O   UNL     1       0.874   4.037 -10.200  1.00  0.00    -0.387 OA
ATOM     25  H   UNL     1       1.638   3.567 -10.626  1.00  0.00     0.211 HD
ENDBRANCH  19  24
BRANCH  20  26
ATOM     26  C   UNL     1      -0.125   8.596  -9.943  1.00  0.00     0.191 C 
BRANCH  26  27
ATOM     27  O   UNL     1      -0.093   9.847 -10.583  1.00  0.00    -0.394 OA
ATOM     28  H   UNL     1      -0.573  10.489  -9.993  1.00  0.00     0.210 HD
ENDBRANCH  26  27
ENDBRANCH  20  26
BRANCH  21  29
ATOM     29  O   UNL     1       2.281   6.081  -8.887  1.00  0.00    -0.387 OA
ATOM     30  H   UNL     1       2.716   5.290  -9.294  1.00  0.00     0.211 HD
ENDBRANCH  21  29
ENDBRANCH   1  16
TORSDOF 10
ENDMDL
MODEL 3
REMARK VINA RESULT:    -3.367      1.768      2.963
REMARK INTER + INTRA:          -4.229
REMARK INTER:                  -3.164
REMARK INTRA:                  -1.064
REMARK UNBOUND:                 0.516
REMARK SMILES OCC1=C[C@@H](O)[C@@H]2C=CO[C@H](O[C@H]3O[C@@H](CO)[C@H](O)[C@H](O)[C@@H]3O)[C@@H]12
REMARK SMILES IDX 12 1 11 2 8 3 9 4 7 5 10 6 24 7 5 8 3 9 4 10 6 11 2 13 1 14
REMARK SMILES IDX 13 16 22 17 14 18 20 19 15 20 18 21 23 22 21 24 16 26 17 27
REMARK SMILES IDX 19 29
REMARK H PARENT 6 12 1 15 23 23 21 25 17 28 19 30
REMARK Flexibility Score: inf
ROOT
ATOM      1  O   UNL     1       2.311   7.266 -12.153  1.00  0.00    -0.310 OA
ENDROOT
BRANCH   1   2
ATOM      2  C   UNL     1       2.202   6.148 -13.035  1.00  0.00     0.316 C 
ATOM      3  C   UNL     1       0.576   3.886 -13.910  1.00  0.00     0.018 C 
ATOM      4  C   UNL     1       1.280   3.801 -12.774  1.00  0.00     0.186 C 
ATOM      5  C   UNL     1       0.866   5.051 -14.796  1.00  0.00     0.061 C 
ATOM      6  O   UNL     1       2.130   4.859 -12.368  1.00  0.00    -0.472 OA
ATOM      7  C   UNL     1       0.976   6.306 -13.950  1.00  0.00     0.096 C 
ATOM      8  C   UNL     1      -0.125   5.445 -15.893  1.00  0.00     0.145 C 
ATOM      9  C   UNL     1       0.911   7.369 -15.000  1.00  0.00    -0.036 C 
ATOM     10  C   UNL     1       0.198   6.906 -16.038  1.00  0.00     0.007 C 
BRANCH   8  11
ATOM     11  O   UNL     1       0.122   4.765 -17.096  1.00  0.00    -0.388 OA
ATOM     12  H   UNL     1       0.902   4.173 -16.931  1.00  0.00     0.211 HD
ENDBRANCH   8  11
BRANCH   9  13
ATOM     13  C   UNL     1       1.255   8.820 -14.787  1.00  0.00     0.187 C 
BRANCH  13  14
ATOM     14  O   UNL     1       0.707   9.304 -13.589  1.00  0.00    -0.392 OA
ATOM     15  H   UNL     1       1.325   9.032 -12.865  1.00  0.00     0.211 HD
ENDBRANCH  13  14
ENDBRANCH   9  13
ENDBRANCH   1   2
BRANCH   1  16
ATOM     16  C   UNL     1       1.800   7.078 -10.842  1.00  0.00     0.286 C 
ATOM     17  C   UNL     1       1.217   8.409 -10.295  1.00  0.00     0.202 C 
ATOM     18  O   UNL     1       2.894   6.694 -10.029  1.00  0.00    -0.341 OA
ATOM     19  C   UNL     1       1.357   8.507  -8.757  1.00  0.00     0.179 C 
ATOM     20  C   UNL     1       2.478   6.209  -8.759  1.00  0.00     0.178 C 
ATOM     21  C   UNL     1       1.399   7.122  -8.075  1.00  0.00     0.177 C 
BRANCH  17  22
ATOM     22  O   UNL     1      -0.125   8.560 -10.674  1.00  0.00    -0.385 OA
ATOM     23  H   UNL     1      -0.205   9.455 -11.095  1.00  0.00     0.211 HD
ENDBRANCH  17  22
BRANCH  19  24
ATOM     24  O   UNL     1       0.348   9.320  -8.206  1.00  0.00    -0.387 OA
ATOM     25  H   UNL     1      -0.519   8.970  -8.542  1.00  0.00     0.211 HD
ENDBRANCH  19  24
BRANCH  20  26
ATOM     26  C   UNL     1       3.730   6.111  -7.876  1.00  0.00     0.191 C 
BRANCH  26  27
ATOM     27  O   UNL     1       4.761   5.485  -8.599  1.00  0.00    -0.394 OA
ATOM     28  H   UNL     1       5.596   5.994  -8.414  1.00  0.00     0.210 HD
ENDBRANCH  26  27
ENDBRANCH  20  26
BRANCH  21  29
ATOM     29  O   UNL     1       0.121   6.525  -8.053  1.00  0.00    -0.387 OA
ATOM     30  H   UNL     1       0.186   5.615  -8.439  1.00  0.00     0.211 HD
ENDBRANCH  21  29
ENDBRANCH   1  16
TORSDOF 10
ENDMDL
