MODEL 1
REMARK VINA RESULT:    -3.778      0.000      0.000
REMARK INTER + INTRA:          -4.716
REMARK INTER:                  -4.551
REMARK INTRA:                  -0.165
REMARK UNBOUND:                -0.165
REMARK SMILES OCC(O)CO
REMARK SMILES IDX 3 1 5 2 6 3 2 5 1 6 4 8
REMARK H PARENT 6 4 1 7 4 9
REMARK Flexibility Score: inf
ROOT
ATOM      1  C   UNL     1      -1.854  -7.899 -36.066  1.00  0.00     0.165 C 
ENDROOT
BRANCH   1   2
ATOM      2  C   UNL     1      -2.371  -8.683 -37.284  1.00  0.00     0.190 C 
BRANCH   2   3
ATOM      3  O   UNL     1      -3.614  -8.183 -37.697  1.00  0.00    -0.394 OA
ATOM      4  H   UNL     1      -3.586  -7.200 -37.554  1.00  0.00     0.210 HD
ENDBRANCH   2   3
ENDBRANCH   1   2
BRANCH   1   5
ATOM      5  C   UNL     1      -2.882  -7.879 -34.921  1.00  0.00     0.190 C 
BRANCH   5   6
ATOM      6  O   UNL     1      -3.370  -9.170 -34.666  1.00  0.00    -0.394 OA
ATOM      7  H   UNL     1      -2.585  -9.776 -34.669  1.00  0.00     0.210 HD
ENDBRANCH   5   6
ENDBRANCH   1   5
BRANCH   1   8
ATOM      8  O   UNL     1      -1.511  -6.585 -36.433  1.00  0.00    -0.388 OA
ATOM      9  H   UNL     1      -0.820  -6.266 -35.796  1.00  0.00     0.211 HD
ENDBRANCH   1   8
TORSDOF 5
ENDMDL
MODEL 2
REMARK VINA RESULT:    -3.747      0.758      2.827
REMARK INTER + INTRA:          -4.678
REMARK INTER:                  -4.464
REMARK INTRA:                  -0.215
REMARK UNBOUND:                -0.165
REMARK SMILES OCC(O)CO
REMARK SMILES IDX 3 1 5 2 6 3 2 5 1 6 4 8
REMARK H PARENT 6 4 1 7 4 9
REMARK Flexibility Score: inf
ROOT
ATOM      1  C   UNL     1      -2.610  -8.819 -35.596  1.00  0.00     0.165 C 
ENDROOT
BRANCH   1   2
ATOM      2  C   UNL     1      -2.369  -7.319 -35.353  1.00  0.00     0.190 C 
BRANCH   2   3
ATOM      3  O   UNL     1      -1.308  -6.858 -36.145  1.00  0.00    -0.394 OA
ATOM      4  H   UNL     1      -0.512  -6.810 -35.552  1.00  0.00     0.210 HD
ENDBRANCH   2   3
ENDBRANCH   1   2
BRANCH   1   5
ATOM      5  C   UNL     1      -3.190  -9.084 -36.996  1.00  0.00     0.190 C 
BRANCH   5   6
ATOM      6  O   UNL     1      -3.467  -7.879 -37.659  1.00  0.00    -0.394 OA
ATOM      7  H   UNL     1      -2.890  -7.860 -38.466  1.00  0.00     0.210 HD
ENDBRANCH   5   6
ENDBRANCH   1   5
BRANCH   1   8
ATOM      8  O   UNL     1      -3.461  -9.349 -34.610  1.00  0.00    -0.388 OA
ATOM      9  H   UNL     1      -4.316  -8.846 -34.648  1.00  0.00     0.211 HD
ENDBRANCH   1   8
TORSDOF 5
ENDMDL
MODEL 3
REMARK VINA RESULT:    -3.726      7.008      8.076
REMARK INTER + INTRA:          -4.654
REMARK INTER:                  -4.444
REMARK INTRA:                  -0.210
REMARK UNBOUND:                -0.165
REMARK SMILES OCC(O)CO
REMARK SMILES IDX 3 1 5 2 6 3 2 5 1 6 4 8
REMARK H PARENT 6 4 1 7 4 9
REMARK Flexibility Score: inf
ROOT
ATOM      1  C   UNL     1      -5.016 -10.444 -28.549  1.00  0.00     0.165 C 
ENDROOT
BRANCH   1   2
ATOM      2  C   UNL     1      -5.064 -11.804 -29.267  1.00  0.00     0.190 C 
BRANCH   2   3
ATOM      3  O   UNL     1      -4.666 -11.667 -30.604  1.00  0.00    -0.394 OA
ATOM      4  H   UNL     1      -3.720 -11.363 -30.588  1.00  0.00     0.210 HD
ENDBRANCH   2   3
ENDBRANCH   1   2
BRANCH   1   5
ATOM      5  C   UNL     1      -3.815  -9.599 -29.009  1.00  0.00     0.190 C 
BRANCH   5   6
ATOM      6  O   UNL     1      -4.097  -8.948 -30.219  1.00  0.00    -0.394 OA
ATOM      7  H   UNL     1      -3.382  -9.210 -30.856  1.00  0.00     0.210 HD
ENDBRANCH   5   6
ENDBRANCH   1   5
BRANCH   1   8
ATOM      8  O   UNL     1      -4.978 -10.623 -27.155  1.00  0.00    -0.388 OA
ATOM      9  H   UNL     1      -4.931 -11.599 -26.978  1.00  0.00     0.211 HD
ENDBRANCH   1   8
TORSDOF 5
ENDMDL
MODEL 4
REMARK VINA RESULT:    -3.704      6.574      7.646
REMARK INTER + INTRA:          -4.628
REMARK INTER:                  -4.442
REMARK INTRA:                  -0.185
REMARK UNBOUND:                -0.165
REMARK SMILES OCC(O)CO
REMARK SMILES IDX 3 1 5 2 6 3 2 5 1 6 4 8
REMARK H PARENT 6 4 1 7 4 9
REMARK Flexibility Score: inf
ROOT
ATOM      1  C   UNL     1      -3.634  -9.677 -28.456  1.00  0.00     0.165 C 
ENDROOT
BRANCH   1   2
ATOM      2  C   UNL     1      -3.368  -8.404 -29.278  1.00  0.00     0.190 C 
BRANCH   2   3
ATOM      3  O   UNL     1      -3.944  -8.514 -30.552  1.00  0.00    -0.394 OA
ATOM      4  H   UNL     1      -3.739  -9.431 -30.877  1.00  0.00     0.210 HD
ENDBRANCH   2   3
ENDBRANCH   1   2
BRANCH   1   5
ATOM      5  C   UNL     1      -4.787 -10.508 -29.047  1.00  0.00     0.190 C 
BRANCH   5   6
ATOM      6  O   UNL     1      -4.378 -11.170 -30.214  1.00  0.00    -0.394 OA
ATOM      7  H   UNL     1      -4.943 -10.821 -30.952  1.00  0.00     0.210 HD
ENDBRANCH   5   6
ENDBRANCH   1   5
BRANCH   1   8
ATOM      8  O   UNL     1      -3.907  -9.351 -27.116  1.00  0.00    -0.388 OA
ATOM      9  H   UNL     1      -3.080  -8.966 -26.725  1.00  0.00     0.211 HD
ENDBRANCH   1   8
TORSDOF 5
ENDMDL
MODEL 5
REMARK VINA RESULT:    -3.668      0.527      2.364
REMARK INTER + INTRA:          -4.584
REMARK INTER:                  -4.370
REMARK INTRA:                  -0.213
REMARK UNBOUND:                -0.165
REMARK SMILES OCC(O)CO
REMARK SMILES IDX 3 1 5 2 6 3 2 5 1 6 4 8
REMARK H PARENT 6 4 1 7 4 9
REMARK Flexibility Score: inf
ROOT
ATOM      1  C   UNL     1      -2.504  -7.555 -36.060  1.00  0.00     0.165 C 
ENDROOT
BRANCH   1   2
ATOM      2  C   UNL     1      -2.855  -7.978 -34.623  1.00  0.00     0.190 C 
BRANCH   2   3
ATOM      3  O   UNL     1      -3.487  -9.230 -34.621  1.00  0.00    -0.394 OA
ATOM      4  H   UNL     1      -3.374  -9.603 -33.707  1.00  0.00     0.210 HD
ENDBRANCH   2   3
ENDBRANCH   1   2
BRANCH   1   5
ATOM      5  C   UNL     1      -2.369  -8.770 -36.995  1.00  0.00     0.190 C 
BRANCH   5   6
ATOM      6  O   UNL     1      -3.576  -9.024 -37.662  1.00  0.00    -0.394 OA
ATOM      7  H   UNL     1      -3.946  -8.142 -37.926  1.00  0.00     0.210 HD
ENDBRANCH   5   6
ENDBRANCH   1   5
BRANCH   1   8
ATOM      8  O   UNL     1      -1.321  -6.796 -36.077  1.00  0.00    -0.388 OA
ATOM      9  H   UNL     1      -1.530  -5.906 -35.688  1.00  0.00     0.211 HD
ENDBRANCH   1   8
TORSDOF 5
ENDMDL
MODEL 6
REMARK VINA RESULT:    -3.665      7.531      8.253
REMARK INTER + INTRA:          -4.581
REMARK INTER:                  -4.578
REMARK INTRA:                  -0.002
REMARK UNBOUND:                -0.165
REMARK SMILES OCC(O)CO
REMARK SMILES IDX 3 1 5 2 6 3 2 5 1 6 4 8
REMARK H PARENT 6 4 1 7 4 9
REMARK Flexibility Score: inf
ROOT
ATOM      1  C   UNL     1      -5.244 -13.627 -31.459  1.00  0.00     0.165 C 
ENDROOT
BRANCH   1   2
ATOM      2  C   UNL     1      -5.401 -12.640 -30.289  1.00  0.00     0.190 C 
BRANCH   2   3
ATOM      3  O   UNL     1      -4.590 -11.514 -30.485  1.00  0.00    -0.394 OA
ATOM      4  H   UNL     1      -4.110 -11.656 -31.344  1.00  0.00     0.210 HD
ENDBRANCH   2   3
ENDBRANCH   1   2
BRANCH   1   5
ATOM      5  C   UNL     1      -6.545 -14.403 -31.730  1.00  0.00     0.190 C 
BRANCH   5   6
ATOM      6  O   UNL     1      -6.878 -14.360 -33.092  1.00  0.00    -0.394 OA
ATOM      7  H   UNL     1      -6.022 -14.364 -33.594  1.00  0.00     0.210 HD
ENDBRANCH   5   6
ENDBRANCH   1   5
BRANCH   1   8
ATOM      8  O   UNL     1      -4.188 -14.522 -31.213  1.00  0.00    -0.388 OA
ATOM      9  H   UNL     1      -4.545 -15.263 -30.658  1.00  0.00     0.211 HD
ENDBRANCH   1   8
TORSDOF 5
ENDMDL
MODEL 7
REMARK VINA RESULT:    -3.609      2.192      3.468
REMARK INTER + INTRA:          -4.512
REMARK INTER:                  -4.510
REMARK INTRA:                  -0.002
REMARK UNBOUND:                -0.165
REMARK SMILES OCC(O)CO
REMARK SMILES IDX 3 1 5 2 6 3 2 5 1 6 4 8
REMARK H PARENT 6 4 1 7 4 9
REMARK Flexibility Score: inf
ROOT
ATOM      1  C   UNL     1      -3.597  -9.268 -38.150  1.00  0.00     0.165 C 
ENDROOT
BRANCH   1   2
ATOM      2  C   UNL     1      -2.975  -8.851 -36.807  1.00  0.00     0.190 C 
BRANCH   2   3
ATOM      3  O   UNL     1      -2.633  -7.492 -36.825  1.00  0.00    -0.394 OA
ATOM      4  H   UNL     1      -3.444  -6.991 -36.542  1.00  0.00     0.210 HD
ENDBRANCH   2   3
ENDBRANCH   1   2
BRANCH   1   5
ATOM      5  C   UNL     1      -4.598 -10.425 -37.981  1.00  0.00     0.190 C 
BRANCH   5   6
ATOM      6  O   UNL     1      -5.706 -10.255 -38.824  1.00  0.00    -0.394 OA
ATOM      7  H   UNL     1      -6.142 -11.143 -38.902  1.00  0.00     0.210 HD
ENDBRANCH   5   6
ENDBRANCH   1   5
BRANCH   1   8
ATOM      8  O   UNL     1      -2.595  -9.624 -39.070  1.00  0.00    -0.388 OA
ATOM      9  H   UNL     1      -2.782  -9.143 -39.919  1.00  0.00     0.211 HD
ENDBRANCH   1   8
TORSDOF 5
ENDMDL
MODEL 8
REMARK VINA RESULT:    -3.527      3.520      4.840
REMARK INTER + INTRA:          -4.413
REMARK INTER:                  -4.411
REMARK INTRA:                  -0.003
REMARK UNBOUND:                -0.165
REMARK SMILES OCC(O)CO
REMARK SMILES IDX 3 1 5 2 6 3 2 5 1 6 4 8
REMARK H PARENT 6 4 1 7 4 9
REMARK Flexibility Score: inf
ROOT
ATOM      1  C   UNL     1      -5.058 -10.818 -38.041  1.00  0.00     0.165 C 
ENDROOT
BRANCH   1   2
ATOM      2  C   UNL     1      -5.548 -11.300 -36.665  1.00  0.00     0.190 C 
BRANCH   2   3
ATOM      3  O   UNL     1      -6.190 -12.541 -36.779  1.00  0.00    -0.394 OA
ATOM      4  H   UNL     1      -6.613 -12.724 -35.899  1.00  0.00     0.210 HD
ENDBRANCH   2   3
ENDBRANCH   1   2
BRANCH   1   5
ATOM      5  C   UNL     1      -3.990  -9.718 -37.913  1.00  0.00     0.190 C 
BRANCH   5   6
ATOM      6  O   UNL     1      -3.098  -9.760 -38.995  1.00  0.00    -0.394 OA
ATOM      7  H   UNL     1      -2.264  -9.314 -38.693  1.00  0.00     0.210 HD
ENDBRANCH   5   6
ENDBRANCH   1   5
BRANCH   1   8
ATOM      8  O   UNL     1      -6.138 -10.359 -38.817  1.00  0.00    -0.388 OA
ATOM      9  H   UNL     1      -6.578  -9.625 -38.314  1.00  0.00     0.211 HD
ENDBRANCH   1   8
TORSDOF 5
ENDMDL
MODEL 9
REMARK VINA RESULT:    -3.442      7.027      8.303
REMARK INTER + INTRA:          -4.312
REMARK INTER:                  -4.089
REMARK INTRA:                  -0.223
REMARK UNBOUND:                -0.165
REMARK SMILES OCC(O)CO
REMARK SMILES IDX 3 1 5 2 6 3 2 5 1 6 4 8
REMARK H PARENT 6 4 1 7 4 9
REMARK Flexibility Score: inf
ROOT
ATOM      1  C   UNL     1      -5.983 -14.205 -31.786  1.00  0.00     0.165 C 
ENDROOT
BRANCH   1   2
ATOM      2  C   UNL     1      -5.187 -12.971 -32.247  1.00  0.00     0.190 C 
BRANCH   2   3
ATOM      3  O   UNL     1      -4.735 -12.238 -31.141  1.00  0.00    -0.394 OA
ATOM      4  H   UNL     1      -5.347 -11.462 -31.044  1.00  0.00     0.210 HD
ENDBRANCH   2   3
ENDBRANCH   1   2
BRANCH   1   5
ATOM      5  C   UNL     1      -5.075 -15.434 -31.606  1.00  0.00     0.190 C 
BRANCH   5   6
ATOM      6  O   UNL     1      -3.777 -15.047 -31.241  1.00  0.00    -0.394 OA
ATOM      7  H   UNL     1      -3.717 -15.147 -30.255  1.00  0.00     0.210 HD
ENDBRANCH   5   6
ENDBRANCH   1   5
BRANCH   1   8
ATOM      8  O   UNL     1      -7.017 -14.493 -32.695  1.00  0.00    -0.388 OA
ATOM      9  H   UNL     1      -6.605 -14.907 -33.498  1.00  0.00     0.211 HD
ENDBRANCH   1   8
TORSDOF 5
ENDMDL
