MODEL 1
REMARK VINA RESULT:    -4.043      0.000      0.000
REMARK INTER + INTRA:          -4.043
REMARK INTER:                  -4.043
REMARK INTRA:                   0.000
REMARK UNBOUND:                 0.000
REMARK SMILES CC1=CC[C@@H]2[C@@H](C1)C2(C)C
REMARK SMILES IDX 1 1 2 2 3 3 4 4 5 5 6 6 7 7 8 8 9 9 10 10
REMARK H PARENT
REMARK Flexibility Score: inf
ROOT
ATOM      1  C   UNL     1     135.704 131.583 132.601  1.00  0.00     0.039 C 
ATOM      2  C   UNL     1     134.891 132.535 133.432  1.00  0.00    -0.077 C 
ATOM      3  C   UNL     1     134.481 133.719 132.890  1.00  0.00    -0.028 C 
ATOM      4  C   UNL     1     133.676 134.739 133.690  1.00  0.00     0.031 C 
ATOM      5  C   UNL     1     133.945 134.488 135.178  1.00  0.00     0.003 C 
ATOM      6  C   UNL     1     133.388 133.025 135.346  1.00  0.00     0.003 C 
ATOM      7  C   UNL     1     134.593 132.191 134.896  1.00  0.00     0.034 C 
ATOM      8  C   UNL     1     133.124 134.091 136.385  1.00  0.00    -0.029 C 
ATOM      9  C   UNL     1     131.708 134.671 136.442  1.00  0.00     0.012 C 
ATOM     10  C   UNL     1     133.873 133.924 137.710  1.00  0.00     0.012 C 
ENDROOT
TORSDOF 0
ENDMDL
MODEL 2
REMARK VINA RESULT:    -4.040      4.790      5.555
REMARK INTER + INTRA:          -4.040
REMARK INTER:                  -4.040
REMARK INTRA:                   0.000
REMARK UNBOUND:                 0.000
REMARK SMILES CC1=CC[C@@H]2[C@@H](C1)C2(C)C
REMARK SMILES IDX 1 1 2 2 3 3 4 4 5 5 6 6 7 7 8 8 9 9 10 10
REMARK H PARENT
REMARK Flexibility Score: inf
ROOT
ATOM      1  C   UNL     1     131.652 136.798 132.604  1.00  0.00     0.039 C 
ATOM      2  C   UNL     1     132.592 137.644 133.415  1.00  0.00    -0.077 C 
ATOM      3  C   UNL     1     133.758 138.080 132.854  1.00  0.00    -0.028 C 
ATOM      4  C   UNL     1     134.766 138.920 133.634  1.00  0.00     0.031 C 
ATOM      5  C   UNL     1     134.540 138.659 135.127  1.00  0.00     0.003 C 
ATOM      6  C   UNL     1     133.065 139.179 135.308  1.00  0.00     0.003 C 
ATOM      7  C   UNL     1     132.258 137.947 134.880  1.00  0.00     0.034 C 
ATOM      8  C   UNL     1     134.137 139.481 136.331  1.00  0.00    -0.029 C 
ATOM      9  C   UNL     1     134.679 140.912 136.367  1.00  0.00     0.012 C 
ATOM     10  C   UNL     1     134.006 138.740 137.665  1.00  0.00     0.012 C 
ENDROOT
TORSDOF 0
ENDMDL
MODEL 3
REMARK VINA RESULT:    -4.032      6.868      7.935
REMARK INTER + INTRA:          -4.032
REMARK INTER:                  -4.032
REMARK INTRA:                   0.000
REMARK UNBOUND:                 0.000
REMARK SMILES CC1=CC[C@@H]2[C@@H](C1)C2(C)C
REMARK SMILES IDX 1 1 2 2 3 3 4 4 5 5 6 6 7 7 8 8 9 9 10 10
REMARK H PARENT
REMARK Flexibility Score: inf
ROOT
ATOM      1  C   UNL     1     136.879 140.989 132.627  1.00  0.00     0.039 C 
ATOM      2  C   UNL     1     137.715 140.048 133.448  1.00  0.00    -0.077 C 
ATOM      3  C   UNL     1     138.115 138.859 132.908  1.00  0.00    -0.028 C 
ATOM      4  C   UNL     1     138.943 137.849 133.699  1.00  0.00     0.031 C 
ATOM      5  C   UNL     1     138.710 138.116 135.189  1.00  0.00     0.003 C 
ATOM      6  C   UNL     1     139.268 139.582 135.328  1.00  0.00     0.003 C 
ATOM      7  C   UNL     1     138.049 140.408 134.900  1.00  0.00     0.034 C 
ATOM      8  C   UNL     1     139.560 138.527 136.371  1.00  0.00    -0.029 C 
ATOM      9  C   UNL     1     140.978 137.952 136.399  1.00  0.00     0.012 C 
ATOM     10  C   UNL     1     138.844 138.707 137.713  1.00  0.00     0.012 C 
ENDROOT
TORSDOF 0
ENDMDL
MODEL 4
REMARK VINA RESULT:    -4.026      4.906      5.617
REMARK INTER + INTRA:          -4.026
REMARK INTER:                  -4.026
REMARK INTRA:                   0.000
REMARK UNBOUND:                 0.000
REMARK SMILES CC1=CC[C@@H]2[C@@H](C1)C2(C)C
REMARK SMILES IDX 1 1 2 2 3 3 4 4 5 5 6 6 7 7 8 8 9 9 10 10
REMARK H PARENT
REMARK Flexibility Score: inf
ROOT
ATOM      1  C   UNL     1     141.080 135.707 132.555  1.00  0.00     0.039 C 
ATOM      2  C   UNL     1     140.116 134.912 133.390  1.00  0.00    -0.077 C 
ATOM      3  C   UNL     1     138.930 134.509 132.846  1.00  0.00    -0.028 C 
ATOM      4  C   UNL     1     137.898 133.722 133.650  1.00  0.00     0.031 C 
ATOM      5  C   UNL     1     138.146 134.003 135.135  1.00  0.00     0.003 C 
ATOM      6  C   UNL     1     139.602 133.431 135.315  1.00  0.00     0.003 C 
ATOM      7  C   UNL     1     140.451 134.623 134.858  1.00  0.00     0.034 C 
ATOM      8  C   UNL     1     138.529 133.189 136.352  1.00  0.00    -0.029 C 
ATOM      9  C   UNL     1     137.934 131.780 136.419  1.00  0.00     0.012 C 
ATOM     10  C   UNL     1     138.699 133.948 137.671  1.00  0.00     0.012 C 
ENDROOT
TORSDOF 0
ENDMDL
MODEL 5
REMARK VINA RESULT:    -3.951      5.916      6.707
REMARK INTER + INTRA:          -3.951
REMARK INTER:                  -3.951
REMARK INTRA:                   0.000
REMARK UNBOUND:                 0.000
REMARK SMILES CC1=CC[C@@H]2[C@@H](C1)C2(C)C
REMARK SMILES IDX 1 1 2 2 3 3 4 4 5 5 6 6 7 7 8 8 9 9 10 10
REMARK H PARENT
REMARK Flexibility Score: inf
ROOT
ATOM      1  C   UNL     1     138.178 132.654 137.054  1.00  0.00     0.039 C 
ATOM      2  C   UNL     1     138.809 133.760 136.258  1.00  0.00    -0.077 C 
ATOM      3  C   UNL     1     139.347 133.484 135.034  1.00  0.00    -0.028 C 
ATOM      4  C   UNL     1     140.027 134.558 134.187  1.00  0.00     0.031 C 
ATOM      5  C   UNL     1     140.483 135.678 135.128  1.00  0.00     0.003 C 
ATOM      6  C   UNL     1     139.105 136.165 135.715  1.00  0.00     0.003 C 
ATOM      7  C   UNL     1     138.898 135.167 136.860  1.00  0.00     0.034 C 
ATOM      8  C   UNL     1     140.177 137.149 135.305  1.00  0.00    -0.029 C 
ATOM      9  C   UNL     1     139.940 137.936 134.013  1.00  0.00     0.012 C 
ATOM     10  C   UNL     1     140.885 137.873 136.454  1.00  0.00     0.012 C 
ENDROOT
TORSDOF 0
ENDMDL
MODEL 6
REMARK VINA RESULT:    -3.937      4.845      6.626
REMARK INTER + INTRA:          -3.937
REMARK INTER:                  -3.937
REMARK INTRA:                   0.000
REMARK UNBOUND:                 0.000
REMARK SMILES CC1=CC[C@@H]2[C@@H](C1)C2(C)C
REMARK SMILES IDX 1 1 2 2 3 3 4 4 5 5 6 6 7 7 8 8 9 9 10 10
REMARK H PARENT
REMARK Flexibility Score: inf
ROOT
ATOM      1  C   UNL     1     135.064 139.450 139.071  1.00  0.00     0.039 C 
ATOM      2  C   UNL     1     134.653 139.413 137.626  1.00  0.00    -0.077 C 
ATOM      3  C   UNL     1     134.849 140.514 136.843  1.00  0.00    -0.028 C 
ATOM      4  C   UNL     1     134.429 140.549 135.376  1.00  0.00     0.031 C 
ATOM      5  C   UNL     1     133.330 139.500 135.178  1.00  0.00     0.003 C 
ATOM      6  C   UNL     1     134.100 138.177 135.546  1.00  0.00     0.003 C 
ATOM      7  C   UNL     1     133.960 138.163 137.072  1.00  0.00     0.034 C 
ATOM      8  C   UNL     1     133.160 138.236 134.363  1.00  0.00    -0.029 C 
ATOM      9  C   UNL     1     133.795 138.256 132.971  1.00  0.00     0.012 C 
ATOM     10  C   UNL     1     131.840 137.476 134.528  1.00  0.00     0.012 C 
ENDROOT
TORSDOF 0
ENDMDL
MODEL 7
REMARK VINA RESULT:    -3.932      4.722      6.292
REMARK INTER + INTRA:          -3.932
REMARK INTER:                  -3.932
REMARK INTRA:                   0.000
REMARK UNBOUND:                 0.000
REMARK SMILES CC1=CC[C@@H]2[C@@H](C1)C2(C)C
REMARK SMILES IDX 1 1 2 2 3 3 4 4 5 5 6 6 7 7 8 8 9 9 10 10
REMARK H PARENT
REMARK Flexibility Score: inf
ROOT
ATOM      1  C   UNL     1     137.741 133.327 139.135  1.00  0.00     0.039 C 
ATOM      2  C   UNL     1     138.102 133.317 137.677  1.00  0.00    -0.077 C 
ATOM      3  C   UNL     1     137.864 132.197 136.934  1.00  0.00    -0.028 C 
ATOM      4  C   UNL     1     138.232 132.115 135.454  1.00  0.00     0.031 C 
ATOM      5  C   UNL     1     139.337 133.141 135.187  1.00  0.00     0.003 C 
ATOM      6  C   UNL     1     138.598 134.485 135.543  1.00  0.00     0.003 C 
ATOM      7  C   UNL     1     138.792 134.541 137.063  1.00  0.00     0.034 C 
ATOM      8  C   UNL     1     139.496 134.379 134.331  1.00  0.00    -0.029 C 
ATOM      9  C   UNL     1     138.812 134.328 132.963  1.00  0.00     0.012 C 
ATOM     10  C   UNL     1     140.830 135.124 134.428  1.00  0.00     0.012 C 
ENDROOT
TORSDOF 0
ENDMDL
MODEL 8
REMARK VINA RESULT:    -3.927      5.683      7.298
REMARK INTER + INTRA:          -3.927
REMARK INTER:                  -3.927
REMARK INTRA:                   0.000
REMARK UNBOUND:                 0.000
REMARK SMILES CC1=CC[C@@H]2[C@@H](C1)C2(C)C
REMARK SMILES IDX 1 1 2 2 3 3 4 4 5 5 6 6 7 7 8 8 9 9 10 10
REMARK H PARENT
REMARK Flexibility Score: inf
ROOT
ATOM      1  C   UNL     1     132.215 138.120 134.920  1.00  0.00     0.039 C 
ATOM      2  C   UNL     1     133.523 138.824 135.144  1.00  0.00    -0.077 C 
ATOM      3  C   UNL     1     133.760 139.434 136.342  1.00  0.00    -0.028 C 
ATOM      4  C   UNL     1     135.058 140.189 136.622  1.00  0.00     0.031 C 
ATOM      5  C   UNL     1     135.658 140.607 135.276  1.00  0.00     0.003 C 
ATOM      6  C   UNL     1     135.917 139.204 134.608  1.00  0.00     0.003 C 
ATOM      7  C   UNL     1     134.541 138.903 134.001  1.00  0.00     0.034 C 
ATOM      8  C   UNL     1     136.932 140.321 134.512  1.00  0.00    -0.029 C 
ATOM      9  C   UNL     1     138.197 140.184 135.362  1.00  0.00     0.012 C 
ATOM     10  C   UNL     1     137.074 140.968 133.131  1.00  0.00     0.012 C 
ENDROOT
TORSDOF 0
ENDMDL
MODEL 9
REMARK VINA RESULT:    -3.893      6.634      7.934
REMARK INTER + INTRA:          -3.893
REMARK INTER:                  -3.893
REMARK INTRA:                   0.000
REMARK UNBOUND:                 0.000
REMARK SMILES CC1=CC[C@@H]2[C@@H](C1)C2(C)C
REMARK SMILES IDX 1 1 2 2 3 3 4 4 5 5 6 6 7 7 8 8 9 9 10 10
REMARK H PARENT
REMARK Flexibility Score: inf
ROOT
ATOM      1  C   UNL     1     138.091 140.456 134.885  1.00  0.00     0.039 C 
ATOM      2  C   UNL     1     138.788 139.147 135.122  1.00  0.00    -0.077 C 
ATOM      3  C   UNL     1     139.366 138.903 136.335  1.00  0.00    -0.028 C 
ATOM      4  C   UNL     1     140.112 137.604 136.629  1.00  0.00     0.031 C 
ATOM      5  C   UNL     1     140.566 137.010 135.291  1.00  0.00     0.003 C 
ATOM      6  C   UNL     1     139.182 136.755 134.585  1.00  0.00     0.003 C 
ATOM      7  C   UNL     1     138.897 138.133 133.977  1.00  0.00     0.034 C 
ATOM      8  C   UNL     1     140.300 135.740 134.513  1.00  0.00    -0.029 C 
ATOM      9  C   UNL     1     140.141 134.470 135.354  1.00  0.00     0.012 C 
ATOM     10  C   UNL     1     140.985 135.604 133.150  1.00  0.00     0.012 C 
ENDROOT
TORSDOF 0
ENDMDL
