MODEL 1
REMARK VINA RESULT:    -7.360      0.000      0.000
REMARK INTER + INTRA:         -11.657
REMARK INTER:                 -10.372
REMARK INTRA:                  -1.284
REMARK UNBOUND:                -1.284
REMARK SMILES COc1c(O[C@H]2O[C@H](C(=O)[O-])[C@H](O)[C@@H](O)[C@H]2O)cc(O)c2c(=O)cc(-c3ccccc3)oc12
REMARK SMILES IDX 5 1 6 2 8 3 12 4 7 5 14 6 16 7 9 8 10 9 11 10 13 11 15 13
REMARK SMILES IDX 17 15 4 17 3 18 18 19 33 20 19 21 21 22 32 23 22 24 25 25
REMARK SMILES IDX 24 26 23 27 2 28 1 29 20 30 26 32 27 33 31 34 28 35 30 36
REMARK SMILES IDX 29 37
REMARK H PARENT 13 12 15 14 17 16 20 31
REMARK Flexibility Score: inf
ROOT
ATOM      1  O   UNL     1      24.682   2.805  38.730  1.00  0.00    -0.458 OA
ENDROOT
BRANCH   1   2
ATOM      2  C   UNL     1      23.626   3.277  39.574  1.00  0.00     0.339 C 
ATOM      3  C   UNL     1      24.720   2.619  41.547  1.00  0.00     0.199 C 
ATOM      4  C   UNL     1      24.941   4.068  42.032  1.00  0.00     0.180 C 
ATOM      5  O   UNL     1      23.535   2.513  40.769  1.00  0.00    -0.328 OA
ATOM      6  C   UNL     1      25.021   5.015  40.818  1.00  0.00     0.181 C 
ATOM      7  C   UNL     1      23.807   4.779  39.896  1.00  0.00     0.214 C 
BRANCH   3   8
ATOM      8  C   UNL     1      24.625   1.685  42.718  1.00  0.00     0.073 C 
ATOM      9  O   UNL     1      25.454   0.749  42.860  1.00  0.00    -0.547 OA
ATOM     10  O   UNL     1      23.583   1.821  43.628  1.00  0.00    -0.547 OA
ENDBRANCH   3   8
BRANCH   4  11
ATOM     11  O   UNL     1      23.883   4.455  42.874  1.00  0.00    -0.387 OA
ATOM     12  H   UNL     1      23.431   3.622  43.167  1.00  0.00     0.211 HD
ENDBRANCH   4  11
BRANCH   6  13
ATOM     13  O   UNL     1      26.218   4.793  40.114  1.00  0.00    -0.387 OA
ATOM     14  H   UNL     1      25.963   4.484  39.206  1.00  0.00     0.211 HD
ENDBRANCH   6  13
BRANCH   7  15
ATOM     15  O   UNL     1      23.880   5.557  38.727  1.00  0.00    -0.384 OA
ATOM     16  H   UNL     1      22.995   5.981  38.581  1.00  0.00     0.211 HD
ENDBRANCH   7  15
ENDBRANCH   1   2
BRANCH   1  17
ATOM     17  C   UNL     1      24.633   1.742  37.808  1.00  0.00     0.172 A 
ATOM     18  C   UNL     1      25.704   0.843  37.566  1.00  0.00     0.205 A 
ATOM     19  C   UNL     1      23.436   1.596  37.109  1.00  0.00     0.097 A 
ATOM     20  C   UNL     1      25.546  -0.169  36.580  1.00  0.00     0.188 A 
ATOM     21  C   UNL     1      23.270   0.604  36.141  1.00  0.00     0.134 A 
ATOM     22  C   UNL     1      24.328  -0.282  35.860  1.00  0.00     0.111 A 
ATOM     23  O   UNL     1      26.541  -1.014  36.319  1.00  0.00    -0.452 OA
ATOM     24  C   UNL     1      24.229  -1.292  34.880  1.00  0.00     0.197 A 
ATOM     25  C   UNL     1      26.483  -1.968  35.395  1.00  0.00     0.138 A 
ATOM     26  C   UNL     1      25.312  -2.135  34.646  1.00  0.00     0.100 A 
ATOM     27  O   UNL     1      23.176  -1.455  34.205  1.00  0.00    -0.289 OA
BRANCH  18  28
ATOM     28  O   UNL     1      26.883   0.992  38.320  1.00  0.00    -0.490 OA
ATOM     29  C   UNL     1      27.071   0.680  39.695  1.00  0.00     0.278 C 
ENDBRANCH  18  28
BRANCH  21  30
ATOM     30  O   UNL     1      22.052   0.512  35.463  1.00  0.00    -0.507 OA
ATOM     31  H   UNL     1      21.984   0.671  34.464  1.00  0.00     0.293 HD
ENDBRANCH  21  30
BRANCH  25  32
ATOM     32  C   UNL     1      27.659  -2.844  35.186  1.00  0.00     0.017 A 
ATOM     33  C   UNL     1      27.605  -3.866  34.222  1.00  0.00     0.012 A 
ATOM     34  C   UNL     1      28.830  -2.694  35.953  1.00  0.00     0.012 A 
ATOM     35  C   UNL     1      28.704  -4.705  34.015  1.00  0.00     0.001 A 
ATOM     36  C   UNL     1      29.926  -3.536  35.743  1.00  0.00     0.001 A 
ATOM     37  C   UNL     1      29.865  -4.539  34.773  1.00  0.00     0.000 A 
ENDBRANCH  25  32
ENDBRANCH   1  17
TORSDOF 9
ENDMDL
MODEL 2
REMARK VINA RESULT:    -6.976      1.889      3.390
REMARK INTER + INTRA:         -11.115
REMARK INTER:                  -9.650
REMARK INTRA:                  -1.465
REMARK UNBOUND:                -1.284
REMARK SMILES COc1c(O[C@H]2O[C@H](C(=O)[O-])[C@H](O)[C@@H](O)[C@H]2O)cc(O)c2c(=O)cc(-c3ccccc3)oc12
REMARK SMILES IDX 5 1 6 2 8 3 12 4 7 5 14 6 16 7 9 8 10 9 11 10 13 11 15 13
REMARK SMILES IDX 17 15 4 17 3 18 18 19 33 20 19 21 21 22 32 23 22 24 25 25
REMARK SMILES IDX 24 26 23 27 2 28 1 29 20 30 26 32 27 33 31 34 28 35 30 36
REMARK SMILES IDX 29 37
REMARK H PARENT 13 12 15 14 17 16 20 31
REMARK Flexibility Score: inf
ROOT
ATOM      1  O   UNL     1      23.292   1.289  37.955  1.00  0.00    -0.458 OA
ENDROOT
BRANCH   1   2
ATOM      2  C   UNL     1      23.693   2.661  37.870  1.00  0.00     0.339 C 
ATOM      3  C   UNL     1      21.489   3.460  38.022  1.00  0.00     0.199 C 
ATOM      4  C   UNL     1      21.707   4.108  39.406  1.00  0.00     0.180 C 
ATOM      5  O   UNL     1      22.689   3.460  37.261  1.00  0.00    -0.328 OA
ATOM      6  C   UNL     1      22.813   3.348  40.166  1.00  0.00     0.181 C 
ATOM      7  C   UNL     1      24.060   3.214  39.267  1.00  0.00     0.214 C 
BRANCH   3   8
ATOM      8  C   UNL     1      20.424   4.198  37.264  1.00  0.00     0.073 C 
ATOM      9  O   UNL     1      19.668   5.015  37.852  1.00  0.00    -0.547 OA
ATOM     10  O   UNL     1      20.234   3.941  35.912  1.00  0.00    -0.547 OA
ENDBRANCH   3   8
BRANCH   4  11
ATOM     11  O   UNL     1      22.073   5.457  39.250  1.00  0.00    -0.387 OA
ATOM     12  H   UNL     1      23.030   5.525  39.505  1.00  0.00     0.211 HD
ENDBRANCH   4  11
BRANCH   6  13
ATOM     13  O   UNL     1      22.348   2.076  40.546  1.00  0.00    -0.387 OA
ATOM     14  H   UNL     1      21.435   2.203  40.913  1.00  0.00     0.211 HD
ENDBRANCH   6  13
BRANCH   7  15
ATOM     15  O   UNL     1      25.068   2.449  39.882  1.00  0.00    -0.384 OA
ATOM     16  H   UNL     1      24.632   1.775  40.465  1.00  0.00     0.211 HD
ENDBRANCH   7  15
ENDBRANCH   1   2
BRANCH   1  17
ATOM     17  C   UNL     1      23.624   0.242  37.073  1.00  0.00     0.172 A 
ATOM     18  C   UNL     1      24.925  -0.306  36.937  1.00  0.00     0.205 A 
ATOM     19  C   UNL     1      22.577  -0.262  36.303  1.00  0.00     0.097 A 
ATOM     20  C   UNL     1      25.143  -1.337  35.983  1.00  0.00     0.188 A 
ATOM     21  C   UNL     1      22.780  -1.276  35.365  1.00  0.00     0.134 A 
ATOM     22  C   UNL     1      24.068  -1.817  35.189  1.00  0.00     0.111 A 
ATOM     23  O   UNL     1      26.358  -1.856  35.821  1.00  0.00    -0.452 OA
ATOM     24  C   UNL     1      24.342  -2.828  34.245  1.00  0.00     0.197 A 
ATOM     25  C   UNL     1      26.650  -2.803  34.933  1.00  0.00     0.138 A 
ATOM     26  C   UNL     1      25.638  -3.319  34.115  1.00  0.00     0.100 A 
ATOM     27  O   UNL     1      23.436  -3.305  33.509  1.00  0.00    -0.289 OA
BRANCH  18  28
ATOM     28  O   UNL     1      25.950   0.196  37.760  1.00  0.00    -0.490 OA
ATOM     29  C   UNL     1      26.983   1.103  37.394  1.00  0.00     0.278 C 
ENDBRANCH  18  28
BRANCH  21  30
ATOM     30  O   UNL     1      21.696  -1.734  34.613  1.00  0.00    -0.507 OA
ATOM     31  H   UNL     1      21.260  -1.160  33.900  1.00  0.00     0.293 HD
ENDBRANCH  21  30
BRANCH  25  32
ATOM     32  C   UNL     1      28.043  -3.297  34.835  1.00  0.00     0.017 A 
ATOM     33  C   UNL     1      28.347  -4.359  33.966  1.00  0.00     0.012 A 
ATOM     34  C   UNL     1      29.074  -2.743  35.618  1.00  0.00     0.012 A 
ATOM     35  C   UNL     1      29.656  -4.842  33.865  1.00  0.00     0.001 A 
ATOM     36  C   UNL     1      30.380  -3.230  35.515  1.00  0.00     0.001 A 
ATOM     37  C   UNL     1      30.672  -4.276  34.638  1.00  0.00     0.000 A 
ENDBRANCH  25  32
ENDBRANCH   1  17
TORSDOF 9
ENDMDL
MODEL 3
REMARK VINA RESULT:    -6.951      1.104      1.301
REMARK INTER + INTRA:         -11.080
REMARK INTER:                  -9.800
REMARK INTRA:                  -1.279
REMARK UNBOUND:                -1.284
REMARK SMILES COc1c(O[C@H]2O[C@H](C(=O)[O-])[C@H](O)[C@@H](O)[C@H]2O)cc(O)c2c(=O)cc(-c3ccccc3)oc12
REMARK SMILES IDX 5 1 6 2 8 3 12 4 7 5 14 6 16 7 9 8 10 9 11 10 13 11 15 13
REMARK SMILES IDX 17 15 4 17 3 18 18 19 33 20 19 21 21 22 32 23 22 24 25 25
REMARK SMILES IDX 24 26 23 27 2 28 1 29 20 30 26 32 27 33 31 34 28 35 30 36
REMARK SMILES IDX 29 37
REMARK H PARENT 13 12 15 14 17 16 20 31
REMARK Flexibility Score: inf
ROOT
ATOM      1  O   UNL     1      23.856   2.119  38.078  1.00  0.00    -0.458 OA
ENDROOT
BRANCH   1   2
ATOM      2  C   UNL     1      22.704   2.461  38.859  1.00  0.00     0.339 C 
ATOM      3  C   UNL     1      23.970   2.885  40.792  1.00  0.00     0.199 C 
ATOM      4  C   UNL     1      23.667   4.400  40.785  1.00  0.00     0.180 C 
ATOM      5  O   UNL     1      22.895   2.145  40.231  1.00  0.00    -0.328 OA
ATOM      6  C   UNL     1      23.402   4.868  39.340  1.00  0.00     0.181 C 
ATOM      7  C   UNL     1      22.345   3.955  38.685  1.00  0.00     0.214 C 
BRANCH   3   8
ATOM      8  C   UNL     1      24.216   2.410  42.195  1.00  0.00     0.073 C 
ATOM      9  O   UNL     1      25.337   1.941  42.524  1.00  0.00    -0.547 OA
ATOM     10  O   UNL     1      23.185   2.439  43.125  1.00  0.00    -0.547 OA
ENDBRANCH   3   8
BRANCH   4  11
ATOM     11  O   UNL     1      22.545   4.666  41.589  1.00  0.00    -0.387 OA
ATOM     12  H   UNL     1      22.407   5.648  41.571  1.00  0.00     0.211 HD
ENDBRANCH   4  11
BRANCH   6  13
ATOM     13  O   UNL     1      24.597   4.840  38.599  1.00  0.00    -0.387 OA
ATOM     14  H   UNL     1      25.204   4.203  39.058  1.00  0.00     0.211 HD
ENDBRANCH   6  13
BRANCH   7  15
ATOM     15  O   UNL     1      22.133   4.286  37.335  1.00  0.00    -0.384 OA
ATOM     16  H   UNL     1      21.524   3.609  36.941  1.00  0.00     0.211 HD
ENDBRANCH   7  15
ENDBRANCH   1   2
BRANCH   1  17
ATOM     17  C   UNL     1      24.011   1.017  37.215  1.00  0.00     0.172 A 
ATOM     18  C   UNL     1      25.212   0.277  37.071  1.00  0.00     0.205 A 
ATOM     19  C   UNL     1      22.885   0.659  36.474  1.00  0.00     0.097 A 
ATOM     20  C   UNL     1      25.255  -0.795  36.138  1.00  0.00     0.188 A 
ATOM     21  C   UNL     1      22.916  -0.392  35.557  1.00  0.00     0.134 A 
ATOM     22  C   UNL     1      24.106  -1.124  35.373  1.00  0.00     0.111 A 
ATOM     23  O   UNL     1      26.376  -1.493  35.969  1.00  0.00    -0.452 OA
ATOM     24  C   UNL     1      24.207  -2.184  34.448  1.00  0.00     0.197 A 
ATOM     25  C   UNL     1      26.506  -2.491  35.098  1.00  0.00     0.138 A 
ATOM     26  C   UNL     1      25.412  -2.866  34.309  1.00  0.00     0.100 A 
ATOM     27  O   UNL     1      23.226  -2.535  33.737  1.00  0.00    -0.289 OA
BRANCH  18  28
ATOM     28  O   UNL     1      26.316   0.636  37.867  1.00  0.00    -0.490 OA
ATOM     29  C   UNL     1      27.268   1.662  37.607  1.00  0.00     0.278 C 
ENDBRANCH  18  28
BRANCH  21  30
ATOM     30  O   UNL     1      21.762  -0.698  34.833  1.00  0.00    -0.507 OA
ATOM     31  H   UNL     1      21.791  -0.886  33.837  1.00  0.00     0.293 HD
ENDBRANCH  21  30
BRANCH  25  32
ATOM     32  C   UNL     1      27.807  -3.190  34.990  1.00  0.00     0.017 A 
ATOM     33  C   UNL     1      27.953  -4.255  34.083  1.00  0.00     0.012 A 
ATOM     34  C   UNL     1      28.902  -2.830  35.798  1.00  0.00     0.012 A 
ATOM     35  C   UNL     1      29.173  -4.930  33.972  1.00  0.00     0.001 A 
ATOM     36  C   UNL     1      30.119  -3.509  35.684  1.00  0.00     0.001 A 
ATOM     37  C   UNL     1      30.256  -4.555  34.770  1.00  0.00     0.000 A 
ENDBRANCH  25  32
ENDBRANCH   1  17
TORSDOF 9
ENDMDL
MODEL 4
REMARK VINA RESULT:    -6.666      2.355      9.087
REMARK INTER + INTRA:         -10.678
REMARK INTER:                  -9.174
REMARK INTRA:                  -1.504
REMARK UNBOUND:                -1.284
REMARK SMILES COc1c(O[C@H]2O[C@H](C(=O)[O-])[C@H](O)[C@@H](O)[C@H]2O)cc(O)c2c(=O)cc(-c3ccccc3)oc12
REMARK SMILES IDX 5 1 6 2 8 3 12 4 7 5 14 6 16 7 9 8 10 9 11 10 13 11 15 13
REMARK SMILES IDX 17 15 4 17 3 18 18 19 33 20 19 21 21 22 32 23 22 24 25 25
REMARK SMILES IDX 24 26 23 27 2 28 1 29 20 30 26 32 27 33 31 34 28 35 30 36
REMARK SMILES IDX 29 37
REMARK H PARENT 13 12 15 14 17 16 20 31
REMARK Flexibility Score: inf
ROOT
ATOM      1  O   UNL     1      25.641   0.873  36.906  1.00  0.00    -0.458 OA
ENDROOT
BRANCH   1   2
ATOM      2  C   UNL     1      25.381  -0.534  36.860  1.00  0.00     0.339 C 
ATOM      3  C   UNL     1      23.866  -0.338  35.075  1.00  0.00     0.199 C 
ATOM      4  C   UNL     1      24.779  -1.085  34.080  1.00  0.00     0.180 C 
ATOM      5  O   UNL     1      24.064  -0.805  36.403  1.00  0.00    -0.328 OA
ATOM      6  C   UNL     1      26.254  -0.900  34.489  1.00  0.00     0.181 C 
ATOM      7  C   UNL     1      26.426  -1.259  35.980  1.00  0.00     0.214 C 
BRANCH   3   8
ATOM      8  C   UNL     1      22.425  -0.520  34.698  1.00  0.00     0.073 C 
ATOM      9  O   UNL     1      21.843  -1.617  34.905  1.00  0.00    -0.547 OA
ATOM     10  O   UNL     1      21.739   0.510  34.067  1.00  0.00    -0.547 OA
ENDBRANCH   3   8
BRANCH   4  11
ATOM     11  O   UNL     1      24.453  -2.452  34.067  1.00  0.00    -0.387 OA
ATOM     12  H   UNL     1      25.189  -2.926  34.534  1.00  0.00     0.211 HD
ENDBRANCH   4  11
BRANCH   6  13
ATOM     13  O   UNL     1      26.654   0.429  34.260  1.00  0.00    -0.387 OA
ATOM     14  H   UNL     1      26.869   0.501  33.293  1.00  0.00     0.211 HD
ENDBRANCH   6  13
BRANCH   7  15
ATOM     15  O   UNL     1      27.739  -1.021  36.426  1.00  0.00    -0.384 OA
ATOM     16  H   UNL     1      28.266  -0.668  35.663  1.00  0.00     0.211 HD
ENDBRANCH   7  15
ENDBRANCH   1   2
BRANCH   1  17
ATOM     17  C   UNL     1      25.612   1.714  38.035  1.00  0.00     0.172 A 
ATOM     18  C   UNL     1      24.429   2.265  38.591  1.00  0.00     0.205 A 
ATOM     19  C   UNL     1      26.847   1.998  38.616  1.00  0.00     0.097 A 
ATOM     20  C   UNL     1      24.533   3.133  39.712  1.00  0.00     0.188 A 
ATOM     21  C   UNL     1      26.960   2.847  39.718  1.00  0.00     0.134 A 
ATOM     22  C   UNL     1      25.803   3.431  40.271  1.00  0.00     0.111 A 
ATOM     23  O   UNL     1      23.441   3.679  40.243  1.00  0.00    -0.452 OA
ATOM     24  C   UNL     1      25.853   4.313  41.372  1.00  0.00     0.197 A 
ATOM     25  C   UNL     1      23.455   4.521  41.272  1.00  0.00     0.138 A 
ATOM     26  C   UNL     1      24.675   4.861  41.870  1.00  0.00     0.100 A 
ATOM     27  O   UNL     1      26.945   4.619  41.922  1.00  0.00    -0.289 OA
BRANCH  18  28
ATOM     28  O   UNL     1      23.195   1.923  38.007  1.00  0.00    -0.490 OA
ATOM     29  C   UNL     1      22.503   2.626  36.981  1.00  0.00     0.278 C 
ENDBRANCH  18  28
BRANCH  21  30
ATOM     30  O   UNL     1      28.224   3.106  40.251  1.00  0.00    -0.507 OA
ATOM     31  H   UNL     1      28.728   2.413  40.792  1.00  0.00     0.293 HD
ENDBRANCH  21  30
BRANCH  25  32
ATOM     32  C   UNL     1      22.175   5.074  41.771  1.00  0.00     0.017 A 
ATOM     33  C   UNL     1      22.015   5.334  43.144  1.00  0.00     0.012 A 
ATOM     34  C   UNL     1      21.096   5.324  40.902  1.00  0.00     0.012 A 
ATOM     35  C   UNL     1      20.811   5.851  43.633  1.00  0.00     0.001 A 
ATOM     36  C   UNL     1      19.894   5.840  41.396  1.00  0.00     0.001 A 
ATOM     37  C   UNL     1      19.753   6.107  42.759  1.00  0.00     0.000 A 
ENDBRANCH  25  32
ENDBRANCH   1  17
TORSDOF 9
ENDMDL
MODEL 5
REMARK VINA RESULT:    -6.635      3.337      9.303
REMARK INTER + INTRA:         -10.635
REMARK INTER:                  -9.139
REMARK INTRA:                  -1.495
REMARK UNBOUND:                -1.284
REMARK SMILES COc1c(O[C@H]2O[C@H](C(=O)[O-])[C@H](O)[C@@H](O)[C@H]2O)cc(O)c2c(=O)cc(-c3ccccc3)oc12
REMARK SMILES IDX 5 1 6 2 8 3 12 4 7 5 14 6 16 7 9 8 10 9 11 10 13 11 15 13
REMARK SMILES IDX 17 15 4 17 3 18 18 19 33 20 19 21 21 22 32 23 22 24 25 25
REMARK SMILES IDX 24 26 23 27 2 28 1 29 20 30 26 32 27 33 31 34 28 35 30 36
REMARK SMILES IDX 29 37
REMARK H PARENT 13 12 15 14 17 16 20 31
REMARK Flexibility Score: inf
ROOT
ATOM      1  O   UNL     1      22.920   1.631  35.853  1.00  0.00    -0.458 OA
ENDROOT
BRANCH   1   2
ATOM      2  C   UNL     1      22.541   0.347  35.342  1.00  0.00     0.339 C 
ATOM      3  C   UNL     1      24.621  -0.010  34.310  1.00  0.00     0.199 C 
ATOM      4  C   UNL     1      25.008  -1.170  35.253  1.00  0.00     0.180 C 
ATOM      5  O   UNL     1      23.213   0.053  34.126  1.00  0.00    -0.328 OA
ATOM      6  C   UNL     1      24.306  -0.988  36.614  1.00  0.00     0.181 C 
ATOM      7  C   UNL     1      22.797  -0.760  36.391  1.00  0.00     0.214 C 
BRANCH   3   8
ATOM      8  C   UNL     1      25.286  -0.180  32.975  1.00  0.00     0.073 C 
ATOM      9  O   UNL     1      25.972  -1.206  32.727  1.00  0.00    -0.547 OA
ATOM     10  O   UNL     1      25.188   0.825  32.021  1.00  0.00    -0.547 OA
ENDBRANCH   3   8
BRANCH   4  11
ATOM     11  O   UNL     1      24.632  -2.397  34.679  1.00  0.00    -0.387 OA
ATOM     12  H   UNL     1      23.928  -2.781  35.264  1.00  0.00     0.211 HD
ENDBRANCH   4  11
BRANCH   6  13
ATOM     13  O   UNL     1      24.867   0.103  37.302  1.00  0.00    -0.387 OA
ATOM     14  H   UNL     1      24.616   0.920  36.797  1.00  0.00     0.211 HD
ENDBRANCH   6  13
BRANCH   7  15
ATOM     15  O   UNL     1      22.124  -0.499  37.599  1.00  0.00    -0.384 OA
ATOM     16  H   UNL     1      22.772  -0.605  38.343  1.00  0.00     0.211 HD
ENDBRANCH   7  15
ENDBRANCH   1   2
BRANCH   1  17
ATOM     17  C   UNL     1      22.084   2.601  36.440  1.00  0.00     0.172 A 
ATOM     18  C   UNL     1      22.150   2.994  37.802  1.00  0.00     0.205 A 
ATOM     19  C   UNL     1      21.146   3.191  35.594  1.00  0.00     0.097 A 
ATOM     20  C   UNL     1      21.226   3.959  38.287  1.00  0.00     0.188 A 
ATOM     21  C   UNL     1      20.236   4.140  36.060  1.00  0.00     0.134 A 
ATOM     22  C   UNL     1      20.260   4.527  37.414  1.00  0.00     0.111 A 
ATOM     23  O   UNL     1      21.253   4.332  39.564  1.00  0.00    -0.452 OA
ATOM     24  C   UNL     1      19.354   5.466  37.950  1.00  0.00     0.197 A 
ATOM     25  C   UNL     1      20.406   5.207  40.101  1.00  0.00     0.138 A 
ATOM     26  C   UNL     1      19.427   5.803  39.298  1.00  0.00     0.100 A 
ATOM     27  O   UNL     1      18.473   6.014  37.234  1.00  0.00    -0.289 OA
BRANCH  18  28
ATOM     28  O   UNL     1      23.137   2.411  38.618  1.00  0.00    -0.490 OA
ATOM     29  C   UNL     1      24.373   2.989  39.023  1.00  0.00     0.278 C 
ENDBRANCH  18  28
BRANCH  21  30
ATOM     30  O   UNL     1      19.310   4.689  35.170  1.00  0.00    -0.507 OA
ATOM     31  H   UNL     1      19.599   5.141  34.310  1.00  0.00     0.293 HD
ENDBRANCH  21  30
BRANCH  25  32
ATOM     32  C   UNL     1      20.526   5.538  41.540  1.00  0.00     0.017 A 
ATOM     33  C   UNL     1      21.746   5.325  42.206  1.00  0.00     0.012 A 
ATOM     34  C   UNL     1      19.432   6.041  42.270  1.00  0.00     0.012 A 
ATOM     35  C   UNL     1      21.875   5.627  43.565  1.00  0.00     0.001 A 
ATOM     36  C   UNL     1      19.565   6.341  43.629  1.00  0.00     0.001 A 
ATOM     37  C   UNL     1      20.786   6.137  44.275  1.00  0.00     0.000 A 
ENDBRANCH  25  32
ENDBRANCH   1  17
TORSDOF 9
ENDMDL
MODEL 6
REMARK VINA RESULT:    -6.557      2.997      8.995
REMARK INTER + INTRA:         -10.525
REMARK INTER:                  -9.182
REMARK INTRA:                  -1.343
REMARK UNBOUND:                -1.284
REMARK SMILES COc1c(O[C@H]2O[C@H](C(=O)[O-])[C@H](O)[C@@H](O)[C@H]2O)cc(O)c2c(=O)cc(-c3ccccc3)oc12
REMARK SMILES IDX 5 1 6 2 8 3 12 4 7 5 14 6 16 7 9 8 10 9 11 10 13 11 15 13
REMARK SMILES IDX 17 15 4 17 3 18 18 19 33 20 19 21 21 22 32 23 22 24 25 25
REMARK SMILES IDX 24 26 23 27 2 28 1 29 20 30 26 32 27 33 31 34 28 35 30 36
REMARK SMILES IDX 29 37
REMARK H PARENT 13 12 15 14 17 16 20 31
REMARK Flexibility Score: inf
ROOT
ATOM      1  O   UNL     1      22.796   1.067  36.593  1.00  0.00    -0.458 OA
ENDROOT
BRANCH   1   2
ATOM      2  C   UNL     1      23.772   1.089  35.545  1.00  0.00     0.339 C 
ATOM      3  C   UNL     1      25.032  -0.653  36.493  1.00  0.00     0.199 C 
ATOM      4  C   UNL     1      24.712  -1.645  35.354  1.00  0.00     0.180 C 
ATOM      5  O   UNL     1      25.050   0.686  36.017  1.00  0.00    -0.328 OA
ATOM      6  C   UNL     1      23.350  -1.292  34.725  1.00  0.00     0.181 C 
ATOM      7  C   UNL     1      23.323   0.206  34.357  1.00  0.00     0.214 C 
BRANCH   3   8
ATOM      8  C   UNL     1      26.363  -0.976  37.107  1.00  0.00     0.073 C 
ATOM      9  O   UNL     1      26.925  -2.078  36.876  1.00  0.00    -0.547 OA
ATOM     10  O   UNL     1      26.959  -0.073  37.980  1.00  0.00    -0.547 OA
ENDBRANCH   3   8
BRANCH   4  11
ATOM     11  O   UNL     1      25.721  -1.590  34.376  1.00  0.00    -0.387 OA
ATOM     12  H   UNL     1      25.523  -2.309  33.721  1.00  0.00     0.211 HD
ENDBRANCH   4  11
BRANCH   6  13
ATOM     13  O   UNL     1      22.313  -1.590  35.627  1.00  0.00    -0.387 OA
ATOM     14  H   UNL     1      22.423  -0.981  36.403  1.00  0.00     0.211 HD
ENDBRANCH   6  13
BRANCH   7  15
ATOM     15  O   UNL     1      22.067   0.600  33.860  1.00  0.00    -0.384 OA
ATOM     16  H   UNL     1      21.755  -0.094  33.223  1.00  0.00     0.211 HD
ENDBRANCH   7  15
ENDBRANCH   1   2
BRANCH   1  17
ATOM     17  C   UNL     1      22.059   2.154  37.102  1.00  0.00     0.172 A 
ATOM     18  C   UNL     1      22.305   2.769  38.357  1.00  0.00     0.205 A 
ATOM     19  C   UNL     1      21.032   2.629  36.288  1.00  0.00     0.097 A 
ATOM     20  C   UNL     1      21.467   3.837  38.777  1.00  0.00     0.188 A 
ATOM     21  C   UNL     1      20.205   3.678  36.690  1.00  0.00     0.134 A 
ATOM     22  C   UNL     1      20.408   4.287  37.945  1.00  0.00     0.111 A 
ATOM     23  O   UNL     1      21.663   4.419  39.958  1.00  0.00    -0.452 OA
ATOM     24  C   UNL     1      19.594   5.338  38.417  1.00  0.00     0.197 A 
ATOM     25  C   UNL     1      20.907   5.405  40.435  1.00  0.00     0.138 A 
ATOM     26  C   UNL     1      19.844   5.895  39.668  1.00  0.00     0.100 A 
ATOM     27  O   UNL     1      18.639   5.792  37.730  1.00  0.00    -0.289 OA
BRANCH  18  28
ATOM     28  O   UNL     1      23.377   2.293  39.134  1.00  0.00    -0.490 OA
ATOM     29  C   UNL     1      24.718   2.770  39.136  1.00  0.00     0.278 C 
ENDBRANCH  18  28
BRANCH  21  30
ATOM     30  O   UNL     1      19.183   4.105  35.839  1.00  0.00    -0.507 OA
ATOM     31  H   UNL     1      18.970   5.088  35.712  1.00  0.00     0.293 HD
ENDBRANCH  21  30
BRANCH  25  32
ATOM     32  C   UNL     1      21.214   5.969  41.770  1.00  0.00     0.017 A 
ATOM     33  C   UNL     1      20.266   5.873  42.804  1.00  0.00     0.012 A 
ATOM     34  C   UNL     1      22.432   6.629  42.024  1.00  0.00     0.012 A 
ATOM     35  C   UNL     1      20.538   6.406  44.068  1.00  0.00     0.001 A 
ATOM     36  C   UNL     1      22.699   7.160  43.289  1.00  0.00     0.001 A 
ATOM     37  C   UNL     1      21.754   7.046  44.311  1.00  0.00     0.000 A 
ENDBRANCH  25  32
ENDBRANCH   1  17
TORSDOF 9
ENDMDL
MODEL 7
REMARK VINA RESULT:    -6.421      2.661      9.293
REMARK INTER + INTRA:         -10.333
REMARK INTER:                  -9.108
REMARK INTRA:                  -1.226
REMARK UNBOUND:                -1.284
REMARK SMILES COc1c(O[C@H]2O[C@H](C(=O)[O-])[C@H](O)[C@@H](O)[C@H]2O)cc(O)c2c(=O)cc(-c3ccccc3)oc12
REMARK SMILES IDX 5 1 6 2 8 3 12 4 7 5 14 6 16 7 9 8 10 9 11 10 13 11 15 13
REMARK SMILES IDX 17 15 4 17 3 18 18 19 33 20 19 21 21 22 32 23 22 24 25 25
REMARK SMILES IDX 24 26 23 27 2 28 1 29 20 30 26 32 27 33 31 34 28 35 30 36
REMARK SMILES IDX 29 37
REMARK H PARENT 13 12 15 14 17 16 20 31
REMARK Flexibility Score: inf
ROOT
ATOM      1  O   UNL     1      24.036   1.076  37.264  1.00  0.00    -0.458 OA
ENDROOT
BRANCH   1   2
ATOM      2  C   UNL     1      24.742   1.145  36.020  1.00  0.00     0.339 C 
ATOM      3  C   UNL     1      25.827  -0.911  36.361  1.00  0.00     0.199 C 
ATOM      4  C   UNL     1      25.081  -1.616  35.207  1.00  0.00     0.180 C 
ATOM      5  O   UNL     1      25.993   0.475  36.094  1.00  0.00    -0.328 OA
ATOM      6  C   UNL     1      23.705  -0.951  34.997  1.00  0.00     0.181 C 
ATOM      7  C   UNL     1      23.883   0.576  34.867  1.00  0.00     0.214 C 
BRANCH   3   8
ATOM      8  C   UNL     1      27.175  -1.538  36.570  1.00  0.00     0.073 C 
ATOM      9  O   UNL     1      28.123  -1.295  35.779  1.00  0.00    -0.547 OA
ATOM     10  O   UNL     1      27.366  -2.436  37.613  1.00  0.00    -0.547 OA
ENDBRANCH   3   8
BRANCH   4  11
ATOM     11  O   UNL     1      25.840  -1.532  34.027  1.00  0.00    -0.387 OA
ATOM     12  H   UNL     1      26.787  -1.416  34.304  1.00  0.00     0.211 HD
ENDBRANCH   4  11
BRANCH   6  13
ATOM     13  O   UNL     1      22.856  -1.252  36.076  1.00  0.00    -0.387 OA
ATOM     14  H   UNL     1      23.174  -2.111  36.460  1.00  0.00     0.211 HD
ENDBRANCH   6  13
BRANCH   7  15
ATOM     15  O   UNL     1      22.647   1.238  34.762  1.00  0.00    -0.384 OA
ATOM     16  H   UNL     1      22.814   2.154  34.418  1.00  0.00     0.211 HD
ENDBRANCH   7  15
ENDBRANCH   1   2
BRANCH   1  17
ATOM     17  C   UNL     1      24.162   1.937  38.371  1.00  0.00     0.172 A 
ATOM     18  C   UNL     1      23.068   2.529  39.052  1.00  0.00     0.205 A 
ATOM     19  C   UNL     1      25.464   2.198  38.796  1.00  0.00     0.097 A 
ATOM     20  C   UNL     1      23.325   3.413  40.135  1.00  0.00     0.188 A 
ATOM     21  C   UNL     1      25.728   3.063  39.859  1.00  0.00     0.134 A 
ATOM     22  C   UNL     1      24.660   3.687  40.533  1.00  0.00     0.111 A 
ATOM     23  O   UNL     1      22.317   3.997  40.780  1.00  0.00    -0.452 OA
ATOM     24  C   UNL     1      24.862   4.586  41.602  1.00  0.00     0.197 A 
ATOM     25  C   UNL     1      22.475   4.856  41.783  1.00  0.00     0.138 A 
ATOM     26  C   UNL     1      23.765   5.174  42.225  1.00  0.00     0.100 A 
ATOM     27  O   UNL     1      26.019   4.873  42.012  1.00  0.00    -0.289 OA
BRANCH  18  28
ATOM     28  O   UNL     1      21.765   2.210  38.626  1.00  0.00    -0.490 OA
ATOM     29  C   UNL     1      21.011   2.852  37.605  1.00  0.00     0.278 C 
ENDBRANCH  18  28
BRANCH  21  30
ATOM     30  O   UNL     1      27.053   3.297  40.233  1.00  0.00    -0.507 OA
ATOM     31  H   UNL     1      27.324   3.391  41.205  1.00  0.00     0.293 HD
ENDBRANCH  21  30
BRANCH  25  32
ATOM     32  C   UNL     1      21.277   5.452  42.419  1.00  0.00     0.017 A 
ATOM     33  C   UNL     1      21.254   5.656  43.810  1.00  0.00     0.012 A 
ATOM     34  C   UNL     1      20.142   5.798  41.662  1.00  0.00     0.012 A 
ATOM     35  C   UNL     1      20.129   6.212  44.427  1.00  0.00     0.001 A 
ATOM     36  C   UNL     1      19.019   6.354  42.284  1.00  0.00     0.001 A 
ATOM     37  C   UNL     1      19.014   6.563  43.664  1.00  0.00     0.000 A 
ENDBRANCH  25  32
ENDBRANCH   1  17
TORSDOF 9
ENDMDL
MODEL 8
REMARK VINA RESULT:    -6.393      2.164      9.080
REMARK INTER + INTRA:         -10.294
REMARK INTER:                  -8.668
REMARK INTRA:                  -1.626
REMARK UNBOUND:                -1.284
REMARK SMILES COc1c(O[C@H]2O[C@H](C(=O)[O-])[C@H](O)[C@@H](O)[C@H]2O)cc(O)c2c(=O)cc(-c3ccccc3)oc12
REMARK SMILES IDX 5 1 6 2 8 3 12 4 7 5 14 6 16 7 9 8 10 9 11 10 13 11 15 13
REMARK SMILES IDX 17 15 4 17 3 18 18 19 33 20 19 21 21 22 32 23 22 24 25 25
REMARK SMILES IDX 24 26 23 27 2 28 1 29 20 30 26 32 27 33 31 34 28 35 30 36
REMARK SMILES IDX 29 37
REMARK H PARENT 13 12 15 14 17 16 20 31
REMARK Flexibility Score: inf
ROOT
ATOM      1  O   UNL     1      25.340   0.138  36.568  1.00  0.00    -0.458 OA
ENDROOT
BRANCH   1   2
ATOM      2  C   UNL     1      25.891   0.271  35.252  1.00  0.00     0.339 C 
ATOM      3  C   UNL     1      26.590  -1.971  35.168  1.00  0.00     0.199 C 
ATOM      4  C   UNL     1      25.588  -2.350  34.056  1.00  0.00     0.180 C 
ATOM      5  O   UNL     1      26.988  -0.611  35.057  1.00  0.00    -0.328 OA
ATOM      6  C   UNL     1      24.352  -1.431  34.135  1.00  0.00     0.181 C 
ATOM      7  C   UNL     1      24.806   0.043  34.175  1.00  0.00     0.214 C 
BRANCH   3   8
ATOM      8  C   UNL     1      27.806  -2.848  35.096  1.00  0.00     0.073 C 
ATOM      9  O   UNL     1      28.928  -2.419  35.470  1.00  0.00    -0.547 OA
ATOM     10  O   UNL     1      27.705  -4.127  34.562  1.00  0.00    -0.547 OA
ENDBRANCH   3   8
BRANCH   4  11
ATOM     11  O   UNL     1      26.202  -2.223  32.797  1.00  0.00    -0.387 OA
ATOM     12  H   UNL     1      26.509  -1.281  32.723  1.00  0.00     0.211 HD
ENDBRANCH   4  11
BRANCH   6  13
ATOM     13  O   UNL     1      23.597  -1.740  35.280  1.00  0.00    -0.387 OA
ATOM     14  H   UNL     1      23.325  -2.691  35.196  1.00  0.00     0.211 HD
ENDBRANCH   6  13
BRANCH   7  15
ATOM     15  O   UNL     1      23.718   0.919  34.337  1.00  0.00    -0.384 OA
ATOM     16  H   UNL     1      23.551   1.030  35.309  1.00  0.00     0.211 HD
ENDBRANCH   7  15
ENDBRANCH   1   2
BRANCH   1  17
ATOM     17  C   UNL     1      25.365   1.087  37.608  1.00  0.00     0.172 A 
ATOM     18  C   UNL     1      24.253   1.877  37.997  1.00  0.00     0.205 A 
ATOM     19  C   UNL     1      26.581   1.227  38.276  1.00  0.00     0.097 A 
ATOM     20  C   UNL     1      24.414   2.829  39.040  1.00  0.00     0.188 A 
ATOM     21  C   UNL     1      26.749   2.158  39.302  1.00  0.00     0.134 A 
ATOM     22  C   UNL     1      25.669   2.975  39.688  1.00  0.00     0.111 A 
ATOM     23  O   UNL     1      23.392   3.596  39.413  1.00  0.00    -0.452 OA
ATOM     24  C   UNL     1      25.780   3.948  40.704  1.00  0.00     0.197 A 
ATOM     25  C   UNL     1      23.469   4.528  40.359  1.00  0.00     0.138 A 
ATOM     26  C   UNL     1      24.677   4.728  41.037  1.00  0.00     0.100 A 
ATOM     27  O   UNL     1      26.862   4.130  41.326  1.00  0.00    -0.289 OA
BRANCH  18  28
ATOM     28  O   UNL     1      23.029   1.679  37.332  1.00  0.00    -0.490 OA
ATOM     29  C   UNL     1      22.073   0.653  37.573  1.00  0.00     0.278 C 
ENDBRANCH  18  28
BRANCH  21  30
ATOM     30  O   UNL     1      27.993   2.264  39.928  1.00  0.00    -0.507 OA
ATOM     31  H   UNL     1      28.837   2.469  39.407  1.00  0.00     0.293 HD
ENDBRANCH  21  30
BRANCH  25  32
ATOM     32  C   UNL     1      22.266   5.331  40.682  1.00  0.00     0.017 A 
ATOM     33  C   UNL     1      22.324   6.296  41.703  1.00  0.00     0.012 A 
ATOM     34  C   UNL     1      21.048   5.130  40.004  1.00  0.00     0.012 A 
ATOM     35  C   UNL     1      21.196   7.057  42.024  1.00  0.00     0.001 A 
ATOM     36  C   UNL     1      19.923   5.895  40.329  1.00  0.00     0.001 A 
ATOM     37  C   UNL     1      19.998   6.859  41.336  1.00  0.00     0.000 A 
ENDBRANCH  25  32
ENDBRANCH   1  17
TORSDOF 9
ENDMDL
