MODEL 1
REMARK VINA RESULT:    -4.361      0.000      0.000
REMARK INTER + INTRA:          -5.909
REMARK INTER:                  -5.636
REMARK INTRA:                  -0.273
REMARK UNBOUND:                -0.273
REMARK SMILES CCCCCCC(=O)[O-]
REMARK SMILES IDX 5 1 6 2 7 3 8 4 9 5 4 6 3 7 2 8 1 9
REMARK H PARENT
REMARK Flexibility Score: inf
ROOT
ATOM      1  C   UNL     1      19.927  -0.030 -15.202  1.00  0.00     0.006 C 
ENDROOT
BRANCH   1   2
ATOM      2  C   UNL     1      19.339   0.955 -16.220  1.00  0.00     0.053 C 
BRANCH   2   3
ATOM      3  C   UNL     1      17.898   1.249 -15.938  1.00  0.00     0.041 C 
ATOM      4  O   UNL     1      17.373   0.868 -14.858  1.00  0.00    -0.550 OA
ATOM      5  O   UNL     1      17.143   1.973 -16.852  1.00  0.00    -0.550 OA
ENDBRANCH   2   3
ENDBRANCH   1   2
BRANCH   1   6
ATOM      6  C   UNL     1      20.461  -1.308 -15.872  1.00  0.00     0.000 C 
BRANCH   6   7
ATOM      7  C   UNL     1      21.595  -1.022 -16.870  1.00  0.00    -0.000 C 
BRANCH   7   8
ATOM      8  C   UNL     1      21.267  -1.505 -18.290  1.00  0.00    -0.003 C 
ATOM      9  C   UNL     1      19.915  -2.210 -18.332  1.00  0.00     0.004 C 
ENDBRANCH   7   8
ENDBRANCH   6   7
ENDBRANCH   1   6
TORSDOF 5
ENDMDL
MODEL 2
REMARK VINA RESULT:    -4.294      1.152      1.437
REMARK INTER + INTRA:          -5.823
REMARK INTER:                  -5.439
REMARK INTRA:                  -0.384
REMARK UNBOUND:                -0.273
REMARK SMILES CCCCCCC(=O)[O-]
REMARK SMILES IDX 5 1 6 2 7 3 8 4 9 5 4 6 3 7 2 8 1 9
REMARK H PARENT
REMARK Flexibility Score: inf
ROOT
ATOM      1  C   UNL     1      20.107   1.399 -14.775  1.00  0.00     0.006 C 
ENDROOT
BRANCH   1   2
ATOM      2  C   UNL     1      19.225   2.136 -15.791  1.00  0.00     0.053 C 
BRANCH   2   3
ATOM      3  C   UNL     1      17.824   1.604 -15.796  1.00  0.00     0.041 C 
ATOM      4  O   UNL     1      17.448   0.801 -14.902  1.00  0.00    -0.550 OA
ATOM      5  O   UNL     1      16.926   2.020 -16.770  1.00  0.00    -0.550 OA
ENDBRANCH   2   3
ENDBRANCH   1   2
BRANCH   1   6
ATOM      6  C   UNL     1      20.925   0.272 -15.427  1.00  0.00     0.000 C 
BRANCH   6   7
ATOM      7  C   UNL     1      20.376  -1.125 -15.095  1.00  0.00    -0.000 C 
BRANCH   7   8
ATOM      8  C   UNL     1      20.206  -2.005 -16.342  1.00  0.00    -0.003 C 
ATOM      9  C   UNL     1      19.629  -1.204 -17.505  1.00  0.00     0.004 C 
ENDBRANCH   7   8
ENDBRANCH   6   7
ENDBRANCH   1   6
TORSDOF 5
ENDMDL
MODEL 3
REMARK VINA RESULT:    -4.232      0.818      1.603
REMARK INTER + INTRA:          -5.743
REMARK INTER:                  -5.392
REMARK INTRA:                  -0.351
REMARK UNBOUND:                -0.273
REMARK SMILES CCCCCCC(=O)[O-]
REMARK SMILES IDX 5 1 6 2 7 3 8 4 9 5 4 6 3 7 2 8 1 9
REMARK H PARENT
REMARK Flexibility Score: inf
ROOT
ATOM      1  C   UNL     1      20.233   1.035 -15.173  1.00  0.00     0.006 C 
ENDROOT
BRANCH   1   2
ATOM      2  C   UNL     1      19.408   1.695 -16.285  1.00  0.00     0.053 C 
BRANCH   2   3
ATOM      3  C   UNL     1      17.937   1.529 -16.055  1.00  0.00     0.041 C 
ATOM      4  O   UNL     1      17.110   1.987 -16.888  1.00  0.00    -0.550 OA
ATOM      5  O   UNL     1      17.480   0.840 -14.940  1.00  0.00    -0.550 OA
ENDBRANCH   2   3
ENDBRANCH   1   2
BRANCH   1   6
ATOM      6  C   UNL     1      20.982  -0.214 -15.671  1.00  0.00     0.000 C 
BRANCH   6   7
ATOM      7  C   UNL     1      20.112  -1.481 -15.629  1.00  0.00    -0.000 C 
BRANCH   7   8
ATOM      8  C   UNL     1      19.942  -2.127 -17.012  1.00  0.00    -0.003 C 
ATOM      9  C   UNL     1      20.830  -1.446 -18.048  1.00  0.00     0.004 C 
ENDBRANCH   7   8
ENDBRANCH   6   7
ENDBRANCH   1   6
TORSDOF 5
ENDMDL
MODEL 4
REMARK VINA RESULT:    -4.216      1.186      2.357
REMARK INTER + INTRA:          -5.722
REMARK INTER:                  -5.430
REMARK INTRA:                  -0.292
REMARK UNBOUND:                -0.273
REMARK SMILES CCCCCCC(=O)[O-]
REMARK SMILES IDX 5 1 6 2 7 3 8 4 9 5 4 6 3 7 2 8 1 9
REMARK H PARENT
REMARK Flexibility Score: inf
ROOT
ATOM      1  C   UNL     1      19.464  -0.187 -17.403  1.00  0.00     0.006 C 
ENDROOT
BRANCH   1   2
ATOM      2  C   UNL     1      19.344   1.007 -16.448  1.00  0.00     0.053 C 
BRANCH   2   3
ATOM      3  C   UNL     1      17.916   1.291 -16.094  1.00  0.00     0.041 C 
ATOM      4  O   UNL     1      17.179   1.924 -16.896  1.00  0.00    -0.550 OA
ATOM      5  O   UNL     1      17.391   0.828 -14.895  1.00  0.00    -0.550 OA
ENDBRANCH   2   3
ENDBRANCH   1   2
BRANCH   1   6
ATOM      6  C   UNL     1      19.925  -1.464 -16.680  1.00  0.00     0.000 C 
BRANCH   6   7
ATOM      7  C   UNL     1      20.335  -1.203 -15.222  1.00  0.00    -0.000 C 
BRANCH   7   8
ATOM      8  C   UNL     1      21.801  -1.569 -14.946  1.00  0.00    -0.003 C 
ATOM      9  C   UNL     1      22.750  -0.629 -15.683  1.00  0.00     0.004 C 
ENDBRANCH   7   8
ENDBRANCH   6   7
ENDBRANCH   1   6
TORSDOF 5
ENDMDL
MODEL 5
REMARK VINA RESULT:    -4.121      8.020      9.243
REMARK INTER + INTRA:          -5.599
REMARK INTER:                  -5.219
REMARK INTRA:                  -0.380
REMARK UNBOUND:                -0.273
REMARK SMILES CCCCCCC(=O)[O-]
REMARK SMILES IDX 5 1 6 2 7 3 8 4 9 5 4 6 3 7 2 8 1 9
REMARK H PARENT
REMARK Flexibility Score: inf
ROOT
ATOM      1  C   UNL     1      16.682   0.263 -23.240  1.00  0.00     0.006 C 
ENDROOT
BRANCH   1   2
ATOM      2  C   UNL     1      17.954  -0.595 -23.258  1.00  0.00     0.053 C 
BRANCH   2   3
ATOM      3  C   UNL     1      17.852  -1.714 -24.248  1.00  0.00     0.041 C 
ATOM      4  O   UNL     1      16.858  -2.488 -24.229  1.00  0.00    -0.550 OA
ATOM      5  O   UNL     1      18.837  -1.883 -25.212  1.00  0.00    -0.550 OA
ENDBRANCH   2   3
ENDBRANCH   1   2
BRANCH   1   6
ATOM      6  C   UNL     1      16.912   1.653 -23.859  1.00  0.00     0.000 C 
BRANCH   6   7
ATOM      7  C   UNL     1      15.991   1.926 -25.059  1.00  0.00    -0.000 C 
BRANCH   7   8
ATOM      8  C   UNL     1      16.124   0.863 -26.159  1.00  0.00    -0.003 C 
ATOM      9  C   UNL     1      17.478   0.961 -26.855  1.00  0.00     0.004 C 
ENDBRANCH   7   8
ENDBRANCH   6   7
ENDBRANCH   1   6
TORSDOF 5
ENDMDL
MODEL 6
REMARK VINA RESULT:    -3.918      8.336      9.544
REMARK INTER + INTRA:          -5.336
REMARK INTER:                  -4.934
REMARK INTRA:                  -0.402
REMARK UNBOUND:                -0.273
REMARK SMILES CCCCCCC(=O)[O-]
REMARK SMILES IDX 5 1 6 2 7 3 8 4 9 5 4 6 3 7 2 8 1 9
REMARK H PARENT
REMARK Flexibility Score: inf
ROOT
ATOM      1  C   UNL     1      16.009   1.879 -25.174  1.00  0.00     0.006 C 
ENDROOT
BRANCH   1   2
ATOM      2  C   UNL     1      16.864   1.938 -26.446  1.00  0.00     0.053 C 
BRANCH   2   3
ATOM      3  C   UNL     1      17.517   0.622 -26.735  1.00  0.00     0.041 C 
ATOM      4  O   UNL     1      18.773   0.534 -26.783  1.00  0.00    -0.550 OA
ATOM      5  O   UNL     1      16.741  -0.515 -26.918  1.00  0.00    -0.550 OA
ENDBRANCH   2   3
ENDBRANCH   1   2
BRANCH   1   6
ATOM      6  C   UNL     1      16.865   1.712 -23.907  1.00  0.00     0.000 C 
BRANCH   6   7
ATOM      7  C   UNL     1      16.611   0.374 -23.194  1.00  0.00    -0.000 C 
BRANCH   7   8
ATOM      8  C   UNL     1      17.910  -0.383 -22.879  1.00  0.00    -0.003 C 
ATOM      9  C   UNL     1      18.081  -1.586 -23.801  1.00  0.00     0.004 C 
ENDBRANCH   7   8
ENDBRANCH   6   7
ENDBRANCH   1   6
TORSDOF 5
ENDMDL
MODEL 7
REMARK VINA RESULT:    -3.778      8.121      9.578
REMARK INTER + INTRA:          -5.155
REMARK INTER:                  -4.928
REMARK INTRA:                  -0.227
REMARK UNBOUND:                -0.273
REMARK SMILES CCCCCCC(=O)[O-]
REMARK SMILES IDX 5 1 6 2 7 3 8 4 9 5 4 6 3 7 2 8 1 9
REMARK H PARENT
REMARK Flexibility Score: inf
ROOT
ATOM      1  C   UNL     1      18.173  -1.779 -24.101  1.00  0.00     0.006 C 
ENDROOT
BRANCH   1   2
ATOM      2  C   UNL     1      19.382  -1.550 -25.016  1.00  0.00     0.053 C 
BRANCH   2   3
ATOM      3  C   UNL     1      19.750  -2.793 -25.767  1.00  0.00     0.041 C 
ATOM      4  O   UNL     1      19.348  -2.962 -26.949  1.00  0.00    -0.550 OA
ATOM      5  O   UNL     1      20.566  -3.748 -25.175  1.00  0.00    -0.550 OA
ENDBRANCH   2   3
ENDBRANCH   1   2
BRANCH   1   6
ATOM      6  C   UNL     1      18.023  -0.665 -23.049  1.00  0.00     0.000 C 
BRANCH   6   7
ATOM      7  C   UNL     1      16.680   0.074 -23.158  1.00  0.00    -0.000 C 
BRANCH   7   8
ATOM      8  C   UNL     1      16.713   1.209 -24.192  1.00  0.00    -0.003 C 
ATOM      9  C   UNL     1      15.851   0.871 -25.405  1.00  0.00     0.004 C 
ENDBRANCH   7   8
ENDBRANCH   6   7
ENDBRANCH   1   6
TORSDOF 5
ENDMDL
MODEL 8
REMARK VINA RESULT:    -3.739      8.186      9.084
REMARK INTER + INTRA:          -5.105
REMARK INTER:                  -4.757
REMARK INTRA:                  -0.348
REMARK UNBOUND:                -0.273
REMARK SMILES CCCCCCC(=O)[O-]
REMARK SMILES IDX 5 1 6 2 7 3 8 4 9 5 4 6 3 7 2 8 1 9
REMARK H PARENT
REMARK Flexibility Score: inf
ROOT
ATOM      1  C   UNL     1      16.358   0.118 -23.805  1.00  0.00     0.006 C 
ENDROOT
BRANCH   1   2
ATOM      2  C   UNL     1      15.934   0.057 -25.278  1.00  0.00     0.053 C 
BRANCH   2   3
ATOM      3  C   UNL     1      16.040   1.396 -25.941  1.00  0.00     0.041 C 
ATOM      4  O   UNL     1      15.225   2.312 -25.654  1.00  0.00    -0.550 OA
ATOM      5  O   UNL     1      17.061   1.643 -26.849  1.00  0.00    -0.550 OA
ENDBRANCH   2   3
ENDBRANCH   1   2
BRANCH   1   6
ATOM      6  C   UNL     1      17.841  -0.244 -23.613  1.00  0.00     0.000 C 
BRANCH   6   7
ATOM      7  C   UNL     1      18.131  -1.725 -23.905  1.00  0.00    -0.000 C 
BRANCH   7   8
ATOM      8  C   UNL     1      19.188  -1.914 -25.002  1.00  0.00    -0.003 C 
ATOM      9  C   UNL     1      19.640  -0.571 -25.566  1.00  0.00     0.004 C 
ENDBRANCH   7   8
ENDBRANCH   6   7
ENDBRANCH   1   6
TORSDOF 5
ENDMDL
MODEL 9
REMARK VINA RESULT:    -3.712      8.694     10.093
REMARK INTER + INTRA:          -5.070
REMARK INTER:                  -4.705
REMARK INTRA:                  -0.365
REMARK UNBOUND:                -0.273
REMARK SMILES CCCCCCC(=O)[O-]
REMARK SMILES IDX 5 1 6 2 7 3 8 4 9 5 4 6 3 7 2 8 1 9
REMARK H PARENT
REMARK Flexibility Score: inf
ROOT
ATOM      1  C   UNL     1      16.895   1.588 -26.511  1.00  0.00     0.006 C 
ENDROOT
BRANCH   1   2
ATOM      2  C   UNL     1      17.557   0.239 -26.818  1.00  0.00     0.053 C 
BRANCH   2   3
ATOM      3  C   UNL     1      19.042   0.294 -26.625  1.00  0.00     0.041 C 
ATOM      4  O   UNL     1      19.523   0.603 -25.503  1.00  0.00    -0.550 OA
ATOM      5  O   UNL     1      19.892  -0.029 -27.673  1.00  0.00    -0.550 OA
ENDBRANCH   2   3
ENDBRANCH   1   2
BRANCH   1   6
ATOM      6  C   UNL     1      15.992   1.521 -25.267  1.00  0.00     0.000 C 
BRANCH   6   7
ATOM      7  C   UNL     1      16.040   0.149 -24.575  1.00  0.00    -0.000 C 
BRANCH   7   8
ATOM      8  C   UNL     1      16.780   0.193 -23.230  1.00  0.00    -0.003 C 
ATOM      9  C   UNL     1      17.112   1.628 -22.832  1.00  0.00     0.004 C 
ENDBRANCH   7   8
ENDBRANCH   6   7
ENDBRANCH   1   6
TORSDOF 5
ENDMDL
