MODEL 1
REMARK VINA RESULT:    -3.858      0.000      0.000
REMARK INTER + INTRA:          -6.060
REMARK INTER:                  -5.211
REMARK INTRA:                  -0.849
REMARK UNBOUND:                -0.849
REMARK SMILES CCCCCCCC(C)=O
REMARK SMILES IDX 5 1 4 2 3 3 2 4 1 5 6 6 7 7 8 8 10 9 9 10
REMARK H PARENT
REMARK Flexibility Score: inf
ROOT
ATOM      1  C   UNL     1     119.607 119.750 117.641  1.00  0.00     0.000 C 
ENDROOT
BRANCH   1   2
ATOM      2  C   UNL     1     119.473 118.223 117.620  1.00  0.00     0.000 C 
BRANCH   2   3
ATOM      3  C   UNL     1     117.999 117.800 117.599  1.00  0.00    -0.000 C 
BRANCH   3   4
ATOM      4  C   UNL     1     117.688 116.833 118.748  1.00  0.00    -0.003 C 
ATOM      5  C   UNL     1     118.887 116.680 119.680  1.00  0.00     0.004 C 
ENDBRANCH   3   4
ENDBRANCH   2   3
ENDBRANCH   1   2
BRANCH   1   6
ATOM      6  C   UNL     1     120.003 120.249 119.038  1.00  0.00     0.008 C 
BRANCH   6   7
ATOM      7  C   UNL     1     118.950 121.191 119.635  1.00  0.00     0.075 C 
BRANCH   7   8
ATOM      8  C   UNL     1     117.765 120.435 120.180  1.00  0.00     0.129 C 
ATOM      9  O   UNL     1     117.906 119.721 121.161  1.00  0.00    -0.300 OA
ATOM     10  C   UNL     1     116.413 120.534 119.538  1.00  0.00     0.087 C 
ENDBRANCH   7   8
ENDBRANCH   6   7
ENDBRANCH   1   6
TORSDOF 6
ENDMDL
MODEL 2
REMARK VINA RESULT:    -3.857      1.306      3.844
REMARK INTER + INTRA:          -6.059
REMARK INTER:                  -5.195
REMARK INTRA:                  -0.864
REMARK UNBOUND:                -0.849
REMARK SMILES CCCCCCCC(C)=O
REMARK SMILES IDX 5 1 4 2 3 3 2 4 1 5 6 6 7 7 8 8 10 9 9 10
REMARK H PARENT
REMARK Flexibility Score: inf
ROOT
ATOM      1  C   UNL     1     118.005 117.858 117.660  1.00  0.00     0.000 C 
ENDROOT
BRANCH   1   2
ATOM      2  C   UNL     1     118.135 119.385 117.645  1.00  0.00     0.000 C 
BRANCH   2   3
ATOM      3  C   UNL     1     119.606 119.812 117.587  1.00  0.00    -0.000 C 
BRANCH   3   4
ATOM      4  C   UNL     1     119.985 120.652 118.813  1.00  0.00    -0.003 C 
ATOM      5  C   UNL     1     118.761 120.958 119.671  1.00  0.00     0.004 C 
ENDBRANCH   3   4
ENDBRANCH   2   3
ENDBRANCH   1   2
BRANCH   1   6
ATOM      6  C   UNL     1     117.604 117.353 119.054  1.00  0.00     0.008 C 
BRANCH   6   7
ATOM      7  C   UNL     1     118.658 116.414 119.653  1.00  0.00     0.075 C 
BRANCH   7   8
ATOM      8  C   UNL     1     119.856 117.170 120.169  1.00  0.00     0.129 C 
ATOM      9  O   UNL     1     119.738 117.888 121.150  1.00  0.00    -0.300 OA
ATOM     10  C   UNL     1     121.193 117.066 119.497  1.00  0.00     0.087 C 
ENDBRANCH   7   8
ENDBRANCH   6   7
ENDBRANCH   1   6
TORSDOF 6
ENDMDL
MODEL 3
REMARK VINA RESULT:    -3.854      1.475      2.745
REMARK INTER + INTRA:          -6.054
REMARK INTER:                  -5.210
REMARK INTRA:                  -0.844
REMARK UNBOUND:                -0.849
REMARK SMILES CCCCCCCC(C)=O
REMARK SMILES IDX 5 1 4 2 3 3 2 4 1 5 6 6 7 7 8 8 10 9 9 10
REMARK H PARENT
REMARK Flexibility Score: inf
ROOT
ATOM      1  C   UNL     1     117.901 119.470 117.609  1.00  0.00     0.000 C 
ENDROOT
BRANCH   1   2
ATOM      2  C   UNL     1     119.433 119.419 117.607  1.00  0.00     0.000 C 
BRANCH   2   3
ATOM      3  C   UNL     1     119.936 117.970 117.639  1.00  0.00    -0.000 C 
BRANCH   3   4
ATOM      4  C   UNL     1     120.863 117.735 118.837  1.00  0.00    -0.003 C 
ATOM      5  C   UNL     1     120.967 118.985 119.707  1.00  0.00     0.004 C 
ENDBRANCH   3   4
ENDBRANCH   2   3
ENDBRANCH   1   2
BRANCH   1   6
ATOM      6  C   UNL     1     117.368 119.968 118.960  1.00  0.00     0.008 C 
BRANCH   6   7
ATOM      7  C   UNL     1     116.448 118.940 119.631  1.00  0.00     0.075 C 
BRANCH   7   8
ATOM      8  C   UNL     1     117.220 117.761 120.168  1.00  0.00     0.129 C 
ATOM      9  O   UNL     1     117.959 117.912 121.130  1.00  0.00    -0.300 OA
ATOM     10  C   UNL     1     117.107 116.404 119.540  1.00  0.00     0.087 C 
ENDBRANCH   7   8
ENDBRANCH   6   7
ENDBRANCH   1   6
TORSDOF 6
ENDMDL
MODEL 4
REMARK VINA RESULT:    -3.835      1.489      2.694
REMARK INTER + INTRA:          -6.028
REMARK INTER:                  -5.200
REMARK INTRA:                  -0.829
REMARK UNBOUND:                -0.849
REMARK SMILES CCCCCCCC(C)=O
REMARK SMILES IDX 5 1 4 2 3 3 2 4 1 5 6 6 7 7 8 8 10 9 9 10
REMARK H PARENT
REMARK Flexibility Score: inf
ROOT
ATOM      1  C   UNL     1     119.756 118.060 117.657  1.00  0.00     0.000 C 
ENDROOT
BRANCH   1   2
ATOM      2  C   UNL     1     118.225 118.137 117.660  1.00  0.00     0.000 C 
BRANCH   2   3
ATOM      3  C   UNL     1     117.748 119.595 117.681  1.00  0.00    -0.000 C 
BRANCH   3   4
ATOM      4  C   UNL     1     116.757 119.833 118.826  1.00  0.00    -0.003 C 
ATOM      5  C   UNL     1     116.722 118.644 119.781  1.00  0.00     0.004 C 
ENDBRANCH   3   4
ENDBRANCH   2   3
ENDBRANCH   1   2
BRANCH   1   6
ATOM      6  C   UNL     1     120.287 117.615 119.028  1.00  0.00     0.008 C 
BRANCH   6   7
ATOM      7  C   UNL     1     121.207 118.667 119.659  1.00  0.00     0.075 C 
BRANCH   7   8
ATOM      8  C   UNL     1     120.430 119.838 120.205  1.00  0.00     0.129 C 
ATOM      9  O   UNL     1     119.715 119.682 121.183  1.00  0.00    -0.300 OA
ATOM     10  C   UNL     1     120.509 121.193 119.566  1.00  0.00     0.087 C 
ENDBRANCH   7   8
ENDBRANCH   6   7
ENDBRANCH   1   6
TORSDOF 6
ENDMDL
MODEL 5
REMARK VINA RESULT:    -3.768      1.912      3.129
REMARK INTER + INTRA:          -5.939
REMARK INTER:                  -5.096
REMARK INTRA:                  -0.842
REMARK UNBOUND:                -0.849
REMARK SMILES CCCCCCCC(C)=O
REMARK SMILES IDX 5 1 4 2 3 3 2 4 1 5 6 6 7 7 8 8 10 9 9 10
REMARK H PARENT
REMARK Flexibility Score: inf
ROOT
ATOM      1  C   UNL     1     119.747 119.659 117.759  1.00  0.00     0.000 C 
ENDROOT
BRANCH   1   2
ATOM      2  C   UNL     1     120.026 120.254 119.145  1.00  0.00     0.000 C 
BRANCH   2   3
ATOM      3  C   UNL     1     120.674 119.216 120.069  1.00  0.00    -0.000 C 
BRANCH   3   4
ATOM      4  C   UNL     1     121.260 118.051 119.262  1.00  0.00    -0.003 C 
ATOM      5  C   UNL     1     121.151 116.738 120.031  1.00  0.00     0.004 C 
ENDBRANCH   3   4
ENDBRANCH   2   3
ENDBRANCH   1   2
BRANCH   1   6
ATOM      6  C   UNL     1     118.251 119.364 117.579  1.00  0.00     0.008 C 
BRANCH   6   7
ATOM      7  C   UNL     1     117.960 117.858 117.546  1.00  0.00     0.075 C 
BRANCH   7   8
ATOM      8  C   UNL     1     117.573 117.331 118.905  1.00  0.00     0.129 C 
ATOM      9  O   UNL     1     117.798 116.163 119.184  1.00  0.00    -0.300 OA
ATOM     10  C   UNL     1     116.907 118.210 119.922  1.00  0.00     0.087 C 
ENDBRANCH   7   8
ENDBRANCH   6   7
ENDBRANCH   1   6
TORSDOF 6
ENDMDL
MODEL 6
REMARK VINA RESULT:    -3.767      1.369      3.133
REMARK INTER + INTRA:          -5.937
REMARK INTER:                  -5.068
REMARK INTRA:                  -0.870
REMARK UNBOUND:                -0.849
REMARK SMILES CCCCCCCC(C)=O
REMARK SMILES IDX 5 1 4 2 3 3 2 4 1 5 6 6 7 7 8 8 10 9 9 10
REMARK H PARENT
REMARK Flexibility Score: inf
ROOT
ATOM      1  C   UNL     1     117.896 117.827 117.719  1.00  0.00     0.000 C 
ENDROOT
BRANCH   1   2
ATOM      2  C   UNL     1     117.760 117.033 119.024  1.00  0.00     0.000 C 
BRANCH   2   3
ATOM      3  C   UNL     1     117.158 117.900 120.136  1.00  0.00    -0.000 C 
BRANCH   3   4
ATOM      4  C   UNL     1     116.374 119.080 119.550  1.00  0.00    -0.003 C 
ATOM      5  C   UNL     1     116.584 120.346 120.374  1.00  0.00     0.004 C 
ENDBRANCH   3   4
ENDBRANCH   2   3
ENDBRANCH   1   2
BRANCH   1   6
ATOM      6  C   UNL     1     119.362 118.201 117.453  1.00  0.00     0.008 C 
BRANCH   6   7
ATOM      7  C   UNL     1     119.580 119.719 117.465  1.00  0.00     0.075 C 
BRANCH   7   8
ATOM      8  C   UNL     1     119.996 120.217 118.826  1.00  0.00     0.129 C 
ATOM      9  O   UNL     1     119.771 121.376 119.138  1.00  0.00    -0.300 OA
ATOM     10  C   UNL     1     120.690 119.318 119.806  1.00  0.00     0.087 C 
ENDBRANCH   7   8
ENDBRANCH   6   7
ENDBRANCH   1   6
TORSDOF 6
ENDMDL
MODEL 7
REMARK VINA RESULT:    -3.758      1.781      3.990
REMARK INTER + INTRA:          -5.925
REMARK INTER:                  -5.094
REMARK INTRA:                  -0.831
REMARK UNBOUND:                -0.849
REMARK SMILES CCCCCCCC(C)=O
REMARK SMILES IDX 5 1 4 2 3 3 2 4 1 5 6 6 7 7 8 8 10 9 9 10
REMARK H PARENT
REMARK Flexibility Score: inf
ROOT
ATOM      1  C   UNL     1     117.917 119.668 117.743  1.00  0.00     0.000 C 
ENDROOT
BRANCH   1   2
ATOM      2  C   UNL     1     117.340 120.004 119.123  1.00  0.00     0.000 C 
BRANCH   2   3
ATOM      3  C   UNL     1     118.424 120.561 120.053  1.00  0.00    -0.000 C 
BRANCH   3   4
ATOM      4  C   UNL     1     119.548 121.228 119.250  1.00  0.00    -0.003 C 
ATOM      5  C   UNL     1     120.874 121.165 120.001  1.00  0.00     0.004 C 
ENDBRANCH   3   4
ENDBRANCH   2   3
ENDBRANCH   1   2
BRANCH   1   6
ATOM      6  C   UNL     1     118.245 118.172 117.632  1.00  0.00     0.008 C 
BRANCH   6   7
ATOM      7  C   UNL     1     119.755 117.915 117.564  1.00  0.00     0.075 C 
BRANCH   7   8
ATOM      8  C   UNL     1     120.324 117.544 118.911  1.00  0.00     0.129 C 
ATOM      9  O   UNL     1     121.483 117.824 119.173  1.00  0.00    -0.300 OA
ATOM     10  C   UNL     1     119.495 116.828 119.936  1.00  0.00     0.087 C 
ENDBRANCH   7   8
ENDBRANCH   6   7
ENDBRANCH   1   6
TORSDOF 6
ENDMDL
MODEL 8
REMARK VINA RESULT:    -3.756      1.369      2.076
REMARK INTER + INTRA:          -5.922
REMARK INTER:                  -5.095
REMARK INTRA:                  -0.827
REMARK UNBOUND:                -0.849
REMARK SMILES CCCCCCCC(C)=O
REMARK SMILES IDX 5 1 4 2 3 3 2 4 1 5 6 6 7 7 8 8 10 9 9 10
REMARK H PARENT
REMARK Flexibility Score: inf
ROOT
ATOM      1  C   UNL     1     119.692 117.910 117.740  1.00  0.00     0.000 C 
ENDROOT
BRANCH   1   2
ATOM      2  C   UNL     1     120.265 117.539 119.113  1.00  0.00     0.000 C 
BRANCH   2   3
ATOM      3  C   UNL     1     119.162 117.031 120.050  1.00  0.00    -0.000 C 
BRANCH   3   4
ATOM      4  C   UNL     1     118.027 116.372 119.258  1.00  0.00    -0.003 C 
ATOM      5  C   UNL     1     116.707 116.450 120.018  1.00  0.00     0.004 C 
ENDBRANCH   3   4
ENDBRANCH   2   3
ENDBRANCH   1   2
BRANCH   1   6
ATOM      6  C   UNL     1     119.364 119.408 117.667  1.00  0.00     0.008 C 
BRANCH   6   7
ATOM      7  C   UNL     1     117.854 119.665 117.599  1.00  0.00     0.075 C 
BRANCH   7   8
ATOM      8  C   UNL     1     117.291 120.063 118.940  1.00  0.00     0.129 C 
ATOM      9  O   UNL     1     116.116 119.839 119.191  1.00  0.00    -0.300 OA
ATOM     10  C   UNL     1     118.143 120.738 119.974  1.00  0.00     0.087 C 
ENDBRANCH   7   8
ENDBRANCH   6   7
ENDBRANCH   1   6
TORSDOF 6
ENDMDL
MODEL 9
REMARK VINA RESULT:    -3.742      1.015      2.961
REMARK INTER + INTRA:          -5.903
REMARK INTER:                  -5.076
REMARK INTRA:                  -0.827
REMARK UNBOUND:                -0.849
REMARK SMILES CCCCCCCC(C)=O
REMARK SMILES IDX 5 1 4 2 3 3 2 4 1 5 6 6 7 7 8 8 10 9 9 10
REMARK H PARENT
REMARK Flexibility Score: inf
ROOT
ATOM      1  C   UNL     1     119.165 116.880 119.570  1.00  0.00     0.000 C 
ENDROOT
BRANCH   1   2
ATOM      2  C   UNL     1     120.079 117.773 118.722  1.00  0.00     0.000 C 
BRANCH   2   3
ATOM      3  C   UNL     1     119.371 118.224 117.439  1.00  0.00    -0.000 C 
BRANCH   3   4
ATOM      4  C   UNL     1     119.431 119.748 117.284  1.00  0.00    -0.003 C 
ATOM      5  C   UNL     1     119.843 120.419 118.591  1.00  0.00     0.004 C 
ENDBRANCH   3   4
ENDBRANCH   2   3
ENDBRANCH   1   2
BRANCH   1   6
ATOM      6  C   UNL     1     117.739 116.854 119.001  1.00  0.00     0.008 C 
BRANCH   6   7
ATOM      7  C   UNL     1     116.700 117.316 120.030  1.00  0.00     0.075 C 
BRANCH   7   8
ATOM      8  C   UNL     1     116.767 118.803 120.268  1.00  0.00     0.129 C 
ATOM      9  O   UNL     1     117.258 119.226 121.304  1.00  0.00    -0.300 OA
ATOM     10  C   UNL     1     116.234 119.779 119.261  1.00  0.00     0.087 C 
ENDBRANCH   7   8
ENDBRANCH   6   7
ENDBRANCH   1   6
TORSDOF 6
ENDMDL
