MODEL 1
REMARK VINA RESULT:    -3.987      0.000      0.000
REMARK INTER + INTRA:          -5.077
REMARK INTER:                  -4.919
REMARK INTRA:                  -0.158
REMARK UNBOUND:                -0.158
REMARK SMILES CCCCC=CC(C)=O
REMARK SMILES IDX 4 1 3 2 2 3 1 4 5 5 6 6 7 7 9 8 8 9
REMARK H PARENT
REMARK Flexibility Score: inf
ROOT
ATOM      1  C   UNL     1       3.686 -25.394  22.787  1.00  0.00     0.027 C 
ENDROOT
BRANCH   1   2
ATOM      2  C   UNL     1       5.068 -24.735  22.874  1.00  0.00     0.004 C 
BRANCH   2   3
ATOM      3  C   UNL     1       5.540 -24.638  24.329  1.00  0.00    -0.003 C 
ATOM      4  C   UNL     1       5.836 -26.020  24.907  1.00  0.00     0.004 C 
ENDBRANCH   2   3
ENDBRANCH   1   2
BRANCH   1   5
ATOM      5  C   UNL     1       2.594 -24.412  23.100  1.00  0.00    -0.023 C 
ATOM      6  C   UNL     1       1.372 -24.535  22.570  1.00  0.00     0.042 C 
BRANCH   6   7
ATOM      7  C   UNL     1       0.265 -23.601  22.859  1.00  0.00     0.152 C 
ATOM      8  O   UNL     1       0.414 -22.383  22.573  1.00  0.00    -0.295 OA
ATOM      9  C   UNL     1      -1.026 -24.049  23.477  1.00  0.00     0.093 C 
ENDBRANCH   6   7
ENDBRANCH   1   5
TORSDOF 4
ENDMDL
MODEL 2
REMARK VINA RESULT:    -3.932      2.042      4.978
REMARK INTER + INTRA:          -5.009
REMARK INTER:                  -4.780
REMARK INTRA:                  -0.229
REMARK UNBOUND:                -0.158
REMARK SMILES CCCCC=CC(C)=O
REMARK SMILES IDX 4 1 3 2 2 3 1 4 5 5 6 6 7 7 9 8 8 9
REMARK H PARENT
REMARK Flexibility Score: inf
ROOT
ATOM      1  C   UNL     1       0.094 -23.183  22.982  1.00  0.00     0.027 C 
ENDROOT
BRANCH   1   2
ATOM      2  C   UNL     1      -1.193 -23.885  23.433  1.00  0.00     0.004 C 
BRANCH   2   3
ATOM      3  C   UNL     1      -0.995 -24.582  24.783  1.00  0.00    -0.003 C 
ATOM      4  C   UNL     1      -0.516 -23.598  25.848  1.00  0.00     0.004 C 
ENDBRANCH   2   3
ENDBRANCH   1   2
BRANCH   1   5
ATOM      5  C   UNL     1       1.149 -24.179  22.593  1.00  0.00    -0.023 C 
ATOM      6  C   UNL     1       2.303 -24.269  23.263  1.00  0.00     0.042 C 
BRANCH   6   7
ATOM      7  C   UNL     1       3.364 -25.241  22.924  1.00  0.00     0.152 C 
ATOM      8  O   UNL     1       3.100 -26.470  22.992  1.00  0.00    -0.295 OA
ATOM      9  C   UNL     1       4.739 -24.816  22.502  1.00  0.00     0.093 C 
ENDBRANCH   6   7
ENDBRANCH   1   5
TORSDOF 4
ENDMDL
MODEL 3
REMARK VINA RESULT:    -3.759     10.892     11.609
REMARK INTER + INTRA:          -4.796
REMARK INTER:                  -4.611
REMARK INTRA:                  -0.184
REMARK UNBOUND:                -0.158
REMARK SMILES CCCCC=CC(C)=O
REMARK SMILES IDX 4 1 3 2 2 3 1 4 5 5 6 6 7 7 9 8 8 9
REMARK H PARENT
REMARK Flexibility Score: inf
ROOT
ATOM      1  C   UNL     1       7.088 -13.978  27.113  1.00  0.00     0.027 C 
ENDROOT
BRANCH   1   2
ATOM      2  C   UNL     1       6.450 -14.649  25.890  1.00  0.00     0.004 C 
BRANCH   2   3
ATOM      3  C   UNL     1       6.199 -13.630  24.773  1.00  0.00    -0.003 C 
ATOM      4  C   UNL     1       5.429 -14.258  23.615  1.00  0.00     0.004 C 
ENDBRANCH   2   3
ENDBRANCH   1   2
BRANCH   1   5
ATOM      5  C   UNL     1       6.302 -14.260  28.361  1.00  0.00    -0.023 C 
ATOM      6  C   UNL     1       5.243 -15.078  28.348  1.00  0.00     0.042 C 
BRANCH   6   7
ATOM      7  C   UNL     1       4.447 -15.394  29.551  1.00  0.00     0.152 C 
ATOM      8  O   UNL     1       4.624 -16.505  30.118  1.00  0.00    -0.295 OA
ATOM      9  C   UNL     1       3.438 -14.442  30.121  1.00  0.00     0.093 C 
ENDBRANCH   6   7
ENDBRANCH   1   5
TORSDOF 4
ENDMDL
MODEL 4
REMARK VINA RESULT:    -3.755      2.067      4.974
REMARK INTER + INTRA:          -4.790
REMARK INTER:                  -4.537
REMARK INTRA:                  -0.253
REMARK UNBOUND:                -0.158
REMARK SMILES CCCCC=CC(C)=O
REMARK SMILES IDX 4 1 3 2 2 3 1 4 5 5 6 6 7 7 9 8 8 9
REMARK H PARENT
REMARK Flexibility Score: inf
ROOT
ATOM      1  C   UNL     1       0.891 -22.598  23.818  1.00  0.00     0.027 C 
ENDROOT
BRANCH   1   2
ATOM      2  C   UNL     1      -0.231 -23.149  22.928  1.00  0.00     0.004 C 
BRANCH   2   3
ATOM      3  C   UNL     1      -1.221 -23.983  23.748  1.00  0.00    -0.003 C 
ATOM      4  C   UNL     1      -1.081 -25.471  23.436  1.00  0.00     0.004 C 
ENDBRANCH   2   3
ENDBRANCH   1   2
BRANCH   1   5
ATOM      5  C   UNL     1       2.039 -23.562  23.905  1.00  0.00    -0.023 C 
ATOM      6  C   UNL     1       2.395 -24.318  22.861  1.00  0.00     0.042 C 
BRANCH   6   7
ATOM      7  C   UNL     1       3.524 -25.271  22.897  1.00  0.00     0.152 C 
ATOM      8  O   UNL     1       3.290 -26.471  23.203  1.00  0.00    -0.295 OA
ATOM      9  C   UNL     1       4.932 -24.863  22.582  1.00  0.00     0.093 C 
ENDBRANCH   6   7
ENDBRANCH   1   5
TORSDOF 4
ENDMDL
MODEL 5
REMARK VINA RESULT:    -3.690     10.215     10.982
REMARK INTER + INTRA:          -4.711
REMARK INTER:                  -4.588
REMARK INTRA:                  -0.123
REMARK UNBOUND:                -0.158
REMARK SMILES CCCCC=CC(C)=O
REMARK SMILES IDX 4 1 3 2 2 3 1 4 5 5 6 6 7 7 9 8 8 9
REMARK H PARENT
REMARK Flexibility Score: inf
ROOT
ATOM      1  C   UNL     1       5.950 -15.758  25.750  1.00  0.00     0.027 C 
ENDROOT
BRANCH   1   2
ATOM      2  C   UNL     1       6.392 -14.504  24.985  1.00  0.00     0.004 C 
BRANCH   2   3
ATOM      3  C   UNL     1       5.567 -14.321  23.707  1.00  0.00    -0.003 C 
ATOM      4  C   UNL     1       5.735 -12.915  23.137  1.00  0.00     0.004 C 
ENDBRANCH   2   3
ENDBRANCH   1   2
BRANCH   1   5
ATOM      5  C   UNL     1       5.312 -15.399  27.061  1.00  0.00    -0.023 C 
ATOM      6  C   UNL     1       5.074 -16.325  27.998  1.00  0.00     0.042 C 
BRANCH   6   7
ATOM      7  C   UNL     1       4.460 -16.017  29.306  1.00  0.00     0.152 C 
ATOM      8  O   UNL     1       4.283 -16.958  30.125  1.00  0.00    -0.295 OA
ATOM      9  C   UNL     1       4.043 -14.630  29.692  1.00  0.00     0.093 C 
ENDBRANCH   6   7
ENDBRANCH   1   5
TORSDOF 4
ENDMDL
MODEL 6
REMARK VINA RESULT:    -3.671      7.659      9.607
REMARK INTER + INTRA:          -4.688
REMARK INTER:                  -4.539
REMARK INTRA:                  -0.149
REMARK UNBOUND:                -0.158
REMARK SMILES CCCCC=CC(C)=O
REMARK SMILES IDX 4 1 3 2 2 3 1 4 5 5 6 6 7 7 9 8 8 9
REMARK H PARENT
REMARK Flexibility Score: inf
ROOT
ATOM      1  C   UNL     1       9.220 -21.279  21.882  1.00  0.00     0.027 C 
ENDROOT
BRANCH   1   2
ATOM      2  C   UNL     1       9.357 -22.511  22.785  1.00  0.00     0.004 C 
BRANCH   2   3
ATOM      3  C   UNL     1       8.541 -22.343  24.071  1.00  0.00    -0.003 C 
ATOM      4  C   UNL     1       7.621 -23.539  24.301  1.00  0.00     0.004 C 
ENDBRANCH   2   3
ENDBRANCH   1   2
BRANCH   1   5
ATOM      5  C   UNL     1      10.033 -20.129  22.403  1.00  0.00    -0.023 C 
ATOM      6  C   UNL     1      11.180 -19.765  21.818  1.00  0.00     0.042 C 
BRANCH   6   7
ATOM      7  C   UNL     1      12.007 -18.634  22.288  1.00  0.00     0.152 C 
ATOM      8  O   UNL     1      13.261 -18.754  22.266  1.00  0.00    -0.295 OA
ATOM      9  C   UNL     1      11.409 -17.354  22.788  1.00  0.00     0.093 C 
ENDBRANCH   6   7
ENDBRANCH   1   5
TORSDOF 4
ENDMDL
MODEL 7
REMARK VINA RESULT:    -3.661      8.111      9.782
REMARK INTER + INTRA:          -4.675
REMARK INTER:                  -4.519
REMARK INTRA:                  -0.156
REMARK UNBOUND:                -0.158
REMARK SMILES CCCCC=CC(C)=O
REMARK SMILES IDX 4 1 3 2 2 3 1 4 5 5 6 6 7 7 9 8 8 9
REMARK H PARENT
REMARK Flexibility Score: inf
ROOT
ATOM      1  C   UNL     1      11.010 -18.827  21.601  1.00  0.00     0.027 C 
ENDROOT
BRANCH   1   2
ATOM      2  C   UNL     1      12.527 -18.609  21.535  1.00  0.00     0.004 C 
BRANCH   2   3
ATOM      3  C   UNL     1      13.189 -19.635  20.608  1.00  0.00    -0.003 C 
ATOM      4  C   UNL     1      14.077 -18.952  19.572  1.00  0.00     0.004 C 
ENDBRANCH   2   3
ENDBRANCH   1   2
BRANCH   1   5
ATOM      5  C   UNL     1      10.679 -20.261  21.895  1.00  0.00    -0.023 C 
ATOM      6  C   UNL     1       9.549 -20.601  22.526  1.00  0.00     0.042 C 
BRANCH   6   7
ATOM      7  C   UNL     1       9.175 -21.998  22.826  1.00  0.00     0.152 C 
ATOM      8  O   UNL     1       9.433 -22.888  21.972  1.00  0.00    -0.295 OA
ATOM      9  C   UNL     1       8.503 -22.394  24.106  1.00  0.00     0.093 C 
ENDBRANCH   6   7
ENDBRANCH   1   5
TORSDOF 4
ENDMDL
MODEL 8
REMARK VINA RESULT:    -3.631     10.189     11.127
REMARK INTER + INTRA:          -4.637
REMARK INTER:                  -4.420
REMARK INTRA:                  -0.217
REMARK UNBOUND:                -0.158
REMARK SMILES CCCCC=CC(C)=O
REMARK SMILES IDX 4 1 3 2 2 3 1 4 5 5 6 6 7 7 9 8 8 9
REMARK H PARENT
REMARK Flexibility Score: inf
ROOT
ATOM      1  C   UNL     1       6.796 -14.121  28.573  1.00  0.00     0.027 C 
ENDROOT
BRANCH   1   2
ATOM      2  C   UNL     1       6.290 -15.342  29.352  1.00  0.00     0.004 C 
BRANCH   2   3
ATOM      3  C   UNL     1       4.913 -15.068  29.967  1.00  0.00    -0.003 C 
ATOM      4  C   UNL     1       3.950 -16.222  29.699  1.00  0.00     0.004 C 
ENDBRANCH   2   3
ENDBRANCH   1   2
BRANCH   1   5
ATOM      5  C   UNL     1       6.807 -14.385  27.095  1.00  0.00    -0.023 C 
ATOM      6  C   UNL     1       5.924 -15.216  26.528  1.00  0.00     0.042 C 
BRANCH   6   7
ATOM      7  C   UNL     1       5.890 -15.497  25.078  1.00  0.00     0.152 C 
ATOM      8  O   UNL     1       6.089 -16.679  24.688  1.00  0.00    -0.295 OA
ATOM      9  C   UNL     1       5.627 -14.431  24.057  1.00  0.00     0.093 C 
ENDBRANCH   6   7
ENDBRANCH   1   5
TORSDOF 4
ENDMDL
MODEL 9
REMARK VINA RESULT:    -3.542     10.491     11.303
REMARK INTER + INTRA:          -4.528
REMARK INTER:                  -4.273
REMARK INTRA:                  -0.256
REMARK UNBOUND:                -0.158
REMARK SMILES CCCCC=CC(C)=O
REMARK SMILES IDX 4 1 3 2 2 3 1 4 5 5 6 6 7 7 9 8 8 9
REMARK H PARENT
REMARK Flexibility Score: inf
ROOT
ATOM      1  C   UNL     1       6.140 -16.118  25.949  1.00  0.00     0.027 C 
ENDROOT
BRANCH   1   2
ATOM      2  C   UNL     1       5.494 -15.687  27.271  1.00  0.00     0.004 C 
BRANCH   2   3
ATOM      3  C   UNL     1       6.558 -15.409  28.338  1.00  0.00    -0.003 C 
ATOM      4  C   UNL     1       7.011 -13.952  28.300  1.00  0.00     0.004 C 
ENDBRANCH   2   3
ENDBRANCH   1   2
BRANCH   1   5
ATOM      5  C   UNL     1       5.740 -15.206  24.825  1.00  0.00    -0.023 C 
ATOM      6  C   UNL     1       6.481 -14.143  24.493  1.00  0.00     0.042 C 
BRANCH   6   7
ATOM      7  C   UNL     1       6.134 -13.225  23.388  1.00  0.00     0.152 C 
ATOM      8  O   UNL     1       4.950 -12.800  23.306  1.00  0.00    -0.295 OA
ATOM      9  C   UNL     1       7.136 -12.783  22.364  1.00  0.00     0.093 C 
ENDBRANCH   6   7
ENDBRANCH   1   5
TORSDOF 4
ENDMDL
