MODEL 1
REMARK VINA RESULT:    11.471      0.000      0.000
REMARK INTER + INTRA:          22.295
REMARK INTER:                  15.830
REMARK INTRA:                   6.465
REMARK UNBOUND:                 6.465
REMARK SMILES C[C@@H]1OC(=O)[C@H](C)[C@@H]1C[C@@H](O)[C@@](C)(O)[C@@H]1CC[C@]2(O)C3=CC(=O)[C@@H]4C[C@@H](O)[C@@H](O)C[C@]4(C)[C@@H]3CC[C@]12C
REMARK SMILES IDX 12 1 13 2 10 3 9 4 8 5 7 6 6 7 4 8 2 9 3 10 5 11 1 12 11 13
REMARK SMILES IDX 15 15 16 16 36 17 17 18 18 19 35 20 37 21 20 22 34 23 33 24
REMARK SMILES IDX 21 25 31 26 22 27 24 28 30 29 32 30 23 31 25 32 28 33 26 34
REMARK SMILES IDX 19 35 29 37 27 39 14 41
REMARK H PARENT 11 14 19 36 29 38 27 40 14 42
REMARK Flexibility Score: inf
ROOT
ATOM      1  C   UNL     1     -17.470  39.143  16.395  1.00  0.00     0.091 C 
ATOM      2  C   UNL     1     -17.801  39.457  17.884  1.00  0.00     0.045 C 
ENDROOT
BRANCH   1   3
ATOM      3  C   UNL     1     -15.916  39.253  16.171  1.00  0.00     0.146 C 
BRANCH   3   4
ATOM      4  C   UNL     1     -15.511  39.728  14.750  1.00  0.00     0.043 C 
BRANCH   4   5
ATOM      5  C   UNL     1     -15.133  38.555  13.809  1.00  0.00     0.046 C 
ATOM      6  C   UNL     1     -16.998  39.290  12.110  1.00  0.00     0.020 C 
ATOM      7  C   UNL     1     -16.161  38.149  12.712  1.00  0.00     0.103 C 
ATOM      8  C   UNL     1     -15.251  37.602  11.673  1.00  0.00     0.309 C 
ATOM      9  C   UNL     1     -13.765  38.693  13.074  1.00  0.00     0.177 C 
ATOM     10  O   UNL     1     -13.923  37.917  11.897  1.00  0.00    -0.462 OA
ATOM     11  O   UNL     1     -15.629  36.882  10.709  1.00  0.00    -0.252 OA
ATOM     12  C   UNL     1     -13.375  40.124  12.682  1.00  0.00     0.053 C 
ENDBRANCH   4   5
ENDBRANCH   3   4
BRANCH   3  13
ATOM     13  O   UNL     1     -15.365  40.125  17.129  1.00  0.00    -0.390 OA
ATOM     14  H   UNL     1     -16.013  40.207  17.875  1.00  0.00     0.211 HD
ENDBRANCH   3  13
ENDBRANCH   1   3
BRANCH   1  15
ATOM     15  C   UNL     1     -17.940  37.679  16.016  1.00  0.00     0.032 C 
ATOM     16  C   UNL     1     -16.768  36.690  15.884  1.00  0.00     0.010 C 
ATOM     17  C   UNL     1     -18.822  37.438  14.733  1.00  0.00     0.006 C 
ATOM     18  C   UNL     1     -17.150  35.671  14.816  1.00  0.00     0.041 C 
ATOM     19  C   UNL     1     -18.637  35.901  14.494  1.00  0.00     0.092 C 
ATOM     20  C   UNL     1     -18.261  38.220  13.489  1.00  0.00     0.011 C 
ATOM     21  C   UNL     1     -20.315  37.817  15.014  1.00  0.00     0.015 C 
ATOM     22  C   UNL     1     -18.952  35.460  13.059  1.00  0.00    -0.031 C 
ATOM     23  C   UNL     1     -18.713  37.724  12.086  1.00  0.00     0.009 C 
ATOM     24  C   UNL     1     -19.598  36.465  12.116  1.00  0.00     0.025 C 
ATOM     25  C   UNL     1     -18.576  34.238  12.649  1.00  0.00     0.050 C 
ATOM     26  C   UNL     1     -20.092  35.846  10.736  1.00  0.00    -0.013 C 
ATOM     27  C   UNL     1     -18.680  33.807  11.250  1.00  0.00     0.159 C 
ATOM     28  C   UNL     1     -19.118  34.760  10.174  1.00  0.00     0.070 C 
ATOM     29  C   UNL     1     -20.397  36.921   9.638  1.00  0.00     0.042 C 
ATOM     30  C   UNL     1     -21.452  35.133  11.029  1.00  0.00     0.013 C 
ATOM     31  O   UNL     1     -18.372  32.625  10.947  1.00  0.00    -0.295 OA
ATOM     32  C   UNL     1     -17.894  35.341   9.444  1.00  0.00     0.047 C 
ATOM     33  C   UNL     1     -19.175  37.434   8.838  1.00  0.00     0.143 C 
ATOM     34  C   UNL     1     -18.315  36.281   8.303  1.00  0.00     0.143 C 
BRANCH  19  35
ATOM     35  O   UNL     1     -19.390  35.150  15.426  1.00  0.00    -0.385 OA
ATOM     36  H   UNL     1     -19.620  34.273  15.024  1.00  0.00     0.211 HD
ENDBRANCH  19  35
BRANCH  33  37
ATOM     37  O   UNL     1     -19.624  38.211   7.755  1.00  0.00    -0.390 OA
ATOM     38  H   UNL     1     -20.342  37.696   7.303  1.00  0.00     0.211 HD
ENDBRANCH  33  37
BRANCH  34  39
ATOM     39  O   UNL     1     -19.023  35.572   7.318  1.00  0.00    -0.390 OA
ATOM     40  H   UNL     1     -18.351  35.057   6.800  1.00  0.00     0.211 HD
ENDBRANCH  34  39
ENDBRANCH   1  15
BRANCH   1  41
ATOM     41  O   UNL     1     -18.129  40.062  15.548  1.00  0.00    -0.387 OA
ATOM     42  H   UNL     1     -17.704  40.954  15.648  1.00  0.00     0.211 HD
ENDBRANCH   1  41
TORSDOF 9
ENDMDL
