MODEL 1
REMARK VINA RESULT:    -7.057      0.000      0.000
REMARK INTER + INTRA:          -9.340
REMARK INTER:                  -8.913
REMARK INTRA:                  -0.427
REMARK UNBOUND:                -0.427
REMARK SMILES Oc1cc(O)cc(CCc2ccccc2O)c1
REMARK SMILES IDX 9 1 10 2 12 3 13 4 11 5 14 6 15 7 16 8 8 10 7 11 6 12 17 13
REMARK SMILES IDX 4 14 2 15 3 16 5 17 1 19
REMARK H PARENT 16 9 5 18 1 20
REMARK Flexibility Score: inf
ROOT
ATOM      1  C   UNL     1       5.994   9.114  82.074  1.00  0.00     0.044 C 
ENDROOT
BRANCH   1   2
ATOM      2  C   UNL     1       4.634   9.753  82.189  1.00  0.00    -0.006 A 
ATOM      3  C   UNL     1       3.180  11.665  81.807  1.00  0.00     0.001 A 
ATOM      4  C   UNL     1       2.131  11.002  82.447  1.00  0.00     0.004 A 
ATOM      5  C   UNL     1       4.427  11.047  81.681  1.00  0.00     0.007 A 
ATOM      6  C   UNL     1       2.329   9.721  82.970  1.00  0.00     0.046 A 
ATOM      7  C   UNL     1       3.577   9.093  82.850  1.00  0.00     0.118 A 
BRANCH   7   8
ATOM      8  O   UNL     1       3.770   7.820  83.387  1.00  0.00    -0.508 OA
ATOM      9  H   UNL     1       3.277   7.012  83.027  1.00  0.00     0.293 HD
ENDBRANCH   7   8
ENDBRANCH   1   2
BRANCH   1  10
ATOM     10  C   UNL     1       6.614   9.411  80.704  1.00  0.00     0.040 C 
BRANCH  10  11
ATOM     11  C   UNL     1       7.428   8.238  80.228  1.00  0.00    -0.040 A 
ATOM     12  C   UNL     1       8.721   8.435  79.718  1.00  0.00     0.050 A 
ATOM     13  C   UNL     1       6.922   6.933  80.340  1.00  0.00     0.050 A 
ATOM     14  C   UNL     1       9.492   7.343  79.305  1.00  0.00     0.119 A 
ATOM     15  C   UNL     1       7.693   5.837  79.926  1.00  0.00     0.119 A 
ATOM     16  C   UNL     1       8.975   6.045  79.407  1.00  0.00     0.092 A 
BRANCH  14  17
ATOM     17  O   UNL     1      10.772   7.558  78.797  1.00  0.00    -0.508 OA
ATOM     18  H   UNL     1      11.560   7.741  79.406  1.00  0.00     0.293 HD
ENDBRANCH  14  17
BRANCH  15  19
ATOM     19  O   UNL     1       7.195   4.541  80.028  1.00  0.00    -0.508 OA
ATOM     20  H   UNL     1       7.200   4.039  80.909  1.00  0.00     0.293 HD
ENDBRANCH  15  19
ENDBRANCH  10  11
ENDBRANCH   1  10
TORSDOF 6
ENDMDL
MODEL 2
REMARK VINA RESULT:    -7.019      0.034      2.035
REMARK INTER + INTRA:          -9.292
REMARK INTER:                  -8.875
REMARK INTRA:                  -0.417
REMARK UNBOUND:                -0.427
REMARK SMILES Oc1cc(O)cc(CCc2ccccc2O)c1
REMARK SMILES IDX 9 1 10 2 12 3 13 4 11 5 14 6 15 7 16 8 8 10 7 11 6 12 17 13
REMARK SMILES IDX 4 14 2 15 3 16 5 17 1 19
REMARK H PARENT 16 9 5 18 1 20
REMARK Flexibility Score: inf
ROOT
ATOM      1  C   UNL     1       6.011   9.136  82.089  1.00  0.00     0.044 C 
ENDROOT
BRANCH   1   2
ATOM      2  C   UNL     1       4.650   9.775  82.197  1.00  0.00    -0.006 A 
ATOM      3  C   UNL     1       3.197  11.685  81.801  1.00  0.00     0.001 A 
ATOM      4  C   UNL     1       2.146  11.024  82.441  1.00  0.00     0.004 A 
ATOM      5  C   UNL     1       4.444  11.067  81.683  1.00  0.00     0.007 A 
ATOM      6  C   UNL     1       2.342   9.745  82.969  1.00  0.00     0.046 A 
ATOM      7  C   UNL     1       3.591   9.117  82.856  1.00  0.00     0.118 A 
BRANCH   7   8
ATOM      8  O   UNL     1       3.782   7.846  83.399  1.00  0.00    -0.508 OA
ATOM      9  H   UNL     1       4.615   7.304  83.203  1.00  0.00     0.293 HD
ENDBRANCH   7   8
ENDBRANCH   1   2
BRANCH   1  10
ATOM     10  C   UNL     1       6.615   9.385  80.703  1.00  0.00     0.040 C 
BRANCH  10  11
ATOM     11  C   UNL     1       7.448   8.209  80.271  1.00  0.00    -0.040 A 
ATOM     12  C   UNL     1       6.930   6.906  80.356  1.00  0.00     0.050 A 
ATOM     13  C   UNL     1       8.727   8.409  79.727  1.00  0.00     0.050 A 
ATOM     14  C   UNL     1       7.690   5.814  79.924  1.00  0.00     0.119 A 
ATOM     15  C   UNL     1       9.490   7.315  79.294  1.00  0.00     0.119 A 
ATOM     16  C   UNL     1       8.972   6.021  79.395  1.00  0.00     0.092 A 
BRANCH  14  17
ATOM     17  O   UNL     1       7.163   4.527  80.021  1.00  0.00    -0.508 OA
ATOM     18  H   UNL     1       6.165   4.368  80.087  1.00  0.00     0.293 HD
ENDBRANCH  14  17
BRANCH  15  19
ATOM     19  O   UNL     1      10.763   7.506  78.760  1.00  0.00    -0.508 OA
ATOM     20  H   UNL     1      11.435   8.124  79.200  1.00  0.00     0.293 HD
ENDBRANCH  15  19
ENDBRANCH  10  11
ENDBRANCH   1  10
TORSDOF 6
ENDMDL
MODEL 3
REMARK VINA RESULT:    -6.875      1.587      2.051
REMARK INTER + INTRA:          -9.111
REMARK INTER:                  -8.603
REMARK INTRA:                  -0.508
REMARK UNBOUND:                -0.427
REMARK SMILES Oc1cc(O)cc(CCc2ccccc2O)c1
REMARK SMILES IDX 9 1 10 2 12 3 13 4 11 5 14 6 15 7 16 8 8 10 7 11 6 12 17 13
REMARK SMILES IDX 4 14 2 15 3 16 5 17 1 19
REMARK H PARENT 16 9 5 18 1 20
REMARK Flexibility Score: inf
ROOT
ATOM      1  C   UNL     1       6.045   9.134  82.155  1.00  0.00     0.044 C 
ENDROOT
BRANCH   1   2
ATOM      2  C   UNL     1       4.826  10.018  82.091  1.00  0.00    -0.006 A 
ATOM      3  C   UNL     1       2.498  10.418  82.670  1.00  0.00     0.001 A 
ATOM      4  C   UNL     1       2.514  11.606  81.936  1.00  0.00     0.004 A 
ATOM      5  C   UNL     1       3.645   9.625  82.745  1.00  0.00     0.007 A 
ATOM      6  C   UNL     1       3.677  12.000  81.268  1.00  0.00     0.046 A 
ATOM      7  C   UNL     1       4.834  11.209  81.337  1.00  0.00     0.118 A 
BRANCH   7   8
ATOM      8  O   UNL     1       5.987  11.603  80.657  1.00  0.00    -0.508 OA
ATOM      9  H   UNL     1       6.364  12.539  80.747  1.00  0.00     0.293 HD
ENDBRANCH   7   8
ENDBRANCH   1   2
BRANCH   1  10
ATOM     10  C   UNL     1       5.881   7.921  81.234  1.00  0.00     0.040 C 
BRANCH  10  11
ATOM     11  C   UNL     1       7.144   7.674  80.454  1.00  0.00    -0.040 A 
ATOM     12  C   UNL     1       7.981   8.747  80.106  1.00  0.00     0.050 A 
ATOM     13  C   UNL     1       7.525   6.365  80.119  1.00  0.00     0.050 A 
ATOM     14  C   UNL     1       9.172   8.517  79.410  1.00  0.00     0.119 A 
ATOM     15  C   UNL     1       8.718   6.132  79.421  1.00  0.00     0.119 A 
ATOM     16  C   UNL     1       9.538   7.208  79.066  1.00  0.00     0.092 A 
BRANCH  14  17
ATOM     17  O   UNL     1       9.987   9.594  79.067  1.00  0.00    -0.508 OA
ATOM     18  H   UNL     1       9.816  10.144  78.233  1.00  0.00     0.293 HD
ENDBRANCH  14  17
BRANCH  15  19
ATOM     19  O   UNL     1       9.099   4.837  79.079  1.00  0.00    -0.508 OA
ATOM     20  H   UNL     1       8.422   4.085  79.016  1.00  0.00     0.293 HD
ENDBRANCH  15  19
ENDBRANCH  10  11
ENDBRANCH   1  10
TORSDOF 6
ENDMDL
MODEL 4
REMARK VINA RESULT:    -6.859      1.548      6.811
REMARK INTER + INTRA:          -9.090
REMARK INTER:                  -8.671
REMARK INTRA:                  -0.419
REMARK UNBOUND:                -0.427
REMARK SMILES Oc1cc(O)cc(CCc2ccccc2O)c1
REMARK SMILES IDX 9 1 10 2 12 3 13 4 11 5 14 6 15 7 16 8 8 10 7 11 6 12 17 13
REMARK SMILES IDX 4 14 2 15 3 16 5 17 1 19
REMARK H PARENT 16 9 5 18 1 20
REMARK Flexibility Score: inf
ROOT
ATOM      1  C   UNL     1       6.196   7.882  80.925  1.00  0.00     0.044 C 
ENDROOT
BRANCH   1   2
ATOM      2  C   UNL     1       7.544   7.633  80.299  1.00  0.00    -0.006 A 
ATOM      3  C   UNL     1       9.681   8.494  79.518  1.00  0.00     0.001 A 
ATOM      4  C   UNL     1      10.038   7.219  79.074  1.00  0.00     0.004 A 
ATOM      5  C   UNL     1       8.439   8.703  80.124  1.00  0.00     0.007 A 
ATOM      6  C   UNL     1       9.151   6.150  79.228  1.00  0.00     0.046 A 
ATOM      7  C   UNL     1       7.901   6.351  79.834  1.00  0.00     0.118 A 
BRANCH   7   8
ATOM      8  O   UNL     1       7.016   5.281  79.973  1.00  0.00    -0.508 OA
ATOM      9  H   UNL     1       6.084   5.408  80.348  1.00  0.00     0.293 HD
ENDBRANCH   7   8
ENDBRANCH   1   2
BRANCH   1  10
ATOM     10  C   UNL     1       6.278   9.023  81.945  1.00  0.00     0.040 C 
BRANCH  10  11
ATOM     11  C   UNL     1       4.928   9.658  82.136  1.00  0.00    -0.040 A 
ATOM     12  C   UNL     1       3.899   8.953  82.781  1.00  0.00     0.050 A 
ATOM     13  C   UNL     1       4.703  10.981  81.722  1.00  0.00     0.050 A 
ATOM     14  C   UNL     1       2.653   9.554  82.989  1.00  0.00     0.119 A 
ATOM     15  C   UNL     1       3.455  11.585  81.930  1.00  0.00     0.119 A 
ATOM     16  C   UNL     1       2.432  10.870  82.560  1.00  0.00     0.092 A 
BRANCH  14  17
ATOM     17  O   UNL     1       1.641   8.837  83.625  1.00  0.00    -0.508 OA
ATOM     18  H   UNL     1       1.481   8.918  84.622  1.00  0.00     0.293 HD
ENDBRANCH  14  17
BRANCH  15  19
ATOM     19  O   UNL     1       3.223  12.895  81.515  1.00  0.00    -0.508 OA
ATOM     20  H   UNL     1       3.986  13.521  81.285  1.00  0.00     0.293 HD
ENDBRANCH  15  19
ENDBRANCH  10  11
ENDBRANCH   1  10
TORSDOF 6
ENDMDL
MODEL 5
REMARK VINA RESULT:    -6.833      1.564      6.530
REMARK INTER + INTRA:          -9.057
REMARK INTER:                  -8.633
REMARK INTRA:                  -0.424
REMARK UNBOUND:                -0.427
REMARK SMILES Oc1cc(O)cc(CCc2ccccc2O)c1
REMARK SMILES IDX 9 1 10 2 12 3 13 4 11 5 14 6 15 7 16 8 8 10 7 11 6 12 17 13
REMARK SMILES IDX 4 14 2 15 3 16 5 17 1 19
REMARK H PARENT 16 9 5 18 1 20
REMARK Flexibility Score: inf
ROOT
ATOM      1  C   UNL     1       6.215   7.950  80.960  1.00  0.00     0.044 C 
ENDROOT
BRANCH   1   2
ATOM      2  C   UNL     1       7.558   7.690  80.326  1.00  0.00    -0.006 A 
ATOM      3  C   UNL     1       9.716   8.524  79.577  1.00  0.00     0.001 A 
ATOM      4  C   UNL     1      10.042   7.258  79.090  1.00  0.00     0.004 A 
ATOM      5  C   UNL     1       8.479   8.743  80.189  1.00  0.00     0.007 A 
ATOM      6  C   UNL     1       9.129   6.206  79.206  1.00  0.00     0.046 A 
ATOM      7  C   UNL     1       7.884   6.416  79.818  1.00  0.00     0.118 A 
BRANCH   7   8
ATOM      8  O   UNL     1       6.973   5.364  79.919  1.00  0.00    -0.508 OA
ATOM      9  H   UNL     1       6.900   4.802  80.758  1.00  0.00     0.293 HD
ENDBRANCH   7   8
ENDBRANCH   1   2
BRANCH   1  10
ATOM     10  C   UNL     1       6.308   9.099  81.969  1.00  0.00     0.040 C 
BRANCH  10  11
ATOM     11  C   UNL     1       4.958   9.727  82.181  1.00  0.00    -0.040 A 
ATOM     12  C   UNL     1       4.712  11.039  81.745  1.00  0.00     0.050 A 
ATOM     13  C   UNL     1       3.917   8.988  82.766  1.00  0.00     0.050 A 
ATOM     14  C   UNL     1       3.447  11.614  81.911  1.00  0.00     0.119 A 
ATOM     15  C   UNL     1       2.649   9.562  82.934  1.00  0.00     0.119 A 
ATOM     16  C   UNL     1       2.417  10.874  82.509  1.00  0.00     0.092 A 
BRANCH  14  17
ATOM     17  O   UNL     1       3.222  12.919  81.477  1.00  0.00    -0.508 OA
ATOM     18  H   UNL     1       2.960  13.122  80.520  1.00  0.00     0.293 HD
ENDBRANCH  14  17
BRANCH  15  19
ATOM     19  O   UNL     1       1.614   8.837  83.520  1.00  0.00    -0.508 OA
ATOM     20  H   UNL     1       0.642   9.052  83.328  1.00  0.00     0.293 HD
ENDBRANCH  15  19
ENDBRANCH  10  11
ENDBRANCH   1  10
TORSDOF 6
ENDMDL
MODEL 6
REMARK VINA RESULT:    -6.557      1.678      2.743
REMARK INTER + INTRA:          -8.709
REMARK INTER:                  -8.187
REMARK INTRA:                  -0.522
REMARK UNBOUND:                -0.427
REMARK SMILES Oc1cc(O)cc(CCc2ccccc2O)c1
REMARK SMILES IDX 9 1 10 2 12 3 13 4 11 5 14 6 15 7 16 8 8 10 7 11 6 12 17 13
REMARK SMILES IDX 4 14 2 15 3 16 5 17 1 19
REMARK H PARENT 16 9 5 18 1 20
REMARK Flexibility Score: inf
ROOT
ATOM      1  C   UNL     1       5.784   9.259  82.436  1.00  0.00     0.044 C 
ENDROOT
BRANCH   1   2
ATOM      2  C   UNL     1       4.502  10.033  82.258  1.00  0.00    -0.006 A 
ATOM      3  C   UNL     1       2.106  10.227  82.625  1.00  0.00     0.001 A 
ATOM      4  C   UNL     1       2.084  11.413  81.888  1.00  0.00     0.004 A 
ATOM      5  C   UNL     1       3.307   9.537  82.806  1.00  0.00     0.007 A 
ATOM      6  C   UNL     1       3.263  11.909  81.325  1.00  0.00     0.046 A 
ATOM      7  C   UNL     1       4.474  11.222  81.501  1.00  0.00     0.118 A 
BRANCH   7   8
ATOM      8  O   UNL     1       5.644  11.717  80.924  1.00  0.00    -0.508 OA
ATOM      9  H   UNL     1       6.297  12.284  81.451  1.00  0.00     0.293 HD
ENDBRANCH   7   8
ENDBRANCH   1   2
BRANCH   1  10
ATOM     10  C   UNL     1       5.822   8.055  81.490  1.00  0.00     0.040 C 
BRANCH  10  11
ATOM     11  C   UNL     1       7.125   8.014  80.738  1.00  0.00    -0.040 A 
ATOM     12  C   UNL     1       7.466   6.887  79.974  1.00  0.00     0.050 A 
ATOM     13  C   UNL     1       7.984   9.125  80.750  1.00  0.00     0.050 A 
ATOM     14  C   UNL     1       8.661   6.860  79.248  1.00  0.00     0.119 A 
ATOM     15  C   UNL     1       9.183   9.100  80.023  1.00  0.00     0.119 A 
ATOM     16  C   UNL     1       9.520   7.967  79.276  1.00  0.00     0.092 A 
BRANCH  14  17
ATOM     17  O   UNL     1       8.986   5.730  78.500  1.00  0.00    -0.508 OA
ATOM     18  H   UNL     1       8.845   4.795  78.864  1.00  0.00     0.293 HD
ENDBRANCH  14  17
BRANCH  15  19
ATOM     19  O   UNL     1      10.043  10.195  80.036  1.00  0.00    -0.508 OA
ATOM     20  H   UNL     1      10.812  10.258  80.693  1.00  0.00     0.293 HD
ENDBRANCH  15  19
ENDBRANCH  10  11
ENDBRANCH   1  10
TORSDOF 6
ENDMDL
MODEL 7
REMARK VINA RESULT:    -6.459      2.392      3.908
REMARK INTER + INTRA:          -8.586
REMARK INTER:                  -8.160
REMARK INTRA:                  -0.425
REMARK UNBOUND:                -0.427
REMARK SMILES Oc1cc(O)cc(CCc2ccccc2O)c1
REMARK SMILES IDX 9 1 10 2 12 3 13 4 11 5 14 6 15 7 16 8 8 10 7 11 6 12 17 13
REMARK SMILES IDX 4 14 2 15 3 16 5 17 1 19
REMARK H PARENT 16 9 5 18 1 20
REMARK Flexibility Score: inf
ROOT
ATOM      1  C   UNL     1       7.139  10.647  79.624  1.00  0.00     0.044 C 
ENDROOT
BRANCH   1   2
ATOM      2  C   UNL     1       6.027  11.664  79.581  1.00  0.00    -0.006 A 
ATOM      3  C   UNL     1       4.007  12.600  80.561  1.00  0.00     0.001 A 
ATOM      4  C   UNL     1       3.902  13.499  79.498  1.00  0.00     0.004 A 
ATOM      5  C   UNL     1       5.061  11.683  80.602  1.00  0.00     0.007 A 
ATOM      6  C   UNL     1       4.848  13.480  78.469  1.00  0.00     0.046 A 
ATOM      7  C   UNL     1       5.909  12.563  78.501  1.00  0.00     0.118 A 
BRANCH   7   8
ATOM      8  O   UNL     1       6.841  12.541  77.463  1.00  0.00    -0.508 OA
ATOM      9  H   UNL     1       6.634  12.938  76.555  1.00  0.00     0.293 HD
ENDBRANCH   7   8
ENDBRANCH   1   2
BRANCH   1  10
ATOM     10  C   UNL     1       6.755   9.466  80.522  1.00  0.00     0.040 C 
BRANCH  10  11
ATOM     11  C   UNL     1       7.567   8.249  80.170  1.00  0.00    -0.040 A 
ATOM     12  C   UNL     1       7.011   6.966  80.300  1.00  0.00     0.050 A 
ATOM     13  C   UNL     1       8.867   8.389  79.657  1.00  0.00     0.050 A 
ATOM     14  C   UNL     1       7.752   5.835  79.942  1.00  0.00     0.119 A 
ATOM     15  C   UNL     1       9.611   7.257  79.298  1.00  0.00     0.119 A 
ATOM     16  C   UNL     1       9.054   5.983  79.444  1.00  0.00     0.092 A 
BRANCH  14  17
ATOM     17  O   UNL     1       7.186   4.569  80.083  1.00  0.00    -0.508 OA
ATOM     18  H   UNL     1       7.693   3.808  80.519  1.00  0.00     0.293 HD
ENDBRANCH  14  17
BRANCH  15  19
ATOM     19  O   UNL     1      10.904   7.388  78.795  1.00  0.00    -0.508 OA
ATOM     20  H   UNL     1      11.526   8.121  79.117  1.00  0.00     0.293 HD
ENDBRANCH  15  19
ENDBRANCH  10  11
ENDBRANCH   1  10
TORSDOF 6
ENDMDL
MODEL 8
REMARK VINA RESULT:    -6.228      2.393      3.203
REMARK INTER + INTRA:          -8.294
REMARK INTER:                  -7.883
REMARK INTRA:                  -0.411
REMARK UNBOUND:                -0.427
REMARK SMILES Oc1cc(O)cc(CCc2ccccc2O)c1
REMARK SMILES IDX 9 1 10 2 12 3 13 4 11 5 14 6 15 7 16 8 8 10 7 11 6 12 17 13
REMARK SMILES IDX 4 14 2 15 3 16 5 17 1 19
REMARK H PARENT 16 9 5 18 1 20
REMARK Flexibility Score: inf
ROOT
ATOM      1  C   UNL     1       6.796  10.746  79.442  1.00  0.00     0.044 C 
ENDROOT
BRANCH   1   2
ATOM      2  C   UNL     1       5.706  11.762  79.670  1.00  0.00    -0.006 A 
ATOM      3  C   UNL     1       3.928  12.646  81.075  1.00  0.00     0.001 A 
ATOM      4  C   UNL     1       3.624  13.597  80.099  1.00  0.00     0.004 A 
ATOM      5  C   UNL     1       4.961  11.729  80.861  1.00  0.00     0.007 A 
ATOM      6  C   UNL     1       4.347  13.631  78.904  1.00  0.00     0.046 A 
ATOM      7  C   UNL     1       5.385  12.714  78.680  1.00  0.00     0.118 A 
BRANCH   7   8
ATOM      8  O   UNL     1       6.093  12.745  77.478  1.00  0.00    -0.508 OA
ATOM      9  H   UNL     1       5.621  12.721  76.583  1.00  0.00     0.293 HD
ENDBRANCH   7   8
ENDBRANCH   1   2
BRANCH   1  10
ATOM     10  C   UNL     1       6.796   9.696  80.558  1.00  0.00     0.040 C 
BRANCH  10  11
ATOM     11  C   UNL     1       7.544   8.465  80.126  1.00  0.00    -0.040 A 
ATOM     12  C   UNL     1       8.869   8.565  79.672  1.00  0.00     0.050 A 
ATOM     13  C   UNL     1       6.942   7.200  80.225  1.00  0.00     0.050 A 
ATOM     14  C   UNL     1       9.578   7.417  79.300  1.00  0.00     0.119 A 
ATOM     15  C   UNL     1       7.651   6.048  79.853  1.00  0.00     0.119 A 
ATOM     16  C   UNL     1       8.965   6.159  79.389  1.00  0.00     0.092 A 
BRANCH  14  17
ATOM     17  O   UNL     1      10.890   7.536  78.847  1.00  0.00    -0.508 OA
ATOM     18  H   UNL     1      11.663   7.668  79.489  1.00  0.00     0.293 HD
ENDBRANCH  14  17
BRANCH  15  19
ATOM     19  O   UNL     1       7.058   4.791  79.942  1.00  0.00    -0.508 OA
ATOM     20  H   UNL     1       6.596   4.482  80.790  1.00  0.00     0.293 HD
ENDBRANCH  15  19
ENDBRANCH  10  11
ENDBRANCH   1  10
TORSDOF 6
ENDMDL
MODEL 9
REMARK VINA RESULT:    -6.160      3.902      6.333
REMARK INTER + INTRA:          -8.207
REMARK INTER:                  -7.824
REMARK INTRA:                  -0.383
REMARK UNBOUND:                -0.427
REMARK SMILES Oc1cc(O)cc(CCc2ccccc2O)c1
REMARK SMILES IDX 9 1 10 2 12 3 13 4 11 5 14 6 15 7 16 8 8 10 7 11 6 12 17 13
REMARK SMILES IDX 4 14 2 15 3 16 5 17 1 19
REMARK H PARENT 16 9 5 18 1 20
REMARK Flexibility Score: inf
ROOT
ATOM      1  C   UNL     1       9.071  11.287  79.248  1.00  0.00     0.044 C 
ENDROOT
BRANCH   1   2
ATOM      2  C   UNL     1      10.062  12.383  78.951  1.00  0.00    -0.006 A 
ATOM      3  C   UNL     1      11.800  13.900  79.723  1.00  0.00     0.001 A 
ATOM      4  C   UNL     1      11.873  14.471  78.452  1.00  0.00     0.004 A 
ATOM      5  C   UNL     1      10.897  12.864  79.975  1.00  0.00     0.007 A 
ATOM      6  C   UNL     1      11.038  14.013  77.429  1.00  0.00     0.046 A 
ATOM      7  C   UNL     1      10.127  12.974  77.673  1.00  0.00     0.118 A 
BRANCH   7   8
ATOM      8  O   UNL     1       9.288  12.531  76.650  1.00  0.00    -0.508 OA
ATOM      9  H   UNL     1       9.306  12.950  75.728  1.00  0.00     0.293 HD
ENDBRANCH   7   8
ENDBRANCH   1   2
BRANCH   1  10
ATOM     10  C   UNL     1       9.753  10.128  79.983  1.00  0.00     0.040 C 
BRANCH  10  11
ATOM     11  C   UNL     1       8.884   8.900  79.954  1.00  0.00    -0.040 A 
ATOM     12  C   UNL     1       9.301   7.755  79.257  1.00  0.00     0.050 A 
ATOM     13  C   UNL     1       7.676   8.871  80.670  1.00  0.00     0.050 A 
ATOM     14  C   UNL     1       8.510   6.601  79.257  1.00  0.00     0.119 A 
ATOM     15  C   UNL     1       6.882   7.715  80.671  1.00  0.00     0.119 A 
ATOM     16  C   UNL     1       7.299   6.584  79.963  1.00  0.00     0.092 A 
BRANCH  14  17
ATOM     17  O   UNL     1       8.937   5.475  78.555  1.00  0.00    -0.508 OA
ATOM     18  H   UNL     1       8.852   4.544  78.945  1.00  0.00     0.293 HD
ENDBRANCH  14  17
BRANCH  15  19
ATOM     19  O   UNL     1       5.680   7.681  81.374  1.00  0.00    -0.508 OA
ATOM     20  H   UNL     1       5.278   8.519  81.779  1.00  0.00     0.293 HD
ENDBRANCH  15  19
ENDBRANCH  10  11
ENDBRANCH   1  10
TORSDOF 6
ENDMDL
