MODEL 1
REMARK VINA RESULT:    -6.138      0.000      0.000
REMARK INTER + INTRA:          -7.177
REMARK INTER:                  -7.214
REMARK INTRA:                   0.037
REMARK UNBOUND:                 0.037
REMARK SMILES O=C([O-])C=Cc1ccc(O)c(O)c1
REMARK SMILES IDX 6 1 13 2 7 3 11 4 8 5 9 6 5 7 4 8 2 9 1 10 3 11 12 12 10 14
REMARK H PARENT 12 13 10 15
REMARK Flexibility Score: inf
ROOT
ATOM      1  C   UNL     1      -0.768  44.648   1.188  1.00  0.00    -0.022 A 
ATOM      2  C   UNL     1      -0.432  45.495   2.258  1.00  0.00     0.058 A 
ATOM      3  C   UNL     1      -1.910  43.841   1.284  1.00  0.00     0.012 A 
ATOM      4  C   UNL     1      -1.258  45.572   3.390  1.00  0.00     0.157 A 
ATOM      5  C   UNL     1      -2.735  43.917   2.410  1.00  0.00     0.051 A 
ATOM      6  C   UNL     1      -2.418  44.782   3.462  1.00  0.00     0.157 A 
ENDROOT
BRANCH   1   7
ATOM      7  C   UNL     1       0.116  44.514   0.011  1.00  0.00     0.010 C 
ATOM      8  C   UNL     1      -0.188  44.899  -1.238  1.00  0.00     0.025 C 
BRANCH   8   9
ATOM      9  C   UNL     1      -1.512  45.358  -1.701  1.00  0.00     0.064 C 
ATOM     10  O   UNL     1      -2.087  44.825  -2.687  1.00  0.00    -0.545 OA
ATOM     11  O   UNL     1      -2.107  46.448  -1.078  1.00  0.00    -0.545 OA
ENDBRANCH   8   9
ENDBRANCH   1   7
BRANCH   4  12
ATOM     12  O   UNL     1      -0.928  46.426   4.440  1.00  0.00    -0.504 OA
ATOM     13  H   UNL     1      -0.034  46.904   4.476  1.00  0.00     0.293 HD
ENDBRANCH   4  12
BRANCH   6  14
ATOM     14  O   UNL     1      -3.261  44.838   4.570  1.00  0.00    -0.504 OA
ATOM     15  H   UNL     1      -2.978  45.274   5.440  1.00  0.00     0.293 HD
ENDBRANCH   6  14
TORSDOF 4
ENDMDL
MODEL 2
REMARK VINA RESULT:    -6.080      1.622      4.789
REMARK INTER + INTRA:          -7.110
REMARK INTER:                  -7.133
REMARK INTRA:                   0.024
REMARK UNBOUND:                 0.037
REMARK SMILES O=C([O-])C=Cc1ccc(O)c(O)c1
REMARK SMILES IDX 6 1 13 2 7 3 11 4 8 5 9 6 5 7 4 8 2 9 1 10 3 11 12 12 10 14
REMARK H PARENT 12 13 10 15
REMARK Flexibility Score: inf
ROOT
ATOM      1  C   UNL     1      -1.219  45.622   1.834  1.00  0.00    -0.022 A 
ATOM      2  C   UNL     1      -0.074  45.027   1.276  1.00  0.00     0.058 A 
ATOM      3  C   UNL     1      -2.278  45.992   0.994  1.00  0.00     0.012 A 
ATOM      4  C   UNL     1      -0.011  44.758  -0.100  1.00  0.00     0.157 A 
ATOM      5  C   UNL     1      -2.219  45.725  -0.376  1.00  0.00     0.051 A 
ATOM      6  C   UNL     1      -1.093  45.105  -0.928  1.00  0.00     0.157 A 
ENDROOT
BRANCH   1   7
ATOM      7  C   UNL     1      -1.283  45.960   3.271  1.00  0.00     0.010 C 
ATOM      8  C   UNL     1      -2.118  45.408   4.164  1.00  0.00     0.025 C 
BRANCH   8   9
ATOM      9  C   UNL     1      -3.239  44.501   3.850  1.00  0.00     0.064 C 
ATOM     10  O   UNL     1      -3.053  43.400   3.266  1.00  0.00    -0.545 OA
ATOM     11  O   UNL     1      -4.537  44.901   4.143  1.00  0.00    -0.545 OA
ENDBRANCH   8   9
ENDBRANCH   1   7
BRANCH   4  12
ATOM     12  O   UNL     1       1.119  44.153  -0.644  1.00  0.00    -0.504 OA
ATOM     13  H   UNL     1       1.051  43.490  -1.408  1.00  0.00     0.293 HD
ENDBRANCH   4  12
BRANCH   6  14
ATOM     14  O   UNL     1      -1.063  44.849  -2.298  1.00  0.00    -0.504 OA
ATOM     15  H   UNL     1      -1.798  45.165  -2.920  1.00  0.00     0.293 HD
ENDBRANCH   6  14
TORSDOF 4
ENDMDL
MODEL 3
REMARK VINA RESULT:    -6.040      9.872     10.455
REMARK INTER + INTRA:          -7.062
REMARK INTER:                  -6.869
REMARK INTRA:                  -0.194
REMARK UNBOUND:                 0.037
REMARK SMILES O=C([O-])C=Cc1ccc(O)c(O)c1
REMARK SMILES IDX 6 1 13 2 7 3 11 4 8 5 9 6 5 7 4 8 2 9 1 10 3 11 12 12 10 14
REMARK H PARENT 12 13 10 15
REMARK Flexibility Score: inf
ROOT
ATOM      1  C   UNL     1       2.506  45.818  11.296  1.00  0.00    -0.022 A 
ATOM      2  C   UNL     1       2.029  46.998  10.698  1.00  0.00     0.058 A 
ATOM      3  C   UNL     1       1.594  44.936  11.891  1.00  0.00     0.012 A 
ATOM      4  C   UNL     1       0.653  47.266  10.651  1.00  0.00     0.157 A 
ATOM      5  C   UNL     1       0.223  45.199  11.845  1.00  0.00     0.051 A 
ATOM      6  C   UNL     1      -0.254  46.358  11.223  1.00  0.00     0.157 A 
ENDROOT
BRANCH   1   7
ATOM      7  C   UNL     1       3.954  45.544  11.401  1.00  0.00     0.010 C 
ATOM      8  C   UNL     1       4.663  44.775  10.561  1.00  0.00     0.025 C 
BRANCH   8   9
ATOM      9  C   UNL     1       4.106  43.925   9.491  1.00  0.00     0.064 C 
ATOM     10  O   UNL     1       3.414  42.906   9.753  1.00  0.00    -0.545 OA
ATOM     11  O   UNL     1       4.410  44.216   8.167  1.00  0.00    -0.545 OA
ENDBRANCH   8   9
ENDBRANCH   1   7
BRANCH   4  12
ATOM     12  O   UNL     1       0.186  48.429  10.042  1.00  0.00    -0.504 OA
ATOM     13  H   UNL     1      -0.494  49.029  10.494  1.00  0.00     0.293 HD
ENDBRANCH   4  12
BRANCH   6  14
ATOM     14  O   UNL     1      -1.628  46.592  11.190  1.00  0.00    -0.504 OA
ATOM     15  H   UNL     1      -2.018  47.520  11.306  1.00  0.00     0.293 HD
ENDBRANCH   6  14
TORSDOF 4
ENDMDL
MODEL 4
REMARK VINA RESULT:    -6.002      1.903      2.735
REMARK INTER + INTRA:          -7.017
REMARK INTER:                  -7.159
REMARK INTRA:                   0.142
REMARK UNBOUND:                 0.037
REMARK SMILES O=C([O-])C=Cc1ccc(O)c(O)c1
REMARK SMILES IDX 6 1 13 2 7 3 11 4 8 5 9 6 5 7 4 8 2 9 1 10 3 11 12 12 10 14
REMARK H PARENT 12 13 10 15
REMARK Flexibility Score: inf
ROOT
ATOM      1  C   UNL     1      -1.957  45.577   1.674  1.00  0.00    -0.022 A 
ATOM      2  C   UNL     1      -2.856  44.785   2.410  1.00  0.00     0.058 A 
ATOM      3  C   UNL     1      -1.058  46.408   2.356  1.00  0.00     0.012 A 
ATOM      4  C   UNL     1      -2.822  44.788   3.812  1.00  0.00     0.157 A 
ATOM      5  C   UNL     1      -1.020  46.412   3.753  1.00  0.00     0.051 A 
ATOM      6  C   UNL     1      -1.895  45.602   4.486  1.00  0.00     0.157 A 
ENDROOT
BRANCH   1   7
ATOM      7  C   UNL     1      -2.012  45.627   0.198  1.00  0.00     0.010 C 
ATOM      8  C   UNL     1      -1.090  45.119  -0.634  1.00  0.00     0.025 C 
BRANCH   8   9
ATOM      9  C   UNL     1       0.225  44.580  -0.237  1.00  0.00     0.064 C 
ATOM     10  O   UNL     1       0.345  43.781   0.729  1.00  0.00    -0.545 OA
ATOM     11  O   UNL     1       1.365  45.017  -0.900  1.00  0.00    -0.545 OA
ENDBRANCH   8   9
ENDBRANCH   1   7
BRANCH   4  12
ATOM     12  O   UNL     1      -3.705  43.989   4.536  1.00  0.00    -0.504 OA
ATOM     13  H   UNL     1      -4.263  44.366   5.293  1.00  0.00     0.293 HD
ENDBRANCH   4  12
BRANCH   6  14
ATOM     14  O   UNL     1      -1.832  45.624   5.878  1.00  0.00    -0.504 OA
ATOM     15  H   UNL     1      -2.551  46.061   6.442  1.00  0.00     0.293 HD
ENDBRANCH   6  14
TORSDOF 4
ENDMDL
MODEL 5
REMARK VINA RESULT:    -6.001      9.589     10.839
REMARK INTER + INTRA:          -7.016
REMARK INTER:                  -6.899
REMARK INTRA:                  -0.117
REMARK UNBOUND:                 0.037
REMARK SMILES O=C([O-])C=Cc1ccc(O)c(O)c1
REMARK SMILES IDX 6 1 13 2 7 3 11 4 8 5 9 6 5 7 4 8 2 9 1 10 3 11 12 12 10 14
REMARK H PARENT 12 13 10 15
REMARK Flexibility Score: inf
ROOT
ATOM      1  C   UNL     1       7.852  46.031  -3.871  1.00  0.00    -0.022 A 
ATOM      2  C   UNL     1       7.410  44.713  -3.662  1.00  0.00     0.058 A 
ATOM      3  C   UNL     1       7.306  46.777  -4.924  1.00  0.00     0.012 A 
ATOM      4  C   UNL     1       6.398  44.166  -4.464  1.00  0.00     0.157 A 
ATOM      5  C   UNL     1       6.296  46.236  -5.725  1.00  0.00     0.051 A 
ATOM      6  C   UNL     1       5.835  44.935  -5.497  1.00  0.00     0.157 A 
ENDROOT
BRANCH   1   7
ATOM      7  C   UNL     1       8.953  46.606  -3.071  1.00  0.00     0.010 C 
ATOM      8  C   UNL     1       8.804  47.431  -2.023  1.00  0.00     0.025 C 
BRANCH   8   9
ATOM      9  C   UNL     1       7.539  48.055  -1.589  1.00  0.00     0.064 C 
ATOM     10  O   UNL     1       6.920  48.869  -2.324  1.00  0.00    -0.545 OA
ATOM     11  O   UNL     1       7.057  47.792  -0.313  1.00  0.00    -0.545 OA
ENDBRANCH   8   9
ENDBRANCH   1   7
BRANCH   4  12
ATOM     12  O   UNL     1       5.954  42.864  -4.241  1.00  0.00    -0.504 OA
ATOM     13  H   UNL     1       4.973  42.656  -4.093  1.00  0.00     0.293 HD
ENDBRANCH   4  12
BRANCH   6  14
ATOM     14  O   UNL     1       4.825  44.423  -6.310  1.00  0.00    -0.504 OA
ATOM     15  H   UNL     1       3.931  44.127  -5.935  1.00  0.00     0.293 HD
ENDBRANCH   6  14
TORSDOF 4
ENDMDL
MODEL 6
REMARK VINA RESULT:    -5.994      1.273      5.055
REMARK INTER + INTRA:          -7.008
REMARK INTER:                  -7.273
REMARK INTRA:                   0.265
REMARK UNBOUND:                 0.037
REMARK SMILES O=C([O-])C=Cc1ccc(O)c(O)c1
REMARK SMILES IDX 6 1 13 2 7 3 11 4 8 5 9 6 5 7 4 8 2 9 1 10 3 11 12 12 10 14
REMARK H PARENT 12 13 10 15
REMARK Flexibility Score: inf
ROOT
ATOM      1  C   UNL     1      -1.794  44.468   1.073  1.00  0.00    -0.022 A 
ATOM      2  C   UNL     1      -2.149  45.143  -0.108  1.00  0.00     0.058 A 
ATOM      3  C   UNL     1      -0.506  43.929   1.193  1.00  0.00     0.012 A 
ATOM      4  C   UNL     1      -1.210  45.322  -1.135  1.00  0.00     0.157 A 
ATOM      5  C   UNL     1       0.432  44.106   0.172  1.00  0.00     0.051 A 
ATOM      6  C   UNL     1       0.089  44.805  -0.990  1.00  0.00     0.157 A 
ENDROOT
BRANCH   1   7
ATOM      7  C   UNL     1      -2.784  44.224   2.142  1.00  0.00     0.010 C 
ATOM      8  C   UNL     1      -2.791  44.818   3.346  1.00  0.00     0.025 C 
BRANCH   8   9
ATOM      9  C   UNL     1      -1.724  45.681   3.888  1.00  0.00     0.064 C 
ATOM     10  O   UNL     1      -1.097  46.491   3.157  1.00  0.00    -0.545 OA
ATOM     11  O   UNL     1      -1.356  45.545   5.221  1.00  0.00    -0.545 OA
ENDBRANCH   8   9
ENDBRANCH   1   7
BRANCH   4  12
ATOM     12  O   UNL     1      -1.564  46.007  -2.295  1.00  0.00    -0.504 OA
ATOM     13  H   UNL     1      -0.903  46.600  -2.785  1.00  0.00     0.293 HD
ENDBRANCH   4  12
BRANCH   6  14
ATOM     14  O   UNL     1       1.046  44.969  -1.989  1.00  0.00    -0.504 OA
ATOM     15  H   UNL     1       0.883  44.673  -2.944  1.00  0.00     0.293 HD
ENDBRANCH   6  14
TORSDOF 4
ENDMDL
MODEL 7
REMARK VINA RESULT:    -5.974      9.393     10.323
REMARK INTER + INTRA:          -6.985
REMARK INTER:                  -6.697
REMARK INTRA:                  -0.288
REMARK UNBOUND:                 0.037
REMARK SMILES O=C([O-])C=Cc1ccc(O)c(O)c1
REMARK SMILES IDX 6 1 13 2 7 3 11 4 8 5 9 6 5 7 4 8 2 9 1 10 3 11 12 12 10 14
REMARK H PARENT 12 13 10 15
REMARK Flexibility Score: inf
ROOT
ATOM      1  C   UNL     1       8.137  46.836  -3.200  1.00  0.00    -0.022 A 
ATOM      2  C   UNL     1       6.963  47.606  -3.144  1.00  0.00     0.058 A 
ATOM      3  C   UNL     1       8.971  46.773  -2.076  1.00  0.00     0.012 A 
ATOM      4  C   UNL     1       6.601  48.265  -1.959  1.00  0.00     0.157 A 
ATOM      5  C   UNL     1       8.612  47.426  -0.894  1.00  0.00     0.051 A 
ATOM      6  C   UNL     1       7.428  48.169  -0.827  1.00  0.00     0.157 A 
ENDROOT
BRANCH   1   7
ATOM      7  C   UNL     1       8.562  46.178  -4.454  1.00  0.00     0.010 C 
ATOM      8  C   UNL     1       8.177  44.960  -4.863  1.00  0.00     0.025 C 
BRANCH   8   9
ATOM      9  C   UNL     1       7.410  43.985  -4.063  1.00  0.00     0.064 C 
ATOM     10  O   UNL     1       7.983  43.144  -3.321  1.00  0.00    -0.545 OA
ATOM     11  O   UNL     1       6.026  43.947  -4.186  1.00  0.00    -0.545 OA
ENDBRANCH   8   9
ENDBRANCH   1   7
BRANCH   4  12
ATOM     12  O   UNL     1       5.427  49.013  -1.904  1.00  0.00    -0.504 OA
ATOM     13  H   UNL     1       4.899  49.111  -1.045  1.00  0.00     0.293 HD
ENDBRANCH   4  12
BRANCH   6  14
ATOM     14  O   UNL     1       7.096  48.807   0.367  1.00  0.00    -0.504 OA
ATOM     15  H   UNL     1       7.000  49.814   0.430  1.00  0.00     0.293 HD
ENDBRANCH   6  14
TORSDOF 4
ENDMDL
MODEL 8
REMARK VINA RESULT:    -5.965      9.348     10.902
REMARK INTER + INTRA:          -6.974
REMARK INTER:                  -6.689
REMARK INTRA:                  -0.285
REMARK UNBOUND:                 0.037
REMARK SMILES O=C([O-])C=Cc1ccc(O)c(O)c1
REMARK SMILES IDX 6 1 13 2 7 3 11 4 8 5 9 6 5 7 4 8 2 9 1 10 3 11 12 12 10 14
REMARK H PARENT 12 13 10 15
REMARK Flexibility Score: inf
ROOT
ATOM      1  C   UNL     1       3.473  45.111  10.800  1.00  0.00    -0.022 A 
ATOM      2  C   UNL     1       2.793  44.109  10.085  1.00  0.00     0.058 A 
ATOM      3  C   UNL     1       4.750  45.507  10.378  1.00  0.00     0.012 A 
ATOM      4  C   UNL     1       3.362  43.547   8.932  1.00  0.00     0.157 A 
ATOM      5  C   UNL     1       5.319  44.949   9.230  1.00  0.00     0.051 A 
ATOM      6  C   UNL     1       4.630  43.975   8.501  1.00  0.00     0.157 A 
ENDROOT
BRANCH   1   7
ATOM      7  C   UNL     1       2.914  45.677  12.044  1.00  0.00     0.010 C 
ATOM      8  C   UNL     1       2.031  46.686  12.113  1.00  0.00     0.025 C 
BRANCH   8   9
ATOM      9  C   UNL     1       1.595  47.528  10.982  1.00  0.00     0.064 C 
ATOM     10  O   UNL     1       2.165  48.619  10.715  1.00  0.00    -0.545 OA
ATOM     11  O   UNL     1       0.487  47.142  10.238  1.00  0.00    -0.545 OA
ENDBRANCH   8   9
ENDBRANCH   1   7
BRANCH   4  12
ATOM     12  O   UNL     1       2.676  42.566   8.219  1.00  0.00    -0.504 OA
ATOM     13  H   UNL     1       2.849  41.579   8.372  1.00  0.00     0.293 HD
ENDBRANCH   4  12
BRANCH   6  14
ATOM     14  O   UNL     1       5.221  43.439   7.358  1.00  0.00    -0.504 OA
ATOM     15  H   UNL     1       4.672  43.068   6.592  1.00  0.00     0.293 HD
ENDBRANCH   6  14
TORSDOF 4
ENDMDL
MODEL 9
REMARK VINA RESULT:    -5.955      1.091      2.168
REMARK INTER + INTRA:          -6.963
REMARK INTER:                  -6.950
REMARK INTRA:                  -0.012
REMARK UNBOUND:                 0.037
REMARK SMILES O=C([O-])C=Cc1ccc(O)c(O)c1
REMARK SMILES IDX 6 1 13 2 7 3 11 4 8 5 9 6 5 7 4 8 2 9 1 10 3 11 12 12 10 14
REMARK H PARENT 12 13 10 15
REMARK Flexibility Score: inf
ROOT
ATOM      1  C   UNL     1      -0.752  44.882   1.907  1.00  0.00    -0.022 A 
ATOM      2  C   UNL     1      -2.032  44.459   2.303  1.00  0.00     0.058 A 
ATOM      3  C   UNL     1      -0.009  45.710   2.760  1.00  0.00     0.012 A 
ATOM      4  C   UNL     1      -2.542  44.817   3.560  1.00  0.00     0.157 A 
ATOM      5  C   UNL     1      -0.514  46.067   4.013  1.00  0.00     0.051 A 
ATOM      6  C   UNL     1      -1.776  45.621   4.420  1.00  0.00     0.157 A 
ENDROOT
BRANCH   1   7
ATOM      7  C   UNL     1      -0.219  44.559   0.567  1.00  0.00     0.010 C 
ATOM      8  C   UNL     1      -0.778  44.915  -0.600  1.00  0.00     0.025 C 
BRANCH   8   9
ATOM      9  C   UNL     1      -2.108  45.533  -0.765  1.00  0.00     0.064 C 
ATOM     10  O   UNL     1      -2.297  46.759  -0.550  1.00  0.00    -0.545 OA
ATOM     11  O   UNL     1      -3.192  44.729  -1.097  1.00  0.00    -0.545 OA
ENDBRANCH   8   9
ENDBRANCH   1   7
BRANCH   4  12
ATOM     12  O   UNL     1      -3.806  44.380   3.953  1.00  0.00    -0.504 OA
ATOM     13  H   UNL     1      -4.432  44.975   4.484  1.00  0.00     0.293 HD
ENDBRANCH   4  12
BRANCH   6  14
ATOM     14  O   UNL     1      -2.252  45.991   5.677  1.00  0.00    -0.504 OA
ATOM     15  H   UNL     1      -2.827  46.814   5.813  1.00  0.00     0.293 HD
ENDBRANCH   6  14
TORSDOF 4
ENDMDL
