MODEL 1
REMARK VINA RESULT:    -3.465      0.000      0.000
REMARK INTER + INTRA:          -3.691
REMARK INTER:                  -3.668
REMARK INTRA:                  -0.024
REMARK UNBOUND:                -0.024
REMARK SMILES O=C([O-])c1cccnc1
REMARK SMILES IDX 4 1 5 2 9 3 6 4 8 5 7 6 2 7 1 8 3 9
REMARK H PARENT
REMARK Flexibility Score: inf
ROOT
ATOM      1  C   UNL     1      -0.486   5.669   6.399  1.00  0.00     0.016 A 
ATOM      2  C   UNL     1       0.321   4.634   6.902  1.00  0.00     0.013 A 
ATOM      3  C   UNL     1      -1.315   6.365   7.296  1.00  0.00     0.120 A 
ATOM      4  C   UNL     1       0.288   4.318   8.261  1.00  0.00     0.021 A 
ATOM      5  N   UNL     1      -1.328   6.036   8.616  1.00  0.00    -0.264 NA
ATOM      6  C   UNL     1      -0.552   5.038   9.112  1.00  0.00     0.111 A 
ENDROOT
BRANCH   1   7
ATOM      7  C   UNL     1      -0.467   6.020   4.963  1.00  0.00     0.073 C 
ATOM      8  O   UNL     1       0.064   5.247   4.122  1.00  0.00    -0.545 OA
ATOM      9  O   UNL     1      -1.034   7.210   4.521  1.00  0.00    -0.545 OA
ENDBRANCH   1   7
TORSDOF 1
ENDMDL
MODEL 2
REMARK VINA RESULT:    -3.319      2.685      3.226
REMARK INTER + INTRA:          -3.537
REMARK INTER:                  -3.521
REMARK INTRA:                  -0.016
REMARK UNBOUND:                -0.024
REMARK SMILES O=C([O-])c1cccnc1
REMARK SMILES IDX 4 1 5 2 9 3 6 4 8 5 7 6 2 7 1 8 3 9
REMARK H PARENT
REMARK Flexibility Score: inf
ROOT
ATOM      1  C   UNL     1      -1.073   6.229   6.615  1.00  0.00     0.016 A 
ATOM      2  C   UNL     1      -0.129   5.381   7.218  1.00  0.00     0.013 A 
ATOM      3  C   UNL     1      -1.117   6.290   5.212  1.00  0.00     0.120 A 
ATOM      4  C   UNL     1       0.737   4.623   6.427  1.00  0.00     0.021 A 
ATOM      5  N   UNL     1      -0.262   5.541   4.465  1.00  0.00    -0.264 NA
ATOM      6  C   UNL     1       0.655   4.717   5.037  1.00  0.00     0.111 A 
ENDROOT
BRANCH   1   7
ATOM      7  C   UNL     1      -1.999   7.041   7.434  1.00  0.00     0.073 C 
ATOM      8  O   UNL     1      -3.099   6.563   7.818  1.00  0.00    -0.545 OA
ATOM      9  O   UNL     1      -1.668   8.343   7.790  1.00  0.00    -0.545 OA
ENDBRANCH   1   7
TORSDOF 1
ENDMDL
MODEL 3
REMARK VINA RESULT:    -3.270      2.063      2.631
REMARK INTER + INTRA:          -3.485
REMARK INTER:                  -3.461
REMARK INTRA:                  -0.023
REMARK UNBOUND:                -0.024
REMARK SMILES O=C([O-])c1cccnc1
REMARK SMILES IDX 4 1 5 2 9 3 6 4 8 5 7 6 2 7 1 8 3 9
REMARK H PARENT
REMARK Flexibility Score: inf
ROOT
ATOM      1  C   UNL     1      -0.111   5.606   5.996  1.00  0.00     0.016 A 
ATOM      2  C   UNL     1      -0.079   5.024   7.274  1.00  0.00     0.013 A 
ATOM      3  C   UNL     1       0.651   5.016   4.973  1.00  0.00     0.120 A 
ATOM      4  C   UNL     1       0.697   3.888   7.507  1.00  0.00     0.021 A 
ATOM      5  N   UNL     1       1.399   3.908   5.227  1.00  0.00    -0.264 NA
ATOM      6  C   UNL     1       1.438   3.337   6.459  1.00  0.00     0.111 A 
ENDROOT
BRANCH   1   7
ATOM      7  C   UNL     1      -0.927   6.810   5.728  1.00  0.00     0.073 C 
ATOM      8  O   UNL     1      -1.146   7.184   4.545  1.00  0.00    -0.545 OA
ATOM      9  O   UNL     1      -1.462   7.547   6.779  1.00  0.00    -0.545 OA
ENDBRANCH   1   7
TORSDOF 1
ENDMDL
MODEL 4
REMARK VINA RESULT:    -3.250      1.426      1.804
REMARK INTER + INTRA:          -3.463
REMARK INTER:                  -3.444
REMARK INTRA:                  -0.019
REMARK UNBOUND:                -0.024
REMARK SMILES O=C([O-])c1cccnc1
REMARK SMILES IDX 4 1 5 2 9 3 6 4 8 5 7 6 2 7 1 8 3 9
REMARK H PARENT
REMARK Flexibility Score: inf
ROOT
ATOM      1  C   UNL     1       0.725   4.449   6.324  1.00  0.00     0.016 A 
ATOM      2  C   UNL     1       1.155   3.237   6.888  1.00  0.00     0.013 A 
ATOM      3  C   UNL     1      -0.048   5.317   7.114  1.00  0.00     0.120 A 
ATOM      4  C   UNL     1       0.814   2.916   8.203  1.00  0.00     0.021 A 
ATOM      5  N   UNL     1      -0.367   4.980   8.393  1.00  0.00    -0.264 NA
ATOM      6  C   UNL     1       0.044   3.810   8.949  1.00  0.00     0.111 A 
ENDROOT
BRANCH   1   7
ATOM      7  C   UNL     1       1.075   4.809   4.933  1.00  0.00     0.073 C 
ATOM      8  O   UNL     1       2.274   4.777   4.547  1.00  0.00    -0.545 OA
ATOM      9  O   UNL     1       0.086   5.186   4.033  1.00  0.00    -0.545 OA
ENDBRANCH   1   7
TORSDOF 1
ENDMDL
MODEL 5
REMARK VINA RESULT:    -3.215     13.346     14.149
REMARK INTER + INTRA:          -3.427
REMARK INTER:                  -3.409
REMARK INTRA:                  -0.018
REMARK UNBOUND:                -0.024
REMARK SMILES O=C([O-])c1cccnc1
REMARK SMILES IDX 4 1 5 2 9 3 6 4 8 5 7 6 2 7 1 8 3 9
REMARK H PARENT
REMARK Flexibility Score: inf
ROOT
ATOM      1  C   UNL     1      -0.801  -3.498  -3.785  1.00  0.00     0.016 A 
ATOM      2  C   UNL     1      -0.833  -3.660  -2.389  1.00  0.00     0.013 A 
ATOM      3  C   UNL     1      -0.243  -4.527  -4.564  1.00  0.00     0.120 A 
ATOM      4  C   UNL     1      -0.319  -4.820  -1.807  1.00  0.00     0.021 A 
ATOM      5  N   UNL     1       0.250  -5.647  -3.971  1.00  0.00    -0.264 NA
ATOM      6  C   UNL     1       0.224  -5.814  -2.622  1.00  0.00     0.111 A 
ENDROOT
BRANCH   1   7
ATOM      7  C   UNL     1      -1.339  -2.278  -4.422  1.00  0.00     0.073 C 
ATOM      8  O   UNL     1      -0.836  -1.150  -4.172  1.00  0.00    -0.545 OA
ATOM      9  O   UNL     1      -2.408  -2.358  -5.307  1.00  0.00    -0.545 OA
ENDBRANCH   1   7
TORSDOF 1
ENDMDL
MODEL 6
REMARK VINA RESULT:    -3.203      1.582      2.067
REMARK INTER + INTRA:          -3.413
REMARK INTER:                  -3.390
REMARK INTRA:                  -0.023
REMARK UNBOUND:                -0.024
REMARK SMILES O=C([O-])c1cccnc1
REMARK SMILES IDX 4 1 5 2 9 3 6 4 8 5 7 6 2 7 1 8 3 9
REMARK H PARENT
REMARK Flexibility Score: inf
ROOT
ATOM      1  C   UNL     1       0.293   4.909   6.115  1.00  0.00     0.016 A 
ATOM      2  C   UNL     1      -0.331   5.386   7.280  1.00  0.00     0.013 A 
ATOM      3  C   UNL     1       1.114   3.772   6.214  1.00  0.00     0.120 A 
ATOM      4  C   UNL     1      -0.131   4.735   8.498  1.00  0.00     0.021 A 
ATOM      5  N   UNL     1       1.292   3.156   7.414  1.00  0.00    -0.264 NA
ATOM      6  C   UNL     1       0.692   3.609   8.547  1.00  0.00     0.111 A 
ENDROOT
BRANCH   1   7
ATOM      7  C   UNL     1       0.095   5.584   4.815  1.00  0.00     0.073 C 
ATOM      8  O   UNL     1       0.483   5.040   3.746  1.00  0.00    -0.545 OA
ATOM      9  O   UNL     1      -0.522   6.828   4.753  1.00  0.00    -0.545 OA
ENDBRANCH   1   7
TORSDOF 1
ENDMDL
MODEL 7
REMARK VINA RESULT:    -3.168      8.416      8.883
REMARK INTER + INTRA:          -3.376
REMARK INTER:                  -3.358
REMARK INTRA:                  -0.018
REMARK UNBOUND:                -0.024
REMARK SMILES O=C([O-])c1cccnc1
REMARK SMILES IDX 4 1 5 2 9 3 6 4 8 5 7 6 2 7 1 8 3 9
REMARK H PARENT
REMARK Flexibility Score: inf
ROOT
ATOM      1  C   UNL     1       2.283  -2.400   5.780  1.00  0.00     0.016 A 
ATOM      2  C   UNL     1       1.181  -1.761   5.187  1.00  0.00     0.013 A 
ATOM      3  C   UNL     1       2.042  -3.347   6.790  1.00  0.00     0.120 A 
ATOM      4  C   UNL     1      -0.115  -2.071   5.603  1.00  0.00     0.021 A 
ATOM      5  N   UNL     1       0.769  -3.630   7.177  1.00  0.00    -0.264 NA
ATOM      6  C   UNL     1      -0.304  -3.018   6.611  1.00  0.00     0.111 A 
ENDROOT
BRANCH   1   7
ATOM      7  C   UNL     1       3.664  -2.087   5.354  1.00  0.00     0.073 C 
ATOM      8  O   UNL     1       4.006  -2.214   4.148  1.00  0.00    -0.545 OA
ATOM      9  O   UNL     1       4.604  -1.648   6.279  1.00  0.00    -0.545 OA
ENDBRANCH   1   7
TORSDOF 1
ENDMDL
MODEL 8
REMARK VINA RESULT:    -3.129      1.355      1.971
REMARK INTER + INTRA:          -3.336
REMARK INTER:                  -3.313
REMARK INTRA:                  -0.023
REMARK UNBOUND:                -0.024
REMARK SMILES O=C([O-])c1cccnc1
REMARK SMILES IDX 4 1 5 2 9 3 6 4 8 5 7 6 2 7 1 8 3 9
REMARK H PARENT
REMARK Flexibility Score: inf
ROOT
ATOM      1  C   UNL     1      -0.155   5.481   6.118  1.00  0.00     0.016 A 
ATOM      2  C   UNL     1       0.029   5.065   7.447  1.00  0.00     0.013 A 
ATOM      3  C   UNL     1      -1.165   6.419   5.845  1.00  0.00     0.120 A 
ATOM      4  C   UNL     1      -0.781   5.580   8.461  1.00  0.00     0.021 A 
ATOM      5  N   UNL     1      -1.941   6.905   6.851  1.00  0.00    -0.264 NA
ATOM      6  C   UNL     1      -1.772   6.510   8.140  1.00  0.00     0.111 A 
ENDROOT
BRANCH   1   7
ATOM      7  C   UNL     1       0.692   4.948   5.030  1.00  0.00     0.073 C 
ATOM      8  O   UNL     1       0.359   5.105   3.825  1.00  0.00    -0.545 OA
ATOM      9  O   UNL     1       1.868   4.266   5.321  1.00  0.00    -0.545 OA
ENDBRANCH   1   7
TORSDOF 1
ENDMDL
MODEL 9
REMARK VINA RESULT:    -3.074     13.352     14.487
REMARK INTER + INTRA:          -3.277
REMARK INTER:                  -3.259
REMARK INTRA:                  -0.018
REMARK UNBOUND:                -0.024
REMARK SMILES O=C([O-])c1cccnc1
REMARK SMILES IDX 4 1 5 2 9 3 6 4 8 5 7 6 2 7 1 8 3 9
REMARK H PARENT
REMARK Flexibility Score: inf
ROOT
ATOM      1  C   UNL     1      -0.707  -3.707  -3.595  1.00  0.00     0.016 A 
ATOM      2  C   UNL     1      -0.799  -4.560  -4.707  1.00  0.00     0.013 A 
ATOM      3  C   UNL     1      -0.978  -2.340  -3.777  1.00  0.00     0.120 A 
ATOM      4  C   UNL     1      -1.154  -4.047  -5.956  1.00  0.00     0.021 A 
ATOM      5  N   UNL     1      -1.322  -1.866  -5.005  1.00  0.00    -0.264 NA
ATOM      6  C   UNL     1      -1.415  -2.682  -6.087  1.00  0.00     0.111 A 
ENDROOT
BRANCH   1   7
ATOM      7  C   UNL     1      -0.332  -4.229  -2.263  1.00  0.00     0.073 C 
ATOM      8  O   UNL     1      -1.097  -4.069  -1.275  1.00  0.00    -0.545 OA
ATOM      9  O   UNL     1       0.869  -4.905  -2.084  1.00  0.00    -0.545 OA
ENDBRANCH   1   7
TORSDOF 1
ENDMDL
