MODEL 1
REMARK VINA RESULT:    -3.311      0.000      0.000
REMARK INTER + INTRA:          -7.806
REMARK INTER:                  -5.730
REMARK INTRA:                  -2.076
REMARK UNBOUND:                -2.076
REMARK SMILES CCCCCCCCCCCCCCO
REMARK SMILES IDX 8 1 7 2 6 3 5 4 4 5 3 6 2 7 1 8 9 9 10 10 11 11 12 12 13 13
REMARK SMILES IDX 14 14 15 15
REMARK H PARENT 15 16
REMARK Flexibility Score: inf
ROOT
ATOM      1  C   UNL     1     114.444 114.757 114.301  1.00  0.00     0.000 C 
ENDROOT
BRANCH   1   2
ATOM      2  C   UNL     1     115.727 114.691 115.149  1.00  0.00    -0.000 C 
BRANCH   2   3
ATOM      3  C   UNL     1     116.284 116.057 115.600  1.00  0.00    -0.000 C 
BRANCH   3   4
ATOM      4  C   UNL     1     117.498 116.564 114.799  1.00  0.00    -0.000 C 
BRANCH   4   5
ATOM      5  C   UNL     1     118.377 115.457 114.185  1.00  0.00    -0.000 C 
BRANCH   5   6
ATOM      6  C   UNL     1     118.627 115.631 112.671  1.00  0.00    -0.000 C 
BRANCH   6   7
ATOM      7  C   UNL     1     118.329 114.352 111.875  1.00  0.00    -0.003 C 
ATOM      8  C   UNL     1     118.241 113.139 112.797  1.00  0.00     0.004 C 
ENDBRANCH   6   7
ENDBRANCH   5   6
ENDBRANCH   4   5
ENDBRANCH   3   4
ENDBRANCH   2   3
ENDBRANCH   1   2
BRANCH   1   9
ATOM      9  C   UNL     1     114.681 114.404 112.826  1.00  0.00     0.000 C 
BRANCH   9  10
ATOM     10  C   UNL     1     114.208 115.539 111.907  1.00  0.00     0.000 C 
BRANCH  10  11
ATOM     11  C   UNL     1     115.140 116.764 111.941  1.00  0.00     0.000 C 
BRANCH  11  12
ATOM     12  C   UNL     1     114.556 118.010 112.636  1.00  0.00     0.002 C 
BRANCH  12  13
ATOM     13  C   UNL     1     115.595 119.053 113.084  1.00  0.00     0.028 C 
BRANCH  13  14
ATOM     14  C   UNL     1     115.355 119.561 114.512  1.00  0.00     0.156 C 
BRANCH  14  15
ATOM     15  O   UNL     1     114.291 120.473 114.527  1.00  0.00    -0.396 OA
ATOM     16  H   UNL     1     113.471 119.951 114.724  1.00  0.00     0.210 HD
ENDBRANCH  14  15
ENDBRANCH  13  14
ENDBRANCH  12  13
ENDBRANCH  11  12
ENDBRANCH  10  11
ENDBRANCH   9  10
ENDBRANCH   1   9
TORSDOF 13
ENDMDL
MODEL 2
REMARK VINA RESULT:    -3.308      1.608      4.182
REMARK INTER + INTRA:          -7.802
REMARK INTER:                  -6.318
REMARK INTRA:                  -1.484
REMARK UNBOUND:                -2.076
REMARK SMILES CCCCCCCCCCCCCCO
REMARK SMILES IDX 8 1 7 2 6 3 5 4 4 5 3 6 2 7 1 8 9 9 10 10 11 11 12 12 13 13
REMARK SMILES IDX 14 14 15 15
REMARK H PARENT 15 16
REMARK Flexibility Score: inf
ROOT
ATOM      1  C   UNL     1     118.128 115.360 113.423  1.00  0.00     0.000 C 
ENDROOT
BRANCH   1   2
ATOM      2  C   UNL     1     116.820 114.572 113.227  1.00  0.00    -0.000 C 
BRANCH   2   3
ATOM      3  C   UNL     1     116.112 114.806 111.876  1.00  0.00    -0.000 C 
BRANCH   3   4
ATOM      4  C   UNL     1     114.574 114.776 111.931  1.00  0.00    -0.000 C 
BRANCH   4   5
ATOM      5  C   UNL     1     113.948 115.631 113.050  1.00  0.00    -0.000 C 
BRANCH   5   6
ATOM      6  C   UNL     1     113.130 114.813 114.073  1.00  0.00    -0.000 C 
BRANCH   6   7
ATOM      7  C   UNL     1     113.411 115.234 115.523  1.00  0.00    -0.003 C 
ATOM      8  C   UNL     1     114.098 116.596 115.577  1.00  0.00     0.004 C 
ENDBRANCH   6   7
ENDBRANCH   5   6
ENDBRANCH   4   5
ENDBRANCH   3   4
ENDBRANCH   2   3
ENDBRANCH   1   2
BRANCH   1   9
ATOM      9  C   UNL     1     118.542 116.155 112.177  1.00  0.00     0.000 C 
BRANCH   9  10
ATOM     10  C   UNL     1     119.435 117.344 112.556  1.00  0.00     0.000 C 
BRANCH  10  11
ATOM     11  C   UNL     1     118.660 118.670 112.648  1.00  0.00     0.000 C 
BRANCH  11  12
ATOM     12  C   UNL     1     117.203 118.612 112.144  1.00  0.00     0.002 C 
BRANCH  12  13
ATOM     13  C   UNL     1     116.129 118.736 113.239  1.00  0.00     0.028 C 
BRANCH  13  14
ATOM     14  C   UNL     1     114.798 119.286 112.711  1.00  0.00     0.156 C 
BRANCH  14  15
ATOM     15  O   UNL     1     114.188 120.088 113.684  1.00  0.00    -0.396 OA
ATOM     16  H   UNL     1     113.852 119.476 114.389  1.00  0.00     0.210 HD
ENDBRANCH  14  15
ENDBRANCH  13  14
ENDBRANCH  12  13
ENDBRANCH  11  12
ENDBRANCH  10  11
ENDBRANCH   9  10
ENDBRANCH   1   9
TORSDOF 13
ENDMDL
MODEL 3
REMARK VINA RESULT:    -3.256      2.628      5.250
REMARK INTER + INTRA:          -7.711
REMARK INTER:                  -6.022
REMARK INTRA:                  -1.689
REMARK UNBOUND:                -2.076
REMARK SMILES CCCCCCCCCCCCCCO
REMARK SMILES IDX 8 1 7 2 6 3 5 4 4 5 3 6 2 7 1 8 9 9 10 10 11 11 12 12 13 13
REMARK SMILES IDX 14 14 15 15
REMARK H PARENT 15 16
REMARK Flexibility Score: inf
ROOT
ATOM      1  C   UNL     1     118.441 117.044 113.307  1.00  0.00     0.000 C 
ENDROOT
BRANCH   1   2
ATOM      2  C   UNL     1     118.241 118.504 112.863  1.00  0.00    -0.000 C 
BRANCH   2   3
ATOM      3  C   UNL     1     117.079 118.734 111.875  1.00  0.00    -0.000 C 
BRANCH   3   4
ATOM      4  C   UNL     1     115.905 119.562 112.430  1.00  0.00    -0.000 C 
BRANCH   4   5
ATOM      5  C   UNL     1     114.590 118.779 112.612  1.00  0.00    -0.000 C 
BRANCH   5   6
ATOM      6  C   UNL     1     114.683 117.299 112.180  1.00  0.00    -0.000 C 
BRANCH   6   7
ATOM      7  C   UNL     1     114.448 116.329 113.347  1.00  0.00    -0.003 C 
ATOM      8  C   UNL     1     114.921 116.933 114.667  1.00  0.00     0.004 C 
ENDBRANCH   6   7
ENDBRANCH   5   6
ENDBRANCH   4   5
ENDBRANCH   3   4
ENDBRANCH   2   3
ENDBRANCH   1   2
BRANCH   1   9
ATOM      9  C   UNL     1     118.729 116.095 112.134  1.00  0.00     0.000 C 
BRANCH   9  10
ATOM     10  C   UNL     1     117.664 114.993 112.046  1.00  0.00     0.000 C 
BRANCH  10  11
ATOM     11  C   UNL     1     118.225 113.593 112.355  1.00  0.00     0.000 C 
BRANCH  11  12
ATOM     12  C   UNL     1     118.455 113.296 113.850  1.00  0.00     0.002 C 
BRANCH  12  13
ATOM     13  C   UNL     1     117.361 113.824 114.795  1.00  0.00     0.028 C 
BRANCH  13  14
ATOM     14  C   UNL     1     117.927 114.444 116.079  1.00  0.00     0.156 C 
BRANCH  14  15
ATOM     15  O   UNL     1     119.182 113.892 116.368  1.00  0.00    -0.396 OA
ATOM     16  H   UNL     1     119.499 113.454 115.536  1.00  0.00     0.210 HD
ENDBRANCH  14  15
ENDBRANCH  13  14
ENDBRANCH  12  13
ENDBRANCH  11  12
ENDBRANCH  10  11
ENDBRANCH   9  10
ENDBRANCH   1   9
TORSDOF 13
ENDMDL
MODEL 4
REMARK VINA RESULT:    -3.254      1.349      3.553
REMARK INTER + INTRA:          -7.707
REMARK INTER:                  -6.301
REMARK INTRA:                  -1.406
REMARK UNBOUND:                -2.076
REMARK SMILES CCCCCCCCCCCCCCO
REMARK SMILES IDX 8 1 7 2 6 3 5 4 4 5 3 6 2 7 1 8 9 9 10 10 11 11 12 12 13 13
REMARK SMILES IDX 14 14 15 15
REMARK H PARENT 15 16
REMARK Flexibility Score: inf
ROOT
ATOM      1  C   UNL     1     118.978 117.412 112.909  1.00  0.00     0.000 C 
ENDROOT
BRANCH   1   2
ATOM      2  C   UNL     1     118.909 116.131 112.058  1.00  0.00    -0.000 C 
BRANCH   2   3
ATOM      3  C   UNL     1     118.572 114.844 112.840  1.00  0.00    -0.000 C 
BRANCH   3   4
ATOM      4  C   UNL     1     117.652 115.042 114.059  1.00  0.00    -0.000 C 
BRANCH   4   5
ATOM      5  C   UNL     1     116.163 114.742 113.802  1.00  0.00    -0.000 C 
BRANCH   5   6
ATOM      6  C   UNL     1     115.783 114.717 112.305  1.00  0.00    -0.000 C 
BRANCH   6   7
ATOM      7  C   UNL     1     114.264 114.704 112.083  1.00  0.00    -0.003 C 
ATOM      8  C   UNL     1     113.715 116.122 111.952  1.00  0.00     0.004 C 
ENDBRANCH   6   7
ENDBRANCH   5   6
ENDBRANCH   4   5
ENDBRANCH   3   4
ENDBRANCH   2   3
ENDBRANCH   1   2
BRANCH   1   9
ATOM      9  C   UNL     1     118.278 118.608 112.249  1.00  0.00     0.000 C 
BRANCH   9  10
ATOM     10  C   UNL     1     116.818 118.273 111.913  1.00  0.00     0.000 C 
BRANCH  10  11
ATOM     11  C   UNL     1     115.912 119.517 111.875  1.00  0.00     0.000 C 
BRANCH  11  12
ATOM     12  C   UNL     1     114.814 119.559 112.957  1.00  0.00     0.002 C 
BRANCH  12  13
ATOM     13  C   UNL     1     115.183 118.877 114.286  1.00  0.00     0.028 C 
BRANCH  13  14
ATOM     14  C   UNL     1     115.257 119.860 115.462  1.00  0.00     0.156 C 
BRANCH  14  15
ATOM     15  O   UNL     1     114.280 120.855 115.321  1.00  0.00    -0.396 OA
ATOM     16  H   UNL     1     114.212 121.052 114.351  1.00  0.00     0.210 HD
ENDBRANCH  14  15
ENDBRANCH  13  14
ENDBRANCH  12  13
ENDBRANCH  11  12
ENDBRANCH  10  11
ENDBRANCH   9  10
ENDBRANCH   1   9
TORSDOF 13
ENDMDL
MODEL 5
REMARK VINA RESULT:    -3.227      2.102      4.227
REMARK INTER + INTRA:          -7.661
REMARK INTER:                  -5.739
REMARK INTRA:                  -1.922
REMARK UNBOUND:                -2.076
REMARK SMILES CCCCCCCCCCCCCCO
REMARK SMILES IDX 8 1 7 2 6 3 5 4 4 5 3 6 2 7 1 8 9 9 10 10 11 11 12 12 13 13
REMARK SMILES IDX 14 14 15 15
REMARK H PARENT 15 16
REMARK Flexibility Score: inf
ROOT
ATOM      1  C   UNL     1     118.586 118.485 112.595  1.00  0.00     0.000 C 
ENDROOT
BRANCH   1   2
ATOM      2  C   UNL     1     119.022 117.057 112.969  1.00  0.00    -0.000 C 
BRANCH   2   3
ATOM      3  C   UNL     1     118.787 115.994 111.875  1.00  0.00    -0.000 C 
BRANCH   3   4
ATOM      4  C   UNL     1     118.455 114.584 112.396  1.00  0.00    -0.000 C 
BRANCH   4   5
ATOM      5  C   UNL     1     118.455 114.442 113.930  1.00  0.00    -0.000 C 
BRANCH   5   6
ATOM      6  C   UNL     1     117.072 114.097 114.522  1.00  0.00    -0.000 C 
BRANCH   6   7
ATOM      7  C   UNL     1     116.846 114.733 115.902  1.00  0.00    -0.003 C 
ATOM      8  C   UNL     1     115.430 114.465 116.406  1.00  0.00     0.004 C 
ENDBRANCH   6   7
ENDBRANCH   5   6
ENDBRANCH   4   5
ENDBRANCH   3   4
ENDBRANCH   2   3
ENDBRANCH   1   2
BRANCH   1   9
ATOM      9  C   UNL     1     117.066 118.690 112.684  1.00  0.00     0.000 C 
BRANCH   9  10
ATOM     10  C   UNL     1     116.504 118.070 113.971  1.00  0.00     0.000 C 
BRANCH  10  11
ATOM     11  C   UNL     1     115.241 117.224 113.726  1.00  0.00     0.000 C 
BRANCH  11  12
ATOM     12  C   UNL     1     115.123 116.622 112.312  1.00  0.00     0.002 C 
BRANCH  12  13
ATOM     13  C   UNL     1     113.849 115.795 112.061  1.00  0.00     0.028 C 
BRANCH  13  14
ATOM     14  C   UNL     1     113.897 114.409 112.718  1.00  0.00     0.156 C 
BRANCH  14  15
ATOM     15  O   UNL     1     113.048 114.374 113.832  1.00  0.00    -0.396 OA
ATOM     16  H   UNL     1     113.424 115.008 114.496  1.00  0.00     0.210 HD
ENDBRANCH  14  15
ENDBRANCH  13  14
ENDBRANCH  12  13
ENDBRANCH  11  12
ENDBRANCH  10  11
ENDBRANCH   9  10
ENDBRANCH   1   9
TORSDOF 13
ENDMDL
MODEL 6
REMARK VINA RESULT:    -3.209      1.924      3.611
REMARK INTER + INTRA:          -7.631
REMARK INTER:                  -6.175
REMARK INTRA:                  -1.456
REMARK UNBOUND:                -2.076
REMARK SMILES CCCCCCCCCCCCCCO
REMARK SMILES IDX 8 1 7 2 6 3 5 4 4 5 3 6 2 7 1 8 9 9 10 10 11 11 12 12 13 13
REMARK SMILES IDX 14 14 15 15
REMARK H PARENT 15 16
REMARK Flexibility Score: inf
ROOT
ATOM      1  C   UNL     1     116.148 118.773 113.352  1.00  0.00     0.000 C 
ENDROOT
BRANCH   1   2
ATOM      2  C   UNL     1     117.111 118.685 112.154  1.00  0.00    -0.000 C 
BRANCH   2   3
ATOM      3  C   UNL     1     118.591 118.453 112.521  1.00  0.00    -0.000 C 
BRANCH   3   4
ATOM      4  C   UNL     1     119.237 117.213 111.875  1.00  0.00    -0.000 C 
BRANCH   4   5
ATOM      5  C   UNL     1     118.554 115.874 112.216  1.00  0.00    -0.000 C 
BRANCH   5   6
ATOM      6  C   UNL     1     118.326 115.662 113.729  1.00  0.00    -0.000 C 
BRANCH   6   7
ATOM      7  C   UNL     1     117.998 114.201 114.075  1.00  0.00    -0.003 C 
ATOM      8  C   UNL     1     118.512 113.252 112.995  1.00  0.00     0.004 C 
ENDBRANCH   6   7
ENDBRANCH   5   6
ENDBRANCH   4   5
ENDBRANCH   3   4
ENDBRANCH   2   3
ENDBRANCH   1   2
BRANCH   1   9
ATOM      9  C   UNL     1     114.981 117.780 113.257  1.00  0.00     0.000 C 
BRANCH   9  10
ATOM     10  C   UNL     1     115.028 117.003 111.934  1.00  0.00     0.000 C 
BRANCH  10  11
ATOM     11  C   UNL     1     114.199 115.707 111.971  1.00  0.00     0.000 C 
BRANCH  11  12
ATOM     12  C   UNL     1     114.429 114.819 113.211  1.00  0.00     0.002 C 
BRANCH  12  13
ATOM     13  C   UNL     1     113.247 114.753 114.195  1.00  0.00     0.028 C 
BRANCH  13  14
ATOM     14  C   UNL     1     113.588 115.325 115.577  1.00  0.00     0.156 C 
BRANCH  14  15
ATOM     15  O   UNL     1     112.418 115.502 116.327  1.00  0.00    -0.396 OA
ATOM     16  H   UNL     1     111.902 114.657 116.256  1.00  0.00     0.210 HD
ENDBRANCH  14  15
ENDBRANCH  13  14
ENDBRANCH  12  13
ENDBRANCH  11  12
ENDBRANCH  10  11
ENDBRANCH   9  10
ENDBRANCH   1   9
TORSDOF 13
ENDMDL
MODEL 7
REMARK VINA RESULT:    -3.206      2.726      4.630
REMARK INTER + INTRA:          -7.624
REMARK INTER:                  -5.880
REMARK INTRA:                  -1.744
REMARK UNBOUND:                -2.076
REMARK SMILES CCCCCCCCCCCCCCO
REMARK SMILES IDX 8 1 7 2 6 3 5 4 4 5 3 6 2 7 1 8 9 9 10 10 11 11 12 12 13 13
REMARK SMILES IDX 14 14 15 15
REMARK H PARENT 15 16
REMARK Flexibility Score: inf
ROOT
ATOM      1  C   UNL     1     113.790 115.158 113.865  1.00  0.00     0.000 C 
ENDROOT
BRANCH   1   2
ATOM      2  C   UNL     1     114.815 115.098 115.012  1.00  0.00    -0.000 C 
BRANCH   2   3
ATOM      3  C   UNL     1     115.556 116.421 115.297  1.00  0.00    -0.000 C 
BRANCH   3   4
ATOM      4  C   UNL     1     114.673 117.682 115.269  1.00  0.00    -0.000 C 
BRANCH   4   5
ATOM      5  C   UNL     1     115.179 118.807 114.344  1.00  0.00    -0.000 C 
BRANCH   5   6
ATOM      6  C   UNL     1     114.728 118.652 112.875  1.00  0.00    -0.000 C 
BRANCH   6   7
ATOM      7  C   UNL     1     115.849 118.979 111.878  1.00  0.00    -0.003 C 
ATOM      8  C   UNL     1     117.175 118.367 112.322  1.00  0.00     0.004 C 
ENDBRANCH   6   7
ENDBRANCH   5   6
ENDBRANCH   4   5
ENDBRANCH   3   4
ENDBRANCH   2   3
ENDBRANCH   1   2
BRANCH   1   9
ATOM      9  C   UNL     1     114.236 114.377 112.621  1.00  0.00     0.000 C 
BRANCH   9  10
ATOM     10  C   UNL     1     115.419 115.071 111.933  1.00  0.00     0.000 C 
BRANCH  10  11
ATOM     11  C   UNL     1     116.679 114.189 111.875  1.00  0.00     0.000 C 
BRANCH  11  12
ATOM     12  C   UNL     1     117.790 114.571 112.875  1.00  0.00     0.002 C 
BRANCH  12  13
ATOM     13  C   UNL     1     118.458 113.384 113.591  1.00  0.00     0.028 C 
BRANCH  13  14
ATOM     14  C   UNL     1     118.050 113.268 115.065  1.00  0.00     0.156 C 
BRANCH  14  15
ATOM     15  O   UNL     1     119.030 112.572 115.784  1.00  0.00    -0.396 OA
ATOM     16  H   UNL     1     119.810 112.472 115.179  1.00  0.00     0.210 HD
ENDBRANCH  14  15
ENDBRANCH  13  14
ENDBRANCH  12  13
ENDBRANCH  11  12
ENDBRANCH  10  11
ENDBRANCH   9  10
ENDBRANCH   1   9
TORSDOF 13
ENDMDL
MODEL 8
REMARK VINA RESULT:    -3.134      2.892      4.546
REMARK INTER + INTRA:          -7.500
REMARK INTER:                  -5.722
REMARK INTRA:                  -1.779
REMARK UNBOUND:                -2.076
REMARK SMILES CCCCCCCCCCCCCCO
REMARK SMILES IDX 8 1 7 2 6 3 5 4 4 5 3 6 2 7 1 8 9 9 10 10 11 11 12 12 13 13
REMARK SMILES IDX 14 14 15 15
REMARK H PARENT 15 16
REMARK Flexibility Score: inf
ROOT
ATOM      1  C   UNL     1     115.185 117.416 112.064  1.00  0.00     0.000 C 
ENDROOT
BRANCH   1   2
ATOM      2  C   UNL     1     114.719 118.809 112.525  1.00  0.00    -0.000 C 
BRANCH   2   3
ATOM      3  C   UNL     1     115.209 119.232 113.925  1.00  0.00    -0.000 C 
BRANCH   3   4
ATOM      4  C   UNL     1     115.918 118.128 114.730  1.00  0.00    -0.000 C 
BRANCH   4   5
ATOM      5  C   UNL     1     117.370 118.451 115.135  1.00  0.00    -0.000 C 
BRANCH   5   6
ATOM      6  C   UNL     1     118.428 117.699 114.298  1.00  0.00    -0.000 C 
BRANCH   6   7
ATOM      7  C   UNL     1     118.793 118.443 113.005  1.00  0.00    -0.003 C 
ATOM      8  C   UNL     1     119.099 117.463 111.875  1.00  0.00     0.004 C 
ENDBRANCH   6   7
ENDBRANCH   5   6
ENDBRANCH   4   5
ENDBRANCH   3   4
ENDBRANCH   2   3
ENDBRANCH   1   2
BRANCH   1   9
ATOM      9  C   UNL     1     114.035 116.404 111.959  1.00  0.00     0.000 C 
BRANCH   9  10
ATOM     10  C   UNL     1     114.488 115.009 112.415  1.00  0.00     0.000 C 
BRANCH  10  11
ATOM     11  C   UNL     1     116.005 114.924 112.661  1.00  0.00     0.000 C 
BRANCH  11  12
ATOM     12  C   UNL     1     116.412 114.402 114.054  1.00  0.00     0.002 C 
BRANCH  12  13
ATOM     13  C   UNL     1     117.880 113.957 114.179  1.00  0.00     0.028 C 
BRANCH  13  14
ATOM     14  C   UNL     1     118.249 113.506 115.598  1.00  0.00     0.156 C 
BRANCH  14  15
ATOM     15  O   UNL     1     118.851 112.242 115.562  1.00  0.00    -0.396 OA
ATOM     16  H   UNL     1     118.557 111.810 114.719  1.00  0.00     0.210 HD
ENDBRANCH  14  15
ENDBRANCH  13  14
ENDBRANCH  12  13
ENDBRANCH  11  12
ENDBRANCH  10  11
ENDBRANCH   9  10
ENDBRANCH   1   9
TORSDOF 13
ENDMDL
