MODEL 1
REMARK VINA RESULT:    -4.705      0.000      0.000
REMARK INTER + INTRA:          -8.989
REMARK INTER:                  -7.318
REMARK INTRA:                  -1.672
REMARK UNBOUND:                -1.672
REMARK SMILES C[C@@]12C[C@@]3(O)O[C@@H](O1)[C@]1(COC(=O)c4ccccc4)[C@H]3C[C@@]12O[C@@H]1O[C@@H](CO)[C@H](O)[C@H](O)[C@@H]1O
REMARK SMILES IDX 1 1 2 2 3 3 4 4 20 5 21 6 22 7 9 8 7 9 8 10 6 11 23 12 24 13
REMARK SMILES IDX 33 14 25 15 31 16 26 17 29 18 34 19 32 21 27 23 28 24 30 26
REMARK SMILES IDX 5 28 10 30 11 31 12 32 13 33 14 34 15 35 19 36 16 37 18 38
REMARK SMILES IDX 17 39
REMARK H PARENT 34 20 32 22 28 25 30 27 5 29
REMARK Flexibility Score: inf
ROOT
ATOM      1  C   UNL     1     105.983  99.382  91.052  1.00  0.00     0.046 C 
ATOM      2  C   UNL     1     104.682 100.059  91.472  1.00  0.00     0.104 C 
ATOM      3  C   UNL     1     103.432  99.363  90.818  1.00  0.00     0.104 C 
ATOM      4  C   UNL     1     102.224 100.243  91.305  1.00  0.00     0.175 C 
ATOM      5  C   UNL     1     102.513 101.764  91.068  1.00  0.00     0.070 C 
ATOM      6  C   UNL     1     103.642 102.004  90.056  1.00  0.00     0.050 C 
ATOM      7  C   UNL     1     104.619 101.606  91.184  1.00  0.00     0.115 C 
ATOM      8  C   UNL     1     103.522 101.963  92.188  1.00  0.00     0.096 C 
ATOM      9  C   UNL     1     103.374 100.778  93.124  1.00  0.00     0.267 C 
ATOM     10  O   UNL     1     104.494  99.947  92.871  1.00  0.00    -0.342 OA
ATOM     11  O   UNL     1     102.193 100.108  92.711  1.00  0.00    -0.320 OA
ENDROOT
BRANCH   7  12
ATOM     12  O   UNL     1     105.801 102.370  91.388  1.00  0.00    -0.339 OA
BRANCH  12  13
ATOM     13  C   UNL     1     106.380 102.846  90.178  1.00  0.00     0.282 C 
ATOM     14  C   UNL     1     106.639 104.368  90.255  1.00  0.00     0.202 C 
ATOM     15  O   UNL     1     107.589 102.158  89.889  1.00  0.00    -0.341 OA
ATOM     16  C   UNL     1     107.751 104.712  91.262  1.00  0.00     0.179 C 
ATOM     17  C   UNL     1     108.555 102.313  90.919  1.00  0.00     0.178 C 
ATOM     18  C   UNL     1     108.978 103.794  91.061  1.00  0.00     0.177 C 
BRANCH  14  19
ATOM     19  O   UNL     1     105.466 105.061  90.593  1.00  0.00    -0.385 OA
ATOM     20  H   UNL     1     105.734 105.802  91.196  1.00  0.00     0.211 HD
ENDBRANCH  14  19
BRANCH  16  21
ATOM     21  O   UNL     1     107.277 104.700  92.589  1.00  0.00    -0.387 OA
ATOM     22  H   UNL     1     106.326 104.431  92.586  1.00  0.00     0.211 HD
ENDBRANCH  16  21
BRANCH  17  23
ATOM     23  C   UNL     1     109.779 101.449  90.573  1.00  0.00     0.191 C 
BRANCH  23  24
ATOM     24  O   UNL     1     110.483 101.102  91.734  1.00  0.00    -0.394 OA
ATOM     25  H   UNL     1     111.076 101.869  91.951  1.00  0.00     0.210 HD
ENDBRANCH  23  24
ENDBRANCH  17  23
BRANCH  18  26
ATOM     26  O   UNL     1     109.869 103.938  92.139  1.00  0.00    -0.387 OA
ATOM     27  H   UNL     1     110.692 103.437  91.899  1.00  0.00     0.211 HD
ENDBRANCH  18  26
ENDBRANCH  12  13
ENDBRANCH   7  12
BRANCH   4  28
ATOM     28  O   UNL     1     101.007  99.834  90.744  1.00  0.00    -0.365 OA
ATOM     29  H   UNL     1     100.368  99.729  91.496  1.00  0.00     0.214 HD
ENDBRANCH   4  28
BRANCH   8  30
ATOM     30  C   UNL     1     103.588 103.364  92.836  1.00  0.00     0.249 C 
BRANCH  30  31
ATOM     31  O   UNL     1     102.853 103.388  94.059  1.00  0.00    -0.461 OA
BRANCH  31  32
ATOM     32  C   UNL     1     101.641 104.067  94.230  1.00  0.00     0.338 C 
ATOM     33  O   UNL     1     101.606 105.156  94.866  1.00  0.00    -0.246 OA
BRANCH  32  34
ATOM     34  C   UNL     1     100.395 103.491  93.680  1.00  0.00     0.060 A 
ATOM     35  C   UNL     1      99.569 104.246  92.828  1.00  0.00     0.015 A 
ATOM     36  C   UNL     1     100.026 102.170  93.996  1.00  0.00     0.015 A 
ATOM     37  C   UNL     1      98.397 103.689  92.305  1.00  0.00     0.001 A 
ATOM     38  C   UNL     1      98.853 101.619  93.470  1.00  0.00     0.001 A 
ATOM     39  C   UNL     1      98.040 102.378  92.626  1.00  0.00     0.000 A 
ENDBRANCH  32  34
ENDBRANCH  31  32
ENDBRANCH  30  31
ENDBRANCH   8  30
TORSDOF 12
ENDMDL
MODEL 2
REMARK VINA RESULT:    -4.632      3.776      8.384
REMARK INTER + INTRA:          -8.877
REMARK INTER:                  -7.457
REMARK INTRA:                  -1.420
REMARK UNBOUND:                -1.672
REMARK SMILES C[C@@]12C[C@@]3(O)O[C@@H](O1)[C@]1(COC(=O)c4ccccc4)[C@H]3C[C@@]12O[C@@H]1O[C@@H](CO)[C@H](O)[C@H](O)[C@@H]1O
REMARK SMILES IDX 1 1 2 2 3 3 4 4 20 5 21 6 22 7 9 8 7 9 8 10 6 11 23 12 24 13
REMARK SMILES IDX 33 14 25 15 31 16 26 17 29 18 34 19 32 21 27 23 28 24 30 26
REMARK SMILES IDX 5 28 10 30 11 31 12 32 13 33 14 34 15 35 19 36 16 37 18 38
REMARK SMILES IDX 17 39
REMARK H PARENT 34 20 32 22 28 25 30 27 5 29
REMARK Flexibility Score: inf
ROOT
ATOM      1  C   UNL     1      99.865 104.420  91.349  1.00  0.00     0.046 C 
ATOM      2  C   UNL     1     101.306 104.237  91.816  1.00  0.00     0.104 C 
ATOM      3  C   UNL     1     101.549 102.791  92.386  1.00  0.00     0.104 C 
ATOM      4  C   UNL     1     103.042 102.834  92.875  1.00  0.00     0.175 C 
ATOM      5  C   UNL     1     103.300 104.101  93.758  1.00  0.00     0.070 C 
ATOM      6  C   UNL     1     102.006 104.727  94.293  1.00  0.00     0.050 C 
ATOM      7  C   UNL     1     101.798 105.296  92.871  1.00  0.00     0.115 C 
ATOM      8  C   UNL     1     103.302 105.137  92.646  1.00  0.00     0.096 C 
ATOM      9  C   UNL     1     103.478 104.378  91.343  1.00  0.00     0.267 C 
ATOM     10  O   UNL     1     102.201 104.374  90.727  1.00  0.00    -0.342 OA
ATOM     11  O   UNL     1     103.819 103.052  91.715  1.00  0.00    -0.320 OA
ENDROOT
BRANCH   7  12
ATOM     12  O   UNL     1     101.372 106.643  92.712  1.00  0.00    -0.339 OA
BRANCH  12  13
ATOM     13  C   UNL     1     100.706 107.163  93.858  1.00  0.00     0.282 C 
ATOM     14  C   UNL     1     100.883 108.696  93.947  1.00  0.00     0.202 C 
ATOM     15  O   UNL     1      99.325 106.830  93.836  1.00  0.00    -0.341 OA
ATOM     16  C   UNL     1     100.132 109.428  92.820  1.00  0.00     0.179 C 
ATOM     17  C   UNL     1      98.667 107.342  92.686  1.00  0.00     0.178 C 
ATOM     18  C   UNL     1      98.691 108.889  92.678  1.00  0.00     0.177 C 
BRANCH  14  19
ATOM     19  O   UNL     1     102.241 109.048  93.915  1.00  0.00    -0.385 OA
ATOM     20  H   UNL     1     102.312 109.874  93.370  1.00  0.00     0.211 HD
ENDBRANCH  14  19
BRANCH  16  21
ATOM     21  O   UNL     1     100.847 109.391  91.606  1.00  0.00    -0.387 OA
ATOM     22  H   UNL     1     101.648 109.964  91.690  1.00  0.00     0.211 HD
ENDBRANCH  16  21
BRANCH  17  23
ATOM     23  C   UNL     1      97.213 106.841  92.694  1.00  0.00     0.191 C 
BRANCH  23  24
ATOM     24  O   UNL     1      96.393 107.718  93.418  1.00  0.00    -0.394 OA
ATOM     25  H   UNL     1      96.418 107.419  94.365  1.00  0.00     0.210 HD
ENDBRANCH  23  24
ENDBRANCH  17  23
BRANCH  18  26
ATOM     26  O   UNL     1      98.111 109.372  91.493  1.00  0.00    -0.387 OA
ATOM     27  H   UNL     1      97.635 110.212  91.729  1.00  0.00     0.211 HD
ENDBRANCH  18  26
ENDBRANCH  12  13
ENDBRANCH   7  12
BRANCH   4  28
ATOM     28  O   UNL     1     103.429 101.647  93.511  1.00  0.00    -0.365 OA
ATOM     29  H   UNL     1     102.594 101.196  93.802  1.00  0.00     0.214 HD
ENDBRANCH   4  28
BRANCH   8  30
ATOM     30  C   UNL     1     104.182 106.390  92.851  1.00  0.00     0.249 C 
BRANCH  30  31
ATOM     31  O   UNL     1     104.448 107.028  91.602  1.00  0.00    -0.461 OA
BRANCH  31  32
ATOM     32  C   UNL     1     104.692 108.400  91.461  1.00  0.00     0.338 C 
ATOM     33  O   UNL     1     103.730 109.208  91.345  1.00  0.00    -0.246 OA
BRANCH  32  34
ATOM     34  C   UNL     1     106.084 108.896  91.428  1.00  0.00     0.060 A 
ATOM     35  C   UNL     1     106.357 110.275  91.482  1.00  0.00     0.015 A 
ATOM     36  C   UNL     1     107.158 107.990  91.353  1.00  0.00     0.015 A 
ATOM     37  C   UNL     1     107.678 110.735  91.458  1.00  0.00     0.001 A 
ATOM     38  C   UNL     1     108.476 108.455  91.329  1.00  0.00     0.001 A 
ATOM     39  C   UNL     1     108.735 109.826  91.382  1.00  0.00     0.000 A 
ENDBRANCH  32  34
ENDBRANCH  31  32
ENDBRANCH  30  31
ENDBRANCH   8  30
TORSDOF 12
ENDMDL
MODEL 3
REMARK VINA RESULT:    -4.631      2.880      6.762
REMARK INTER + INTRA:          -8.875
REMARK INTER:                  -7.142
REMARK INTRA:                  -1.733
REMARK UNBOUND:                -1.672
REMARK SMILES C[C@@]12C[C@@]3(O)O[C@@H](O1)[C@]1(COC(=O)c4ccccc4)[C@H]3C[C@@]12O[C@@H]1O[C@@H](CO)[C@H](O)[C@H](O)[C@@H]1O
REMARK SMILES IDX 1 1 2 2 3 3 4 4 20 5 21 6 22 7 9 8 7 9 8 10 6 11 23 12 24 13
REMARK SMILES IDX 33 14 25 15 31 16 26 17 29 18 34 19 32 21 27 23 28 24 30 26
REMARK SMILES IDX 5 28 10 30 11 31 12 32 13 33 14 34 15 35 19 36 16 37 18 38
REMARK SMILES IDX 17 39
REMARK H PARENT 34 20 32 22 28 25 30 27 5 29
REMARK Flexibility Score: inf
ROOT
ATOM      1  C   UNL     1      98.548 101.805  93.223  1.00  0.00     0.046 C 
ATOM      2  C   UNL     1      99.600 102.899  93.063  1.00  0.00     0.104 C 
ATOM      3  C   UNL     1      99.051 104.107  92.218  1.00  0.00     0.104 C 
ATOM      4  C   UNL     1     100.288 105.069  92.105  1.00  0.00     0.175 C 
ATOM      5  C   UNL     1     101.563 104.283  91.649  1.00  0.00     0.070 C 
ATOM      6  C   UNL     1     101.230 102.928  91.011  1.00  0.00     0.050 C 
ATOM      7  C   UNL     1     100.965 102.417  92.446  1.00  0.00     0.115 C 
ATOM      8  C   UNL     1     101.844 103.560  92.957  1.00  0.00     0.096 C 
ATOM      9  C   UNL     1     101.051 104.281  94.032  1.00  0.00     0.267 C 
ATOM     10  O   UNL     1      99.947 103.441  94.324  1.00  0.00    -0.342 OA
ATOM     11  O   UNL     1     100.581 105.474  93.426  1.00  0.00    -0.320 OA
ENDROOT
BRANCH   7  12
ATOM     12  O   UNL     1     101.462 101.144  92.838  1.00  0.00    -0.339 OA
BRANCH  12  13
ATOM     13  C   UNL     1     101.384 100.166  91.806  1.00  0.00     0.282 C 
ATOM     14  C   UNL     1     102.689  99.341  91.731  1.00  0.00     0.202 C 
ATOM     15  O   UNL     1     100.272  99.305  92.005  1.00  0.00    -0.341 OA
ATOM     16  C   UNL     1     102.872  98.442  92.967  1.00  0.00     0.179 C 
ATOM     17  C   UNL     1     100.341  98.617  93.246  1.00  0.00     0.178 C 
ATOM     18  C   UNL     1     101.569  97.677  93.290  1.00  0.00     0.177 C 
BRANCH  14  19
ATOM     19  O   UNL     1     103.805 100.180  91.588  1.00  0.00    -0.385 OA
ATOM     20  H   UNL     1     104.554  99.610  91.273  1.00  0.00     0.211 HD
ENDBRANCH  14  19
BRANCH  16  21
ATOM     21  O   UNL     1     103.363  99.166  94.073  1.00  0.00    -0.387 OA
ATOM     22  H   UNL     1     102.820  99.985  94.184  1.00  0.00     0.211 HD
ENDBRANCH  16  21
BRANCH  17  23
ATOM     23  C   UNL     1      99.050  97.800  93.422  1.00  0.00     0.191 C 
BRANCH  23  24
ATOM     24  O   UNL     1      99.315  96.428  93.307  1.00  0.00    -0.394 OA
ATOM     25  H   UNL     1     100.077  96.334  92.678  1.00  0.00     0.210 HD
ENDBRANCH  23  24
ENDBRANCH  17  23
BRANCH  18  26
ATOM     26  O   UNL     1     101.666  97.071  94.554  1.00  0.00    -0.387 OA
ATOM     27  H   UNL     1     100.908  96.434  94.625  1.00  0.00     0.211 HD
ENDBRANCH  18  26
ENDBRANCH  12  13
ENDBRANCH   7  12
BRANCH   4  28
ATOM     28  O   UNL     1     100.025 106.182  91.295  1.00  0.00    -0.365 OA
ATOM     29  H   UNL     1      99.141 106.024  90.873  1.00  0.00     0.214 HD
ENDBRANCH   4  28
BRANCH   8  30
ATOM     30  C   UNL     1     103.317 103.228  93.277  1.00  0.00     0.249 C 
BRANCH  30  31
ATOM     31  O   UNL     1     103.903 104.255  94.077  1.00  0.00    -0.461 OA
BRANCH  31  32
ATOM     32  C   UNL     1     104.855 105.167  93.605  1.00  0.00     0.338 C 
ATOM     33  O   UNL     1     105.969 105.278  94.185  1.00  0.00    -0.246 OA
BRANCH  32  34
ATOM     34  C   UNL     1     104.540 106.014  92.436  1.00  0.00     0.060 A 
ATOM     35  C   UNL     1     105.116 105.750  91.180  1.00  0.00     0.015 A 
ATOM     36  C   UNL     1     103.647 107.095  92.563  1.00  0.00     0.015 A 
ATOM     37  C   UNL     1     104.806 106.552  90.078  1.00  0.00     0.001 A 
ATOM     38  C   UNL     1     103.341 107.893  91.457  1.00  0.00     0.001 A 
ATOM     39  C   UNL     1     103.920 107.622  90.216  1.00  0.00     0.000 A 
ENDBRANCH  32  34
ENDBRANCH  31  32
ENDBRANCH  30  31
ENDBRANCH   8  30
TORSDOF 12
ENDMDL
MODEL 4
REMARK VINA RESULT:    -4.620      3.603      7.043
REMARK INTER + INTRA:          -8.858
REMARK INTER:                  -7.339
REMARK INTRA:                  -1.519
REMARK UNBOUND:                -1.672
REMARK SMILES C[C@@]12C[C@@]3(O)O[C@@H](O1)[C@]1(COC(=O)c4ccccc4)[C@H]3C[C@@]12O[C@@H]1O[C@@H](CO)[C@H](O)[C@H](O)[C@@H]1O
REMARK SMILES IDX 1 1 2 2 3 3 4 4 20 5 21 6 22 7 9 8 7 9 8 10 6 11 23 12 24 13
REMARK SMILES IDX 33 14 25 15 31 16 26 17 29 18 34 19 32 21 27 23 28 24 30 26
REMARK SMILES IDX 5 28 10 30 11 31 12 32 13 33 14 34 15 35 19 36 16 37 18 38
REMARK SMILES IDX 17 39
REMARK H PARENT 34 20 32 22 28 25 30 27 5 29
REMARK Flexibility Score: inf
ROOT
ATOM      1  C   UNL     1      98.002 101.697  91.678  1.00  0.00     0.046 C 
ATOM      2  C   UNL     1      99.069 100.700  92.123  1.00  0.00     0.104 C 
ATOM      3  C   UNL     1      98.430  99.453  92.839  1.00  0.00     0.104 C 
ATOM      4  C   UNL     1      99.677  98.604  93.280  1.00  0.00     0.175 C 
ATOM      5  C   UNL     1     100.728  99.501  94.015  1.00  0.00     0.070 C 
ATOM      6  C   UNL     1     100.135 100.825  94.514  1.00  0.00     0.050 C 
ATOM      7  C   UNL     1     100.193 101.303  93.046  1.00  0.00     0.115 C 
ATOM      8  C   UNL     1     101.263 100.239  92.798  1.00  0.00     0.096 C 
ATOM      9  C   UNL     1     100.826  99.446  91.580  1.00  0.00     0.267 C 
ATOM     10  O   UNL     1      99.763 100.184  91.002  1.00  0.00    -0.342 OA
ATOM     11  O   UNL     1     100.321  98.219  92.083  1.00  0.00    -0.320 OA
ENDROOT
BRANCH   7  12
ATOM     12  O   UNL     1     100.662 102.613  92.754  1.00  0.00    -0.339 OA
BRANCH  12  13
ATOM     13  C   UNL     1     100.282 103.578  93.729  1.00  0.00     0.282 C 
ATOM     14  C   UNL     1     101.502 104.411  94.183  1.00  0.00     0.202 C 
ATOM     15  O   UNL     1      99.266 104.434  93.225  1.00  0.00    -0.341 OA
ATOM     16  C   UNL     1     102.024 105.325  93.060  1.00  0.00     0.179 C 
ATOM     17  C   UNL     1      99.682 105.137  92.063  1.00  0.00     0.178 C 
ATOM     18  C   UNL     1     100.861 106.085  92.383  1.00  0.00     0.177 C 
BRANCH  14  19
ATOM     19  O   UNL     1     102.539 103.579  94.634  1.00  0.00    -0.385 OA
ATOM     20  H   UNL     1     102.187 103.079  95.415  1.00  0.00     0.211 HD
ENDBRANCH  14  19
BRANCH  16  21
ATOM     21  O   UNL     1     102.819 104.617  92.136  1.00  0.00    -0.387 OA
ATOM     22  H   UNL     1     103.610 105.166  91.909  1.00  0.00     0.211 HD
ENDBRANCH  16  21
BRANCH  17  23
ATOM     23  C   UNL     1      98.488 105.946  91.530  1.00  0.00     0.191 C 
BRANCH  23  24
ATOM     24  O   UNL     1      98.538 107.266  92.001  1.00  0.00    -0.394 OA
ATOM     25  H   UNL     1      98.678 107.216  92.983  1.00  0.00     0.210 HD
ENDBRANCH  23  24
ENDBRANCH  17  23
BRANCH  18  26
ATOM     26  O   UNL     1     101.312 106.706  91.206  1.00  0.00    -0.387 OA
ATOM     27  H   UNL     1     101.037 107.659  91.261  1.00  0.00     0.211 HD
ENDBRANCH  18  26
ENDBRANCH  12  13
ENDBRANCH   7  12
BRANCH   4  28
ATOM     28  O   UNL     1      99.314  97.476  94.029  1.00  0.00    -0.365 OA
ATOM     29  H   UNL     1      99.080  96.765  93.378  1.00  0.00     0.214 HD
ENDBRANCH   4  28
BRANCH   8  30
ATOM     30  C   UNL     1     102.737 100.697  92.843  1.00  0.00     0.249 C 
BRANCH  30  31
ATOM     31  O   UNL     1     103.588  99.716  92.252  1.00  0.00    -0.461 OA
BRANCH  31  32
ATOM     32  C   UNL     1     104.317  98.770  92.984  1.00  0.00     0.338 C 
ATOM     33  O   UNL     1     105.285  99.134  93.706  1.00  0.00    -0.246 OA
BRANCH  32  34
ATOM     34  C   UNL     1     103.961  97.339  92.888  1.00  0.00     0.060 A 
ATOM     35  C   UNL     1     104.554  96.513  91.915  1.00  0.00     0.015 A 
ATOM     36  C   UNL     1     103.028  96.779  93.781  1.00  0.00     0.015 A 
ATOM     37  C   UNL     1     104.217  95.158  91.838  1.00  0.00     0.001 A 
ATOM     38  C   UNL     1     102.695  95.424  93.699  1.00  0.00     0.001 A 
ATOM     39  C   UNL     1     103.289  94.615  92.729  1.00  0.00     0.000 A 
ENDBRANCH  32  34
ENDBRANCH  31  32
ENDBRANCH  30  31
ENDBRANCH   8  30
TORSDOF 12
ENDMDL
MODEL 5
REMARK VINA RESULT:    -4.562      3.150      7.878
REMARK INTER + INTRA:          -8.767
REMARK INTER:                  -7.648
REMARK INTRA:                  -1.119
REMARK UNBOUND:                -1.672
REMARK SMILES C[C@@]12C[C@@]3(O)O[C@@H](O1)[C@]1(COC(=O)c4ccccc4)[C@H]3C[C@@]12O[C@@H]1O[C@@H](CO)[C@H](O)[C@H](O)[C@@H]1O
REMARK SMILES IDX 1 1 2 2 3 3 4 4 20 5 21 6 22 7 9 8 7 9 8 10 6 11 23 12 24 13
REMARK SMILES IDX 33 14 25 15 31 16 26 17 29 18 34 19 32 21 27 23 28 24 30 26
REMARK SMILES IDX 5 28 10 30 11 31 12 32 13 33 14 34 15 35 19 36 16 37 18 38
REMARK SMILES IDX 17 39
REMARK H PARENT 34 20 32 22 28 25 30 27 5 29
REMARK Flexibility Score: inf
ROOT
ATOM      1  C   UNL     1     103.822 102.213  91.517  1.00  0.00     0.046 C 
ATOM      2  C   UNL     1     104.717 103.449  91.522  1.00  0.00     0.104 C 
ATOM      3  C   UNL     1     106.217 103.074  91.814  1.00  0.00     0.104 C 
ATOM      4  C   UNL     1     106.943 104.468  91.853  1.00  0.00     0.175 C 
ATOM      5  C   UNL     1     106.171 105.471  92.774  1.00  0.00     0.070 C 
ATOM      6  C   UNL     1     105.198 104.771  93.733  1.00  0.00     0.050 C 
ATOM      7  C   UNL     1     104.268 104.586  92.513  1.00  0.00     0.115 C 
ATOM      8  C   UNL     1     105.000 105.751  91.845  1.00  0.00     0.096 C 
ATOM      9  C   UNL     1     105.416 105.279  90.464  1.00  0.00     0.267 C 
ATOM     10  O   UNL     1     104.718 104.065  90.247  1.00  0.00    -0.342 OA
ATOM     11  O   UNL     1     106.806 105.008  90.555  1.00  0.00    -0.320 OA
ENDROOT
BRANCH   7  12
ATOM     12  O   UNL     1     102.875 104.837  92.652  1.00  0.00    -0.339 OA
BRANCH  12  13
ATOM     13  C   UNL     1     102.401 104.669  93.984  1.00  0.00     0.282 C 
ATOM     14  C   UNL     1     101.231 105.636  94.276  1.00  0.00     0.202 C 
ATOM     15  O   UNL     1     101.996 103.328  94.213  1.00  0.00    -0.341 OA
ATOM     16  C   UNL     1      99.970 105.272  93.473  1.00  0.00     0.179 C 
ATOM     17  C   UNL     1     100.957 102.922  93.332  1.00  0.00     0.178 C 
ATOM     18  C   UNL     1      99.677 103.757  93.566  1.00  0.00     0.177 C 
BRANCH  14  19
ATOM     19  O   UNL     1     101.597 106.964  94.003  1.00  0.00    -0.385 OA
ATOM     20  H   UNL     1     101.171 107.208  93.141  1.00  0.00     0.211 HD
ENDBRANCH  14  19
BRANCH  16  21
ATOM     21  O   UNL     1     100.047 105.728  92.142  1.00  0.00    -0.387 OA
ATOM     22  H   UNL     1      99.141 105.709  91.745  1.00  0.00     0.211 HD
ENDBRANCH  16  21
BRANCH  17  23
ATOM     23  C   UNL     1     100.664 101.433  93.579  1.00  0.00     0.191 C 
BRANCH  23  24
ATOM     24  O   UNL     1      99.777 101.276  94.653  1.00  0.00    -0.394 OA
ATOM     25  H   UNL     1      99.280 102.132  94.742  1.00  0.00     0.210 HD
ENDBRANCH  23  24
ENDBRANCH  17  23
BRANCH  18  26
ATOM     26  O   UNL     1      98.692 103.399  92.631  1.00  0.00    -0.387 OA
ATOM     27  H   UNL     1      98.270 104.244  92.321  1.00  0.00     0.211 HD
ENDBRANCH  18  26
ENDBRANCH  12  13
ENDBRANCH   7  12
BRANCH   4  28
ATOM     28  O   UNL     1     108.297 104.353  92.198  1.00  0.00    -0.365 OA
ATOM     29  H   UNL     1     108.403 104.796  93.080  1.00  0.00     0.214 HD
ENDBRANCH   4  28
BRANCH   8  30
ATOM     30  C   UNL     1     104.342 107.145  91.941  1.00  0.00     0.249 C 
BRANCH  30  31
ATOM     31  O   UNL     1     104.964 108.058  91.038  1.00  0.00    -0.461 OA
BRANCH  31  32
ATOM     32  C   UNL     1     105.457 109.314  91.413  1.00  0.00     0.338 C 
ATOM     33  O   UNL     1     104.661 110.240  91.729  1.00  0.00    -0.246 OA
BRANCH  32  34
ATOM     34  C   UNL     1     106.915 109.558  91.415  1.00  0.00     0.060 A 
ATOM     35  C   UNL     1     107.426 110.869  91.409  1.00  0.00     0.015 A 
ATOM     36  C   UNL     1     107.814 108.475  91.433  1.00  0.00     0.015 A 
ATOM     37  C   UNL     1     108.806 111.089  91.420  1.00  0.00     0.001 A 
ATOM     38  C   UNL     1     109.194 108.702  91.443  1.00  0.00     0.001 A 
ATOM     39  C   UNL     1     109.689 110.007  91.437  1.00  0.00     0.000 A 
ENDBRANCH  32  34
ENDBRANCH  31  32
ENDBRANCH  30  31
ENDBRANCH   8  30
TORSDOF 12
ENDMDL
MODEL 6
REMARK VINA RESULT:    -4.547      5.597      9.341
REMARK INTER + INTRA:          -8.744
REMARK INTER:                  -7.663
REMARK INTRA:                  -1.082
REMARK UNBOUND:                -1.672
REMARK SMILES C[C@@]12C[C@@]3(O)O[C@@H](O1)[C@]1(COC(=O)c4ccccc4)[C@H]3C[C@@]12O[C@@H]1O[C@@H](CO)[C@H](O)[C@H](O)[C@@H]1O
REMARK SMILES IDX 1 1 2 2 3 3 4 4 20 5 21 6 22 7 9 8 7 9 8 10 6 11 23 12 24 13
REMARK SMILES IDX 33 14 25 15 31 16 26 17 29 18 34 19 32 21 27 23 28 24 30 26
REMARK SMILES IDX 5 28 10 30 11 31 12 32 13 33 14 34 15 35 19 36 16 37 18 38
REMARK SMILES IDX 17 39
REMARK H PARENT 34 20 32 22 28 25 30 27 5 29
REMARK Flexibility Score: inf
ROOT
ATOM      1  C   UNL     1      99.437 107.819  93.448  1.00  0.00     0.046 C 
ATOM      2  C   UNL     1     100.350 109.005  93.149  1.00  0.00     0.104 C 
ATOM      3  C   UNL     1      99.610 110.102  92.298  1.00  0.00     0.104 C 
ATOM      4  C   UNL     1     100.725 111.179  92.037  1.00  0.00     0.175 C 
ATOM      5  C   UNL     1     102.036 110.504  91.512  1.00  0.00     0.070 C 
ATOM      6  C   UNL     1     101.801 109.088  90.968  1.00  0.00     0.050 C 
ATOM      7  C   UNL     1     101.706 108.633  92.442  1.00  0.00     0.115 C 
ATOM      8  C   UNL     1     102.495 109.887  92.824  1.00  0.00     0.096 C 
ATOM      9  C   UNL     1     101.717 110.580  93.927  1.00  0.00     0.267 C 
ATOM     10  O   UNL     1     100.736 109.648  94.350  1.00  0.00    -0.342 OA
ATOM     11  O   UNL     1     101.076 111.684  93.308  1.00  0.00    -0.320 OA
ENDROOT
BRANCH   7  12
ATOM     12  O   UNL     1     102.365 107.441  92.849  1.00  0.00    -0.339 OA
BRANCH  12  13
ATOM     13  C   UNL     1     102.266 106.388  91.896  1.00  0.00     0.282 C 
ATOM     14  C   UNL     1     103.658 105.788  91.594  1.00  0.00     0.202 C 
ATOM     15  O   UNL     1     101.384 105.373  92.352  1.00  0.00    -0.341 OA
ATOM     16  C   UNL     1     104.232 105.029  92.804  1.00  0.00     0.179 C 
ATOM     17  C   UNL     1     101.811 104.802  93.582  1.00  0.00     0.178 C 
ATOM     18  C   UNL     1     103.172 104.085  93.415  1.00  0.00     0.177 C 
BRANCH  14  19
ATOM     19  O   UNL     1     104.559 106.787  91.193  1.00  0.00    -0.385 OA
ATOM     20  H   UNL     1     105.437 106.560  91.596  1.00  0.00     0.211 HD
ENDBRANCH  14  19
BRANCH  16  21
ATOM     21  O   UNL     1     104.789 105.906  93.756  1.00  0.00    -0.387 OA
ATOM     22  H   UNL     1     104.059 106.422  94.180  1.00  0.00     0.211 HD
ENDBRANCH  16  21
BRANCH  17  23
ATOM     23  C   UNL     1     100.744 103.799  94.049  1.00  0.00     0.191 C 
BRANCH  23  24
ATOM     24  O   UNL     1     101.243 102.489  93.999  1.00  0.00    -0.394 OA
ATOM     25  H   UNL     1     100.867 102.008  94.783  1.00  0.00     0.210 HD
ENDBRANCH  23  24
ENDBRANCH  17  23
BRANCH  18  26
ATOM     26  O   UNL     1     103.616 103.602  94.657  1.00  0.00    -0.387 OA
ATOM     27  H   UNL     1     104.590 103.788  94.705  1.00  0.00     0.211 HD
ENDBRANCH  18  26
ENDBRANCH  12  13
ENDBRANCH   7  12
BRANCH   4  28
ATOM     28  O   UNL     1     100.281 112.213  91.201  1.00  0.00    -0.365 OA
ATOM     29  H   UNL     1     100.074 111.800  90.323  1.00  0.00     0.214 HD
ENDBRANCH   4  28
BRANCH   8  30
ATOM     30  C   UNL     1     104.016 109.726  93.034  1.00  0.00     0.249 C 
BRANCH  30  31
ATOM     31  O   UNL     1     104.548 110.843  93.744  1.00  0.00    -0.461 OA
BRANCH  31  32
ATOM     32  C   UNL     1     104.955 112.037  93.135  1.00  0.00     0.338 C 
ATOM     33  O   UNL     1     104.165 113.018  93.070  1.00  0.00    -0.246 OA
BRANCH  32  34
ATOM     34  C   UNL     1     106.308 112.135  92.549  1.00  0.00     0.060 A 
ATOM     35  C   UNL     1     106.823 111.098  91.750  1.00  0.00     0.015 A 
ATOM     36  C   UNL     1     107.098 113.277  92.777  1.00  0.00     0.015 A 
ATOM     37  C   UNL     1     108.101 111.203  91.193  1.00  0.00     0.001 A 
ATOM     38  C   UNL     1     108.376 113.376  92.218  1.00  0.00     0.001 A 
ATOM     39  C   UNL     1     108.876 112.340  91.426  1.00  0.00     0.000 A 
ENDBRANCH  32  34
ENDBRANCH  31  32
ENDBRANCH  30  31
ENDBRANCH   8  30
TORSDOF 12
ENDMDL
MODEL 7
REMARK VINA RESULT:    -4.540      4.046      6.349
REMARK INTER + INTRA:          -8.734
REMARK INTER:                  -7.502
REMARK INTRA:                  -1.232
REMARK UNBOUND:                -1.672
REMARK SMILES C[C@@]12C[C@@]3(O)O[C@@H](O1)[C@]1(COC(=O)c4ccccc4)[C@H]3C[C@@]12O[C@@H]1O[C@@H](CO)[C@H](O)[C@H](O)[C@@H]1O
REMARK SMILES IDX 1 1 2 2 3 3 4 4 20 5 21 6 22 7 9 8 7 9 8 10 6 11 23 12 24 13
REMARK SMILES IDX 33 14 25 15 31 16 26 17 29 18 34 19 32 21 27 23 28 24 30 26
REMARK SMILES IDX 5 28 10 30 11 31 12 32 13 33 14 34 15 35 19 36 16 37 18 38
REMARK SMILES IDX 17 39
REMARK H PARENT 34 20 32 22 28 25 30 27 5 29
REMARK Flexibility Score: inf
ROOT
ATOM      1  C   UNL     1     106.486 107.342  91.762  1.00  0.00     0.046 C 
ATOM      2  C   UNL     1     105.479 106.206  91.920  1.00  0.00     0.104 C 
ATOM      3  C   UNL     1     105.683 105.097  90.824  1.00  0.00     0.104 C 
ATOM      4  C   UNL     1     104.520 104.079  91.110  1.00  0.00     0.175 C 
ATOM      5  C   UNL     1     103.152 104.826  91.253  1.00  0.00     0.070 C 
ATOM      6  C   UNL     1     103.181 106.242  90.661  1.00  0.00     0.050 C 
ATOM      7  C   UNL     1     103.971 106.657  91.923  1.00  0.00     0.115 C 
ATOM      8  C   UNL     1     103.385 105.432  92.628  1.00  0.00     0.096 C 
ATOM      9  C   UNL     1     104.548 104.678  93.245  1.00  0.00     0.267 C 
ATOM     10  O   UNL     1     105.660 105.553  93.164  1.00  0.00    -0.342 OA
ATOM     11  O   UNL     1     104.773 103.561  92.399  1.00  0.00    -0.320 OA
ENDROOT
BRANCH   7  12
ATOM     12  O   UNL     1     103.638 107.868  92.589  1.00  0.00    -0.339 OA
BRANCH  12  13
ATOM     13  C   UNL     1     103.405 108.955  91.700  1.00  0.00     0.282 C 
ATOM     14  C   UNL     1     101.984 109.532  91.899  1.00  0.00     0.202 C 
ATOM     15  O   UNL     1     104.376 109.975  91.880  1.00  0.00    -0.341 OA
ATOM     16  C   UNL     1     101.835 110.235  93.260  1.00  0.00     0.179 C 
ATOM     17  C   UNL     1     104.374 110.493  93.203  1.00  0.00     0.178 C 
ATOM     18  C   UNL     1     103.027 111.182  93.524  1.00  0.00     0.177 C 
BRANCH  14  19
ATOM     19  O   UNL     1     101.012 108.526  91.779  1.00  0.00    -0.385 OA
ATOM     20  H   UNL     1     101.429 107.783  91.270  1.00  0.00     0.211 HD
ENDBRANCH  14  19
BRANCH  16  21
ATOM     21  O   UNL     1     101.634 109.313  94.307  1.00  0.00    -0.387 OA
ATOM     22  H   UNL     1     100.673 109.295  94.537  1.00  0.00     0.211 HD
ENDBRANCH  16  21
BRANCH  17  23
ATOM     23  C   UNL     1     105.524 111.505  93.331  1.00  0.00     0.191 C 
BRANCH  23  24
ATOM     24  O   UNL     1     105.022 112.804  93.498  1.00  0.00    -0.394 OA
ATOM     25  H   UNL     1     104.308 112.926  92.818  1.00  0.00     0.210 HD
ENDBRANCH  23  24
ENDBRANCH  17  23
BRANCH  18  26
ATOM     26  O   UNL     1     103.014 111.612  94.862  1.00  0.00    -0.387 OA
ATOM     27  H   UNL     1     103.535 110.945  95.382  1.00  0.00     0.211 HD
ENDBRANCH  18  26
ENDBRANCH  12  13
ENDBRANCH   7  12
BRANCH   4  28
ATOM     28  O   UNL     1     104.473 103.046  90.163  1.00  0.00    -0.365 OA
ATOM     29  H   UNL     1     105.410 102.863  89.896  1.00  0.00     0.214 HD
ENDBRANCH   4  28
BRANCH   8  30
ATOM     30  C   UNL     1     102.145 105.658  93.519  1.00  0.00     0.249 C 
BRANCH  30  31
ATOM     31  O   UNL     1     101.782 104.453  94.192  1.00  0.00    -0.461 OA
BRANCH  31  32
ATOM     32  C   UNL     1     100.713 103.633  93.809  1.00  0.00     0.338 C 
ATOM     33  O   UNL     1      99.591 104.139  93.536  1.00  0.00    -0.246 OA
BRANCH  32  34
ATOM     34  C   UNL     1     100.900 102.168  93.745  1.00  0.00     0.060 A 
ATOM     35  C   UNL     1     101.950 101.609  92.993  1.00  0.00     0.015 A 
ATOM     36  C   UNL     1     100.033 101.312  94.449  1.00  0.00     0.015 A 
ATOM     37  C   UNL     1     102.124 100.223  92.946  1.00  0.00     0.001 A 
ATOM     38  C   UNL     1     100.213  99.926  94.397  1.00  0.00     0.001 A 
ATOM     39  C   UNL     1     101.257  99.383  93.647  1.00  0.00     0.000 A 
ENDBRANCH  32  34
ENDBRANCH  31  32
ENDBRANCH  30  31
ENDBRANCH   8  30
TORSDOF 12
ENDMDL
MODEL 8
REMARK VINA RESULT:    -4.504      3.714      8.205
REMARK INTER + INTRA:          -8.677
REMARK INTER:                  -7.445
REMARK INTRA:                  -1.232
REMARK UNBOUND:                -1.672
REMARK SMILES C[C@@]12C[C@@]3(O)O[C@@H](O1)[C@]1(COC(=O)c4ccccc4)[C@H]3C[C@@]12O[C@@H]1O[C@@H](CO)[C@H](O)[C@H](O)[C@@H]1O
REMARK SMILES IDX 1 1 2 2 3 3 4 4 20 5 21 6 22 7 9 8 7 9 8 10 6 11 23 12 24 13
REMARK SMILES IDX 33 14 25 15 31 16 26 17 29 18 34 19 32 21 27 23 28 24 30 26
REMARK SMILES IDX 5 28 10 30 11 31 12 32 13 33 14 34 15 35 19 36 16 37 18 38
REMARK SMILES IDX 17 39
REMARK H PARENT 34 20 32 22 28 25 30 27 5 29
REMARK Flexibility Score: inf
ROOT
ATOM      1  C   UNL     1      98.341 105.446  91.929  1.00  0.00     0.046 C 
ATOM      2  C   UNL     1      99.715 104.921  92.335  1.00  0.00     0.104 C 
ATOM      3  C   UNL     1      99.601 103.608  93.194  1.00  0.00     0.104 C 
ATOM      4  C   UNL     1     101.093 103.283  93.568  1.00  0.00     0.175 C 
ATOM      5  C   UNL     1     101.813 104.552  94.133  1.00  0.00     0.070 C 
ATOM      6  C   UNL     1     100.832 105.637  94.595  1.00  0.00     0.050 C 
ATOM      7  C   UNL     1     100.619 105.959  93.099  1.00  0.00     0.115 C 
ATOM      8  C   UNL     1     101.974 105.305  92.821  1.00  0.00     0.096 C 
ATOM      9  C   UNL     1     101.758 104.294  91.710  1.00  0.00     0.267 C 
ATOM     10  O   UNL     1     100.467 104.565  91.189  1.00  0.00    -0.342 OA
ATOM     11  O   UNL     1     101.748 103.024  92.343  1.00  0.00    -0.320 OA
ENDROOT
BRANCH   7  12
ATOM     12  O   UNL     1     100.583 107.315  92.673  1.00  0.00    -0.339 OA
BRANCH  12  13
ATOM     13  C   UNL     1     100.010 108.193  93.636  1.00  0.00     0.282 C 
ATOM     14  C   UNL     1     100.831 109.499  93.746  1.00  0.00     0.202 C 
ATOM     15  O   UNL     1      98.659 108.490  93.313  1.00  0.00    -0.341 OA
ATOM     16  C   UNL     1     100.719 110.356  92.472  1.00  0.00     0.179 C 
ATOM     17  C   UNL     1      98.535 109.108  92.040  1.00  0.00     0.178 C 
ATOM     18  C   UNL     1      99.247 110.481  92.019  1.00  0.00     0.177 C 
BRANCH  14  19
ATOM     19  O   UNL     1     102.181 109.223  94.012  1.00  0.00    -0.385 OA
ATOM     20  H   UNL     1     102.338 108.278  93.751  1.00  0.00     0.211 HD
ENDBRANCH  14  19
BRANCH  16  21
ATOM     21  O   UNL     1     101.562 109.882  91.447  1.00  0.00    -0.387 OA
ATOM     22  H   UNL     1     102.391 110.421  91.441  1.00  0.00     0.211 HD
ENDBRANCH  16  21
BRANCH  17  23
ATOM     23  C   UNL     1      97.039 109.288  91.731  1.00  0.00     0.191 C 
BRANCH  23  24
ATOM     24  O   UNL     1      96.657 110.626  91.907  1.00  0.00    -0.394 OA
ATOM     25  H   UNL     1      96.063 110.857  91.146  1.00  0.00     0.210 HD
ENDBRANCH  23  24
ENDBRANCH  17  23
BRANCH  18  26
ATOM     26  O   UNL     1      99.184 111.035  90.730  1.00  0.00    -0.387 OA
ATOM     27  H   UNL     1      98.603 111.838  90.791  1.00  0.00     0.211 HD
ENDBRANCH  18  26
ENDBRANCH  12  13
ENDBRANCH   7  12
BRANCH   4  28
ATOM     28  O   UNL     1     101.198 102.178  94.425  1.00  0.00    -0.365 OA
ATOM     29  H   UNL     1     100.298 102.039  94.819  1.00  0.00     0.214 HD
ENDBRANCH   4  28
BRANCH   8  30
ATOM     30  C   UNL     1     103.195 106.240  92.690  1.00  0.00     0.249 C 
BRANCH  30  31
ATOM     31  O   UNL     1     104.289 105.558  92.079  1.00  0.00    -0.461 OA
BRANCH  31  32
ATOM     32  C   UNL     1     105.277 104.867  92.792  1.00  0.00     0.338 C 
ATOM     33  O   UNL     1     105.623 105.259  93.940  1.00  0.00    -0.246 OA
BRANCH  32  34
ATOM     34  C   UNL     1     105.929 103.688  92.184  1.00  0.00     0.060 A 
ATOM     35  C   UNL     1     107.305 103.699  91.889  1.00  0.00     0.015 A 
ATOM     36  C   UNL     1     105.180 102.531  91.901  1.00  0.00     0.015 A 
ATOM     37  C   UNL     1     107.915 102.577  91.322  1.00  0.00     0.001 A 
ATOM     38  C   UNL     1     105.796 101.411  91.333  1.00  0.00     0.001 A 
ATOM     39  C   UNL     1     107.162 101.434  91.044  1.00  0.00     0.000 A 
ENDBRANCH  32  34
ENDBRANCH  31  32
ENDBRANCH  30  31
ENDBRANCH   8  30
TORSDOF 12
ENDMDL
MODEL 9
REMARK VINA RESULT:    -4.475      3.698      7.675
REMARK INTER + INTRA:          -8.632
REMARK INTER:                  -7.087
REMARK INTRA:                  -1.545
REMARK UNBOUND:                -1.672
REMARK SMILES C[C@@]12C[C@@]3(O)O[C@@H](O1)[C@]1(COC(=O)c4ccccc4)[C@H]3C[C@@]12O[C@@H]1O[C@@H](CO)[C@H](O)[C@H](O)[C@@H]1O
REMARK SMILES IDX 1 1 2 2 3 3 4 4 20 5 21 6 22 7 9 8 7 9 8 10 6 11 23 12 24 13
REMARK SMILES IDX 33 14 25 15 31 16 26 17 29 18 34 19 32 21 27 23 28 24 30 26
REMARK SMILES IDX 5 28 10 30 11 31 12 32 13 33 14 34 15 35 19 36 16 37 18 38
REMARK SMILES IDX 17 39
REMARK H PARENT 34 20 32 22 28 25 30 27 5 29
REMARK Flexibility Score: inf
ROOT
ATOM      1  C   UNL     1     101.586 103.656  90.004  1.00  0.00     0.046 C 
ATOM      2  C   UNL     1     102.948 103.722  90.688  1.00  0.00     0.104 C 
ATOM      3  C   UNL     1     103.696 102.339  90.620  1.00  0.00     0.104 C 
ATOM      4  C   UNL     1     105.016 102.594  91.433  1.00  0.00     0.175 C 
ATOM      5  C   UNL     1     104.699 103.269  92.810  1.00  0.00     0.070 C 
ATOM      6  C   UNL     1     103.228 103.117  93.222  1.00  0.00     0.050 C 
ATOM      7  C   UNL     1     102.914 104.215  92.182  1.00  0.00     0.115 C 
ATOM      8  C   UNL     1     104.373 104.661  92.292  1.00  0.00     0.096 C 
ATOM      9  C   UNL     1     104.920 104.739  90.878  1.00  0.00     0.267 C 
ATOM     10  O   UNL     1     103.792 104.646  90.025  1.00  0.00    -0.342 OA
ATOM     11  O   UNL     1     105.725 103.582  90.714  1.00  0.00    -0.320 OA
ENDROOT
BRANCH   7  12
ATOM     12  O   UNL     1     102.009 105.259  92.519  1.00  0.00    -0.339 OA
BRANCH  12  13
ATOM     13  C   UNL     1     100.861 104.803  93.227  1.00  0.00     0.282 C 
ATOM     14  C   UNL     1     100.710 105.553  94.570  1.00  0.00     0.202 C 
ATOM     15  O   UNL     1      99.687 104.960  92.444  1.00  0.00    -0.341 OA
ATOM     16  C   UNL     1     100.351 107.036  94.363  1.00  0.00     0.179 C 
ATOM     17  C   UNL     1      99.459 106.315  92.082  1.00  0.00     0.178 C 
ATOM     18  C   UNL     1      99.207 107.187  93.335  1.00  0.00     0.177 C 
BRANCH  14  19
ATOM     19  O   UNL     1     101.882 105.455  95.335  1.00  0.00    -0.385 OA
ATOM     20  H   UNL     1     102.189 106.382  95.512  1.00  0.00     0.211 HD
ENDBRANCH  14  19
BRANCH  16  21
ATOM     21  O   UNL     1     101.483 107.807  94.030  1.00  0.00    -0.387 OA
ATOM     22  H   UNL     1     101.822 108.245  94.849  1.00  0.00     0.211 HD
ENDBRANCH  16  21
BRANCH  17  23
ATOM     23  C   UNL     1      98.237 106.370  91.150  1.00  0.00     0.191 C 
BRANCH  23  24
ATOM     24  O   UNL     1      97.057 106.521  91.893  1.00  0.00    -0.394 OA
ATOM     25  H   UNL     1      96.393 106.952  91.293  1.00  0.00     0.210 HD
ENDBRANCH  23  24
ENDBRANCH  17  23
BRANCH  18  26
ATOM     26  O   UNL     1      99.068 108.534  92.962  1.00  0.00    -0.387 OA
ATOM     27  H   UNL     1      98.487 108.551  92.157  1.00  0.00     0.211 HD
ENDBRANCH  18  26
ENDBRANCH  12  13
ENDBRANCH   7  12
BRANCH   4  28
ATOM     28  O   UNL     1     105.790 101.433  91.569  1.00  0.00    -0.365 OA
ATOM     29  H   UNL     1     106.383 101.578  92.351  1.00  0.00     0.214 HD
ENDBRANCH   4  28
BRANCH   8  30
ATOM     30  C   UNL     1     104.679 105.851  93.228  1.00  0.00     0.249 C 
BRANCH  30  31
ATOM     31  O   UNL     1     105.177 106.962  92.484  1.00  0.00    -0.461 OA
BRANCH  31  32
ATOM     32  C   UNL     1     104.411 108.086  92.147  1.00  0.00     0.338 C 
ATOM     33  O   UNL     1     103.279 107.945  91.610  1.00  0.00    -0.246 OA
BRANCH  32  34
ATOM     34  C   UNL     1     104.946 109.439  92.407  1.00  0.00     0.060 A 
ATOM     35  C   UNL     1     106.013 109.949  91.645  1.00  0.00     0.015 A 
ATOM     36  C   UNL     1     104.383 110.242  93.416  1.00  0.00     0.015 A 
ATOM     37  C   UNL     1     106.506 111.234  91.892  1.00  0.00     0.001 A 
ATOM     38  C   UNL     1     104.880 111.526  93.658  1.00  0.00     0.001 A 
ATOM     39  C   UNL     1     105.941 112.021  92.897  1.00  0.00     0.000 A 
ENDBRANCH  32  34
ENDBRANCH  31  32
ENDBRANCH  30  31
ENDBRANCH   8  30
TORSDOF 12
ENDMDL
