MODEL 1
REMARK VINA RESULT:    -3.584      0.000      0.000
REMARK INTER + INTRA:          -4.153
REMARK INTER:                  -3.898
REMARK INTRA:                  -0.255
REMARK UNBOUND:                -0.255
REMARK SMILES O=C([O-])c1ccccc1O
REMARK SMILES IDX 4 1 9 2 5 3 8 4 6 5 7 6 2 7 1 8 3 9 10 10
REMARK H PARENT 10 11
REMARK Flexibility Score: inf
ROOT
ATOM      1  C   UNL     1     -97.656 149.058 240.164  1.00  0.00     0.039 A 
ATOM      2  C   UNL     1     -97.073 150.068 239.361  1.00  0.00     0.124 A 
ATOM      3  C   UNL     1     -97.074 147.775 240.167  1.00  0.00     0.014 A 
ATOM      4  C   UNL     1     -95.935 149.780 238.590  1.00  0.00     0.047 A 
ATOM      5  C   UNL     1     -95.943 147.502 239.395  1.00  0.00     0.001 A 
ATOM      6  C   UNL     1     -95.375 148.503 238.609  1.00  0.00     0.004 A 
ENDROOT
BRANCH   1   7
ATOM      7  C   UNL     1     -98.859 149.312 240.998  1.00  0.00     0.075 C 
ATOM      8  O   UNL     1     -99.824 148.503 241.008  1.00  0.00    -0.545 OA
ATOM      9  O   UNL     1     -98.937 150.455 241.785  1.00  0.00    -0.545 OA
ENDBRANCH   1   7
BRANCH   2  10
ATOM     10  O   UNL     1     -97.615 151.354 239.326  1.00  0.00    -0.507 OA
ATOM     11  H   UNL     1     -97.212 152.116 239.858  1.00  0.00     0.293 HD
ENDBRANCH   2  10
TORSDOF 2
ENDMDL
MODEL 2
REMARK VINA RESULT:    -3.498      1.111      2.486
REMARK INTER + INTRA:          -4.059
REMARK INTER:                  -3.805
REMARK INTRA:                  -0.254
REMARK UNBOUND:                -0.255
REMARK SMILES O=C([O-])c1ccccc1O
REMARK SMILES IDX 4 1 9 2 5 3 8 4 6 5 7 6 2 7 1 8 3 9 10 10
REMARK H PARENT 10 11
REMARK Flexibility Score: inf
ROOT
ATOM      1  C   UNL     1     -96.917 149.343 239.345  1.00  0.00     0.039 A 
ATOM      2  C   UNL     1     -97.014 147.997 239.771  1.00  0.00     0.124 A 
ATOM      3  C   UNL     1     -95.796 149.736 238.587  1.00  0.00     0.014 A 
ATOM      4  C   UNL     1     -96.004 147.082 239.436  1.00  0.00     0.047 A 
ATOM      5  C   UNL     1     -94.798 148.815 238.260  1.00  0.00     0.001 A 
ATOM      6  C   UNL     1     -94.902 147.490 238.684  1.00  0.00     0.004 A 
ENDROOT
BRANCH   1   7
ATOM      7  C   UNL     1     -97.959 150.350 239.673  1.00  0.00     0.075 C 
ATOM      8  O   UNL     1     -98.392 151.145 238.798  1.00  0.00    -0.545 OA
ATOM      9  O   UNL     1     -98.474 150.429 240.962  1.00  0.00    -0.545 OA
ENDBRANCH   1   7
BRANCH   2  10
ATOM     10  O   UNL     1     -98.106 147.563 240.524  1.00  0.00    -0.507 OA
ATOM     11  H   UNL     1     -98.008 146.863 241.250  1.00  0.00     0.293 HD
ENDBRANCH   2  10
TORSDOF 2
ENDMDL
MODEL 3
REMARK VINA RESULT:    -3.435     13.945     14.994
REMARK INTER + INTRA:          -3.991
REMARK INTER:                  -3.737
REMARK INTRA:                  -0.253
REMARK UNBOUND:                -0.255
REMARK SMILES O=C([O-])c1ccccc1O
REMARK SMILES IDX 4 1 9 2 5 3 8 4 6 5 7 6 2 7 1 8 3 9 10 10
REMARK H PARENT 10 11
REMARK Flexibility Score: inf
ROOT
ATOM      1  C   UNL     1     -93.545 160.730 231.518  1.00  0.00     0.039 A 
ATOM      2  C   UNL     1     -92.425 159.869 231.616  1.00  0.00     0.124 A 
ATOM      3  C   UNL     1     -93.349 162.117 231.672  1.00  0.00     0.014 A 
ATOM      4  C   UNL     1     -91.150 160.403 231.861  1.00  0.00     0.047 A 
ATOM      5  C   UNL     1     -92.075 162.635 231.916  1.00  0.00     0.001 A 
ATOM      6  C   UNL     1     -90.978 161.779 232.010  1.00  0.00     0.004 A 
ENDROOT
BRANCH   1   7
ATOM      7  C   UNL     1     -94.914 160.215 231.260  1.00  0.00     0.075 C 
ATOM      8  O   UNL     1     -95.634 160.710 230.353  1.00  0.00    -0.545 OA
ATOM      9  O   UNL     1     -95.424 159.170 232.023  1.00  0.00    -0.545 OA
ENDBRANCH   1   7
BRANCH   2  10
ATOM     10  O   UNL     1     -92.571 158.489 231.471  1.00  0.00    -0.507 OA
ATOM     11  H   UNL     1     -92.376 158.022 230.593  1.00  0.00     0.293 HD
ENDBRANCH   2  10
TORSDOF 2
ENDMDL
MODEL 4
REMARK VINA RESULT:    -3.403      2.160      3.072
REMARK INTER + INTRA:          -3.956
REMARK INTER:                  -3.724
REMARK INTRA:                  -0.232
REMARK UNBOUND:                -0.255
REMARK SMILES O=C([O-])c1ccccc1O
REMARK SMILES IDX 4 1 9 2 5 3 8 4 6 5 7 6 2 7 1 8 3 9 10 10
REMARK H PARENT 10 11
REMARK Flexibility Score: inf
ROOT
ATOM      1  C   UNL     1     -96.135 149.283 238.008  1.00  0.00     0.039 A 
ATOM      2  C   UNL     1     -96.615 149.196 236.679  1.00  0.00     0.124 A 
ATOM      3  C   UNL     1     -94.790 148.955 238.266  1.00  0.00     0.014 A 
ATOM      4  C   UNL     1     -95.753 148.790 235.649  1.00  0.00     0.047 A 
ATOM      5  C   UNL     1     -93.943 148.552 237.232  1.00  0.00     0.001 A 
ATOM      6  C   UNL     1     -94.424 148.470 235.926  1.00  0.00     0.004 A 
ENDROOT
BRANCH   1   7
ATOM      7  C   UNL     1     -97.007 149.708 239.133  1.00  0.00     0.075 C 
ATOM      8  O   UNL     1     -97.542 150.848 239.146  1.00  0.00    -0.545 OA
ATOM      9  O   UNL     1     -97.248 148.845 240.197  1.00  0.00    -0.545 OA
ENDBRANCH   1   7
BRANCH   2  10
ATOM     10  O   UNL     1     -97.941 149.511 236.376  1.00  0.00    -0.507 OA
ATOM     11  H   UNL     1     -98.291 150.460 236.440  1.00  0.00     0.293 HD
ENDBRANCH   2  10
TORSDOF 2
ENDMDL
MODEL 5
REMARK VINA RESULT:    -3.349      3.917      5.352
REMARK INTER + INTRA:          -3.898
REMARK INTER:                  -3.647
REMARK INTRA:                  -0.250
REMARK UNBOUND:                -0.255
REMARK SMILES O=C([O-])c1ccccc1O
REMARK SMILES IDX 4 1 9 2 5 3 8 4 6 5 7 6 2 7 1 8 3 9 10 10
REMARK H PARENT 10 11
REMARK Flexibility Score: inf
ROOT
ATOM      1  C   UNL     1     -94.408 147.770 237.253  1.00  0.00     0.039 A 
ATOM      2  C   UNL     1     -95.210 148.881 236.895  1.00  0.00     0.124 A 
ATOM      3  C   UNL     1     -94.628 147.149 238.498  1.00  0.00     0.014 A 
ATOM      4  C   UNL     1     -96.202 149.341 237.776  1.00  0.00     0.047 A 
ATOM      5  C   UNL     1     -95.618 147.617 239.365  1.00  0.00     0.001 A 
ATOM      6  C   UNL     1     -96.403 148.711 239.004  1.00  0.00     0.004 A 
ENDROOT
BRANCH   1   7
ATOM      7  C   UNL     1     -93.346 147.245 236.357  1.00  0.00     0.075 C 
ATOM      8  O   UNL     1     -92.233 146.875 236.817  1.00  0.00    -0.545 OA
ATOM      9  O   UNL     1     -93.568 147.153 234.988  1.00  0.00    -0.545 OA
ENDBRANCH   1   7
BRANCH   2  10
ATOM     10  O   UNL     1     -95.028 149.529 235.673  1.00  0.00    -0.507 OA
ATOM     11  H   UNL     1     -95.372 150.468 235.511  1.00  0.00     0.293 HD
ENDBRANCH   2  10
TORSDOF 2
ENDMDL
MODEL 6
REMARK VINA RESULT:    -3.274      1.784      3.420
REMARK INTER + INTRA:          -3.815
REMARK INTER:                  -3.565
REMARK INTRA:                  -0.251
REMARK UNBOUND:                -0.255
REMARK SMILES O=C([O-])c1ccccc1O
REMARK SMILES IDX 4 1 9 2 5 3 8 4 6 5 7 6 2 7 1 8 3 9 10 10
REMARK H PARENT 10 11
REMARK Flexibility Score: inf
ROOT
ATOM      1  C   UNL     1     -97.262 149.004 239.729  1.00  0.00     0.039 A 
ATOM      2  C   UNL     1     -97.927 150.210 240.054  1.00  0.00     0.124 A 
ATOM      3  C   UNL     1     -97.480 147.870 240.536  1.00  0.00     0.014 A 
ATOM      4  C   UNL     1     -98.786 150.258 241.164  1.00  0.00     0.047 A 
ATOM      5  C   UNL     1     -98.337 147.932 241.637  1.00  0.00     0.001 A 
ATOM      6  C   UNL     1     -98.989 149.124 241.950  1.00  0.00     0.004 A 
ENDROOT
BRANCH   1   7
ATOM      7  C   UNL     1     -96.343 148.901 238.566  1.00  0.00     0.075 C 
ATOM      8  O   UNL     1     -96.683 149.327 237.430  1.00  0.00    -0.545 OA
ATOM      9  O   UNL     1     -95.086 148.328 238.715  1.00  0.00    -0.545 OA
ENDBRANCH   1   7
BRANCH   2  10
ATOM     10  O   UNL     1     -97.741 151.359 239.284  1.00  0.00    -0.507 OA
ATOM     11  H   UNL     1     -96.828 151.785 239.174  1.00  0.00     0.293 HD
ENDBRANCH   2  10
TORSDOF 2
ENDMDL
MODEL 7
REMARK VINA RESULT:    -3.196      3.383      4.541
REMARK INTER + INTRA:          -3.731
REMARK INTER:                  -3.478
REMARK INTRA:                  -0.253
REMARK UNBOUND:                -0.255
REMARK SMILES O=C([O-])c1ccccc1O
REMARK SMILES IDX 4 1 9 2 5 3 8 4 6 5 7 6 2 7 1 8 3 9 10 10
REMARK H PARENT 10 11
REMARK Flexibility Score: inf
ROOT
ATOM      1  C   UNL     1     -94.651 148.050 237.127  1.00  0.00     0.039 A 
ATOM      2  C   UNL     1     -95.271 148.364 235.893  1.00  0.00     0.124 A 
ATOM      3  C   UNL     1     -93.459 147.300 237.115  1.00  0.00     0.014 A 
ATOM      4  C   UNL     1     -94.693 147.931 234.689  1.00  0.00     0.047 A 
ATOM      5  C   UNL     1     -92.895 146.875 235.910  1.00  0.00     0.001 A 
ATOM      6  C   UNL     1     -93.511 147.190 234.700  1.00  0.00     0.004 A 
ENDROOT
BRANCH   1   7
ATOM      7  C   UNL     1     -95.223 148.485 238.427  1.00  0.00     0.075 C 
ATOM      8  O   UNL     1     -95.398 147.664 239.367  1.00  0.00    -0.545 OA
ATOM      9  O   UNL     1     -95.574 149.815 238.628  1.00  0.00    -0.545 OA
ENDBRANCH   1   7
BRANCH   2  10
ATOM     10  O   UNL     1     -96.453 149.104 235.856  1.00  0.00    -0.507 OA
ATOM     11  H   UNL     1     -97.328 148.728 236.202  1.00  0.00     0.293 HD
ENDBRANCH   2  10
TORSDOF 2
ENDMDL
MODEL 8
REMARK VINA RESULT:    -2.233      2.772      3.983
REMARK INTER + INTRA:          -2.683
REMARK INTER:                  -2.430
REMARK INTRA:                  -0.253
REMARK UNBOUND:                -0.255
REMARK SMILES O=C([O-])c1ccccc1O
REMARK SMILES IDX 4 1 9 2 5 3 8 4 6 5 7 6 2 7 1 8 3 9 10 10
REMARK H PARENT 10 11
REMARK Flexibility Score: inf
ROOT
ATOM      1  C   UNL     1     -95.439 148.588 237.834  1.00  0.00     0.039 A 
ATOM      2  C   UNL     1     -94.639 147.452 238.105  1.00  0.00     0.124 A 
ATOM      3  C   UNL     1     -95.423 149.136 236.537  1.00  0.00     0.014 A 
ATOM      4  C   UNL     1     -93.850 146.893 237.087  1.00  0.00     0.047 A 
ATOM      5  C   UNL     1     -94.632 148.570 235.533  1.00  0.00     0.001 A 
ATOM      6  C   UNL     1     -93.848 147.451 235.808  1.00  0.00     0.004 A 
ENDROOT
BRANCH   1   7
ATOM      7  C   UNL     1     -96.292 149.216 238.876  1.00  0.00     0.075 C 
ATOM      8  O   UNL     1     -96.347 150.467 239.003  1.00  0.00    -0.545 OA
ATOM      9  O   UNL     1     -97.047 148.424 239.734  1.00  0.00    -0.545 OA
ENDBRANCH   1   7
BRANCH   2  10
ATOM     10  O   UNL     1     -94.623 146.875 239.375  1.00  0.00    -0.507 OA
ATOM     11  H   UNL     1     -95.479 146.648 239.868  1.00  0.00     0.293 HD
ENDBRANCH   2  10
TORSDOF 2
ENDMDL
