MODEL 1
REMARK VINA RESULT:    -3.604      0.000      0.000
REMARK INTER + INTRA:          -5.613
REMARK INTER:                  -5.289
REMARK INTRA:                  -0.325
REMARK UNBOUND:                -0.325
REMARK SMILES O=C([O-])CCCCCCCC(=O)[O-]
REMARK SMILES IDX 7 1 6 2 5 3 4 4 2 5 1 6 3 7 8 8 9 9 10 10 11 11 12 12 13 13
REMARK H PARENT
REMARK Flexibility Score: inf
ROOT
ATOM      1  C   UNL     1      17.385  -4.219  13.076  1.00  0.00     0.000 C 
ENDROOT
BRANCH   1   2
ATOM      2  C   UNL     1      18.897  -4.300  13.335  1.00  0.00     0.000 C 
BRANCH   2   3
ATOM      3  C   UNL     1      19.270  -3.953  14.785  1.00  0.00     0.006 C 
BRANCH   3   4
ATOM      4  C   UNL     1      19.465  -5.200  15.658  1.00  0.00     0.053 C 
BRANCH   4   5
ATOM      5  C   UNL     1      20.890  -5.653  15.609  1.00  0.00     0.041 C 
ATOM      6  O   UNL     1      21.179  -6.785  15.143  1.00  0.00    -0.550 OA
ATOM      7  O   UNL     1      21.894  -4.843  16.125  1.00  0.00    -0.550 OA
ENDBRANCH   4   5
ENDBRANCH   3   4
ENDBRANCH   2   3
ENDBRANCH   1   2
BRANCH   1   8
ATOM      8  C   UNL     1      16.877  -5.492  12.389  1.00  0.00     0.000 C 
BRANCH   8   9
ATOM      9  C   UNL     1      17.745  -5.843  11.170  1.00  0.00     0.006 C 
BRANCH   9  10
ATOM     10  C   UNL     1      16.910  -6.375   9.998  1.00  0.00     0.053 C 
BRANCH  10  11
ATOM     11  C   UNL     1      17.693  -6.389   8.720  1.00  0.00     0.041 C 
ATOM     12  O   UNL     1      18.205  -7.462   8.302  1.00  0.00    -0.550 OA
ATOM     13  O   UNL     1      17.829  -5.225   7.975  1.00  0.00    -0.550 OA
ENDBRANCH  10  11
ENDBRANCH   9  10
ENDBRANCH   8   9
ENDBRANCH   1   8
TORSDOF 8
ENDMDL
MODEL 2
REMARK VINA RESULT:    -3.480     11.657     12.927
REMARK INTER + INTRA:          -5.432
REMARK INTER:                  -4.966
REMARK INTRA:                  -0.466
REMARK UNBOUND:                -0.325
REMARK SMILES O=C([O-])CCCCCCCC(=O)[O-]
REMARK SMILES IDX 7 1 6 2 5 3 4 4 2 5 1 6 3 7 8 8 9 9 10 10 11 11 12 12 13 13
REMARK H PARENT
REMARK Flexibility Score: inf
ROOT
ATOM      1  C   UNL     1      18.619   6.566  12.109  1.00  0.00     0.000 C 
ENDROOT
BRANCH   1   2
ATOM      2  C   UNL     1      19.668   6.041  13.100  1.00  0.00     0.000 C 
BRANCH   2   3
ATOM      3  C   UNL     1      19.126   5.930  14.534  1.00  0.00     0.006 C 
BRANCH   3   4
ATOM      4  C   UNL     1      18.117   4.785  14.697  1.00  0.00     0.053 C 
BRANCH   4   5
ATOM      5  C   UNL     1      18.725   3.661  15.474  1.00  0.00     0.041 C 
ATOM      6  O   UNL     1      18.064   2.613  15.695  1.00  0.00    -0.550 OA
ATOM      7  O   UNL     1      20.005   3.791  15.998  1.00  0.00    -0.550 OA
ENDBRANCH   4   5
ENDBRANCH   3   4
ENDBRANCH   2   3
ENDBRANCH   1   2
BRANCH   1   8
ATOM      8  C   UNL     1      18.002   7.878  12.608  1.00  0.00     0.000 C 
BRANCH   8   9
ATOM      9  C   UNL     1      18.034   8.953  11.511  1.00  0.00     0.006 C 
BRANCH   9  10
ATOM     10  C   UNL     1      19.098  10.025  11.780  1.00  0.00     0.053 C 
BRANCH  10  11
ATOM     11  C   UNL     1      20.470   9.552  11.404  1.00  0.00     0.041 C 
ATOM     12  O   UNL     1      21.357   9.415  12.288  1.00  0.00    -0.550 OA
ATOM     13  O   UNL     1      20.757   9.231  10.084  1.00  0.00    -0.550 OA
ENDBRANCH  10  11
ENDBRANCH   9  10
ENDBRANCH   8   9
ENDBRANCH   1   8
TORSDOF 8
ENDMDL
MODEL 3
REMARK VINA RESULT:    -3.420     13.710     15.476
REMARK INTER + INTRA:          -5.345
REMARK INTER:                  -5.105
REMARK INTRA:                  -0.240
REMARK UNBOUND:                -0.325
REMARK SMILES O=C([O-])CCCCCCCC(=O)[O-]
REMARK SMILES IDX 7 1 6 2 5 3 4 4 2 5 1 6 3 7 8 8 9 9 10 10 11 11 12 12 13 13
REMARK H PARENT
REMARK Flexibility Score: inf
ROOT
ATOM      1  C   UNL     1      20.324   9.476  11.265  1.00  0.00     0.000 C 
ENDROOT
BRANCH   1   2
ATOM      2  C   UNL     1      20.423  10.125   9.877  1.00  0.00     0.000 C 
BRANCH   2   3
ATOM      3  C   UNL     1      21.288   9.311   8.902  1.00  0.00     0.006 C 
BRANCH   3   4
ATOM      4  C   UNL     1      21.669  10.105   7.646  1.00  0.00     0.053 C 
BRANCH   4   5
ATOM      5  C   UNL     1      21.457   9.275   6.419  1.00  0.00     0.041 C 
ATOM      6  O   UNL     1      20.437   9.450   5.704  1.00  0.00    -0.550 OA
ATOM      7  O   UNL     1      22.364   8.274   6.094  1.00  0.00    -0.550 OA
ENDBRANCH   4   5
ENDBRANCH   3   4
ENDBRANCH   2   3
ENDBRANCH   1   2
BRANCH   1   8
ATOM      8  C   UNL     1      18.986   9.811  11.934  1.00  0.00     0.000 C 
BRANCH   8   9
ATOM      9  C   UNL     1      18.791   8.989  13.218  1.00  0.00     0.006 C 
BRANCH   9  10
ATOM     10  C   UNL     1      19.928   7.983  13.440  1.00  0.00     0.053 C 
BRANCH  10  11
ATOM     11  C   UNL     1      19.508   6.586  13.095  1.00  0.00     0.041 C 
ATOM     12  O   UNL     1      18.474   6.088  13.614  1.00  0.00    -0.550 OA
ATOM     13  O   UNL     1      20.241   5.848  12.174  1.00  0.00    -0.550 OA
ENDBRANCH  10  11
ENDBRANCH   9  10
ENDBRANCH   8   9
ENDBRANCH   1   8
TORSDOF 8
ENDMDL
MODEL 4
REMARK VINA RESULT:    -3.411     13.682     14.656
REMARK INTER + INTRA:          -5.331
REMARK INTER:                  -5.043
REMARK INTRA:                  -0.288
REMARK UNBOUND:                -0.325
REMARK SMILES O=C([O-])CCCCCCCC(=O)[O-]
REMARK SMILES IDX 7 1 6 2 5 3 4 4 2 5 1 6 3 7 8 8 9 9 10 10 11 11 12 12 13 13
REMARK H PARENT
REMARK Flexibility Score: inf
ROOT
ATOM      1  C   UNL     1      20.593   9.742  11.760  1.00  0.00     0.000 C 
ENDROOT
BRANCH   1   2
ATOM      2  C   UNL     1      19.428  10.122  12.685  1.00  0.00     0.000 C 
BRANCH   2   3
ATOM      3  C   UNL     1      18.668   8.897  13.215  1.00  0.00     0.006 C 
BRANCH   3   4
ATOM      4  C   UNL     1      19.606   7.767  13.661  1.00  0.00     0.053 C 
BRANCH   4   5
ATOM      5  C   UNL     1      19.344   6.527  12.866  1.00  0.00     0.041 C 
ATOM      6  O   UNL     1      20.225   5.632  12.779  1.00  0.00    -0.550 OA
ATOM      7  O   UNL     1      18.145   6.383  12.179  1.00  0.00    -0.550 OA
ENDBRANCH   4   5
ENDBRANCH   3   4
ENDBRANCH   2   3
ENDBRANCH   1   2
BRANCH   1   8
ATOM      8  C   UNL     1      20.288  10.124  10.306  1.00  0.00     0.000 C 
BRANCH   8   9
ATOM      9  C   UNL     1      21.213   9.375   9.335  1.00  0.00     0.006 C 
BRANCH   9  10
ATOM     10  C   UNL     1      21.389  10.125   8.008  1.00  0.00     0.053 C 
BRANCH  10  11
ATOM     11  C   UNL     1      21.743   9.194   6.887  1.00  0.00     0.041 C 
ATOM     12  O   UNL     1      22.394   8.141   7.119  1.00  0.00    -0.550 OA
ATOM     13  O   UNL     1      21.325   9.475   5.593  1.00  0.00    -0.550 OA
ENDBRANCH  10  11
ENDBRANCH   9  10
ENDBRANCH   8   9
ENDBRANCH   1   8
TORSDOF 8
ENDMDL
MODEL 5
REMARK VINA RESULT:    -3.316     14.152     15.938
REMARK INTER + INTRA:          -5.192
REMARK INTER:                  -5.053
REMARK INTRA:                  -0.138
REMARK UNBOUND:                -0.325
REMARK SMILES O=C([O-])CCCCCCCC(=O)[O-]
REMARK SMILES IDX 7 1 6 2 5 3 4 4 2 5 1 6 3 7 8 8 9 9 10 10 11 11 12 12 13 13
REMARK H PARENT
REMARK Flexibility Score: inf
ROOT
ATOM      1  C   UNL     1      21.066   9.417   9.782  1.00  0.00     0.000 C 
ENDROOT
BRANCH   1   2
ATOM      2  C   UNL     1      20.570  10.124   8.513  1.00  0.00     0.000 C 
BRANCH   2   3
ATOM      3  C   UNL     1      21.613  10.117   7.384  1.00  0.00     0.006 C 
BRANCH   3   4
ATOM      4  C   UNL     1      21.313   9.064   6.310  1.00  0.00     0.053 C 
BRANCH   4   5
ATOM      5  C   UNL     1      22.288   7.933   6.402  1.00  0.00     0.041 C 
ATOM      6  O   UNL     1      23.240   7.982   7.222  1.00  0.00    -0.550 OA
ATOM      7  O   UNL     1      22.172   6.845   5.545  1.00  0.00    -0.550 OA
ENDBRANCH   4   5
ENDBRANCH   3   4
ENDBRANCH   2   3
ENDBRANCH   1   2
BRANCH   1   8
ATOM      8  C   UNL     1      20.405  10.007  11.034  1.00  0.00     0.000 C 
BRANCH   8   9
ATOM      9  C   UNL     1      19.056   9.327  11.315  1.00  0.00     0.006 C 
BRANCH   9  10
ATOM     10  C   UNL     1      18.742   9.260  12.816  1.00  0.00     0.053 C 
BRANCH  10  11
ATOM     11  C   UNL     1      19.813   8.536  13.575  1.00  0.00     0.041 C 
ATOM     12  O   UNL     1      20.504   7.650  13.007  1.00  0.00    -0.550 OA
ATOM     13  O   UNL     1      20.067   8.864  14.900  1.00  0.00    -0.550 OA
ENDBRANCH  10  11
ENDBRANCH   9  10
ENDBRANCH   8   9
ENDBRANCH   1   8
TORSDOF 8
ENDMDL
MODEL 6
REMARK VINA RESULT:    -3.224     17.493     18.691
REMARK INTER + INTRA:          -5.056
REMARK INTER:                  -4.834
REMARK INTRA:                  -0.222
REMARK UNBOUND:                -0.325
REMARK SMILES O=C([O-])CCCCCCCC(=O)[O-]
REMARK SMILES IDX 7 1 6 2 5 3 4 4 2 5 1 6 3 7 8 8 9 9 10 10 11 11 12 12 13 13
REMARK H PARENT
REMARK Flexibility Score: inf
ROOT
ATOM      1  C   UNL     1      36.880  -4.520  13.377  1.00  0.00     0.000 C 
ENDROOT
BRANCH   1   2
ATOM      2  C   UNL     1      37.119  -5.994  13.020  1.00  0.00     0.000 C 
BRANCH   2   3
ATOM      3  C   UNL     1      36.783  -6.311  11.553  1.00  0.00     0.006 C 
BRANCH   3   4
ATOM      4  C   UNL     1      37.007  -7.787  11.202  1.00  0.00     0.053 C 
BRANCH   4   5
ATOM      5  C   UNL     1      35.974  -8.254  10.226  1.00  0.00     0.041 C 
ATOM      6  O   UNL     1      35.702  -9.478  10.127  1.00  0.00    -0.550 OA
ATOM      7  O   UNL     1      35.347  -7.339   9.389  1.00  0.00    -0.550 OA
ENDBRANCH   4   5
ENDBRANCH   3   4
ENDBRANCH   2   3
ENDBRANCH   1   2
BRANCH   1   8
ATOM      8  C   UNL     1      36.761  -4.335  14.895  1.00  0.00     0.000 C 
BRANCH   8   9
ATOM      9  C   UNL     1      37.125  -2.900  15.304  1.00  0.00     0.006 C 
BRANCH   9  10
ATOM     10  C   UNL     1      36.763  -1.878  14.219  1.00  0.00     0.053 C 
BRANCH  10  11
ATOM     11  C   UNL     1      35.966  -0.736  14.775  1.00  0.00     0.041 C 
ATOM     12  O   UNL     1      35.819  -0.612  16.019  1.00  0.00    -0.550 OA
ATOM     13  O   UNL     1      35.415   0.208  13.919  1.00  0.00    -0.550 OA
ENDBRANCH  10  11
ENDBRANCH   9  10
ENDBRANCH   8   9
ENDBRANCH   1   8
TORSDOF 8
ENDMDL
MODEL 7
REMARK VINA RESULT:    -3.077      2.126      2.691
REMARK INTER + INTRA:          -4.841
REMARK INTER:                  -4.598
REMARK INTRA:                  -0.243
REMARK UNBOUND:                -0.325
REMARK SMILES O=C([O-])CCCCCCCC(=O)[O-]
REMARK SMILES IDX 7 1 6 2 5 3 4 4 2 5 1 6 3 7 8 8 9 9 10 10 11 11 12 12 13 13
REMARK H PARENT
REMARK Flexibility Score: inf
ROOT
ATOM      1  C   UNL     1      18.330  -4.795  11.895  1.00  0.00     0.000 C 
ENDROOT
BRANCH   1   2
ATOM      2  C   UNL     1      19.003  -4.636  13.266  1.00  0.00     0.000 C 
BRANCH   2   3
ATOM      3  C   UNL     1      17.989  -4.529  14.415  1.00  0.00     0.006 C 
BRANCH   3   4
ATOM      4  C   UNL     1      17.401  -3.119  14.555  1.00  0.00     0.053 C 
BRANCH   4   5
ATOM      5  C   UNL     1      18.324  -2.245  15.343  1.00  0.00     0.041 C 
ATOM      6  O   UNL     1      19.303  -2.745  15.955  1.00  0.00    -0.550 OA
ATOM      7  O   UNL     1      18.074  -0.881  15.441  1.00  0.00    -0.550 OA
ENDBRANCH   4   5
ENDBRANCH   3   4
ENDBRANCH   2   3
ENDBRANCH   1   2
BRANCH   1   8
ATOM      8  C   UNL     1      17.636  -6.158  11.778  1.00  0.00     0.000 C 
BRANCH   8   9
ATOM      9  C   UNL     1      16.959  -6.315  10.408  1.00  0.00     0.006 C 
BRANCH   9  10
ATOM     10  C   UNL     1      17.967  -6.639   9.297  1.00  0.00     0.053 C 
BRANCH  10  11
ATOM     11  C   UNL     1      17.668  -5.881   8.038  1.00  0.00     0.041 C 
ATOM     12  O   UNL     1      16.902  -6.374   7.169  1.00  0.00    -0.550 OA
ATOM     13  O   UNL     1      18.209  -4.617   7.843  1.00  0.00    -0.550 OA
ENDBRANCH  10  11
ENDBRANCH   9  10
ENDBRANCH   8   9
ENDBRANCH   1   8
TORSDOF 8
ENDMDL
MODEL 8
REMARK VINA RESULT:    -2.970     20.991     22.510
REMARK INTER + INTRA:          -4.683
REMARK INTER:                  -4.256
REMARK INTRA:                  -0.427
REMARK UNBOUND:                -0.325
REMARK SMILES O=C([O-])CCCCCCCC(=O)[O-]
REMARK SMILES IDX 7 1 6 2 5 3 4 4 2 5 1 6 3 7 8 8 9 9 10 10 11 11 12 12 13 13
REMARK H PARENT
REMARK Flexibility Score: inf
ROOT
ATOM      1  C   UNL     1      31.137  -0.125  -2.075  1.00  0.00     0.000 C 
ENDROOT
BRANCH   1   2
ATOM      2  C   UNL     1      30.887   1.080  -2.993  1.00  0.00     0.000 C 
BRANCH   2   3
ATOM      3  C   UNL     1      32.051   2.083  -2.984  1.00  0.00     0.006 C 
BRANCH   3   4
ATOM      4  C   UNL     1      31.878   3.198  -4.024  1.00  0.00     0.053 C 
BRANCH   4   5
ATOM      5  C   UNL     1      32.302   4.514  -3.453  1.00  0.00     0.041 C 
ATOM      6  O   UNL     1      31.583   5.098  -2.602  1.00  0.00    -0.550 OA
ATOM      7  O   UNL     1      33.470   5.121  -3.900  1.00  0.00    -0.550 OA
ENDBRANCH   4   5
ENDBRANCH   3   4
ENDBRANCH   2   3
ENDBRANCH   1   2
BRANCH   1   8
ATOM      8  C   UNL     1      31.134  -1.434  -2.874  1.00  0.00     0.000 C 
BRANCH   8   9
ATOM      9  C   UNL     1      32.019  -1.318  -4.124  1.00  0.00     0.006 C 
BRANCH   9  10
ATOM     10  C   UNL     1      33.357  -2.051  -3.959  1.00  0.00     0.053 C 
BRANCH  10  11
ATOM     11  C   UNL     1      34.493  -1.094  -3.755  1.00  0.00     0.041 C 
ATOM     12  O   UNL     1      34.386   0.105  -4.125  1.00  0.00    -0.550 OA
ATOM     13  O   UNL     1      35.656  -1.521  -3.126  1.00  0.00    -0.550 OA
ENDBRANCH  10  11
ENDBRANCH   9  10
ENDBRANCH   8   9
ENDBRANCH   1   8
TORSDOF 8
ENDMDL
MODEL 9
REMARK VINA RESULT:    -2.849     13.089     14.188
REMARK INTER + INTRA:          -4.505
REMARK INTER:                  -3.859
REMARK INTRA:                  -0.646
REMARK UNBOUND:                -0.325
REMARK SMILES O=C([O-])CCCCCCCC(=O)[O-]
REMARK SMILES IDX 7 1 6 2 5 3 4 4 2 5 1 6 3 7 8 8 9 9 10 10 11 11 12 12 13 13
REMARK H PARENT
REMARK Flexibility Score: inf
ROOT
ATOM      1  C   UNL     1      18.178   6.002  14.050  1.00  0.00     0.000 C 
ENDROOT
BRANCH   1   2
ATOM      2  C   UNL     1      17.364   6.329  15.310  1.00  0.00     0.000 C 
BRANCH   2   3
ATOM      3  C   UNL     1      17.971   7.482  16.125  1.00  0.00     0.006 C 
BRANCH   3   4
ATOM      4  C   UNL     1      19.396   7.834  15.679  1.00  0.00     0.053 C 
BRANCH   4   5
ATOM      5  C   UNL     1      19.528   9.310  15.469  1.00  0.00     0.041 C 
ATOM      6  O   UNL     1      20.574   9.910  15.827  1.00  0.00    -0.550 OA
ATOM      7  O   UNL     1      18.473  10.031  14.923  1.00  0.00    -0.550 OA
ENDBRANCH   4   5
ENDBRANCH   3   4
ENDBRANCH   2   3
ENDBRANCH   1   2
BRANCH   1   8
ATOM      8  C   UNL     1      17.648   6.778  12.838  1.00  0.00     0.000 C 
BRANCH   8   9
ATOM      9  C   UNL     1      18.798   7.205  11.912  1.00  0.00     0.006 C 
BRANCH   9  10
ATOM     10  C   UNL     1      18.913   8.730  11.795  1.00  0.00     0.053 C 
BRANCH  10  11
ATOM     11  C   UNL     1      20.314   9.159  11.480  1.00  0.00     0.041 C 
ATOM     12  O   UNL     1      21.116   9.440  12.409  1.00  0.00    -0.550 OA
ATOM     13  O   UNL     1      20.743   9.214  10.160  1.00  0.00    -0.550 OA
ENDBRANCH  10  11
ENDBRANCH   9  10
ENDBRANCH   8   9
ENDBRANCH   1   8
TORSDOF 8
ENDMDL
