MODEL 1
REMARK VINA RESULT:    -7.613      0.000      0.000
REMARK INTER + INTRA:         -11.664
REMARK INTER:                 -10.506
REMARK INTRA:                  -1.159
REMARK UNBOUND:                -1.159
REMARK SMILES O=C([O-])[C@@H]1O[C@@H](Oc2cc3oc(-c4ccccc4)cc(=O)c3c(O)c2O)[C@H](O)[C@H](O)[C@H]1O
REMARK SMILES IDX 7 1 6 2 4 3 31 4 5 5 29 6 27 7 2 8 1 9 3 10 32 11 30 13
REMARK SMILES IDX 28 15 8 17 25 18 9 19 23 20 10 21 22 22 11 23 20 24 12 25
REMARK SMILES IDX 19 26 21 27 26 28 24 30 13 32 14 33 18 34 15 35 17 36 16 37
REMARK H PARENT 32 12 30 14 28 16 26 29 24 31
REMARK Flexibility Score: inf
ROOT
ATOM      1  O   UNL     1      19.144 -25.788  37.196  1.00  0.00    -0.458 OA
ENDROOT
BRANCH   1   2
ATOM      2  C   UNL     1      19.350 -25.306  35.862  1.00  0.00     0.339 C 
ATOM      3  C   UNL     1      19.559 -23.075  36.568  1.00  0.00     0.199 C 
ATOM      4  C   UNL     1      18.225 -22.651  35.920  1.00  0.00     0.180 C 
ATOM      5  O   UNL     1      20.161 -24.140  35.849  1.00  0.00    -0.328 OA
ATOM      6  C   UNL     1      17.282 -23.862  35.841  1.00  0.00     0.181 C 
ATOM      7  C   UNL     1      18.000 -25.052  35.172  1.00  0.00     0.214 C 
BRANCH   3   8
ATOM      8  C   UNL     1      20.514 -21.916  36.587  1.00  0.00     0.073 C 
ATOM      9  O   UNL     1      20.448 -21.023  35.703  1.00  0.00    -0.547 OA
ATOM     10  O   UNL     1      21.457 -21.808  37.601  1.00  0.00    -0.547 OA
ENDBRANCH   3   8
BRANCH   4  11
ATOM     11  O   UNL     1      17.632 -21.637  36.692  1.00  0.00    -0.387 OA
ATOM     12  H   UNL     1      17.299 -22.067  37.523  1.00  0.00     0.211 HD
ENDBRANCH   4  11
BRANCH   6  13
ATOM     13  O   UNL     1      16.129 -23.516  35.118  1.00  0.00    -0.387 OA
ATOM     14  H   UNL     1      15.375 -24.020  35.524  1.00  0.00     0.211 HD
ENDBRANCH   6  13
BRANCH   7  15
ATOM     15  O   UNL     1      18.227 -24.786  33.810  1.00  0.00    -0.384 OA
ATOM     16  H   UNL     1      17.864 -25.556  33.300  1.00  0.00     0.211 HD
ENDBRANCH   7  15
ENDBRANCH   1   2
BRANCH   1  17
ATOM     17  C   UNL     1      20.051 -26.579  37.920  1.00  0.00     0.172 A 
ATOM     18  C   UNL     1      20.645 -26.023  39.063  1.00  0.00     0.201 A 
ATOM     19  C   UNL     1      20.378 -27.886  37.529  1.00  0.00     0.098 A 
ATOM     20  C   UNL     1      21.573 -26.781  39.825  1.00  0.00     0.176 A 
ATOM     21  C   UNL     1      21.302 -28.635  38.255  1.00  0.00     0.146 A 
ATOM     22  C   UNL     1      21.911 -28.093  39.409  1.00  0.00     0.111 A 
ATOM     23  O   UNL     1      21.601 -29.863  37.844  1.00  0.00    -0.456 OA
ATOM     24  C   UNL     1      22.843 -28.903  40.092  1.00  0.00     0.197 A 
ATOM     25  C   UNL     1      22.471 -30.654  38.467  1.00  0.00     0.138 A 
ATOM     26  C   UNL     1      23.124 -30.185  39.617  1.00  0.00     0.100 A 
ATOM     27  O   UNL     1      23.439 -28.495  41.125  1.00  0.00    -0.289 OA
BRANCH  18  28
ATOM     28  O   UNL     1      20.294 -24.713  39.398  1.00  0.00    -0.502 OA
ATOM     29  H   UNL     1      20.932 -24.026  39.769  1.00  0.00     0.293 HD
ENDBRANCH  18  28
BRANCH  20  30
ATOM     30  O   UNL     1      22.158 -26.261  40.985  1.00  0.00    -0.504 OA
ATOM     31  H   UNL     1      21.813 -25.460  41.493  1.00  0.00     0.293 HD
ENDBRANCH  20  30
BRANCH  25  32
ATOM     32  C   UNL     1      22.735 -32.005  37.907  1.00  0.00     0.017 A 
ATOM     33  C   UNL     1      22.964 -33.122  38.734  1.00  0.00     0.012 A 
ATOM     34  C   UNL     1      22.735 -32.186  36.511  1.00  0.00     0.012 A 
ATOM     35  C   UNL     1      23.211 -34.379  38.175  1.00  0.00     0.001 A 
ATOM     36  C   UNL     1      22.983 -33.445  35.956  1.00  0.00     0.001 A 
ATOM     37  C   UNL     1      23.223 -34.540  36.788  1.00  0.00     0.000 A 
ENDBRANCH  25  32
ENDBRANCH   1  17
TORSDOF 9
ENDMDL
MODEL 2
REMARK VINA RESULT:    -7.202      2.275      3.296
REMARK INTER + INTRA:         -11.097
REMARK INTER:                  -9.905
REMARK INTRA:                  -1.193
REMARK UNBOUND:                -1.159
REMARK SMILES O=C([O-])[C@@H]1O[C@@H](Oc2cc3oc(-c4ccccc4)cc(=O)c3c(O)c2O)[C@H](O)[C@H](O)[C@H]1O
REMARK SMILES IDX 7 1 6 2 4 3 31 4 5 5 29 6 27 7 2 8 1 9 3 10 32 11 30 13
REMARK SMILES IDX 28 15 8 17 25 18 9 19 23 20 10 21 22 22 11 23 20 24 12 25
REMARK SMILES IDX 19 26 21 27 26 28 24 30 13 32 14 33 18 34 15 35 17 36 16 37
REMARK H PARENT 32 12 30 14 28 16 26 29 24 31
REMARK Flexibility Score: inf
ROOT
ATOM      1  O   UNL     1      23.033 -25.707  38.436  1.00  0.00    -0.458 OA
ENDROOT
BRANCH   1   2
ATOM      2  C   UNL     1      22.541 -24.875  37.378  1.00  0.00     0.339 C 
ATOM      3  C   UNL     1      22.312 -23.008  38.785  1.00  0.00     0.199 C 
ATOM      4  C   UNL     1      20.770 -23.040  38.725  1.00  0.00     0.180 C 
ATOM      5  O   UNL     1      22.881 -23.512  37.586  1.00  0.00    -0.328 OA
ATOM      6  C   UNL     1      20.295 -24.477  38.453  1.00  0.00     0.181 C 
ATOM      7  C   UNL     1      21.022 -25.053  37.221  1.00  0.00     0.214 C 
BRANCH   3   8
ATOM      8  C   UNL     1      22.790 -21.598  38.981  1.00  0.00     0.073 C 
ATOM      9  O   UNL     1      22.818 -21.090  40.132  1.00  0.00    -0.547 OA
ATOM     10  O   UNL     1      23.233 -20.856  37.893  1.00  0.00    -0.547 OA
ENDBRANCH   3   8
BRANCH   4  11
ATOM     11  O   UNL     1      20.245 -22.590  39.949  1.00  0.00    -0.387 OA
ATOM     12  H   UNL     1      19.623 -23.294  40.271  1.00  0.00     0.211 HD
ENDBRANCH   4  11
BRANCH   6  13
ATOM     13  O   UNL     1      18.906 -24.483  38.250  1.00  0.00    -0.387 OA
ATOM     14  H   UNL     1      18.568 -23.599  38.554  1.00  0.00     0.211 HD
ENDBRANCH   6  13
BRANCH   7  15
ATOM     15  O   UNL     1      20.604 -24.395  36.051  1.00  0.00    -0.384 OA
ATOM     16  H   UNL     1      19.631 -24.228  36.144  1.00  0.00     0.211 HD
ENDBRANCH   7  15
ENDBRANCH   1   2
BRANCH   1  17
ATOM     17  C   UNL     1      22.792 -27.085  38.562  1.00  0.00     0.172 A 
ATOM     18  C   UNL     1      22.224 -27.549  39.758  1.00  0.00     0.201 A 
ATOM     19  C   UNL     1      23.109 -27.993  37.541  1.00  0.00     0.098 A 
ATOM     20  C   UNL     1      21.966 -28.933  39.935  1.00  0.00     0.176 A 
ATOM     21  C   UNL     1      22.881 -29.358  37.709  1.00  0.00     0.146 A 
ATOM     22  C   UNL     1      22.309 -29.845  38.905  1.00  0.00     0.111 A 
ATOM     23  O   UNL     1      23.212 -30.191  36.727  1.00  0.00    -0.456 OA
ATOM     24  C   UNL     1      22.113 -31.238  39.011  1.00  0.00     0.197 A 
ATOM     25  C   UNL     1      23.036 -31.508  36.792  1.00  0.00     0.138 A 
ATOM     26  C   UNL     1      22.480 -32.070  37.952  1.00  0.00     0.100 A 
ATOM     27  O   UNL     1      21.618 -31.758  40.047  1.00  0.00    -0.289 OA
BRANCH  18  28
ATOM     28  O   UNL     1      21.941 -26.602  40.745  1.00  0.00    -0.502 OA
ATOM     29  H   UNL     1      22.270 -26.652  41.698  1.00  0.00     0.293 HD
ENDBRANCH  18  28
BRANCH  20  30
ATOM     30  O   UNL     1      21.374 -29.419  41.106  1.00  0.00    -0.504 OA
ATOM     31  H   UNL     1      21.006 -28.840  41.847  1.00  0.00     0.293 HD
ENDBRANCH  20  30
BRANCH  25  32
ATOM     32  C   UNL     1      23.455 -32.342  35.636  1.00  0.00     0.017 A 
ATOM     33  C   UNL     1      23.638 -31.795  34.350  1.00  0.00     0.012 A 
ATOM     34  C   UNL     1      23.700 -33.715  35.828  1.00  0.00     0.012 A 
ATOM     35  C   UNL     1      24.032 -32.608  33.284  1.00  0.00     0.001 A 
ATOM     36  C   UNL     1      24.094 -34.524  34.757  1.00  0.00     0.001 A 
ATOM     37  C   UNL     1      24.256 -33.971  33.486  1.00  0.00     0.000 A 
ENDBRANCH  25  32
ENDBRANCH   1  17
TORSDOF 9
ENDMDL
MODEL 3
REMARK VINA RESULT:    -7.187      2.325      4.868
REMARK INTER + INTRA:         -11.077
REMARK INTER:                 -10.338
REMARK INTRA:                  -0.739
REMARK UNBOUND:                -1.159
REMARK SMILES O=C([O-])[C@@H]1O[C@@H](Oc2cc3oc(-c4ccccc4)cc(=O)c3c(O)c2O)[C@H](O)[C@H](O)[C@H]1O
REMARK SMILES IDX 7 1 6 2 4 3 31 4 5 5 29 6 27 7 2 8 1 9 3 10 32 11 30 13
REMARK SMILES IDX 28 15 8 17 25 18 9 19 23 20 10 21 22 22 11 23 20 24 12 25
REMARK SMILES IDX 19 26 21 27 26 28 24 30 13 32 14 33 18 34 15 35 17 36 16 37
REMARK H PARENT 32 12 30 14 28 16 26 29 24 31
REMARK Flexibility Score: inf
ROOT
ATOM      1  O   UNL     1      23.491 -27.239  38.914  1.00  0.00    -0.458 OA
ENDROOT
BRANCH   1   2
ATOM      2  C   UNL     1      22.578 -26.400  39.633  1.00  0.00     0.339 C 
ATOM      3  C   UNL     1      20.986 -26.442  37.906  1.00  0.00     0.199 C 
ATOM      4  C   UNL     1      21.201 -24.956  37.551  1.00  0.00     0.180 C 
ATOM      5  O   UNL     1      21.230 -26.679  39.284  1.00  0.00    -0.328 OA
ATOM      6  C   UNL     1      22.628 -24.535  37.936  1.00  0.00     0.181 C 
ATOM      7  C   UNL     1      22.918 -24.919  39.401  1.00  0.00     0.214 C 
BRANCH   3   8
ATOM      8  C   UNL     1      19.573 -26.845  37.598  1.00  0.00     0.073 C 
ATOM      9  O   UNL     1      19.224 -28.052  37.674  1.00  0.00    -0.547 OA
ATOM     10  O   UNL     1      18.633 -25.881  37.257  1.00  0.00    -0.547 OA
ENDBRANCH   3   8
BRANCH   4  11
ATOM     11  O   UNL     1      21.008 -24.772  36.170  1.00  0.00    -0.387 OA
ATOM     12  H   UNL     1      21.215 -25.640  35.734  1.00  0.00     0.211 HD
ENDBRANCH   4  11
BRANCH   6  13
ATOM     13  O   UNL     1      22.777 -23.151  37.753  1.00  0.00    -0.387 OA
ATOM     14  H   UNL     1      21.863 -22.775  37.653  1.00  0.00     0.211 HD
ENDBRANCH   6  13
BRANCH   7  15
ATOM     15  O   UNL     1      22.150 -24.132  40.278  1.00  0.00    -0.384 OA
ATOM     16  H   UNL     1      22.574 -23.236  40.309  1.00  0.00     0.211 HD
ENDBRANCH   7  15
ENDBRANCH   1   2
BRANCH   1  17
ATOM     17  C   UNL     1      23.361 -28.629  38.756  1.00  0.00     0.172 A 
ATOM     18  C   UNL     1      23.441 -29.434  39.901  1.00  0.00     0.201 A 
ATOM     19  C   UNL     1      23.164 -29.220  37.499  1.00  0.00     0.098 A 
ATOM     20  C   UNL     1      23.321 -30.844  39.792  1.00  0.00     0.176 A 
ATOM     21  C   UNL     1      23.065 -30.605  37.373  1.00  0.00     0.146 A 
ATOM     22  C   UNL     1      23.143 -31.433  38.515  1.00  0.00     0.111 A 
ATOM     23  O   UNL     1      22.898 -31.131  36.164  1.00  0.00    -0.456 OA
ATOM     24  C   UNL     1      23.043 -32.826  38.314  1.00  0.00     0.197 A 
ATOM     25  C   UNL     1      22.795 -32.439  35.941  1.00  0.00     0.138 A 
ATOM     26  C   UNL     1      22.871 -33.328  37.024  1.00  0.00     0.100 A 
ATOM     27  O   UNL     1      23.112 -33.637  39.277  1.00  0.00    -0.289 OA
BRANCH  18  28
ATOM     28  O   UNL     1      23.651 -28.793  41.125  1.00  0.00    -0.502 OA
ATOM     29  H   UNL     1      24.212 -29.163  41.877  1.00  0.00     0.293 HD
ENDBRANCH  18  28
BRANCH  20  30
ATOM     30  O   UNL     1      23.369 -31.668  40.922  1.00  0.00    -0.504 OA
ATOM     31  H   UNL     1      23.292 -31.342  41.874  1.00  0.00     0.293 HD
ENDBRANCH  20  30
BRANCH  25  32
ATOM     32  C   UNL     1      22.623 -32.912  34.543  1.00  0.00     0.017 A 
ATOM     33  C   UNL     1      21.529 -33.713  34.157  1.00  0.00     0.012 A 
ATOM     34  C   UNL     1      23.563 -32.536  33.565  1.00  0.00     0.012 A 
ATOM     35  C   UNL     1      21.398 -34.143  32.834  1.00  0.00     0.001 A 
ATOM     36  C   UNL     1      23.427 -32.969  32.243  1.00  0.00     0.001 A 
ATOM     37  C   UNL     1      22.347 -33.774  31.879  1.00  0.00     0.000 A 
ENDBRANCH  25  32
ENDBRANCH   1  17
TORSDOF 9
ENDMDL
MODEL 4
REMARK VINA RESULT:    -7.068      1.947      8.803
REMARK INTER + INTRA:         -10.913
REMARK INTER:                 -10.526
REMARK INTRA:                  -0.387
REMARK UNBOUND:                -1.159
REMARK SMILES O=C([O-])[C@@H]1O[C@@H](Oc2cc3oc(-c4ccccc4)cc(=O)c3c(O)c2O)[C@H](O)[C@H](O)[C@H]1O
REMARK SMILES IDX 7 1 6 2 4 3 31 4 5 5 29 6 27 7 2 8 1 9 3 10 32 11 30 13
REMARK SMILES IDX 28 15 8 17 25 18 9 19 23 20 10 21 22 22 11 23 20 24 12 25
REMARK SMILES IDX 19 26 21 27 26 28 24 30 13 32 14 33 18 34 15 35 17 36 16 37
REMARK H PARENT 32 12 30 14 28 16 26 29 24 31
REMARK Flexibility Score: inf
ROOT
ATOM      1  O   UNL     1      21.433 -28.597  38.395  1.00  0.00    -0.458 OA
ENDROOT
BRANCH   1   2
ATOM      2  C   UNL     1      22.804 -29.015  38.379  1.00  0.00     0.339 C 
ATOM      3  C   UNL     1      22.284 -31.108  37.448  1.00  0.00     0.199 C 
ATOM      4  C   UNL     1      22.646 -31.872  38.739  1.00  0.00     0.180 C 
ATOM      5  O   UNL     1      23.059 -29.925  37.319  1.00  0.00    -0.328 OA
ATOM      6  C   UNL     1      22.451 -30.952  39.955  1.00  0.00     0.181 C 
ATOM      7  C   UNL     1      23.195 -29.619  39.738  1.00  0.00     0.214 C 
BRANCH   3   8
ATOM      8  C   UNL     1      22.539 -31.974  36.249  1.00  0.00     0.073 C 
ATOM      9  O   UNL     1      21.753 -32.916  35.965  1.00  0.00    -0.547 OA
ATOM     10  O   UNL     1      23.629 -31.721  35.426  1.00  0.00    -0.547 OA
ENDBRANCH   3   8
BRANCH   4  11
ATOM     11  O   UNL     1      21.820 -33.002  38.861  1.00  0.00    -0.387 OA
ATOM     12  H   UNL     1      22.057 -33.441  39.719  1.00  0.00     0.211 HD
ENDBRANCH   4  11
BRANCH   6  13
ATOM     13  O   UNL     1      22.920 -31.594  41.112  1.00  0.00    -0.387 OA
ATOM     14  H   UNL     1      22.615 -32.537  41.060  1.00  0.00     0.211 HD
ENDBRANCH   6  13
BRANCH   7  15
ATOM     15  O   UNL     1      24.586 -29.822  39.764  1.00  0.00    -0.384 OA
ATOM     16  H   UNL     1      25.008 -28.926  39.815  1.00  0.00     0.211 HD
ENDBRANCH   7  15
ENDBRANCH   1   2
BRANCH   1  17
ATOM     17  C   UNL     1      20.993 -27.263  38.423  1.00  0.00     0.172 A 
ATOM     18  C   UNL     1      21.239 -26.511  39.581  1.00  0.00     0.201 A 
ATOM     19  C   UNL     1      20.318 -26.679  37.341  1.00  0.00     0.098 A 
ATOM     20  C   UNL     1      20.808 -25.161  39.659  1.00  0.00     0.176 A 
ATOM     21  C   UNL     1      19.871 -25.361  37.411  1.00  0.00     0.146 A 
ATOM     22  C   UNL     1      20.109 -24.587  38.568  1.00  0.00     0.111 A 
ATOM     23  O   UNL     1      19.218 -24.847  36.373  1.00  0.00    -0.456 OA
ATOM     24  C   UNL     1      19.623 -23.262  38.574  1.00  0.00     0.197 A 
ATOM     25  C   UNL     1      18.751 -23.601  36.344  1.00  0.00     0.138 A 
ATOM     26  C   UNL     1      18.940 -22.771  37.460  1.00  0.00     0.100 A 
ATOM     27  O   UNL     1      19.782 -22.505  39.570  1.00  0.00    -0.289 OA
BRANCH  18  28
ATOM     28  O   UNL     1      21.903 -27.147  40.633  1.00  0.00    -0.502 OA
ATOM     29  H   UNL     1      21.947 -26.797  41.578  1.00  0.00     0.293 HD
ENDBRANCH  18  28
BRANCH  20  30
ATOM     30  O   UNL     1      21.065 -24.380  40.791  1.00  0.00    -0.504 OA
ATOM     31  H   UNL     1      21.891 -24.457  41.367  1.00  0.00     0.293 HD
ENDBRANCH  20  30
BRANCH  25  32
ATOM     32  C   UNL     1      18.025 -23.140  35.133  1.00  0.00     0.017 A 
ATOM     33  C   UNL     1      18.704 -22.739  33.965  1.00  0.00     0.012 A 
ATOM     34  C   UNL     1      16.617 -23.121  35.137  1.00  0.00     0.012 A 
ATOM     35  C   UNL     1      17.990 -22.308  32.843  1.00  0.00     0.001 A 
ATOM     36  C   UNL     1      15.908 -22.689  34.012  1.00  0.00     0.001 A 
ATOM     37  C   UNL     1      16.594 -22.280  32.868  1.00  0.00     0.000 A 
ENDBRANCH  25  32
ENDBRANCH   1  17
TORSDOF 9
ENDMDL
MODEL 5
REMARK VINA RESULT:    -6.635      1.596      3.089
REMARK INTER + INTRA:         -10.315
REMARK INTER:                  -9.290
REMARK INTRA:                  -1.025
REMARK UNBOUND:                -1.159
REMARK SMILES O=C([O-])[C@@H]1O[C@@H](Oc2cc3oc(-c4ccccc4)cc(=O)c3c(O)c2O)[C@H](O)[C@H](O)[C@H]1O
REMARK SMILES IDX 7 1 6 2 4 3 31 4 5 5 29 6 27 7 2 8 1 9 3 10 32 11 30 13
REMARK SMILES IDX 28 15 8 17 25 18 9 19 23 20 10 21 22 22 11 23 20 24 12 25
REMARK SMILES IDX 19 26 21 27 26 28 24 30 13 32 14 33 18 34 15 35 17 36 16 37
REMARK H PARENT 32 12 30 14 28 16 26 29 24 31
REMARK Flexibility Score: inf
ROOT
ATOM      1  O   UNL     1      20.126 -23.708  36.372  1.00  0.00    -0.458 OA
ENDROOT
BRANCH   1   2
ATOM      2  C   UNL     1      18.786 -23.219  36.513  1.00  0.00     0.339 C 
ATOM      3  C   UNL     1      17.880 -24.975  35.241  1.00  0.00     0.199 C 
ATOM      4  C   UNL     1      17.502 -24.048  34.067  1.00  0.00     0.180 C 
ATOM      5  O   UNL     1      17.839 -24.277  36.477  1.00  0.00    -0.328 OA
ATOM      6  C   UNL     1      18.444 -22.834  34.044  1.00  0.00     0.181 C 
ATOM      7  C   UNL     1      18.485 -22.166  35.434  1.00  0.00     0.214 C 
BRANCH   3   8
ATOM      8  C   UNL     1      16.923 -26.128  35.316  1.00  0.00     0.073 C 
ATOM      9  O   UNL     1      16.871 -26.974  34.385  1.00  0.00    -0.547 OA
ATOM     10  O   UNL     1      16.109 -26.286  36.430  1.00  0.00    -0.547 OA
ENDBRANCH   3   8
BRANCH   4  11
ATOM     11  O   UNL     1      17.612 -24.757  32.858  1.00  0.00    -0.387 OA
ATOM     12  H   UNL     1      17.110 -25.606  32.977  1.00  0.00     0.211 HD
ENDBRANCH   4  11
BRANCH   6  13
ATOM     13  O   UNL     1      18.010 -21.918  33.073  1.00  0.00    -0.387 OA
ATOM     14  H   UNL     1      17.132 -22.246  32.743  1.00  0.00     0.211 HD
ENDBRANCH   6  13
BRANCH   7  15
ATOM     15  O   UNL     1      17.252 -21.556  35.723  1.00  0.00    -0.384 OA
ATOM     16  H   UNL     1      17.324 -20.608  35.440  1.00  0.00     0.211 HD
ENDBRANCH   7  15
ENDBRANCH   1   2
BRANCH   1  17
ATOM     17  C   UNL     1      20.791 -24.527  37.299  1.00  0.00     0.172 A 
ATOM     18  C   UNL     1      21.362 -23.920  38.428  1.00  0.00     0.201 A 
ATOM     19  C   UNL     1      20.903 -25.914  37.122  1.00  0.00     0.098 A 
ATOM     20  C   UNL     1      22.049 -24.705  39.390  1.00  0.00     0.176 A 
ATOM     21  C   UNL     1      21.592 -26.696  38.047  1.00  0.00     0.146 A 
ATOM     22  C   UNL     1      22.173 -26.103  39.190  1.00  0.00     0.111 A 
ATOM     23  O   UNL     1      21.693 -28.005  37.836  1.00  0.00    -0.456 OA
ATOM     24  C   UNL     1      22.863 -26.952  40.082  1.00  0.00     0.197 A 
ATOM     25  C   UNL     1      22.331 -28.833  38.659  1.00  0.00     0.138 A 
ATOM     26  C   UNL     1      22.943 -28.318  39.813  1.00  0.00     0.100 A 
ATOM     27  O   UNL     1      23.419 -26.504  41.121  1.00  0.00    -0.289 OA
BRANCH  18  28
ATOM     28  O   UNL     1      21.232 -22.534  38.546  1.00  0.00    -0.502 OA
ATOM     29  H   UNL     1      20.367 -22.027  38.432  1.00  0.00     0.293 HD
ENDBRANCH  18  28
BRANCH  20  30
ATOM     30  O   UNL     1      22.602 -24.128  40.538  1.00  0.00    -0.504 OA
ATOM     31  H   UNL     1      22.912 -24.645  41.348  1.00  0.00     0.293 HD
ENDBRANCH  20  30
BRANCH  25  32
ATOM     32  C   UNL     1      22.391 -30.277  38.313  1.00  0.00     0.017 A 
ATOM     33  C   UNL     1      22.041 -31.279  39.239  1.00  0.00     0.012 A 
ATOM     34  C   UNL     1      22.785 -30.661  37.017  1.00  0.00     0.012 A 
ATOM     35  C   UNL     1      22.109 -32.629  38.882  1.00  0.00     0.001 A 
ATOM     36  C   UNL     1      22.852 -32.012  36.665  1.00  0.00     0.001 A 
ATOM     37  C   UNL     1      22.517 -32.995  37.598  1.00  0.00     0.000 A 
ENDBRANCH  25  32
ENDBRANCH   1  17
TORSDOF 9
ENDMDL
MODEL 6
REMARK VINA RESULT:    -6.589     14.694     17.513
REMARK INTER + INTRA:         -10.251
REMARK INTER:                  -9.206
REMARK INTRA:                  -1.045
REMARK UNBOUND:                -1.159
REMARK SMILES O=C([O-])[C@@H]1O[C@@H](Oc2cc3oc(-c4ccccc4)cc(=O)c3c(O)c2O)[C@H](O)[C@H](O)[C@H]1O
REMARK SMILES IDX 7 1 6 2 4 3 31 4 5 5 29 6 27 7 2 8 1 9 3 10 32 11 30 13
REMARK SMILES IDX 28 15 8 17 25 18 9 19 23 20 10 21 22 22 11 23 20 24 12 25
REMARK SMILES IDX 19 26 21 27 26 28 24 30 13 32 14 33 18 34 15 35 17 36 16 37
REMARK H PARENT 32 12 30 14 28 16 26 29 24 31
REMARK Flexibility Score: inf
ROOT
ATOM      1  O   UNL     1      10.697 -30.149  23.339  1.00  0.00    -0.458 OA
ENDROOT
BRANCH   1   2
ATOM      2  C   UNL     1      11.019 -28.955  22.615  1.00  0.00     0.339 C 
ATOM      3  C   UNL     1      12.338 -28.102  24.362  1.00  0.00     0.199 C 
ATOM      4  C   UNL     1      11.338 -26.971  24.685  1.00  0.00     0.180 C 
ATOM      5  O   UNL     1      12.292 -28.447  22.986  1.00  0.00    -0.328 OA
ATOM      6  C   UNL     1       9.921 -27.403  24.273  1.00  0.00     0.181 C 
ATOM      7  C   UNL     1       9.920 -27.898  22.812  1.00  0.00     0.214 C 
BRANCH   3   8
ATOM      8  C   UNL     1      13.734 -27.664  24.696  1.00  0.00     0.073 C 
ATOM      9  O   UNL     1      14.422 -27.032  23.853  1.00  0.00    -0.547 OA
ATOM     10  O   UNL     1      14.265 -27.930  25.952  1.00  0.00    -0.547 OA
ENDBRANCH   3   8
BRANCH   4  11
ATOM     11  O   UNL     1      11.369 -26.699  26.063  1.00  0.00    -0.387 OA
ATOM     12  H   UNL     1      10.846 -27.416  26.510  1.00  0.00     0.211 HD
ENDBRANCH   4  11
BRANCH   6  13
ATOM     13  O   UNL     1       9.036 -26.324  24.426  1.00  0.00    -0.387 OA
ATOM     14  H   UNL     1       8.167 -26.609  24.039  1.00  0.00     0.211 HD
ENDBRANCH   6  13
BRANCH   7  15
ATOM     15  O   UNL     1      10.152 -26.828  21.930  1.00  0.00    -0.384 OA
ATOM     16  H   UNL     1       9.532 -26.944  21.164  1.00  0.00     0.211 HD
ENDBRANCH   7  15
ENDBRANCH   1   2
BRANCH   1  17
ATOM     17  C   UNL     1      11.038 -31.452  22.944  1.00  0.00     0.172 A 
ATOM     18  C   UNL     1      10.135 -32.153  22.130  1.00  0.00     0.201 A 
ATOM     19  C   UNL     1      12.237 -32.063  23.343  1.00  0.00     0.098 A 
ATOM     20  C   UNL     1      10.432 -33.476  21.709  1.00  0.00     0.176 A 
ATOM     21  C   UNL     1      12.533 -33.368  22.955  1.00  0.00     0.146 A 
ATOM     22  C   UNL     1      11.637 -34.090  22.136  1.00  0.00     0.111 A 
ATOM     23  O   UNL     1      13.669 -33.921  23.368  1.00  0.00    -0.456 OA
ATOM     24  C   UNL     1      11.996 -35.409  21.786  1.00  0.00     0.197 A 
ATOM     25  C   UNL     1      14.040 -35.159  23.053  1.00  0.00     0.138 A 
ATOM     26  C   UNL     1      13.199 -35.944  22.248  1.00  0.00     0.100 A 
ATOM     27  O   UNL     1      11.249 -36.127  21.067  1.00  0.00    -0.289 OA
BRANCH  18  28
ATOM     28  O   UNL     1       8.951 -31.502  21.775  1.00  0.00    -0.502 OA
ATOM     29  H   UNL     1       8.686 -30.582  22.092  1.00  0.00     0.293 HD
ENDBRANCH  18  28
BRANCH  20  30
ATOM     30  O   UNL     1       9.562 -34.186  20.875  1.00  0.00    -0.504 OA
ATOM     31  H   UNL     1       8.860 -33.765  20.285  1.00  0.00     0.293 HD
ENDBRANCH  20  30
BRANCH  25  32
ATOM     32  C   UNL     1      15.328 -35.675  23.584  1.00  0.00     0.017 A 
ATOM     33  C   UNL     1      16.466 -35.822  22.765  1.00  0.00     0.012 A 
ATOM     34  C   UNL     1      15.429 -36.008  24.948  1.00  0.00     0.012 A 
ATOM     35  C   UNL     1      17.662 -36.312  23.296  1.00  0.00     0.001 A 
ATOM     36  C   UNL     1      16.628 -36.498  25.474  1.00  0.00     0.001 A 
ATOM     37  C   UNL     1      17.743 -36.652  24.647  1.00  0.00     0.000 A 
ENDBRANCH  25  32
ENDBRANCH   1  17
TORSDOF 9
ENDMDL
MODEL 7
REMARK VINA RESULT:    -6.575     13.927     16.878
REMARK INTER + INTRA:         -10.231
REMARK INTER:                  -9.204
REMARK INTRA:                  -1.027
REMARK UNBOUND:                -1.159
REMARK SMILES O=C([O-])[C@@H]1O[C@@H](Oc2cc3oc(-c4ccccc4)cc(=O)c3c(O)c2O)[C@H](O)[C@H](O)[C@H]1O
REMARK SMILES IDX 7 1 6 2 4 3 31 4 5 5 29 6 27 7 2 8 1 9 3 10 32 11 30 13
REMARK SMILES IDX 28 15 8 17 25 18 9 19 23 20 10 21 22 22 11 23 20 24 12 25
REMARK SMILES IDX 19 26 21 27 26 28 24 30 13 32 14 33 18 34 15 35 17 36 16 37
REMARK H PARENT 32 12 30 14 28 16 26 29 24 31
REMARK Flexibility Score: inf
ROOT
ATOM      1  O   UNL     1      12.949 -29.304  24.284  1.00  0.00    -0.458 OA
ENDROOT
BRANCH   1   2
ATOM      2  C   UNL     1      12.531 -29.096  25.638  1.00  0.00     0.339 C 
ATOM      3  C   UNL     1      10.435 -28.252  24.993  1.00  0.00     0.199 C 
ATOM      4  C   UNL     1      10.768 -26.820  25.462  1.00  0.00     0.180 C 
ATOM      5  O   UNL     1      11.122 -29.219  25.774  1.00  0.00    -0.328 OA
ATOM      6  C   UNL     1      12.288 -26.597  25.400  1.00  0.00     0.181 C 
ATOM      7  C   UNL     1      13.022 -27.730  26.145  1.00  0.00     0.214 C 
BRANCH   3   8
ATOM      8  C   UNL     1       8.961 -28.505  25.116  1.00  0.00     0.073 C 
ATOM      9  O   UNL     1       8.368 -29.233  24.278  1.00  0.00    -0.547 OA
ATOM     10  O   UNL     1       8.247 -27.959  26.175  1.00  0.00    -0.547 OA
ENDBRANCH   3   8
BRANCH   4  11
ATOM     11  O   UNL     1      10.117 -25.893  24.629  1.00  0.00    -0.387 OA
ATOM     12  H   UNL     1       9.702 -26.412  23.892  1.00  0.00     0.211 HD
ENDBRANCH   4  11
BRANCH   6  13
ATOM     13  O   UNL     1      12.605 -25.352  25.966  1.00  0.00    -0.387 OA
ATOM     14  H   UNL     1      13.374 -25.502  26.576  1.00  0.00     0.211 HD
ENDBRANCH   6  13
BRANCH   7  15
ATOM     15  O   UNL     1      12.784 -27.644  27.528  1.00  0.00    -0.384 OA
ATOM     16  H   UNL     1      13.315 -28.363  27.959  1.00  0.00     0.211 HD
ENDBRANCH   7  15
ENDBRANCH   1   2
BRANCH   1  17
ATOM     17  C   UNL     1      12.964 -30.543  23.622  1.00  0.00     0.172 A 
ATOM     18  C   UNL     1      11.901 -30.844  22.757  1.00  0.00     0.201 A 
ATOM     19  C   UNL     1      13.996 -31.475  23.809  1.00  0.00     0.098 A 
ATOM     20  C   UNL     1      11.869 -32.085  22.071  1.00  0.00     0.176 A 
ATOM     21  C   UNL     1      13.968 -32.707  23.158  1.00  0.00     0.146 A 
ATOM     22  C   UNL     1      12.906 -33.027  22.283  1.00  0.00     0.111 A 
ATOM     23  O   UNL     1      14.954 -33.572  23.373  1.00  0.00    -0.456 OA
ATOM     24  C   UNL     1      12.937 -34.294  21.662  1.00  0.00     0.197 A 
ATOM     25  C   UNL     1      15.015 -34.772  22.801  1.00  0.00     0.138 A 
ATOM     26  C   UNL     1      13.993 -35.168  21.925  1.00  0.00     0.100 A 
ATOM     27  O   UNL     1      12.024 -34.665  20.875  1.00  0.00    -0.289 OA
BRANCH  18  28
ATOM     28  O   UNL     1      10.894 -29.885  22.620  1.00  0.00    -0.502 OA
ATOM     29  H   UNL     1       9.969 -30.072  22.263  1.00  0.00     0.293 HD
ENDBRANCH  18  28
BRANCH  20  30
ATOM     30  O   UNL     1      10.835 -32.398  21.181  1.00  0.00    -0.504 OA
ATOM     31  H   UNL     1       9.876 -32.100  21.288  1.00  0.00     0.293 HD
ENDBRANCH  20  30
BRANCH  25  32
ATOM     32  C   UNL     1      16.160 -35.660  23.129  1.00  0.00     0.017 A 
ATOM     33  C   UNL     1      16.503 -35.974  24.459  1.00  0.00     0.012 A 
ATOM     34  C   UNL     1      16.916 -36.226  22.085  1.00  0.00     0.012 A 
ATOM     35  C   UNL     1      17.587 -36.812  24.733  1.00  0.00     0.001 A 
ATOM     36  C   UNL     1      18.000 -37.064  22.363  1.00  0.00     0.001 A 
ATOM     37  C   UNL     1      18.337 -37.354  23.687  1.00  0.00     0.000 A 
ENDBRANCH  25  32
ENDBRANCH   1  17
TORSDOF 9
ENDMDL
MODEL 8
REMARK VINA RESULT:    -6.524      1.366      2.735
REMARK INTER + INTRA:         -10.161
REMARK INTER:                  -9.287
REMARK INTRA:                  -0.875
REMARK UNBOUND:                -1.159
REMARK SMILES O=C([O-])[C@@H]1O[C@@H](Oc2cc3oc(-c4ccccc4)cc(=O)c3c(O)c2O)[C@H](O)[C@H](O)[C@H]1O
REMARK SMILES IDX 7 1 6 2 4 3 31 4 5 5 29 6 27 7 2 8 1 9 3 10 32 11 30 13
REMARK SMILES IDX 28 15 8 17 25 18 9 19 23 20 10 21 22 22 11 23 20 24 12 25
REMARK SMILES IDX 19 26 21 27 26 28 24 30 13 32 14 33 18 34 15 35 17 36 16 37
REMARK H PARENT 32 12 30 14 28 16 26 29 24 31
REMARK Flexibility Score: inf
ROOT
ATOM      1  O   UNL     1      20.440 -24.922  37.582  1.00  0.00    -0.458 OA
ENDROOT
BRANCH   1   2
ATOM      2  C   UNL     1      19.249 -24.361  38.148  1.00  0.00     0.339 C 
ATOM      3  C   UNL     1      17.906 -25.103  36.369  1.00  0.00     0.199 C 
ATOM      4  C   UNL     1      17.660 -23.674  35.841  1.00  0.00     0.180 C 
ATOM      5  O   UNL     1      18.097 -25.102  37.776  1.00  0.00    -0.328 OA
ATOM      6  C   UNL     1      18.839 -22.769  36.236  1.00  0.00     0.181 C 
ATOM      7  C   UNL     1      19.113 -22.882  37.749  1.00  0.00     0.214 C 
BRANCH   3   8
ATOM      8  C   UNL     1      16.729 -25.979  36.050  1.00  0.00     0.073 C 
ATOM      9  O   UNL     1      16.666 -26.584  34.949  1.00  0.00    -0.547 OA
ATOM     10  O   UNL     1      15.716 -26.150  36.985  1.00  0.00    -0.547 OA
ENDBRANCH   3   8
BRANCH   4  11
ATOM     11  O   UNL     1      17.536 -23.708  34.441  1.00  0.00    -0.387 OA
ATOM     12  H   UNL     1      17.488 -22.765  34.134  1.00  0.00     0.211 HD
ENDBRANCH   4  11
BRANCH   6  13
ATOM     13  O   UNL     1      18.549 -21.440  35.888  1.00  0.00    -0.387 OA
ATOM     14  H   UNL     1      19.122 -21.217  35.107  1.00  0.00     0.211 HD
ENDBRANCH   6  13
BRANCH   7  15
ATOM     15  O   UNL     1      18.061 -22.307  38.484  1.00  0.00    -0.384 OA
ATOM     16  H   UNL     1      18.153 -21.323  38.398  1.00  0.00     0.211 HD
ENDBRANCH   7  15
ENDBRANCH   1   2
BRANCH   1  17
ATOM     17  C   UNL     1      21.253 -25.887  38.199  1.00  0.00     0.172 A 
ATOM     18  C   UNL     1      21.993 -25.504  39.327  1.00  0.00     0.201 A 
ATOM     19  C   UNL     1      21.347 -27.201  37.716  1.00  0.00     0.098 A 
ATOM     20  C   UNL     1      22.834 -26.442  39.981  1.00  0.00     0.176 A 
ATOM     21  C   UNL     1      22.183 -28.128  38.335  1.00  0.00     0.146 A 
ATOM     22  C   UNL     1      22.936 -27.761  39.472  1.00  0.00     0.111 A 
ATOM     23  O   UNL     1      22.260 -29.358  37.838  1.00  0.00    -0.456 OA
ATOM     24  C   UNL     1      23.768 -28.747  40.045  1.00  0.00     0.197 A 
ATOM     25  C   UNL     1      23.030 -30.312  38.356  1.00  0.00     0.138 A 
ATOM     26  C   UNL     1      23.816 -30.023  39.483  1.00  0.00     0.100 A 
ATOM     27  O   UNL     1      24.481 -28.502  41.056  1.00  0.00    -0.289 OA
BRANCH  18  28
ATOM     28  O   UNL     1      21.873 -24.180  39.756  1.00  0.00    -0.502 OA
ATOM     29  H   UNL     1      21.290 -23.876  40.522  1.00  0.00     0.293 HD
ENDBRANCH  18  28
BRANCH  20  30
ATOM     30  O   UNL     1      23.561 -26.094  41.125  1.00  0.00    -0.504 OA
ATOM     31  H   UNL     1      23.970 -26.755  41.768  1.00  0.00     0.293 HD
ENDBRANCH  20  30
BRANCH  25  32
ATOM     32  C   UNL     1      23.045 -31.648  37.706  1.00  0.00     0.017 A 
ATOM     33  C   UNL     1      22.890 -32.837  38.447  1.00  0.00     0.012 A 
ATOM     34  C   UNL     1      23.195 -31.735  36.310  1.00  0.00     0.012 A 
ATOM     35  C   UNL     1      22.910 -34.079  37.804  1.00  0.00     0.001 A 
ATOM     36  C   UNL     1      23.215 -32.979  35.672  1.00  0.00     0.001 A 
ATOM     37  C   UNL     1      23.076 -34.150  36.420  1.00  0.00     0.000 A 
ENDBRANCH  25  32
ENDBRANCH   1  17
TORSDOF 9
ENDMDL
