MODEL 1
REMARK VINA RESULT:    -3.427      0.000      0.000
REMARK INTER + INTRA:          -4.457
REMARK INTER:                  -4.629
REMARK INTRA:                   0.172
REMARK UNBOUND:                 0.172
REMARK SMILES COc1ccc(-c2cc(=O)c3c(OC)c(OC)c(OC)c(OC)c3o2)cc1
REMARK SMILES IDX 7 1 8 2 9 3 10 4 11 5 24 6 25 7 21 8 18 9 15 10 12 11 6 12
REMARK SMILES IDX 3 13 4 14 27 15 5 16 26 17 2 18 1 19 22 20 23 21 13 22 14 23
REMARK SMILES IDX 19 24 20 25 16 26 17 27
REMARK H PARENT
REMARK Flexibility Score: inf
ROOT
ATOM      1  C   UNL     1      47.815 -25.133  13.686  1.00  0.00     0.138 A 
ATOM      2  C   UNL     1      48.525 -25.882  12.737  1.00  0.00     0.100 A 
ATOM      3  C   UNL     1      49.676 -25.345  12.162  1.00  0.00     0.197 A 
ATOM      4  O   UNL     1      50.319 -26.040  11.330  1.00  0.00    -0.289 OA
ATOM      5  C   UNL     1      50.108 -24.053  12.537  1.00  0.00     0.115 A 
ATOM      6  C   UNL     1      49.360 -23.374  13.521  1.00  0.00     0.188 A 
ATOM      7  O   UNL     1      48.268 -23.933  14.037  1.00  0.00    -0.452 OA
ATOM      8  C   UNL     1      49.741 -22.106  13.970  1.00  0.00     0.209 A 
ATOM      9  C   UNL     1      50.903 -21.488  13.443  1.00  0.00     0.211 A 
ATOM     10  C   UNL     1      51.682 -22.176  12.473  1.00  0.00     0.208 A 
ATOM     11  C   UNL     1      51.244 -23.428  11.979  1.00  0.00     0.179 A 
ENDROOT
BRANCH   1  12
ATOM     12  C   UNL     1      46.576 -25.643  14.332  1.00  0.00     0.018 A 
ATOM     13  C   UNL     1      44.192 -26.621  15.492  1.00  0.00     0.118 A 
ATOM     14  C   UNL     1      45.426 -26.854  16.105  1.00  0.00     0.047 A 
ATOM     15  C   UNL     1      44.153 -25.898  14.287  1.00  0.00     0.047 A 
ATOM     16  C   UNL     1      46.608 -26.380  15.530  1.00  0.00     0.016 A 
ATOM     17  C   UNL     1      45.333 -25.417  13.715  1.00  0.00     0.016 A 
BRANCH  13  18
ATOM     18  O   UNL     1      43.036 -27.124  16.107  1.00  0.00    -0.497 OA
ATOM     19  C   UNL     1      42.702 -26.920  17.478  1.00  0.00     0.278 C 
ENDBRANCH  13  18
ENDBRANCH   1  12
BRANCH   8  20
ATOM     20  O   UNL     1      48.914 -21.521  14.952  1.00  0.00    -0.490 OA
ATOM     21  C   UNL     1      48.014 -20.432  14.777  1.00  0.00     0.278 C 
ENDBRANCH   8  20
BRANCH  11  22
ATOM     22  O   UNL     1      51.915 -24.028  10.912  1.00  0.00    -0.492 OA
ATOM     23  C   UNL     1      53.124 -24.750  11.118  1.00  0.00     0.278 C 
ENDBRANCH  11  22
BRANCH   9  24
ATOM     24  O   UNL     1      51.245 -20.205  13.913  1.00  0.00    -0.490 OA
ATOM     25  C   UNL     1      50.797 -18.951  13.410  1.00  0.00     0.279 C 
ENDBRANCH   9  24
BRANCH  10  26
ATOM     26  O   UNL     1      52.882 -21.592  12.031  1.00  0.00    -0.490 OA
ATOM     27  C   UNL     1      53.012 -20.314  11.415  1.00  0.00     0.278 C 
ENDBRANCH  10  26
TORSDOF 6
ENDMDL
MODEL 2
REMARK VINA RESULT:    -3.095      1.776      2.198
REMARK INTER + INTRA:          -4.008
REMARK INTER:                  -3.339
REMARK INTRA:                  -0.670
REMARK UNBOUND:                 0.172
REMARK SMILES COc1ccc(-c2cc(=O)c3c(OC)c(OC)c(OC)c(OC)c3o2)cc1
REMARK SMILES IDX 7 1 8 2 9 3 10 4 11 5 24 6 25 7 21 8 18 9 15 10 12 11 6 12
REMARK SMILES IDX 3 13 4 14 27 15 5 16 26 17 2 18 1 19 22 20 23 21 13 22 14 23
REMARK SMILES IDX 19 24 20 25 16 26 17 27
REMARK H PARENT
REMARK Flexibility Score: inf
ROOT
ATOM      1  C   UNL     1      47.445 -25.868  14.376  1.00  0.00     0.138 A 
ATOM      2  C   UNL     1      48.575 -26.670  14.595  1.00  0.00     0.100 A 
ATOM      3  C   UNL     1      49.794 -26.304  14.027  1.00  0.00     0.197 A 
ATOM      4  O   UNL     1      50.807 -27.020  14.255  1.00  0.00    -0.289 OA
ATOM      5  C   UNL     1      49.876 -25.138  13.235  1.00  0.00     0.115 A 
ATOM      6  C   UNL     1      48.705 -24.366  13.086  1.00  0.00     0.188 A 
ATOM      7  O   UNL     1      47.566 -24.761  13.649  1.00  0.00    -0.452 OA
ATOM      8  C   UNL     1      48.711 -23.180  12.345  1.00  0.00     0.209 A 
ATOM      9  C   UNL     1      49.912 -22.731  11.738  1.00  0.00     0.211 A 
ATOM     10  C   UNL     1      51.105 -23.484  11.907  1.00  0.00     0.208 A 
ATOM     11  C   UNL     1      51.065 -24.717  12.602  1.00  0.00     0.179 A 
ENDROOT
BRANCH   1  12
ATOM     12  C   UNL     1      46.113 -26.204  14.945  1.00  0.00     0.018 A 
ATOM     13  C   UNL     1      43.608 -26.830  16.094  1.00  0.00     0.118 A 
ATOM     14  C   UNL     1      43.681 -26.253  14.823  1.00  0.00     0.047 A 
ATOM     15  C   UNL     1      44.798 -27.089  16.796  1.00  0.00     0.047 A 
ATOM     16  C   UNL     1      44.917 -25.934  14.255  1.00  0.00     0.016 A 
ATOM     17  C   UNL     1      46.035 -26.778  16.227  1.00  0.00     0.016 A 
BRANCH  13  18
ATOM     18  O   UNL     1      42.342 -27.124  16.621  1.00  0.00    -0.497 OA
ATOM     19  C   UNL     1      42.017 -27.064  18.008  1.00  0.00     0.278 C 
ENDBRANCH  13  18
ENDBRANCH   1  12
BRANCH   8  20
ATOM     20  O   UNL     1      47.481 -22.494  12.260  1.00  0.00    -0.490 OA
ATOM     21  C   UNL     1      46.492 -22.632  11.246  1.00  0.00     0.278 C 
ENDBRANCH   8  20
BRANCH  11  22
ATOM     22  O   UNL     1      52.195 -25.537  12.628  1.00  0.00    -0.492 OA
ATOM     23  C   UNL     1      52.574 -26.301  11.488  1.00  0.00     0.278 C 
ENDBRANCH  11  22
BRANCH   9  24
ATOM     24  O   UNL     1      49.872 -21.539  10.990  1.00  0.00    -0.490 OA
ATOM     25  C   UNL     1      49.959 -20.205  11.481  1.00  0.00     0.279 C 
ENDBRANCH   9  24
BRANCH  10  26
ATOM     26  O   UNL     1      52.306 -22.977  11.381  1.00  0.00    -0.490 OA
ATOM     27  C   UNL     1      53.123 -21.975  11.981  1.00  0.00     0.278 C 
ENDBRANCH  10  26
TORSDOF 6
ENDMDL
MODEL 3
REMARK VINA RESULT:    -2.872      1.353      1.775
REMARK INTER + INTRA:          -3.708
REMARK INTER:                  -3.746
REMARK INTRA:                   0.038
REMARK UNBOUND:                 0.172
REMARK SMILES COc1ccc(-c2cc(=O)c3c(OC)c(OC)c(OC)c(OC)c3o2)cc1
REMARK SMILES IDX 7 1 8 2 9 3 10 4 11 5 24 6 25 7 21 8 18 9 15 10 12 11 6 12
REMARK SMILES IDX 3 13 4 14 27 15 5 16 26 17 2 18 1 19 22 20 23 21 13 22 14 23
REMARK SMILES IDX 19 24 20 25 16 26 17 27
REMARK H PARENT
REMARK Flexibility Score: inf
ROOT
ATOM      1  C   UNL     1      46.690 -25.497  14.469  1.00  0.00     0.138 A 
ATOM      2  C   UNL     1      47.058 -26.442  13.499  1.00  0.00     0.100 A 
ATOM      3  C   UNL     1      48.141 -26.178  12.662  1.00  0.00     0.197 A 
ATOM      4  O   UNL     1      48.476 -27.047  11.813  1.00  0.00    -0.289 OA
ATOM      5  C   UNL     1      48.850 -24.964  12.797  1.00  0.00     0.115 A 
ATOM      6  C   UNL     1      48.441 -24.078  13.815  1.00  0.00     0.188 A 
ATOM      7  O   UNL     1      47.399 -24.378  14.586  1.00  0.00    -0.452 OA
ATOM      8  C   UNL     1      49.112 -22.871  14.035  1.00  0.00     0.209 A 
ATOM      9  C   UNL     1      50.230 -22.527  13.233  1.00  0.00     0.211 A 
ATOM     10  C   UNL     1      50.670 -23.426  12.224  1.00  0.00     0.208 A 
ATOM     11  C   UNL     1      49.938 -24.610  11.970  1.00  0.00     0.179 A 
ENDROOT
BRANCH   1  12
ATOM     12  C   UNL     1      45.540 -25.712  15.387  1.00  0.00     0.018 A 
ATOM     13  C   UNL     1      43.334 -26.050  17.121  1.00  0.00     0.118 A 
ATOM     14  C   UNL     1      43.816 -27.125  16.368  1.00  0.00     0.047 A 
ATOM     15  C   UNL     1      43.958 -24.797  16.999  1.00  0.00     0.047 A 
ATOM     16  C   UNL     1      44.901 -26.960  15.503  1.00  0.00     0.016 A 
ATOM     17  C   UNL     1      45.048 -24.631  16.140  1.00  0.00     0.016 A 
BRANCH  13  18
ATOM     18  O   UNL     1      42.238 -26.268  17.968  1.00  0.00    -0.497 OA
ATOM     19  C   UNL     1      40.890 -26.392  17.521  1.00  0.00     0.278 C 
ENDBRANCH  13  18
ENDBRANCH   1  12
BRANCH   8  20
ATOM     20  O   UNL     1      48.611 -22.063  15.078  1.00  0.00    -0.490 OA
ATOM     21  C   UNL     1      48.046 -20.762  14.957  1.00  0.00     0.278 C 
ENDBRANCH   8  20
BRANCH  11  22
ATOM     22  O   UNL     1      50.268 -25.411  10.875  1.00  0.00    -0.492 OA
ATOM     23  C   UNL     1      51.425 -26.239  10.894  1.00  0.00     0.278 C 
ENDBRANCH  11  22
BRANCH   9  24
ATOM     24  O   UNL     1      50.870 -21.296  13.479  1.00  0.00    -0.490 OA
ATOM     25  C   UNL     1      50.645 -20.057  12.816  1.00  0.00     0.279 C 
ENDBRANCH   9  24
BRANCH  10  26
ATOM     26  O   UNL     1      51.836 -23.115  11.503  1.00  0.00    -0.490 OA
ATOM     27  C   UNL     1      53.070 -22.672  12.061  1.00  0.00     0.278 C 
ENDBRANCH  10  26
TORSDOF 6
ENDMDL
MODEL 4
REMARK VINA RESULT:    -2.660      2.388      3.340
REMARK INTER + INTRA:          -3.420
REMARK INTER:                  -2.862
REMARK INTRA:                  -0.559
REMARK UNBOUND:                 0.172
REMARK SMILES COc1ccc(-c2cc(=O)c3c(OC)c(OC)c(OC)c(OC)c3o2)cc1
REMARK SMILES IDX 7 1 8 2 9 3 10 4 11 5 24 6 25 7 21 8 18 9 15 10 12 11 6 12
REMARK SMILES IDX 3 13 4 14 27 15 5 16 26 17 2 18 1 19 22 20 23 21 13 22 14 23
REMARK SMILES IDX 19 24 20 25 16 26 17 27
REMARK H PARENT
REMARK Flexibility Score: inf
ROOT
ATOM      1  C   UNL     1      46.365 -25.308  14.525  1.00  0.00     0.138 A 
ATOM      2  C   UNL     1      46.190 -24.869  13.204  1.00  0.00     0.100 A 
ATOM      3  C   UNL     1      47.308 -24.566  12.430  1.00  0.00     0.197 A 
ATOM      4  O   UNL     1      47.137 -24.198  11.236  1.00  0.00    -0.289 OA
ATOM      5  C   UNL     1      48.600 -24.698  12.984  1.00  0.00     0.115 A 
ATOM      6  C   UNL     1      48.697 -25.175  14.308  1.00  0.00     0.188 A 
ATOM      7  O   UNL     1      47.597 -25.449  15.004  1.00  0.00    -0.452 OA
ATOM      8  C   UNL     1      49.942 -25.365  14.917  1.00  0.00     0.209 A 
ATOM      9  C   UNL     1      51.132 -25.086  14.198  1.00  0.00     0.211 A 
ATOM     10  C   UNL     1      51.047 -24.635  12.853  1.00  0.00     0.208 A 
ATOM     11  C   UNL     1      49.780 -24.382  12.276  1.00  0.00     0.179 A 
ENDROOT
BRANCH   1  12
ATOM     12  C   UNL     1      45.215 -25.641  15.408  1.00  0.00     0.018 A 
ATOM     13  C   UNL     1      43.014 -26.202  17.089  1.00  0.00     0.118 A 
ATOM     14  C   UNL     1      43.421 -27.125  16.122  1.00  0.00     0.047 A 
ATOM     15  C   UNL     1      43.711 -24.987  17.210  1.00  0.00     0.047 A 
ATOM     16  C   UNL     1      44.503 -26.848  15.283  1.00  0.00     0.016 A 
ATOM     17  C   UNL     1      44.798 -24.711  16.377  1.00  0.00     0.016 A 
BRANCH  13  18
ATOM     18  O   UNL     1      41.917 -26.525  17.901  1.00  0.00    -0.497 OA
ATOM     19  C   UNL     1      41.148 -25.571  18.630  1.00  0.00     0.278 C 
ENDBRANCH  13  18
ENDBRANCH   1  12
BRANCH   8  20
ATOM     20  O   UNL     1      49.917 -25.841  16.245  1.00  0.00    -0.490 OA
ATOM     21  C   UNL     1      50.385 -27.101  16.713  1.00  0.00     0.278 C 
ENDBRANCH   8  20
BRANCH  11  22
ATOM     22  O   UNL     1      49.696 -23.784  11.017  1.00  0.00    -0.492 OA
ATOM     23  C   UNL     1      49.711 -22.367  10.875  1.00  0.00     0.278 C 
ENDBRANCH  11  22
BRANCH   9  24
ATOM     24  O   UNL     1      52.364 -25.279  14.853  1.00  0.00    -0.490 OA
ATOM     25  C   UNL     1      53.078 -24.338  15.649  1.00  0.00     0.279 C 
ENDBRANCH   9  24
BRANCH  10  26
ATOM     26  O   UNL     1      52.235 -24.455  12.123  1.00  0.00    -0.490 OA
ATOM     27  C   UNL     1      53.005 -23.258  12.062  1.00  0.00     0.278 C 
ENDBRANCH  10  26
TORSDOF 6
ENDMDL
MODEL 5
REMARK VINA RESULT:    -2.236      2.778      7.645
REMARK INTER + INTRA:          -2.849
REMARK INTER:                  -3.522
REMARK INTRA:                   0.674
REMARK UNBOUND:                 0.172
REMARK SMILES COc1ccc(-c2cc(=O)c3c(OC)c(OC)c(OC)c(OC)c3o2)cc1
REMARK SMILES IDX 7 1 8 2 9 3 10 4 11 5 24 6 25 7 21 8 18 9 15 10 12 11 6 12
REMARK SMILES IDX 3 13 4 14 27 15 5 16 26 17 2 18 1 19 22 20 23 21 13 22 14 23
REMARK SMILES IDX 19 24 20 25 16 26 17 27
REMARK H PARENT
REMARK Flexibility Score: inf
ROOT
ATOM      1  C   UNL     1      49.007 -21.250  13.130  1.00  0.00     0.138 A 
ATOM      2  C   UNL     1      48.040 -21.140  12.120  1.00  0.00     0.100 A 
ATOM      3  C   UNL     1      47.288 -22.259  11.767  1.00  0.00     0.197 A 
ATOM      4  O   UNL     1      46.404 -22.139  10.876  1.00  0.00    -0.289 OA
ATOM      5  C   UNL     1      47.513 -23.489  12.424  1.00  0.00     0.115 A 
ATOM      6  C   UNL     1      48.479 -23.514  13.451  1.00  0.00     0.188 A 
ATOM      7  O   UNL     1      49.171 -22.416  13.748  1.00  0.00    -0.452 OA
ATOM      8  C   UNL     1      48.737 -24.684  14.172  1.00  0.00     0.209 A 
ATOM      9  C   UNL     1      48.011 -25.868  13.883  1.00  0.00     0.211 A 
ATOM     10  C   UNL     1      47.013 -25.847  12.871  1.00  0.00     0.208 A 
ATOM     11  C   UNL     1      46.814 -24.673  12.104  1.00  0.00     0.179 A 
ENDROOT
BRANCH   1  12
ATOM     12  C   UNL     1      49.849 -20.098  13.549  1.00  0.00     0.018 A 
ATOM     13  C   UNL     1      51.483 -17.911  14.281  1.00  0.00     0.118 A 
ATOM     14  C   UNL     1      50.177 -18.016  14.769  1.00  0.00     0.047 A 
ATOM     15  C   UNL     1      51.970 -18.906  13.415  1.00  0.00     0.047 A 
ATOM     16  C   UNL     1      49.363 -19.091  14.403  1.00  0.00     0.016 A 
ATOM     17  C   UNL     1      51.160 -19.986  13.054  1.00  0.00     0.016 A 
BRANCH  13  18
ATOM     18  O   UNL     1      52.256 -16.809  14.673  1.00  0.00    -0.497 OA
ATOM     19  C   UNL     1      51.720 -15.608  15.225  1.00  0.00     0.278 C 
ENDBRANCH  13  18
ENDBRANCH   1  12
BRANCH   8  20
ATOM     20  O   UNL     1      49.728 -24.592  15.172  1.00  0.00    -0.490 OA
ATOM     21  C   UNL     1      51.139 -24.605  14.983  1.00  0.00     0.278 C 
ENDBRANCH   8  20
BRANCH  11  22
ATOM     22  O   UNL     1      45.954 -24.699  11.005  1.00  0.00    -0.492 OA
ATOM     23  C   UNL     1      44.571 -24.395  11.148  1.00  0.00     0.278 C 
ENDBRANCH  11  22
BRANCH   9  24
ATOM     24  O   UNL     1      48.310 -27.028  14.623  1.00  0.00    -0.490 OA
ATOM     25  C   UNL     1      48.652 -27.110  16.003  1.00  0.00     0.279 C 
ENDBRANCH   9  24
BRANCH  10  26
ATOM     26  O   UNL     1      46.238 -27.000  12.662  1.00  0.00    -0.490 OA
ATOM     27  C   UNL     1      44.841 -27.125  12.914  1.00  0.00     0.278 C 
ENDBRANCH  10  26
TORSDOF 6
ENDMDL
MODEL 6
REMARK VINA RESULT:    -2.132      2.833      7.531
REMARK INTER + INTRA:          -2.707
REMARK INTER:                  -3.919
REMARK INTRA:                   1.212
REMARK UNBOUND:                 0.172
REMARK SMILES COc1ccc(-c2cc(=O)c3c(OC)c(OC)c(OC)c(OC)c3o2)cc1
REMARK SMILES IDX 7 1 8 2 9 3 10 4 11 5 24 6 25 7 21 8 18 9 15 10 12 11 6 12
REMARK SMILES IDX 3 13 4 14 27 15 5 16 26 17 2 18 1 19 22 20 23 21 13 22 14 23
REMARK SMILES IDX 19 24 20 25 16 26 17 27
REMARK H PARENT
REMARK Flexibility Score: inf
ROOT
ATOM      1  C   UNL     1      49.413 -21.866  14.047  1.00  0.00     0.138 A 
ATOM      2  C   UNL     1      49.851 -22.942  14.833  1.00  0.00     0.100 A 
ATOM      3  C   UNL     1      49.234 -24.184  14.699  1.00  0.00     0.197 A 
ATOM      4  O   UNL     1      49.656 -25.148  15.392  1.00  0.00    -0.289 OA
ATOM      5  C   UNL     1      48.174 -24.343  13.779  1.00  0.00     0.115 A 
ATOM      6  C   UNL     1      47.810 -23.224  13.001  1.00  0.00     0.188 A 
ATOM      7  O   UNL     1      48.432 -22.060  13.170  1.00  0.00    -0.452 OA
ATOM      8  C   UNL     1      46.793 -23.308  12.045  1.00  0.00     0.209 A 
ATOM      9  C   UNL     1      46.117 -24.538  11.839  1.00  0.00     0.211 A 
ATOM     10  C   UNL     1      46.495 -25.680  12.595  1.00  0.00     0.208 A 
ATOM     11  C   UNL     1      47.479 -25.559  13.606  1.00  0.00     0.179 A 
ENDROOT
BRANCH   1  12
ATOM     12  C   UNL     1      50.022 -20.513  14.146  1.00  0.00     0.018 A 
ATOM     13  C   UNL     1      51.213 -17.953  14.272  1.00  0.00     0.118 A 
ATOM     14  C   UNL     1      49.950 -18.175  14.826  1.00  0.00     0.047 A 
ATOM     15  C   UNL     1      51.880 -19.019  13.644  1.00  0.00     0.047 A 
ATOM     16  C   UNL     1      49.354 -19.437  14.759  1.00  0.00     0.016 A 
ATOM     17  C   UNL     1      51.290 -20.284  13.582  1.00  0.00     0.016 A 
BRANCH  13  18
ATOM     18  O   UNL     1      51.764 -16.666  14.360  1.00  0.00    -0.497 OA
ATOM     19  C   UNL     1      51.095 -15.544  14.932  1.00  0.00     0.278 C 
ENDBRANCH  13  18
ENDBRANCH   1  12
BRANCH   8  20
ATOM     20  O   UNL     1      46.512 -22.125  11.331  1.00  0.00    -0.490 OA
ATOM     21  C   UNL     1      47.447 -21.141  10.902  1.00  0.00     0.278 C 
ENDBRANCH   8  20
BRANCH  11  22
ATOM     22  O   UNL     1      47.735 -26.634  14.459  1.00  0.00    -0.492 OA
ATOM     23  C   UNL     1      46.822 -26.984  15.494  1.00  0.00     0.278 C 
ENDBRANCH  11  22
BRANCH   9  24
ATOM     24  O   UNL     1      45.090 -24.577  10.876  1.00  0.00    -0.490 OA
ATOM     25  C   UNL     1      43.788 -24.011  10.975  1.00  0.00     0.279 C 
ENDBRANCH   9  24
BRANCH  10  26
ATOM     26  O   UNL     1      45.882 -26.913  12.311  1.00  0.00    -0.490 OA
ATOM     27  C   UNL     1      44.795 -27.118  11.413  1.00  0.00     0.278 C 
ENDBRANCH  10  26
TORSDOF 6
ENDMDL
MODEL 7
REMARK VINA RESULT:    -1.413      2.749      3.647
REMARK INTER + INTRA:          -1.737
REMARK INTER:                  -2.111
REMARK INTRA:                   0.374
REMARK UNBOUND:                 0.172
REMARK SMILES COc1ccc(-c2cc(=O)c3c(OC)c(OC)c(OC)c(OC)c3o2)cc1
REMARK SMILES IDX 7 1 8 2 9 3 10 4 11 5 24 6 25 7 21 8 18 9 15 10 12 11 6 12
REMARK SMILES IDX 3 13 4 14 27 15 5 16 26 17 2 18 1 19 22 20 23 21 13 22 14 23
REMARK SMILES IDX 19 24 20 25 16 26 17 27
REMARK H PARENT
REMARK Flexibility Score: inf
ROOT
ATOM      1  C   UNL     1      48.842 -23.264  11.875  1.00  0.00     0.138 A 
ATOM      2  C   UNL     1      50.089 -23.373  11.242  1.00  0.00     0.100 A 
ATOM      3  C   UNL     1      51.063 -22.404  11.476  1.00  0.00     0.197 A 
ATOM      4  O   UNL     1      52.188 -22.529  10.922  1.00  0.00    -0.289 OA
ATOM      5  C   UNL     1      50.781 -21.323  12.341  1.00  0.00     0.115 A 
ATOM      6  C   UNL     1      49.517 -21.299  12.965  1.00  0.00     0.188 A 
ATOM      7  O   UNL     1      48.622 -22.250  12.706  1.00  0.00    -0.452 OA
ATOM      8  C   UNL     1      49.173 -20.282  13.861  1.00  0.00     0.209 A 
ATOM      9  C   UNL     1      50.107 -19.258  14.162  1.00  0.00     0.211 A 
ATOM     10  C   UNL     1      51.396 -19.289  13.563  1.00  0.00     0.208 A 
ATOM     11  C   UNL     1      51.702 -20.287  12.606  1.00  0.00     0.179 A 
ENDROOT
BRANCH   1  12
ATOM     12  C   UNL     1      47.756 -24.258  11.662  1.00  0.00     0.018 A 
ATOM     13  C   UNL     1      45.734 -26.198  11.292  1.00  0.00     0.118 A 
ATOM     14  C   UNL     1      45.403 -24.851  11.462  1.00  0.00     0.047 A 
ATOM     15  C   UNL     1      47.088 -26.575  11.315  1.00  0.00     0.047 A 
ATOM     16  C   UNL     1      46.398 -23.890  11.654  1.00  0.00     0.016 A 
ATOM     17  C   UNL     1      48.086 -25.616  11.499  1.00  0.00     0.016 A 
BRANCH  13  18
ATOM     18  O   UNL     1      44.696 -27.123  11.111  1.00  0.00    -0.497 OA
ATOM     19  C   UNL     1      43.471 -27.108  11.840  1.00  0.00     0.278 C 
ENDBRANCH  13  18
ENDBRANCH   1  12
BRANCH   8  20
ATOM     20  O   UNL     1      47.880 -20.357  14.420  1.00  0.00    -0.490 OA
ATOM     21  C   UNL     1      47.470 -21.152  15.527  1.00  0.00     0.278 C 
ENDBRANCH   8  20
BRANCH  11  22
ATOM     22  O   UNL     1      52.902 -20.225  11.896  1.00  0.00    -0.492 OA
ATOM     23  C   UNL     1      53.101 -19.253  10.875  1.00  0.00     0.278 C 
ENDBRANCH  11  22
BRANCH   9  24
ATOM     24  O   UNL     1      49.717 -18.245  15.059  1.00  0.00    -0.490 OA
ATOM     25  C   UNL     1      50.271 -16.939  15.184  1.00  0.00     0.279 C 
ENDBRANCH   9  24
BRANCH  10  26
ATOM     26  O   UNL     1      52.343 -18.323  13.944  1.00  0.00    -0.490 OA
ATOM     27  C   UNL     1      53.119 -18.340  15.139  1.00  0.00     0.278 C 
ENDBRANCH  10  26
TORSDOF 6
ENDMDL
MODEL 8
REMARK VINA RESULT:    -0.934      3.543      5.229
REMARK INTER + INTRA:          -1.090
REMARK INTER:                  -0.779
REMARK INTRA:                  -0.311
REMARK UNBOUND:                 0.172
REMARK SMILES COc1ccc(-c2cc(=O)c3c(OC)c(OC)c(OC)c(OC)c3o2)cc1
REMARK SMILES IDX 7 1 8 2 9 3 10 4 11 5 24 6 25 7 21 8 18 9 15 10 12 11 6 12
REMARK SMILES IDX 3 13 4 14 27 15 5 16 26 17 2 18 1 19 22 20 23 21 13 22 14 23
REMARK SMILES IDX 19 24 20 25 16 26 17 27
REMARK H PARENT
REMARK Flexibility Score: inf
ROOT
ATOM      1  C   UNL     1      46.250 -22.601  11.304  1.00  0.00     0.138 A 
ATOM      2  C   UNL     1      47.099 -21.518  11.033  1.00  0.00     0.100 A 
ATOM      3  C   UNL     1      48.477 -21.675  11.177  1.00  0.00     0.197 A 
ATOM      4  O   UNL     1      49.229 -20.701  10.905  1.00  0.00    -0.289 OA
ATOM      5  C   UNL     1      48.999 -22.917  11.599  1.00  0.00     0.115 A 
ATOM      6  C   UNL     1      48.086 -23.968  11.822  1.00  0.00     0.188 A 
ATOM      7  O   UNL     1      46.780 -23.765  11.671  1.00  0.00    -0.452 OA
ATOM      8  C   UNL     1      48.526 -25.238  12.209  1.00  0.00     0.209 A 
ATOM      9  C   UNL     1      49.913 -25.486  12.373  1.00  0.00     0.211 A 
ATOM     10  C   UNL     1      50.845 -24.443  12.121  1.00  0.00     0.208 A 
ATOM     11  C   UNL     1      50.378 -23.146  11.798  1.00  0.00     0.179 A 
ENDROOT
BRANCH   1  12
ATOM     12  C   UNL     1      44.772 -22.500  11.178  1.00  0.00     0.018 A 
ATOM     13  C   UNL     1      41.956 -22.369  10.976  1.00  0.00     0.118 A 
ATOM     14  C   UNL     1      42.718 -21.199  11.037  1.00  0.00     0.047 A 
ATOM     15  C   UNL     1      42.610 -23.612  11.023  1.00  0.00     0.047 A 
ATOM     16  C   UNL     1      44.109 -21.259  11.146  1.00  0.00     0.016 A 
ATOM     17  C   UNL     1      44.002 -23.675  11.123  1.00  0.00     0.016 A 
BRANCH  13  18
ATOM     18  O   UNL     1      40.562 -22.254  10.875  1.00  0.00    -0.497 OA
ATOM     19  C   UNL     1      39.849 -21.023  10.977  1.00  0.00     0.278 C 
ENDBRANCH  13  18
ENDBRANCH   1  12
BRANCH   8  20
ATOM     20  O   UNL     1      47.523 -26.209  12.408  1.00  0.00    -0.490 OA
ATOM     21  C   UNL     1      47.289 -26.969  13.589  1.00  0.00     0.278 C 
ENDBRANCH   8  20
BRANCH  11  22
ATOM     22  O   UNL     1      51.279 -22.084  11.713  1.00  0.00    -0.492 OA
ATOM     23  C   UNL     1      51.620 -21.316  12.862  1.00  0.00     0.278 C 
ENDBRANCH  11  22
BRANCH   9  24
ATOM     24  O   UNL     1      50.314 -26.774  12.776  1.00  0.00    -0.490 OA
ATOM     25  C   UNL     1      51.063 -27.125  13.935  1.00  0.00     0.279 C 
ENDBRANCH   9  24
BRANCH  10  26
ATOM     26  O   UNL     1      52.219 -24.731  12.194  1.00  0.00    -0.490 OA
ATOM     27  C   UNL     1      53.047 -25.135  11.107  1.00  0.00     0.278 C 
ENDBRANCH  10  26
TORSDOF 6
ENDMDL
MODEL 9
REMARK VINA RESULT:    -0.705      1.585      3.996
REMARK INTER + INTRA:          -0.780
REMARK INTER:                  -0.399
REMARK INTRA:                  -0.381
REMARK UNBOUND:                 0.172
REMARK SMILES COc1ccc(-c2cc(=O)c3c(OC)c(OC)c(OC)c(OC)c3o2)cc1
REMARK SMILES IDX 7 1 8 2 9 3 10 4 11 5 24 6 25 7 21 8 18 9 15 10 12 11 6 12
REMARK SMILES IDX 3 13 4 14 27 15 5 16 26 17 2 18 1 19 22 20 23 21 13 22 14 23
REMARK SMILES IDX 19 24 20 25 16 26 17 27
REMARK H PARENT
REMARK Flexibility Score: inf
ROOT
ATOM      1  C   UNL     1      46.618 -24.729  15.250  1.00  0.00     0.138 A 
ATOM      2  C   UNL     1      47.176 -23.517  15.682  1.00  0.00     0.100 A 
ATOM      3  C   UNL     1      48.336 -23.042  15.073  1.00  0.00     0.197 A 
ATOM      4  O   UNL     1      48.811 -21.938  15.454  1.00  0.00    -0.289 OA
ATOM      5  C   UNL     1      48.937 -23.787  14.034  1.00  0.00     0.115 A 
ATOM      6  C   UNL     1      48.300 -24.979  13.633  1.00  0.00     0.188 A 
ATOM      7  O   UNL     1      47.194 -25.389  14.249  1.00  0.00    -0.452 OA
ATOM      8  C   UNL     1      48.814 -25.756  12.590  1.00  0.00     0.209 A 
ATOM      9  C   UNL     1      49.988 -25.342  11.911  1.00  0.00     0.211 A 
ATOM     10  C   UNL     1      50.621 -24.126  12.286  1.00  0.00     0.208 A 
ATOM     11  C   UNL     1      50.127 -23.388  13.389  1.00  0.00     0.179 A 
ENDROOT
BRANCH   1  12
ATOM     12  C   UNL     1      45.387 -25.297  15.861  1.00  0.00     0.018 A 
ATOM     13  C   UNL     1      43.017 -26.310  17.022  1.00  0.00     0.118 A 
ATOM     14  C   UNL     1      43.806 -27.119  16.198  1.00  0.00     0.047 A 
ATOM     15  C   UNL     1      43.416 -24.983  17.259  1.00  0.00     0.047 A 
ATOM     16  C   UNL     1      44.974 -26.619  15.616  1.00  0.00     0.016 A 
ATOM     17  C   UNL     1      44.587 -24.484  16.684  1.00  0.00     0.016 A 
BRANCH  13  18
ATOM     18  O   UNL     1      41.851 -26.858  17.576  1.00  0.00    -0.497 OA
ATOM     19  C   UNL     1      41.139 -26.288  18.672  1.00  0.00     0.278 C 
ENDBRANCH  13  18
ENDBRANCH   1  12
BRANCH   8  20
ATOM     20  O   UNL     1      48.096 -26.931  12.279  1.00  0.00    -0.490 OA
ATOM     21  C   UNL     1      46.871 -27.021  11.560  1.00  0.00     0.278 C 
ENDBRANCH   8  20
BRANCH  11  22
ATOM     22  O   UNL     1      50.841 -22.286  13.863  1.00  0.00    -0.492 OA
ATOM     23  C   UNL     1      50.883 -21.068  13.128  1.00  0.00     0.278 C 
ENDBRANCH  11  22
BRANCH   9  24
ATOM     24  O   UNL     1      50.480 -26.160  10.875  1.00  0.00    -0.490 OA
ATOM     25  C   UNL     1      51.523 -27.125  10.955  1.00  0.00     0.279 C 
ENDBRANCH   9  24
BRANCH  10  26
ATOM     26  O   UNL     1      51.727 -23.681  11.541  1.00  0.00    -0.490 OA
ATOM     27  C   UNL     1      53.095 -23.822  11.912  1.00  0.00     0.278 C 
ENDBRANCH  10  26
TORSDOF 6
ENDMDL
