MODEL 1
REMARK VINA RESULT:    -1.410      0.000      0.000
REMARK INTER + INTRA:          -1.582
REMARK INTER:                  -1.575
REMARK INTRA:                  -0.008
REMARK UNBOUND:                -0.008
REMARK SMILES CCCC(=O)[O-]
REMARK SMILES IDX 3 1 4 2 5 3 6 4 2 5 1 6
REMARK H PARENT
REMARK Flexibility Score: inf
ROOT
ATOM      1  C   UNL     1       0.996 -50.229  10.125  1.00  0.00     0.052 C 
ENDROOT
BRANCH   1   2
ATOM      2  C   UNL     1      -0.376 -50.535   9.606  1.00  0.00     0.041 C 
ATOM      3  O   UNL     1      -1.119 -49.606   9.191  1.00  0.00    -0.550 OA
ATOM      4  O   UNL     1      -0.821 -51.850   9.550  1.00  0.00    -0.550 OA
ENDBRANCH   1   2
BRANCH   1   5
ATOM      5  C   UNL     1       2.074 -51.029   9.384  1.00  0.00     0.003 C 
ATOM      6  C   UNL     1       3.411 -51.027  10.124  1.00  0.00     0.004 C 
ENDBRANCH   1   5
TORSDOF 2
ENDMDL
MODEL 2
REMARK VINA RESULT:    -1.227     25.072     25.762
REMARK INTER + INTRA:          -1.379
REMARK INTER:                  -1.314
REMARK INTRA:                  -0.065
REMARK UNBOUND:                -0.008
REMARK SMILES CCCC(=O)[O-]
REMARK SMILES IDX 3 1 4 2 5 3 6 4 2 5 1 6
REMARK H PARENT
REMARK Flexibility Score: inf
ROOT
ATOM      1  C   UNL     1      17.312 -44.951  -7.932  1.00  0.00     0.052 C 
ENDROOT
BRANCH   1   2
ATOM      2  C   UNL     1      18.507 -45.261  -7.083  1.00  0.00     0.041 C 
ATOM      3  O   UNL     1      18.975 -46.430  -7.047  1.00  0.00    -0.550 OA
ATOM      4  O   UNL     1      19.125 -44.251  -6.357  1.00  0.00    -0.550 OA
ENDBRANCH   1   2
BRANCH   1   5
ATOM      5  C   UNL     1      17.625 -43.876  -8.980  1.00  0.00     0.003 C 
ATOM      6  C   UNL     1      18.812 -44.255  -9.865  1.00  0.00     0.004 C 
ENDBRANCH   1   5
TORSDOF 2
ENDMDL
MODEL 3
REMARK VINA RESULT:    -0.835     21.169     21.846
REMARK INTER + INTRA:          -0.940
REMARK INTER:                  -0.914
REMARK INTRA:                  -0.026
REMARK UNBOUND:                -0.008
REMARK SMILES CCCC(=O)[O-]
REMARK SMILES IDX 3 1 4 2 5 3 6 4 2 5 1 6
REMARK H PARENT
REMARK Flexibility Score: inf
ROOT
ATOM      1  C   UNL     1      16.965 -56.599  -2.717  1.00  0.00     0.052 C 
ENDROOT
BRANCH   1   2
ATOM      2  C   UNL     1      17.929 -57.089  -1.679  1.00  0.00     0.041 C 
ATOM      3  O   UNL     1      19.021 -57.612  -2.024  1.00  0.00    -0.550 OA
ATOM      4  O   UNL     1      17.634 -56.938  -0.330  1.00  0.00    -0.550 OA
ENDBRANCH   1   2
BRANCH   1   5
ATOM      5  C   UNL     1      17.261 -55.152  -3.127  1.00  0.00     0.003 C 
ATOM      6  C   UNL     1      17.578 -55.023  -4.616  1.00  0.00     0.004 C 
ENDBRANCH   1   5
TORSDOF 2
ENDMDL
MODEL 4
REMARK VINA RESULT:    -0.170     21.366     22.225
REMARK INTER + INTRA:          -0.198
REMARK INTER:                  -0.168
REMARK INTRA:                  -0.030
REMARK UNBOUND:                -0.008
REMARK SMILES CCCC(=O)[O-]
REMARK SMILES IDX 3 1 4 2 5 3 6 4 2 5 1 6
REMARK H PARENT
REMARK Flexibility Score: inf
ROOT
ATOM      1  C   UNL     1      17.949 -56.887  -1.899  1.00  0.00     0.052 C 
ENDROOT
BRANCH   1   2
ATOM      2  C   UNL     1      17.983 -58.307  -2.376  1.00  0.00     0.041 C 
ATOM      3  O   UNL     1      16.969 -59.043  -2.251  1.00  0.00    -0.550 OA
ATOM      4  O   UNL     1      19.125 -58.807  -2.989  1.00  0.00    -0.550 OA
ENDBRANCH   1   2
BRANCH   1   5
ATOM      5  C   UNL     1      16.874 -56.071  -2.626  1.00  0.00     0.003 C 
ATOM      6  C   UNL     1      17.455 -55.214  -3.750  1.00  0.00     0.004 C 
ENDBRANCH   1   5
TORSDOF 2
ENDMDL
MODEL 5
REMARK VINA RESULT:    -0.045     20.370     21.290
REMARK INTER + INTRA:          -0.058
REMARK INTER:                  -0.036
REMARK INTRA:                  -0.022
REMARK UNBOUND:                -0.008
REMARK SMILES CCCC(=O)[O-]
REMARK SMILES IDX 3 1 4 2 5 3 6 4 2 5 1 6
REMARK H PARENT
REMARK Flexibility Score: inf
ROOT
ATOM      1  C   UNL     1      17.421 -57.129  -2.549  1.00  0.00     0.052 C 
ENDROOT
BRANCH   1   2
ATOM      2  C   UNL     1      16.974 -55.786  -3.042  1.00  0.00     0.041 C 
ATOM      3  O   UNL     1      16.103 -55.135  -2.407  1.00  0.00    -0.550 OA
ATOM      4  O   UNL     1      17.543 -55.241  -4.186  1.00  0.00    -0.550 OA
ENDBRANCH   1   2
BRANCH   1   5
ATOM      5  C   UNL     1      18.315 -57.008  -1.310  1.00  0.00     0.003 C 
ATOM      6  C   UNL     1      17.534 -57.193  -0.009  1.00  0.00     0.004 C 
ENDBRANCH   1   5
TORSDOF 2
ENDMDL
MODEL 6
REMARK VINA RESULT:     0.475     21.423     22.197
REMARK INTER + INTRA:           0.523
REMARK INTER:                   0.325
REMARK INTRA:                   0.198
REMARK UNBOUND:                -0.008
REMARK SMILES CCCC(=O)[O-]
REMARK SMILES IDX 3 1 4 2 5 3 6 4 2 5 1 6
REMARK H PARENT
REMARK Flexibility Score: inf
ROOT
ATOM      1  C   UNL     1      19.072 -57.822  -2.305  1.00  0.00     0.052 C 
ENDROOT
BRANCH   1   2
ATOM      2  C   UNL     1      17.903 -56.998  -1.857  1.00  0.00     0.041 C 
ATOM      3  O   UNL     1      17.591 -56.950  -0.637  1.00  0.00    -0.550 OA
ATOM      4  O   UNL     1      17.179 -56.257  -2.782  1.00  0.00    -0.550 OA
ENDBRANCH   1   2
BRANCH   1   5
ATOM      5  C   UNL     1      18.624 -59.152  -2.922  1.00  0.00     0.003 C 
ATOM      6  C   UNL     1      17.155 -59.461  -2.636  1.00  0.00     0.004 C 
ENDBRANCH   1   5
TORSDOF 2
ENDMDL
MODEL 7
REMARK VINA RESULT:     0.544     21.073     22.067
REMARK INTER + INTRA:           0.599
REMARK INTER:                   0.665
REMARK INTRA:                  -0.066
REMARK UNBOUND:                -0.008
REMARK SMILES CCCC(=O)[O-]
REMARK SMILES IDX 3 1 4 2 5 3 6 4 2 5 1 6
REMARK H PARENT
REMARK Flexibility Score: inf
ROOT
ATOM      1  C   UNL     1      17.397 -57.206  -2.396  1.00  0.00     0.052 C 
ENDROOT
BRANCH   1   2
ATOM      2  C   UNL     1      17.803 -58.635  -2.591  1.00  0.00     0.041 C 
ATOM      3  O   UNL     1      16.944 -59.553  -2.525  1.00  0.00    -0.550 OA
ATOM      4  O   UNL     1      19.125 -58.949  -2.881  1.00  0.00    -0.550 OA
ENDBRANCH   1   2
BRANCH   1   5
ATOM      5  C   UNL     1      18.088 -56.582  -1.178  1.00  0.00     0.003 C 
ATOM      6  C   UNL     1      17.585 -57.170   0.140  1.00  0.00     0.004 C 
ENDBRANCH   1   5
TORSDOF 2
ENDMDL
