MODEL 1
REMARK VINA RESULT:    -3.734      0.000      0.000
REMARK INTER + INTRA:          -4.647
REMARK INTER:                  -4.607
REMARK INTRA:                  -0.041
REMARK UNBOUND:                -0.041
REMARK SMILES CCCCCC=O
REMARK SMILES IDX 4 1 3 2 2 3 1 4 5 5 6 6 7 7
REMARK H PARENT
REMARK Flexibility Score: inf
ROOT
ATOM      1  C   UNL     1      27.187  46.571  -0.797  1.00  0.00     0.008 C 
ENDROOT
BRANCH   1   2
ATOM      2  C   UNL     1      28.067  45.309  -0.840  1.00  0.00     0.000 C 
BRANCH   2   3
ATOM      3  C   UNL     1      29.242  45.377   0.147  1.00  0.00    -0.003 C 
ATOM      4  C   UNL     1      30.331  44.346  -0.156  1.00  0.00     0.004 C 
ENDBRANCH   2   3
ENDBRANCH   1   2
BRANCH   1   5
ATOM      5  C   UNL     1      27.064  47.235  -2.177  1.00  0.00     0.072 C 
BRANCH   5   6
ATOM      6  C   UNL     1      25.694  47.799  -2.419  1.00  0.00     0.224 C 
ATOM      7  O   UNL     1      24.970  47.295  -3.263  1.00  0.00    -0.303 OA
ENDBRANCH   5   6
ENDBRANCH   1   5
TORSDOF 4
ENDMDL
MODEL 2
REMARK VINA RESULT:    -3.707      2.546      4.723
REMARK INTER + INTRA:          -4.614
REMARK INTER:                  -4.572
REMARK INTRA:                  -0.042
REMARK UNBOUND:                -0.041
REMARK SMILES CCCCCC=O
REMARK SMILES IDX 4 1 3 2 2 3 1 4 5 5 6 6 7 7
REMARK H PARENT
REMARK Flexibility Score: inf
ROOT
ATOM      1  C   UNL     1      27.513  46.479  -0.782  1.00  0.00     0.008 C 
ENDROOT
BRANCH   1   2
ATOM      2  C   UNL     1      27.093  46.914  -2.197  1.00  0.00     0.000 C 
BRANCH   2   3
ATOM      3  C   UNL     1      25.894  47.874  -2.186  1.00  0.00    -0.003 C 
ATOM      4  C   UNL     1      24.795  47.460  -3.166  1.00  0.00     0.004 C 
ENDBRANCH   2   3
ENDBRANCH   1   2
BRANCH   1   5
ATOM      5  C   UNL     1      28.186  45.098  -0.779  1.00  0.00     0.072 C 
BRANCH   5   6
ATOM      6  C   UNL     1      29.518  45.114  -0.084  1.00  0.00     0.224 C 
ATOM      7  O   UNL     1      29.599  45.520   1.064  1.00  0.00    -0.303 OA
ENDBRANCH   5   6
ENDBRANCH   1   5
TORSDOF 4
ENDMDL
MODEL 3
REMARK VINA RESULT:    -3.703     11.632     13.074
REMARK INTER + INTRA:          -4.610
REMARK INTER:                  -4.580
REMARK INTRA:                  -0.030
REMARK UNBOUND:                -0.041
REMARK SMILES CCCCCC=O
REMARK SMILES IDX 4 1 3 2 2 3 1 4 5 5 6 6 7 7
REMARK H PARENT
REMARK Flexibility Score: inf
ROOT
ATOM      1  C   UNL     1      24.089  55.911  -9.138  1.00  0.00     0.008 C 
ENDROOT
BRANCH   1   2
ATOM      2  C   UNL     1      25.444  56.592  -8.880  1.00  0.00     0.000 C 
BRANCH   2   3
ATOM      3  C   UNL     1      25.480  58.042  -9.386  1.00  0.00    -0.003 C 
ATOM      4  C   UNL     1      26.702  58.336 -10.257  1.00  0.00     0.004 C 
ENDBRANCH   2   3
ENDBRANCH   1   2
BRANCH   1   5
ATOM      5  C   UNL     1      23.855  54.720  -8.197  1.00  0.00     0.072 C 
BRANCH   5   6
ATOM      6  C   UNL     1      22.467  54.708  -7.625  1.00  0.00     0.224 C 
ATOM      7  O   UNL     1      22.287  54.340  -6.475  1.00  0.00    -0.303 OA
ENDBRANCH   5   6
ENDBRANCH   1   5
TORSDOF 4
ENDMDL
MODEL 4
REMARK VINA RESULT:    -3.668     11.537     12.689
REMARK INTER + INTRA:          -4.567
REMARK INTER:                  -4.487
REMARK INTRA:                  -0.080
REMARK UNBOUND:                -0.041
REMARK SMILES CCCCCC=O
REMARK SMILES IDX 4 1 3 2 2 3 1 4 5 5 6 6 7 7
REMARK H PARENT
REMARK Flexibility Score: inf
ROOT
ATOM      1  C   UNL     1      24.656  55.127  -8.092  1.00  0.00     0.008 C 
ENDROOT
BRANCH   1   2
ATOM      2  C   UNL     1      23.156  55.369  -8.340  1.00  0.00     0.000 C 
BRANCH   2   3
ATOM      3  C   UNL     1      22.269  54.316  -7.658  1.00  0.00    -0.003 C 
ATOM      4  C   UNL     1      22.421  54.310  -6.136  1.00  0.00     0.004 C 
ENDBRANCH   2   3
ENDBRANCH   1   2
BRANCH   1   5
ATOM      5  C   UNL     1      25.534  56.150  -8.828  1.00  0.00     0.072 C 
BRANCH   5   6
ATOM      6  C   UNL     1      24.852  57.479  -8.988  1.00  0.00     0.224 C 
ATOM      7  O   UNL     1      25.485  58.442  -9.388  1.00  0.00    -0.303 OA
ENDBRANCH   5   6
ENDBRANCH   1   5
TORSDOF 4
ENDMDL
MODEL 5
REMARK VINA RESULT:    -3.631     10.905     12.166
REMARK INTER + INTRA:          -4.521
REMARK INTER:                  -4.429
REMARK INTRA:                  -0.091
REMARK UNBOUND:                -0.041
REMARK SMILES CCCCCC=O
REMARK SMILES IDX 4 1 3 2 2 3 1 4 5 5 6 6 7 7
REMARK H PARENT
REMARK Flexibility Score: inf
ROOT
ATOM      1  C   UNL     1      23.268  55.429  -8.482  1.00  0.00     0.008 C 
ENDROOT
BRANCH   1   2
ATOM      2  C   UNL     1      24.751  55.072  -8.276  1.00  0.00     0.000 C 
BRANCH   2   3
ATOM      3  C   UNL     1      25.693  56.208  -8.702  1.00  0.00    -0.003 C 
ATOM      4  C   UNL     1      24.949  57.502  -9.036  1.00  0.00     0.004 C 
ENDBRANCH   2   3
ENDBRANCH   1   2
BRANCH   1   5
ATOM      5  C   UNL     1      22.336  54.495  -7.695  1.00  0.00     0.072 C 
BRANCH   5   6
ATOM      6  C   UNL     1      22.674  54.451  -6.233  1.00  0.00     0.224 C 
ATOM      7  O   UNL     1      21.871  53.988  -5.438  1.00  0.00    -0.303 OA
ENDBRANCH   5   6
ENDBRANCH   1   5
TORSDOF 4
ENDMDL
MODEL 6
REMARK VINA RESULT:    -3.512      2.844      4.841
REMARK INTER + INTRA:          -4.374
REMARK INTER:                  -4.341
REMARK INTRA:                  -0.033
REMARK UNBOUND:                -0.041
REMARK SMILES CCCCCC=O
REMARK SMILES IDX 4 1 3 2 2 3 1 4 5 5 6 6 7 7
REMARK H PARENT
REMARK Flexibility Score: inf
ROOT
ATOM      1  C   UNL     1      27.755  45.458  -1.037  1.00  0.00     0.008 C 
ENDROOT
BRANCH   1   2
ATOM      2  C   UNL     1      26.985  46.783  -0.892  1.00  0.00     0.000 C 
BRANCH   2   3
ATOM      3  C   UNL     1      26.857  47.538  -2.224  1.00  0.00    -0.003 C 
ATOM      4  C   UNL     1      25.405  47.699  -2.676  1.00  0.00     0.004 C 
ENDBRANCH   2   3
ENDBRANCH   1   2
BRANCH   1   5
ATOM      5  C   UNL     1      28.962  45.387  -0.091  1.00  0.00     0.072 C 
BRANCH   5   6
ATOM      6  C   UNL     1      29.854  44.216  -0.389  1.00  0.00     0.224 C 
ATOM      7  O   UNL     1      31.050  44.289  -0.158  1.00  0.00    -0.303 OA
ENDBRANCH   5   6
ENDBRANCH   1   5
TORSDOF 4
ENDMDL
MODEL 7
REMARK VINA RESULT:    -3.417      3.136      4.998
REMARK INTER + INTRA:          -4.257
REMARK INTER:                  -4.226
REMARK INTRA:                  -0.031
REMARK UNBOUND:                -0.041
REMARK SMILES CCCCCC=O
REMARK SMILES IDX 4 1 3 2 2 3 1 4 5 5 6 6 7 7
REMARK H PARENT
REMARK Flexibility Score: inf
ROOT
ATOM      1  C   UNL     1      28.600  45.715  -0.437  1.00  0.00     0.008 C 
ENDROOT
BRANCH   1   2
ATOM      2  C   UNL     1      27.285  45.756  -1.234  1.00  0.00     0.000 C 
BRANCH   2   3
ATOM      3  C   UNL     1      26.814  47.190  -1.520  1.00  0.00    -0.003 C 
ATOM      4  C   UNL     1      25.818  47.267  -2.677  1.00  0.00     0.004 C 
ENDBRANCH   2   3
ENDBRANCH   1   2
BRANCH   1   5
ATOM      5  C   UNL     1      29.248  44.322  -0.466  1.00  0.00     0.072 C 
BRANCH   5   6
ATOM      6  C   UNL     1      30.680  44.349  -0.012  1.00  0.00     0.224 C 
ATOM      7  O   UNL     1      30.946  44.173   1.166  1.00  0.00    -0.303 OA
ENDBRANCH   5   6
ENDBRANCH   1   5
TORSDOF 4
ENDMDL
MODEL 8
REMARK VINA RESULT:    -3.087      3.711      5.688
REMARK INTER + INTRA:          -3.849
REMARK INTER:                  -3.792
REMARK INTRA:                  -0.057
REMARK UNBOUND:                -0.041
REMARK SMILES CCCCCC=O
REMARK SMILES IDX 4 1 3 2 2 3 1 4 5 5 6 6 7 7
REMARK H PARENT
REMARK Flexibility Score: inf
ROOT
ATOM      1  C   UNL     1      30.658  44.908   0.019  1.00  0.00     0.008 C 
ENDROOT
BRANCH   1   2
ATOM      2  C   UNL     1      29.244  45.403   0.373  1.00  0.00     0.000 C 
BRANCH   2   3
ATOM      3  C   UNL     1      28.250  45.219  -0.783  1.00  0.00    -0.003 C 
ATOM      4  C   UNL     1      27.435  46.481  -1.070  1.00  0.00     0.004 C 
ENDBRANCH   2   3
ENDBRANCH   1   2
BRANCH   1   5
ATOM      5  C   UNL     1      31.351  44.240   1.215  1.00  0.00     0.072 C 
BRANCH   5   6
ATOM      6  C   UNL     1      32.341  45.150   1.883  1.00  0.00     0.224 C 
ATOM      7  O   UNL     1      31.946  46.092   2.551  1.00  0.00    -0.303 OA
ENDBRANCH   5   6
ENDBRANCH   1   5
TORSDOF 4
ENDMDL
