MODEL 1
REMARK VINA RESULT:    -2.882      0.000      0.000
REMARK INTER + INTRA:          -3.634
REMARK INTER:                  -3.556
REMARK INTRA:                  -0.078
REMARK UNBOUND:                -0.078
REMARK SMILES CCCCCC(=O)[O-]
REMARK SMILES IDX 4 1 5 2 6 3 7 4 8 5 3 6 2 7 1 8
REMARK H PARENT
REMARK Flexibility Score: inf
ROOT
ATOM      1  C   UNL     1      53.896  18.177  85.443  1.00  0.00     0.006 C 
ENDROOT
BRANCH   1   2
ATOM      2  C   UNL     1      52.753  18.813  84.647  1.00  0.00     0.053 C 
BRANCH   2   3
ATOM      3  C   UNL     1      51.528  18.940  85.497  1.00  0.00     0.041 C 
ATOM      4  O   UNL     1      51.484  19.795  86.420  1.00  0.00    -0.550 OA
ATOM      5  O   UNL     1      50.455  18.080  85.302  1.00  0.00    -0.550 OA
ENDBRANCH   2   3
ENDBRANCH   1   2
BRANCH   1   6
ATOM      6  C   UNL     1      55.196  18.168  84.627  1.00  0.00     0.000 C 
BRANCH   6   7
ATOM      7  C   UNL     1      56.018  16.888  84.839  1.00  0.00    -0.003 C 
ATOM      8  C   UNL     1      55.834  16.291  86.234  1.00  0.00     0.004 C 
ENDBRANCH   6   7
ENDBRANCH   1   6
TORSDOF 4
ENDMDL
MODEL 2
REMARK VINA RESULT:    -2.876      0.379      1.193
REMARK INTER + INTRA:          -3.626
REMARK INTER:                  -3.547
REMARK INTRA:                  -0.079
REMARK UNBOUND:                -0.078
REMARK SMILES CCCCCC(=O)[O-]
REMARK SMILES IDX 4 1 5 2 6 3 7 4 8 5 3 6 2 7 1 8
REMARK H PARENT
REMARK Flexibility Score: inf
ROOT
ATOM      1  C   UNL     1      54.104  18.148  85.632  1.00  0.00     0.006 C 
ENDROOT
BRANCH   1   2
ATOM      2  C   UNL     1      52.995  18.888  84.879  1.00  0.00     0.053 C 
BRANCH   2   3
ATOM      3  C   UNL     1      51.740  18.924  85.695  1.00  0.00     0.041 C 
ATOM      4  O   UNL     1      50.721  18.290  85.317  1.00  0.00    -0.550 OA
ATOM      5  O   UNL     1      51.683  19.698  86.847  1.00  0.00    -0.550 OA
ENDBRANCH   2   3
ENDBRANCH   1   2
BRANCH   1   6
ATOM      6  C   UNL     1      55.274  17.812  84.696  1.00  0.00     0.000 C 
BRANCH   6   7
ATOM      7  C   UNL     1      56.124  16.641  85.211  1.00  0.00    -0.003 C 
ATOM      8  C   UNL     1      55.764  16.230  86.638  1.00  0.00     0.004 C 
ENDBRANCH   6   7
ENDBRANCH   1   6
TORSDOF 4
ENDMDL
MODEL 3
REMARK VINA RESULT:    -2.760     14.466     15.958
REMARK INTER + INTRA:          -3.483
REMARK INTER:                  -3.264
REMARK INTRA:                  -0.220
REMARK UNBOUND:                -0.078
REMARK SMILES CCCCCC(=O)[O-]
REMARK SMILES IDX 4 1 5 2 6 3 7 4 8 5 3 6 2 7 1 8
REMARK H PARENT
REMARK Flexibility Score: inf
ROOT
ATOM      1  C   UNL     1      38.735  21.475  80.280  1.00  0.00     0.006 C 
ENDROOT
BRANCH   1   2
ATOM      2  C   UNL     1      37.344  20.855  80.120  1.00  0.00     0.053 C 
BRANCH   2   3
ATOM      3  C   UNL     1      37.272  19.539  80.829  1.00  0.00     0.041 C 
ATOM      4  O   UNL     1      37.112  19.500  82.077  1.00  0.00    -0.550 OA
ATOM      5  O   UNL     1      37.429  18.357  80.116  1.00  0.00    -0.550 OA
ENDBRANCH   2   3
ENDBRANCH   1   2
BRANCH   1   6
ATOM      6  C   UNL     1      39.438  21.606  78.921  1.00  0.00     0.000 C 
BRANCH   6   7
ATOM      7  C   UNL     1      40.381  20.429  78.629  1.00  0.00    -0.003 C 
ATOM      8  C   UNL     1      41.036  19.867  79.890  1.00  0.00     0.004 C 
ENDBRANCH   6   7
ENDBRANCH   1   6
TORSDOF 4
ENDMDL
MODEL 4
REMARK VINA RESULT:    -2.745     13.435     15.089
REMARK INTER + INTRA:          -3.464
REMARK INTER:                  -3.413
REMARK INTRA:                  -0.051
REMARK UNBOUND:                -0.078
REMARK SMILES CCCCCC(=O)[O-]
REMARK SMILES IDX 4 1 5 2 6 3 7 4 8 5 3 6 2 7 1 8
REMARK H PARENT
REMARK Flexibility Score: inf
ROOT
ATOM      1  C   UNL     1      39.779  19.546  79.518  1.00  0.00     0.006 C 
ENDROOT
BRANCH   1   2
ATOM      2  C   UNL     1      38.650  20.296  80.231  1.00  0.00     0.053 C 
BRANCH   2   3
ATOM      3  C   UNL     1      37.632  19.333  80.758  1.00  0.00     0.041 C 
ATOM      4  O   UNL     1      37.245  18.369  80.047  1.00  0.00    -0.550 OA
ATOM      5  O   UNL     1      37.075  19.530  82.015  1.00  0.00    -0.550 OA
ENDBRANCH   2   3
ENDBRANCH   1   2
BRANCH   1   6
ATOM      6  C   UNL     1      40.756  20.527  78.855  1.00  0.00     0.000 C 
BRANCH   6   7
ATOM      7  C   UNL     1      42.103  20.607  79.589  1.00  0.00    -0.003 C 
ATOM      8  C   UNL     1      43.280  20.176  78.716  1.00  0.00     0.004 C 
ENDBRANCH   6   7
ENDBRANCH   1   6
TORSDOF 4
ENDMDL
MODEL 5
REMARK VINA RESULT:    -2.737      2.940      4.572
REMARK INTER + INTRA:          -3.455
REMARK INTER:                  -3.358
REMARK INTRA:                  -0.096
REMARK UNBOUND:                -0.078
REMARK SMILES CCCCCC(=O)[O-]
REMARK SMILES IDX 4 1 5 2 6 3 7 4 8 5 3 6 2 7 1 8
REMARK H PARENT
REMARK Flexibility Score: inf
ROOT
ATOM      1  C   UNL     1      53.784  18.913  85.475  1.00  0.00     0.006 C 
ENDROOT
BRANCH   1   2
ATOM      2  C   UNL     1      54.268  17.703  86.279  1.00  0.00     0.053 C 
BRANCH   2   3
ATOM      3  C   UNL     1      55.392  17.016  85.568  1.00  0.00     0.041 C 
ATOM      4  O   UNL     1      55.693  17.347  84.392  1.00  0.00    -0.550 OA
ATOM      5  O   UNL     1      56.073  15.976  86.187  1.00  0.00    -0.550 OA
ENDBRANCH   2   3
ENDBRANCH   1   2
BRANCH   1   6
ATOM      6  C   UNL     1      52.410  18.640  84.846  1.00  0.00     0.000 C 
BRANCH   6   7
ATOM      7  C   UNL     1      51.260  19.281  85.638  1.00  0.00    -0.003 C 
ATOM      8  C   UNL     1      49.942  18.523  85.486  1.00  0.00     0.004 C 
ENDBRANCH   6   7
ENDBRANCH   1   6
TORSDOF 4
ENDMDL
MODEL 6
REMARK VINA RESULT:    -2.725      9.745     10.891
REMARK INTER + INTRA:          -3.439
REMARK INTER:                  -3.209
REMARK INTRA:                  -0.230
REMARK UNBOUND:                -0.078
REMARK SMILES CCCCCC(=O)[O-]
REMARK SMILES IDX 4 1 5 2 6 3 7 4 8 5 3 6 2 7 1 8
REMARK H PARENT
REMARK Flexibility Score: inf
ROOT
ATOM      1  C   UNL     1      46.053  20.190  78.200  1.00  0.00     0.006 C 
ENDROOT
BRANCH   1   2
ATOM      2  C   UNL     1      45.027  19.128  77.795  1.00  0.00     0.053 C 
BRANCH   2   3
ATOM      3  C   UNL     1      45.601  18.210  76.762  1.00  0.00     0.041 C 
ATOM      4  O   UNL     1      45.967  18.663  75.646  1.00  0.00    -0.550 OA
ATOM      5  O   UNL     1      45.687  16.847  77.014  1.00  0.00    -0.550 OA
ENDBRANCH   2   3
ENDBRANCH   1   2
BRANCH   1   6
ATOM      6  C   UNL     1      47.358  19.539  78.680  1.00  0.00     0.000 C 
BRANCH   6   7
ATOM      7  C   UNL     1      48.601  20.357  78.299  1.00  0.00    -0.003 C 
ATOM      8  C   UNL     1      48.490  20.992  76.914  1.00  0.00     0.004 C 
ENDBRANCH   6   7
ENDBRANCH   1   6
TORSDOF 4
ENDMDL
MODEL 7
REMARK VINA RESULT:    -2.711     13.242     15.110
REMARK INTER + INTRA:          -3.422
REMARK INTER:                  -3.306
REMARK INTRA:                  -0.116
REMARK UNBOUND:                -0.078
REMARK SMILES CCCCCC(=O)[O-]
REMARK SMILES IDX 4 1 5 2 6 3 7 4 8 5 3 6 2 7 1 8
REMARK H PARENT
REMARK Flexibility Score: inf
ROOT
ATOM      1  C   UNL     1      39.844  19.630  79.464  1.00  0.00     0.006 C 
ENDROOT
BRANCH   1   2
ATOM      2  C   UNL     1      41.243  20.010  79.956  1.00  0.00     0.053 C 
BRANCH   2   3
ATOM      3  C   UNL     1      42.122  20.382  78.803  1.00  0.00     0.041 C 
ATOM      4  O   UNL     1      41.661  21.061  77.849  1.00  0.00    -0.550 OA
ATOM      5  O   UNL     1      43.437  19.936  78.760  1.00  0.00    -0.550 OA
ENDBRANCH   2   3
ENDBRANCH   1   2
BRANCH   1   6
ATOM      6  C   UNL     1      38.765  20.441  80.196  1.00  0.00     0.000 C 
BRANCH   6   7
ATOM      7  C   UNL     1      37.641  19.557  80.757  1.00  0.00    -0.003 C 
ATOM      8  C   UNL     1      37.542  18.205  80.051  1.00  0.00     0.004 C 
ENDBRANCH   6   7
ENDBRANCH   1   6
TORSDOF 4
ENDMDL
MODEL 8
REMARK VINA RESULT:    -2.707     15.441     16.531
REMARK INTER + INTRA:          -3.418
REMARK INTER:                  -3.307
REMARK INTRA:                  -0.111
REMARK UNBOUND:                -0.078
REMARK SMILES CCCCCC(=O)[O-]
REMARK SMILES IDX 4 1 5 2 6 3 7 4 8 5 3 6 2 7 1 8
REMARK H PARENT
REMARK Flexibility Score: inf
ROOT
ATOM      1  C   UNL     1      45.635  31.500  91.020  1.00  0.00     0.006 C 
ENDROOT
BRANCH   1   2
ATOM      2  C   UNL     1      44.852  30.260  91.462  1.00  0.00     0.053 C 
BRANCH   2   3
ATOM      3  C   UNL     1      43.677  30.652  92.301  1.00  0.00     0.041 C 
ATOM      4  O   UNL     1      42.604  29.997  92.234  1.00  0.00    -0.550 OA
ATOM      5  O   UNL     1      43.751  31.771  93.121  1.00  0.00    -0.550 OA
ENDBRANCH   2   3
ENDBRANCH   1   2
BRANCH   1   6
ATOM      6  C   UNL     1      45.648  31.625  89.490  1.00  0.00     0.000 C 
BRANCH   6   7
ATOM      7  C   UNL     1      47.050  31.918  88.934  1.00  0.00    -0.003 C 
ATOM      8  C   UNL     1      48.160  31.251  89.745  1.00  0.00     0.004 C 
ENDBRANCH   6   7
ENDBRANCH   1   6
TORSDOF 4
ENDMDL
MODEL 9
REMARK VINA RESULT:    -2.660     11.174     12.004
REMARK INTER + INTRA:          -3.359
REMARK INTER:                  -3.179
REMARK INTRA:                  -0.180
REMARK UNBOUND:                -0.078
REMARK SMILES CCCCCC(=O)[O-]
REMARK SMILES IDX 4 1 5 2 6 3 7 4 8 5 3 6 2 7 1 8
REMARK H PARENT
REMARK Flexibility Score: inf
ROOT
ATOM      1  C   UNL     1      54.004  20.407  73.339  1.00  0.00     0.006 C 
ENDROOT
BRANCH   1   2
ATOM      2  C   UNL     1      53.776  18.904  73.156  1.00  0.00     0.053 C 
BRANCH   2   3
ATOM      3  C   UNL     1      54.934  18.128  73.700  1.00  0.00     0.041 C 
ATOM      4  O   UNL     1      55.891  18.726  74.258  1.00  0.00    -0.550 OA
ATOM      5  O   UNL     1      54.980  16.748  73.545  1.00  0.00    -0.550 OA
ENDBRANCH   2   3
ENDBRANCH   1   2
BRANCH   1   6
ATOM      6  C   UNL     1      52.748  21.089  73.899  1.00  0.00     0.000 C 
BRANCH   6   7
ATOM      7  C   UNL     1      52.925  21.549  75.355  1.00  0.00    -0.003 C 
ATOM      8  C   UNL     1      54.374  21.455  75.832  1.00  0.00     0.004 C 
ENDBRANCH   6   7
ENDBRANCH   1   6
TORSDOF 4
ENDMDL
