MODEL 1
REMARK VINA RESULT:    -4.433      0.000      0.000
REMARK INTER + INTRA:          -4.433
REMARK INTER:                  -4.433
REMARK INTRA:                   0.000
REMARK UNBOUND:                 0.000
REMARK SMILES CC1=CC[C@@H]2[C@@H](C1)C2(C)C
REMARK SMILES IDX 1 1 2 2 3 3 4 4 5 5 6 6 7 7 8 8 9 9 10 10
REMARK H PARENT
REMARK Flexibility Score: inf
ROOT
ATOM      1  C   UNL     1      54.156  42.275  42.460  1.00  0.00     0.039 C 
ATOM      2  C   UNL     1      54.985  43.528  42.453  1.00  0.00    -0.077 C 
ATOM      3  C   UNL     1      54.376  44.738  42.624  1.00  0.00    -0.028 C 
ATOM      4  C   UNL     1      55.159  46.049  42.601  1.00  0.00     0.031 C 
ATOM      5  C   UNL     1      56.457  45.807  41.822  1.00  0.00     0.003 C 
ATOM      6  C   UNL     1      57.151  44.714  42.717  1.00  0.00     0.003 C 
ATOM      7  C   UNL     1      56.493  43.433  42.191  1.00  0.00     0.034 C 
ATOM      8  C   UNL     1      57.938  45.860  42.123  1.00  0.00    -0.029 C 
ATOM      9  C   UNL     1      58.379  46.970  43.082  1.00  0.00     0.012 C 
ATOM     10  C   UNL     1      58.892  45.488  40.984  1.00  0.00     0.012 C 
ENDROOT
TORSDOF 0
ENDMDL
MODEL 2
REMARK VINA RESULT:    -4.349      1.182      2.514
REMARK INTER + INTRA:          -4.349
REMARK INTER:                  -4.349
REMARK INTRA:                   0.000
REMARK UNBOUND:                 0.000
REMARK SMILES CC1=CC[C@@H]2[C@@H](C1)C2(C)C
REMARK SMILES IDX 1 1 2 2 3 3 4 4 5 5 6 6 7 7 8 8 9 9 10 10
REMARK H PARENT
REMARK Flexibility Score: inf
ROOT
ATOM      1  C   UNL     1      53.421  46.031  42.872  1.00  0.00     0.039 C 
ATOM      2  C   UNL     1      54.691  45.278  42.597  1.00  0.00    -0.077 C 
ATOM      3  C   UNL     1      54.652  43.920  42.458  1.00  0.00    -0.028 C 
ATOM      4  C   UNL     1      55.912  43.096  42.204  1.00  0.00     0.031 C 
ATOM      5  C   UNL     1      57.112  43.905  42.709  1.00  0.00     0.003 C 
ATOM      6  C   UNL     1      57.034  45.175  41.782  1.00  0.00     0.003 C 
ATOM      7  C   UNL     1      56.022  46.039  42.542  1.00  0.00     0.034 C 
ATOM      8  C   UNL     1      58.356  44.510  42.098  1.00  0.00    -0.029 C 
ATOM      9  C   UNL     1      59.007  43.694  40.977  1.00  0.00     0.012 C 
ATOM     10  C   UNL     1      59.282  45.289  43.035  1.00  0.00     0.012 C 
ENDROOT
TORSDOF 0
ENDMDL
MODEL 3
REMARK VINA RESULT:    -4.320      1.633      2.506
REMARK INTER + INTRA:          -4.320
REMARK INTER:                  -4.320
REMARK INTRA:                   0.000
REMARK UNBOUND:                 0.000
REMARK SMILES CC1=CC[C@@H]2[C@@H](C1)C2(C)C
REMARK SMILES IDX 1 1 2 2 3 3 4 4 5 5 6 6 7 7 8 8 9 9 10 10
REMARK H PARENT
REMARK Flexibility Score: inf
ROOT
ATOM      1  C   UNL     1      54.308  44.827  42.485  1.00  0.00     0.039 C 
ATOM      2  C   UNL     1      55.791  44.810  42.246  1.00  0.00    -0.077 C 
ATOM      3  C   UNL     1      56.440  45.980  41.972  1.00  0.00    -0.028 C 
ATOM      4  C   UNL     1      57.941  46.026  41.694  1.00  0.00     0.031 C 
ATOM      5  C   UNL     1      58.374  44.634  41.220  1.00  0.00     0.003 C 
ATOM      6  C   UNL     1      58.028  43.760  42.482  1.00  0.00     0.003 C 
ATOM      7  C   UNL     1      56.541  43.473  42.250  1.00  0.00     0.034 C 
ATOM      8  C   UNL     1      59.313  43.555  41.712  1.00  0.00    -0.029 C 
ATOM      9  C   UNL     1      60.604  44.051  42.370  1.00  0.00     0.012 C 
ATOM     10  C   UNL     1      59.390  42.270  40.883  1.00  0.00     0.012 C 
ENDROOT
TORSDOF 0
ENDMDL
MODEL 4
REMARK VINA RESULT:    -3.992      1.462      4.247
REMARK INTER + INTRA:          -3.992
REMARK INTER:                  -3.992
REMARK INTRA:                   0.000
REMARK UNBOUND:                 0.000
REMARK SMILES CC1=CC[C@@H]2[C@@H](C1)C2(C)C
REMARK SMILES IDX 1 1 2 2 3 3 4 4 5 5 6 6 7 7 8 8 9 9 10 10
REMARK H PARENT
REMARK Flexibility Score: inf
ROOT
ATOM      1  C   UNL     1      59.699  45.618  44.125  1.00  0.00     0.039 C 
ATOM      2  C   UNL     1      58.548  44.881  43.503  1.00  0.00    -0.077 C 
ATOM      3  C   UNL     1      58.795  43.837  42.658  1.00  0.00    -0.028 C 
ATOM      4  C   UNL     1      57.669  43.064  41.975  1.00  0.00     0.031 C 
ATOM      5  C   UNL     1      56.435  43.973  41.930  1.00  0.00     0.003 C 
ATOM      6  C   UNL     1      56.162  44.192  43.465  1.00  0.00     0.003 C 
ATOM      7  C   UNL     1      57.114  45.352  43.777  1.00  0.00     0.034 C 
ATOM      8  C   UNL     1      55.032  43.938  42.492  1.00  0.00    -0.029 C 
ATOM      9  C   UNL     1      54.373  42.556  42.540  1.00  0.00     0.012 C 
ATOM     10  C   UNL     1      54.133  45.141  42.194  1.00  0.00     0.012 C 
ENDROOT
TORSDOF 0
ENDMDL
MODEL 5
REMARK VINA RESULT:    -3.676      2.430      4.512
REMARK INTER + INTRA:          -3.676
REMARK INTER:                  -3.676
REMARK INTRA:                   0.000
REMARK UNBOUND:                 0.000
REMARK SMILES CC1=CC[C@@H]2[C@@H](C1)C2(C)C
REMARK SMILES IDX 1 1 2 2 3 3 4 4 5 5 6 6 7 7 8 8 9 9 10 10
REMARK H PARENT
REMARK Flexibility Score: inf
ROOT
ATOM      1  C   UNL     1      61.379  42.799  43.636  1.00  0.00     0.039 C 
ATOM      2  C   UNL     1      59.977  42.996  43.132  1.00  0.00    -0.077 C 
ATOM      3  C   UNL     1      59.729  42.923  41.792  1.00  0.00    -0.028 C 
ATOM      4  C   UNL     1      58.331  43.140  41.215  1.00  0.00     0.031 C 
ATOM      5  C   UNL     1      57.529  43.967  42.226  1.00  0.00     0.003 C 
ATOM      6  C   UNL     1      57.517  43.001  43.469  1.00  0.00     0.003 C 
ATOM      7  C   UNL     1      58.860  43.340  44.125  1.00  0.00     0.034 C 
ATOM      8  C   UNL     1      56.280  43.766  43.055  1.00  0.00    -0.029 C 
ATOM      9  C   UNL     1      55.161  42.965  42.382  1.00  0.00     0.012 C 
ATOM     10  C   UNL     1      55.870  44.913  43.983  1.00  0.00     0.012 C 
ENDROOT
TORSDOF 0
ENDMDL
MODEL 6
REMARK VINA RESULT:    -3.656     20.957     22.627
REMARK INTER + INTRA:          -3.656
REMARK INTER:                  -3.656
REMARK INTRA:                   0.000
REMARK UNBOUND:                 0.000
REMARK SMILES CC1=CC[C@@H]2[C@@H](C1)C2(C)C
REMARK SMILES IDX 1 1 2 2 3 3 4 4 5 5 6 6 7 7 8 8 9 9 10 10
REMARK H PARENT
REMARK Flexibility Score: inf
ROOT
ATOM      1  C   UNL     1      57.647  27.184  26.429  1.00  0.00     0.039 C 
ATOM      2  C   UNL     1      56.459  28.102  26.396  1.00  0.00    -0.077 C 
ATOM      3  C   UNL     1      55.349  27.791  27.127  1.00  0.00    -0.028 C 
ATOM      4  C   UNL     1      54.100  28.670  27.115  1.00  0.00     0.031 C 
ATOM      5  C   UNL     1      54.112  29.487  25.818  1.00  0.00     0.003 C 
ATOM      6  C   UNL     1      55.431  30.327  26.000  1.00  0.00     0.003 C 
ATOM      7  C   UNL     1      56.488  29.341  25.492  1.00  0.00     0.034 C 
ATOM      8  C   UNL     1      54.168  30.953  25.451  1.00  0.00    -0.029 C 
ATOM      9  C   UNL     1      53.400  31.897  26.380  1.00  0.00     0.012 C 
ATOM     10  C   UNL     1      54.194  31.295  23.958  1.00  0.00     0.012 C 
ENDROOT
TORSDOF 0
ENDMDL
MODEL 7
REMARK VINA RESULT:    -3.559     21.095     22.707
REMARK INTER + INTRA:          -3.559
REMARK INTER:                  -3.559
REMARK INTRA:                   0.000
REMARK UNBOUND:                 0.000
REMARK SMILES CC1=CC[C@@H]2[C@@H](C1)C2(C)C
REMARK SMILES IDX 1 1 2 2 3 3 4 4 5 5 6 6 7 7 8 8 9 9 10 10
REMARK H PARENT
REMARK Flexibility Score: inf
ROOT
ATOM      1  C   UNL     1      51.131  29.252  26.333  1.00  0.00     0.039 C 
ATOM      2  C   UNL     1      52.510  28.727  26.617  1.00  0.00    -0.077 C 
ATOM      3  C   UNL     1      52.660  27.457  27.096  1.00  0.00    -0.028 C 
ATOM      4  C   UNL     1      54.033  26.876  27.428  1.00  0.00     0.031 C 
ATOM      5  C   UNL     1      54.988  28.046  27.690  1.00  0.00     0.003 C 
ATOM      6  C   UNL     1      54.971  28.771  26.293  1.00  0.00     0.003 C 
ATOM      7  C   UNL     1      53.721  29.648  26.425  1.00  0.00     0.034 C 
ATOM      8  C   UNL     1      56.257  28.580  27.065  1.00  0.00    -0.029 C 
ATOM      9  C   UNL     1      57.232  27.522  26.539  1.00  0.00     0.012 C 
ATOM     10  C   UNL     1      56.855  29.848  27.681  1.00  0.00     0.012 C 
ENDROOT
TORSDOF 0
ENDMDL
MODEL 8
REMARK VINA RESULT:    -3.487     21.531     23.118
REMARK INTER + INTRA:          -3.487
REMARK INTER:                  -3.487
REMARK INTRA:                   0.000
REMARK UNBOUND:                 0.000
REMARK SMILES CC1=CC[C@@H]2[C@@H](C1)C2(C)C
REMARK SMILES IDX 1 1 2 2 3 3 4 4 5 5 6 6 7 7 8 8 9 9 10 10
REMARK H PARENT
REMARK Flexibility Score: inf
ROOT
ATOM      1  C   UNL     1      52.488  30.817  25.264  1.00  0.00     0.039 C 
ATOM      2  C   UNL     1      53.834  30.215  25.554  1.00  0.00    -0.077 C 
ATOM      3  C   UNL     1      54.635  30.785  26.501  1.00  0.00    -0.028 C 
ATOM      4  C   UNL     1      56.024  30.236  26.823  1.00  0.00     0.031 C 
ATOM      5  C   UNL     1      56.510  29.444  25.604  1.00  0.00     0.003 C 
ATOM      6  C   UNL     1      55.423  28.308  25.526  1.00  0.00     0.003 C 
ATOM      7  C   UNL     1      54.312  29.008  24.737  1.00  0.00     0.034 C 
ATOM      8  C   UNL     1      56.891  28.009  25.315  1.00  0.00    -0.029 C 
ATOM      9  C   UNL     1      57.620  27.278  26.446  1.00  0.00     0.012 C 
ATOM     10  C   UNL     1      57.298  27.674  23.877  1.00  0.00     0.012 C 
ENDROOT
TORSDOF 0
ENDMDL
