MODEL 1
REMARK VINA RESULT:    -4.789      0.000      0.000
REMARK INTER + INTRA:          -8.329
REMARK INTER:                  -7.309
REMARK INTRA:                  -1.019
REMARK UNBOUND:                -1.019
REMARK SMILES CCCCCCCCCC=CC(=O)[O-]
REMARK SMILES IDX 7 1 8 2 9 3 10 4 11 5 12 6 13 7 14 8 6 9 5 10 4 11 3 12 2 13
REMARK SMILES IDX 1 14
REMARK H PARENT
REMARK Flexibility Score: inf
ROOT
ATOM      1  C   UNL     1       6.927 -13.351  -4.223  1.00  0.00     0.000 C 
ENDROOT
BRANCH   1   2
ATOM      2  C   UNL     1       5.428 -13.166  -4.506  1.00  0.00     0.004 C 
BRANCH   2   3
ATOM      3  C   UNL     1       5.146 -11.987  -5.451  1.00  0.00     0.027 C 
BRANCH   3   4
ATOM      4  C   UNL     1       4.704 -10.768  -4.689  1.00  0.00    -0.025 C 
ATOM      5  C   UNL     1       4.364  -9.584  -5.223  1.00  0.00     0.020 C 
BRANCH   5   6
ATOM      6  C   UNL     1       4.321  -9.245  -6.662  1.00  0.00     0.064 C 
ATOM      7  O   UNL     1       5.188  -8.462  -7.127  1.00  0.00    -0.545 OA
ATOM      8  O   UNL     1       3.345  -9.745  -7.513  1.00  0.00    -0.545 OA
ENDBRANCH   5   6
ENDBRANCH   3   4
ENDBRANCH   2   3
ENDBRANCH   1   2
BRANCH   1   9
ATOM      9  C   UNL     1       7.252 -13.336  -2.721  1.00  0.00     0.000 C 
BRANCH   9  10
ATOM     10  C   UNL     1       5.998 -13.020  -1.893  1.00  0.00     0.000 C 
BRANCH  10  11
ATOM     11  C   UNL     1       6.041 -11.620  -1.259  1.00  0.00    -0.000 C 
BRANCH  11  12
ATOM     12  C   UNL     1       7.333 -10.856  -1.598  1.00  0.00    -0.000 C 
BRANCH  12  13
ATOM     13  C   UNL     1       7.977 -10.212  -0.362  1.00  0.00    -0.003 C 
ATOM     14  C   UNL     1       9.104 -11.058   0.230  1.00  0.00     0.004 C 
ENDBRANCH  12  13
ENDBRANCH  11  12
ENDBRANCH  10  11
ENDBRANCH   9  10
ENDBRANCH   1   9
TORSDOF 9
ENDMDL
MODEL 2
REMARK VINA RESULT:    -4.753      3.084      3.858
REMARK INTER + INTRA:          -8.274
REMARK INTER:                  -7.299
REMARK INTRA:                  -0.975
REMARK UNBOUND:                -1.019
REMARK SMILES CCCCCCCCCC=CC(=O)[O-]
REMARK SMILES IDX 7 1 8 2 9 3 10 4 11 5 12 6 13 7 14 8 6 9 5 10 4 11 3 12 2 13
REMARK SMILES IDX 1 14
REMARK H PARENT
REMARK Flexibility Score: inf
ROOT
ATOM      1  C   UNL     1       6.548 -12.028  -3.517  1.00  0.00     0.000 C 
ENDROOT
BRANCH   1   2
ATOM      2  C   UNL     1       5.587 -11.868  -4.705  1.00  0.00     0.004 C 
BRANCH   2   3
ATOM      3  C   UNL     1       4.955 -13.201  -5.137  1.00  0.00     0.027 C 
BRANCH   3   4
ATOM      4  C   UNL     1       3.455 -13.156  -5.023  1.00  0.00    -0.025 C 
ATOM      5  C   UNL     1       2.734 -13.518  -3.949  1.00  0.00     0.020 C 
BRANCH   5   6
ATOM      6  C   UNL     1       3.261 -13.999  -2.654  1.00  0.00     0.064 C 
ATOM      7  O   UNL     1       3.216 -15.230  -2.400  1.00  0.00    -0.545 OA
ATOM      8  O   UNL     1       3.786 -13.137  -1.700  1.00  0.00    -0.545 OA
ENDBRANCH   5   6
ENDBRANCH   3   4
ENDBRANCH   2   3
ENDBRANCH   1   2
BRANCH   1   9
ATOM      9  C   UNL     1       7.259 -13.391  -3.509  1.00  0.00     0.000 C 
BRANCH   9  10
ATOM     10  C   UNL     1       7.649 -13.796  -2.080  1.00  0.00     0.000 C 
BRANCH  10  11
ATOM     11  C   UNL     1       7.489 -12.646  -1.072  1.00  0.00    -0.000 C 
BRANCH  11  12
ATOM     12  C   UNL     1       8.735 -12.454  -0.190  1.00  0.00    -0.000 C 
BRANCH  12  13
ATOM     13  C   UNL     1       9.180 -10.986  -0.112  1.00  0.00    -0.003 C 
ATOM     14  C   UNL     1       8.004 -10.009  -0.099  1.00  0.00     0.004 C 
ENDBRANCH  12  13
ENDBRANCH  11  12
ENDBRANCH  10  11
ENDBRANCH   9  10
ENDBRANCH   1   9
TORSDOF 9
ENDMDL
MODEL 3
REMARK VINA RESULT:    -4.735      2.910      5.805
REMARK INTER + INTRA:          -8.246
REMARK INTER:                  -7.572
REMARK INTRA:                  -0.674
REMARK UNBOUND:                -1.019
REMARK SMILES CCCCCCCCCC=CC(=O)[O-]
REMARK SMILES IDX 7 1 8 2 9 3 10 4 11 5 12 6 13 7 14 8 6 9 5 10 4 11 3 12 2 13
REMARK SMILES IDX 1 14
REMARK H PARENT
REMARK Flexibility Score: inf
ROOT
ATOM      1  C   UNL     1       7.184 -13.353  -3.746  1.00  0.00     0.000 C 
ENDROOT
BRANCH   1   2
ATOM      2  C   UNL     1       7.866 -13.815  -2.449  1.00  0.00     0.004 C 
BRANCH   2   3
ATOM      3  C   UNL     1       7.358 -13.058  -1.212  1.00  0.00     0.027 C 
BRANCH   3   4
ATOM      4  C   UNL     1       8.497 -12.475  -0.421  1.00  0.00    -0.025 C 
ATOM      5  C   UNL     1       8.615 -11.194  -0.035  1.00  0.00     0.020 C 
BRANCH   5   6
ATOM      6  C   UNL     1       7.643 -10.107  -0.275  1.00  0.00     0.064 C 
ATOM      7  O   UNL     1       7.006  -9.635   0.701  1.00  0.00    -0.545 OA
ATOM      8  O   UNL     1       7.394  -9.601  -1.544  1.00  0.00    -0.545 OA
ENDBRANCH   5   6
ENDBRANCH   3   4
ENDBRANCH   2   3
ENDBRANCH   1   2
BRANCH   1   9
ATOM      9  C   UNL     1       5.857 -12.621  -3.489  1.00  0.00     0.000 C 
BRANCH   9  10
ATOM     10  C   UNL     1       4.675 -13.416  -4.062  1.00  0.00     0.000 C 
BRANCH  10  11
ATOM     11  C   UNL     1       4.401 -13.092  -5.539  1.00  0.00    -0.000 C 
BRANCH  11  12
ATOM     12  C   UNL     1       3.928 -11.643  -5.749  1.00  0.00    -0.000 C 
BRANCH  12  13
ATOM     13  C   UNL     1       4.876 -10.839  -6.651  1.00  0.00    -0.003 C 
ATOM     14  C   UNL     1       4.552  -9.345  -6.671  1.00  0.00     0.004 C 
ENDBRANCH  12  13
ENDBRANCH  11  12
ENDBRANCH  10  11
ENDBRANCH   9  10
ENDBRANCH   1   9
TORSDOF 9
ENDMDL
MODEL 4
REMARK VINA RESULT:    -4.712      3.538      4.542
REMARK INTER + INTRA:          -8.211
REMARK INTER:                  -7.465
REMARK INTRA:                  -0.746
REMARK UNBOUND:                -1.019
REMARK SMILES CCCCCCCCCC=CC(=O)[O-]
REMARK SMILES IDX 7 1 8 2 9 3 10 4 11 5 12 6 13 7 14 8 6 9 5 10 4 11 3 12 2 13
REMARK SMILES IDX 1 14
REMARK H PARENT
REMARK Flexibility Score: inf
ROOT
ATOM      1  C   UNL     1       6.090 -12.477  -3.672  1.00  0.00     0.000 C 
ENDROOT
BRANCH   1   2
ATOM      2  C   UNL     1       5.129 -12.817  -4.822  1.00  0.00     0.004 C 
BRANCH   2   3
ATOM      3  C   UNL     1       3.910 -13.626  -4.354  1.00  0.00     0.027 C 
BRANCH   3   4
ATOM      4  C   UNL     1       3.961 -13.884  -2.872  1.00  0.00    -0.025 C 
ATOM      5  C   UNL     1       3.168 -14.727  -2.190  1.00  0.00     0.020 C 
BRANCH   5   6
ATOM      6  C   UNL     1       2.111 -15.594  -2.753  1.00  0.00     0.064 C 
ATOM      7  O   UNL     1       1.011 -15.079  -3.078  1.00  0.00    -0.545 OA
ATOM      8  O   UNL     1       2.284 -16.963  -2.917  1.00  0.00    -0.545 OA
ENDBRANCH   5   6
ENDBRANCH   3   4
ENDBRANCH   2   3
ENDBRANCH   1   2
BRANCH   1   9
ATOM      9  C   UNL     1       7.328 -13.388  -3.646  1.00  0.00     0.000 C 
BRANCH   9  10
ATOM     10  C   UNL     1       7.656 -13.822  -2.210  1.00  0.00     0.000 C 
BRANCH  10  11
ATOM     11  C   UNL     1       7.441 -12.697  -1.185  1.00  0.00    -0.000 C 
BRANCH  11  12
ATOM     12  C   UNL     1       8.678 -12.455  -0.303  1.00  0.00    -0.000 C 
BRANCH  12  13
ATOM     13  C   UNL     1       8.672 -11.066   0.351  1.00  0.00    -0.003 C 
ATOM     14  C   UNL     1       7.868 -10.038  -0.445  1.00  0.00     0.004 C 
ENDBRANCH  12  13
ENDBRANCH  11  12
ENDBRANCH  10  11
ENDBRANCH   9  10
ENDBRANCH   1   9
TORSDOF 9
ENDMDL
MODEL 5
REMARK VINA RESULT:    -4.694      1.238      1.952
REMARK INTER + INTRA:          -8.184
REMARK INTER:                  -7.607
REMARK INTRA:                  -0.577
REMARK UNBOUND:                -1.019
REMARK SMILES CCCCCCCCCC=CC(=O)[O-]
REMARK SMILES IDX 7 1 8 2 9 3 10 4 11 5 12 6 13 7 14 8 6 9 5 10 4 11 3 12 2 13
REMARK SMILES IDX 1 14
REMARK H PARENT
REMARK Flexibility Score: inf
ROOT
ATOM      1  C   UNL     1       5.048 -12.373  -3.895  1.00  0.00     0.000 C 
ENDROOT
BRANCH   1   2
ATOM      2  C   UNL     1       4.921 -11.023  -4.619  1.00  0.00     0.004 C 
BRANCH   2   3
ATOM      3  C   UNL     1       4.827 -11.178  -6.145  1.00  0.00     0.027 C 
BRANCH   3   4
ATOM      4  C   UNL     1       3.534 -10.617  -6.672  1.00  0.00    -0.025 C 
ATOM      5  C   UNL     1       3.392  -9.469  -7.354  1.00  0.00     0.020 C 
BRANCH   5   6
ATOM      6  C   UNL     1       4.472  -8.540  -7.753  1.00  0.00     0.064 C 
ATOM      7  O   UNL     1       4.756  -8.429  -8.974  1.00  0.00    -0.545 OA
ATOM      8  O   UNL     1       5.196  -7.801  -6.827  1.00  0.00    -0.545 OA
ENDBRANCH   5   6
ENDBRANCH   3   4
ENDBRANCH   2   3
ENDBRANCH   1   2
BRANCH   1   9
ATOM      9  C   UNL     1       6.202 -13.230  -4.437  1.00  0.00     0.000 C 
BRANCH   9  10
ATOM     10  C   UNL     1       7.357 -13.293  -3.427  1.00  0.00     0.000 C 
BRANCH  10  11
ATOM     11  C   UNL     1       6.871 -13.299  -1.968  1.00  0.00    -0.000 C 
BRANCH  11  12
ATOM     12  C   UNL     1       7.974 -12.897  -0.975  1.00  0.00    -0.000 C 
BRANCH  12  13
ATOM     13  C   UNL     1       8.080 -11.375  -0.796  1.00  0.00    -0.003 C 
ATOM     14  C   UNL     1       9.154 -10.969   0.213  1.00  0.00     0.004 C 
ENDBRANCH  12  13
ENDBRANCH  11  12
ENDBRANCH  10  11
ENDBRANCH   9  10
ENDBRANCH   1   9
TORSDOF 9
ENDMDL
MODEL 6
REMARK VINA RESULT:    -4.684      1.505      2.562
REMARK INTER + INTRA:          -8.168
REMARK INTER:                  -7.173
REMARK INTRA:                  -0.996
REMARK UNBOUND:                -1.019
REMARK SMILES CCCCCCCCCC=CC(=O)[O-]
REMARK SMILES IDX 7 1 8 2 9 3 10 4 11 5 12 6 13 7 14 8 6 9 5 10 4 11 3 12 2 13
REMARK SMILES IDX 1 14
REMARK H PARENT
REMARK Flexibility Score: inf
ROOT
ATOM      1  C   UNL     1       7.706 -13.767  -2.336  1.00  0.00     0.000 C 
ENDROOT
BRANCH   1   2
ATOM      2  C   UNL     1       7.178 -13.044  -3.584  1.00  0.00     0.004 C 
BRANCH   2   3
ATOM      3  C   UNL     1       5.650 -13.137  -3.719  1.00  0.00     0.027 C 
BRANCH   3   4
ATOM      4  C   UNL     1       5.227 -13.131  -5.163  1.00  0.00    -0.025 C 
ATOM      5  C   UNL     1       4.538 -12.157  -5.779  1.00  0.00     0.020 C 
BRANCH   5   6
ATOM      6  C   UNL     1       4.083 -10.883  -5.181  1.00  0.00     0.064 C 
ATOM      7  O   UNL     1       4.677  -9.820  -5.494  1.00  0.00    -0.545 OA
ATOM      8  O   UNL     1       3.036 -10.823  -4.272  1.00  0.00    -0.545 OA
ENDBRANCH   5   6
ENDBRANCH   3   4
ENDBRANCH   2   3
ENDBRANCH   1   2
BRANCH   1   9
ATOM      9  C   UNL     1       7.465 -12.971  -1.044  1.00  0.00     0.000 C 
BRANCH   9  10
ATOM     10  C   UNL     1       8.793 -12.478  -0.450  1.00  0.00     0.000 C 
BRANCH  10  11
ATOM     11  C   UNL     1       8.719 -11.024   0.043  1.00  0.00    -0.000 C 
BRANCH  11  12
ATOM     12  C   UNL     1       7.307 -10.426  -0.084  1.00  0.00    -0.000 C 
BRANCH  12  13
ATOM     13  C   UNL     1       7.162  -9.516  -1.313  1.00  0.00    -0.003 C 
ATOM     14  C   UNL     1       5.847  -9.734  -2.061  1.00  0.00     0.004 C 
ENDBRANCH  12  13
ENDBRANCH  11  12
ENDBRANCH  10  11
ENDBRANCH   9  10
ENDBRANCH   1   9
TORSDOF 9
ENDMDL
MODEL 7
REMARK VINA RESULT:    -4.679      3.190      5.503
REMARK INTER + INTRA:          -8.160
REMARK INTER:                  -7.097
REMARK INTRA:                  -1.063
REMARK UNBOUND:                -1.019
REMARK SMILES CCCCCCCCCC=CC(=O)[O-]
REMARK SMILES IDX 7 1 8 2 9 3 10 4 11 5 12 6 13 7 14 8 6 9 5 10 4 11 3 12 2 13
REMARK SMILES IDX 1 14
REMARK H PARENT
REMARK Flexibility Score: inf
ROOT
ATOM      1  C   UNL     1       7.010 -12.531  -3.294  1.00  0.00     0.000 C 
ENDROOT
BRANCH   1   2
ATOM      2  C   UNL     1       7.832 -13.419  -2.347  1.00  0.00     0.004 C 
BRANCH   2   3
ATOM      3  C   UNL     1       7.617 -13.062  -0.867  1.00  0.00     0.027 C 
BRANCH   3   4
ATOM      4  C   UNL     1       8.783 -12.286  -0.317  1.00  0.00    -0.025 C 
ATOM      5  C   UNL     1       8.805 -10.967  -0.068  1.00  0.00     0.020 C 
BRANCH   5   6
ATOM      6  C   UNL     1       7.687 -10.015  -0.250  1.00  0.00     0.064 C 
ATOM      7  O   UNL     1       7.022  -9.660   0.757  1.00  0.00    -0.545 OA
ATOM      8  O   UNL     1       7.334  -9.514  -1.496  1.00  0.00    -0.545 OA
ENDBRANCH   5   6
ENDBRANCH   3   4
ENDBRANCH   2   3
ENDBRANCH   1   2
BRANCH   1   9
ATOM      9  C   UNL     1       6.681 -13.229  -4.623  1.00  0.00     0.000 C 
BRANCH   9  10
ATOM     10  C   UNL     1       5.170 -13.200  -4.896  1.00  0.00     0.000 C 
BRANCH  10  11
ATOM     11  C   UNL     1       4.342 -12.934  -3.627  1.00  0.00    -0.000 C 
BRANCH  11  12
ATOM     12  C   UNL     1       3.417 -14.110  -3.267  1.00  0.00    -0.000 C 
BRANCH  12  13
ATOM     13  C   UNL     1       3.511 -14.499  -1.784  1.00  0.00    -0.003 C 
ATOM     14  C   UNL     1       4.053 -13.371  -0.907  1.00  0.00     0.004 C 
ENDBRANCH  12  13
ENDBRANCH  11  12
ENDBRANCH  10  11
ENDBRANCH   9  10
ENDBRANCH   1   9
TORSDOF 9
ENDMDL
MODEL 8
REMARK VINA RESULT:    -4.654      2.653      3.532
REMARK INTER + INTRA:          -8.122
REMARK INTER:                  -7.406
REMARK INTRA:                  -0.716
REMARK UNBOUND:                -1.019
REMARK SMILES CCCCCCCCCC=CC(=O)[O-]
REMARK SMILES IDX 7 1 8 2 9 3 10 4 11 5 12 6 13 7 14 8 6 9 5 10 4 11 3 12 2 13
REMARK SMILES IDX 1 14
REMARK H PARENT
REMARK Flexibility Score: inf
ROOT
ATOM      1  C   UNL     1       6.420 -11.985  -3.639  1.00  0.00     0.000 C 
ENDROOT
BRANCH   1   2
ATOM      2  C   UNL     1       5.336 -11.950  -4.726  1.00  0.00     0.004 C 
BRANCH   2   3
ATOM      3  C   UNL     1       4.727 -13.335  -4.998  1.00  0.00     0.027 C 
BRANCH   3   4
ATOM      4  C   UNL     1       3.613 -13.641  -4.034  1.00  0.00    -0.025 C 
ATOM      5  C   UNL     1       2.398 -14.114  -4.357  1.00  0.00     0.020 C 
BRANCH   5   6
ATOM      6  C   UNL     1       1.917 -14.460  -5.712  1.00  0.00     0.064 C 
ATOM      7  O   UNL     1       1.124 -13.676  -6.294  1.00  0.00    -0.545 OA
ATOM      8  O   UNL     1       2.295 -15.630  -6.357  1.00  0.00    -0.545 OA
ENDBRANCH   5   6
ENDBRANCH   3   4
ENDBRANCH   2   3
ENDBRANCH   1   2
BRANCH   1   9
ATOM      9  C   UNL     1       7.233 -13.290  -3.654  1.00  0.00     0.000 C 
BRANCH   9  10
ATOM     10  C   UNL     1       7.580 -13.734  -2.225  1.00  0.00     0.000 C 
BRANCH  10  11
ATOM     11  C   UNL     1       7.495 -12.584  -1.209  1.00  0.00    -0.000 C 
BRANCH  11  12
ATOM     12  C   UNL     1       8.715 -12.530  -0.273  1.00  0.00    -0.000 C 
BRANCH  12  13
ATOM     13  C   UNL     1       9.094 -11.093   0.117  1.00  0.00    -0.003 C 
ATOM     14  C   UNL     1       7.975 -10.088  -0.157  1.00  0.00     0.004 C 
ENDBRANCH  12  13
ENDBRANCH  11  12
ENDBRANCH  10  11
ENDBRANCH   9  10
ENDBRANCH   1   9
TORSDOF 9
ENDMDL
MODEL 9
REMARK VINA RESULT:    -4.532      3.303      5.061
REMARK INTER + INTRA:          -7.936
REMARK INTER:                  -6.827
REMARK INTRA:                  -1.108
REMARK UNBOUND:                -1.019
REMARK SMILES CCCCCCCCCC=CC(=O)[O-]
REMARK SMILES IDX 7 1 8 2 9 3 10 4 11 5 12 6 13 7 14 8 6 9 5 10 4 11 3 12 2 13
REMARK SMILES IDX 1 14
REMARK H PARENT
REMARK Flexibility Score: inf
ROOT
ATOM      1  C   UNL     1       8.397 -11.207  -0.983  1.00  0.00     0.000 C 
ENDROOT
BRANCH   1   2
ATOM      2  C   UNL     1       8.106 -10.159   0.102  1.00  0.00     0.004 C 
BRANCH   2   3
ATOM      3  C   UNL     1       7.006  -9.169  -0.313  1.00  0.00     0.027 C 
BRANCH   3   4
ATOM      4  C   UNL     1       6.443  -9.513  -1.665  1.00  0.00    -0.025 C 
ATOM      5  C   UNL     1       5.268 -10.120  -1.899  1.00  0.00     0.020 C 
BRANCH   5   6
ATOM      6  C   UNL     1       4.275 -10.541  -0.888  1.00  0.00     0.064 C 
ATOM      7  O   UNL     1       3.560  -9.666  -0.337  1.00  0.00    -0.545 OA
ATOM      8  O   UNL     1       4.117 -11.868  -0.511  1.00  0.00    -0.545 OA
ENDBRANCH   5   6
ENDBRANCH   3   4
ENDBRANCH   2   3
ENDBRANCH   1   2
BRANCH   1   9
ATOM      9  C   UNL     1       8.397 -12.643  -0.435  1.00  0.00     0.000 C 
BRANCH   9  10
ATOM     10  C   UNL     1       8.112 -13.655  -1.555  1.00  0.00     0.000 C 
BRANCH  10  11
ATOM     11  C   UNL     1       6.835 -13.323  -2.345  1.00  0.00    -0.000 C 
BRANCH  11  12
ATOM     12  C   UNL     1       7.102 -13.134  -3.848  1.00  0.00    -0.000 C 
BRANCH  12  13
ATOM     13  C   UNL     1       5.809 -13.113  -4.677  1.00  0.00    -0.003 C 
ATOM     14  C   UNL     1       4.552 -13.267  -3.821  1.00  0.00     0.004 C 
ENDBRANCH  12  13
ENDBRANCH  11  12
ENDBRANCH  10  11
ENDBRANCH   9  10
ENDBRANCH   1   9
TORSDOF 9
ENDMDL
