MODEL 1
REMARK VINA RESULT:    -3.727      0.000      0.000
REMARK INTER + INTRA:          -6.384
REMARK INTER:                  -5.688
REMARK INTRA:                  -0.697
REMARK UNBOUND:                -0.697
REMARK SMILES CC(=O)CCC=C(C)CCC=C(C)CCC=C(C)C
REMARK SMILES IDX 10 1 11 2 12 3 13 4 14 5 15 6 16 7 18 8 17 9 19 10 9 11 7 12
REMARK SMILES IDX 6 13 8 14 5 15 4 16 2 17 3 18 1 19
REMARK H PARENT
REMARK Flexibility Score: inf
ROOT
ATOM      1  C   UNL     1      74.431  74.640  78.846  1.00  0.00     0.032 C 
ENDROOT
BRANCH   1   2
ATOM      2  C   UNL     1      75.053  75.082  80.150  1.00  0.00    -0.028 C 
ATOM      3  C   UNL     1      74.708  74.623  81.375  1.00  0.00    -0.077 C 
ATOM      4  C   UNL     1      75.468  75.143  82.568  1.00  0.00     0.039 C 
BRANCH   3   5
ATOM      5  C   UNL     1      73.558  73.658  81.614  1.00  0.00     0.034 C 
BRANCH   5   6
ATOM      6  C   UNL     1      73.531  73.149  83.063  1.00  0.00     0.032 C 
BRANCH   6   7
ATOM      7  C   UNL     1      72.423  72.148  83.290  1.00  0.00    -0.028 C 
ATOM      8  C   UNL     1      73.710  70.243  82.297  1.00  0.00     0.039 C 
ATOM      9  C   UNL     1      72.479  70.847  82.932  1.00  0.00    -0.080 C 
ATOM     10  C   UNL     1      71.272  69.981  83.182  1.00  0.00     0.039 C 
ENDBRANCH   6   7
ENDBRANCH   5   6
ENDBRANCH   3   5
ENDBRANCH   1   2
BRANCH   1  11
ATOM     11  C   UNL     1      75.492  74.174  77.838  1.00  0.00     0.034 C 
BRANCH  11  12
ATOM     12  C   UNL     1      75.067  74.445  76.408  1.00  0.00    -0.077 C 
ATOM     13  C   UNL     1      75.963  74.978  75.545  1.00  0.00    -0.028 C 
ATOM     14  C   UNL     1      73.661  74.092  75.982  1.00  0.00     0.039 C 
BRANCH  13  15
ATOM     15  C   UNL     1      75.662  75.324  74.109  1.00  0.00     0.035 C 
BRANCH  15  16
ATOM     16  C   UNL     1      75.730  74.075  73.224  1.00  0.00     0.079 C 
BRANCH  16  17
ATOM     17  C   UNL     1      74.460  73.909  72.437  1.00  0.00     0.130 C 
ATOM     18  O   UNL     1      74.270  72.883  71.800  1.00  0.00    -0.300 OA
ATOM     19  C   UNL     1      73.414  74.983  72.446  1.00  0.00     0.087 C 
ENDBRANCH  16  17
ENDBRANCH  15  16
ENDBRANCH  13  15
ENDBRANCH  11  12
ENDBRANCH   1  11
TORSDOF 9
ENDMDL
MODEL 2
REMARK VINA RESULT:    -3.709      6.134      7.815
REMARK INTER + INTRA:          -6.357
REMARK INTER:                  -5.660
REMARK INTRA:                  -0.697
REMARK UNBOUND:                -0.697
REMARK SMILES CC(=O)CCC=C(C)CCC=C(C)CCC=C(C)C
REMARK SMILES IDX 10 1 11 2 12 3 13 4 14 5 15 6 16 7 18 8 17 9 19 10 9 11 7 12
REMARK SMILES IDX 6 13 8 14 5 15 4 16 2 17 3 18 1 19
REMARK H PARENT
REMARK Flexibility Score: inf
ROOT
ATOM      1  C   UNL     1      72.317  72.202  82.824  1.00  0.00     0.032 C 
ENDROOT
BRANCH   1   2
ATOM      2  C   UNL     1      72.733  70.829  83.296  1.00  0.00    -0.028 C 
ATOM      3  C   UNL     1      71.891  69.865  83.734  1.00  0.00    -0.077 C 
ATOM      4  C   UNL     1      72.479  68.534  84.125  1.00  0.00     0.039 C 
BRANCH   3   5
ATOM      5  C   UNL     1      70.396  70.076  83.908  1.00  0.00     0.034 C 
BRANCH   5   6
ATOM      6  C   UNL     1      69.644  68.744  84.047  1.00  0.00     0.032 C 
BRANCH   6   7
ATOM      7  C   UNL     1      68.208  68.855  83.590  1.00  0.00    -0.028 C 
ATOM      8  C   UNL     1      68.021  66.422  83.027  1.00  0.00     0.039 C 
ATOM      9  C   UNL     1      67.475  67.828  83.110  1.00  0.00    -0.080 C 
ATOM     10  C   UNL     1      66.068  68.105  82.647  1.00  0.00     0.039 C 
ENDBRANCH   6   7
ENDBRANCH   5   6
ENDBRANCH   3   5
ENDBRANCH   1   2
BRANCH   1  11
ATOM     11  C   UNL     1      73.498  72.982  82.226  1.00  0.00     0.034 C 
BRANCH  11  12
ATOM     12  C   UNL     1      73.845  74.202  83.056  1.00  0.00    -0.077 C 
ATOM     13  C   UNL     1      75.015  74.843  82.827  1.00  0.00    -0.028 C 
ATOM     14  C   UNL     1      72.864  74.681  84.101  1.00  0.00     0.039 C 
BRANCH  13  15
ATOM     15  C   UNL     1      75.494  76.046  83.599  1.00  0.00     0.035 C 
BRANCH  15  16
ATOM     16  C   UNL     1      76.775  76.614  82.980  1.00  0.00     0.079 C 
BRANCH  16  17
ATOM     17  C   UNL     1      76.676  78.105  82.820  1.00  0.00     0.130 C 
ATOM     18  O   UNL     1      77.693  78.781  82.782  1.00  0.00    -0.300 OA
ATOM     19  C   UNL     1      75.337  78.767  82.684  1.00  0.00     0.087 C 
ENDBRANCH  16  17
ENDBRANCH  15  16
ENDBRANCH  13  15
ENDBRANCH  11  12
ENDBRANCH   1  11
TORSDOF 9
ENDMDL
MODEL 3
REMARK VINA RESULT:    -3.611      2.022      4.570
REMARK INTER + INTRA:          -6.207
REMARK INTER:                  -5.383
REMARK INTRA:                  -0.824
REMARK UNBOUND:                -0.697
REMARK SMILES CC(=O)CCC=C(C)CCC=C(C)CCC=C(C)C
REMARK SMILES IDX 10 1 11 2 12 3 13 4 14 5 15 6 16 7 18 8 17 9 19 10 9 11 7 12
REMARK SMILES IDX 6 13 8 14 5 15 4 16 2 17 3 18 1 19
REMARK H PARENT
REMARK Flexibility Score: inf
ROOT
ATOM      1  C   UNL     1      75.006  74.904  78.925  1.00  0.00     0.032 C 
ENDROOT
BRANCH   1   2
ATOM      2  C   UNL     1      74.265  74.361  80.124  1.00  0.00    -0.028 C 
ATOM      3  C   UNL     1      74.577  74.615  81.416  1.00  0.00    -0.077 C 
ATOM      4  C   UNL     1      73.697  74.024  82.488  1.00  0.00     0.039 C 
BRANCH   3   5
ATOM      5  C   UNL     1      75.798  75.413  81.842  1.00  0.00     0.034 C 
BRANCH   5   6
ATOM      6  C   UNL     1      75.507  76.296  83.064  1.00  0.00     0.032 C 
BRANCH   6   7
ATOM      7  C   UNL     1      76.632  77.264  83.343  1.00  0.00    -0.028 C 
ATOM      8  C   UNL     1      75.518  79.164  82.152  1.00  0.00     0.039 C 
ATOM      9  C   UNL     1      76.661  78.547  82.922  1.00  0.00    -0.080 C 
ATOM     10  C   UNL     1      77.878  79.379  83.238  1.00  0.00     0.039 C 
ENDBRANCH   6   7
ENDBRANCH   5   6
ENDBRANCH   3   5
ENDBRANCH   1   2
BRANCH   1  11
ATOM     11  C   UNL     1      75.103  73.867  77.796  1.00  0.00     0.034 C 
BRANCH  11  12
ATOM     12  C   UNL     1      74.959  74.508  76.430  1.00  0.00    -0.077 C 
ATOM     13  C   UNL     1      73.802  74.347  75.747  1.00  0.00    -0.028 C 
ATOM     14  C   UNL     1      76.104  75.325  75.880  1.00  0.00     0.039 C 
BRANCH  13  15
ATOM     15  C   UNL     1      73.540  74.905  74.371  1.00  0.00     0.035 C 
BRANCH  15  16
ATOM     16  C   UNL     1      73.835  73.855  73.294  1.00  0.00     0.079 C 
BRANCH  16  17
ATOM     17  C   UNL     1      75.289  73.876  72.912  1.00  0.00     0.130 C 
ATOM     18  O   UNL     1      76.021  72.961  73.261  1.00  0.00    -0.300 OA
ATOM     19  C   UNL     1      75.842  74.999  72.087  1.00  0.00     0.087 C 
ENDBRANCH  16  17
ENDBRANCH  15  16
ENDBRANCH  13  15
ENDBRANCH  11  12
ENDBRANCH   1  11
TORSDOF 9
ENDMDL
MODEL 4
REMARK VINA RESULT:    -3.570      0.918      1.275
REMARK INTER + INTRA:          -6.145
REMARK INTER:                  -5.523
REMARK INTRA:                  -0.622
REMARK UNBOUND:                -0.697
REMARK SMILES CC(=O)CCC=C(C)CCC=C(C)CCC=C(C)C
REMARK SMILES IDX 10 1 11 2 12 3 13 4 14 5 15 6 16 7 18 8 17 9 19 10 9 11 7 12
REMARK SMILES IDX 6 13 8 14 5 15 4 16 2 17 3 18 1 19
REMARK H PARENT
REMARK Flexibility Score: inf
ROOT
ATOM      1  C   UNL     1      74.398  74.640  78.893  1.00  0.00     0.032 C 
ENDROOT
BRANCH   1   2
ATOM      2  C   UNL     1      75.068  75.090  80.169  1.00  0.00    -0.028 C 
ATOM      3  C   UNL     1      74.753  74.657  81.412  1.00  0.00    -0.077 C 
ATOM      4  C   UNL     1      75.559  75.181  82.572  1.00  0.00     0.039 C 
BRANCH   3   5
ATOM      5  C   UNL     1      73.592  73.719  81.702  1.00  0.00     0.034 C 
BRANCH   5   6
ATOM      6  C   UNL     1      73.695  73.099  83.103  1.00  0.00     0.032 C 
BRANCH   6   7
ATOM      7  C   UNL     1      72.560  72.142  83.383  1.00  0.00    -0.028 C 
ATOM      8  C   UNL     1      73.701  70.204  82.281  1.00  0.00     0.039 C 
ATOM      9  C   UNL     1      72.539  70.846  83.001  1.00  0.00    -0.080 C 
ATOM     10  C   UNL     1      71.313  70.027  83.311  1.00  0.00     0.039 C 
ENDBRANCH   6   7
ENDBRANCH   5   6
ENDBRANCH   3   5
ENDBRANCH   1   2
BRANCH   1  11
ATOM     11  C   UNL     1      75.404  74.033  77.903  1.00  0.00     0.034 C 
BRANCH  11  12
ATOM     12  C   UNL     1      75.152  74.503  76.484  1.00  0.00    -0.077 C 
ATOM     13  C   UNL     1      74.031  74.095  75.845  1.00  0.00    -0.028 C 
ATOM     14  C   UNL     1      76.149  75.432  75.833  1.00  0.00     0.039 C 
BRANCH  13  15
ATOM     15  C   UNL     1      73.675  74.463  74.428  1.00  0.00     0.035 C 
BRANCH  15  16
ATOM     16  C   UNL     1      74.544  73.689  73.430  1.00  0.00     0.079 C 
BRANCH  16  17
ATOM     17  C   UNL     1      75.332  74.633  72.565  1.00  0.00     0.130 C 
ATOM     18  O   UNL     1      76.531  74.455  72.409  1.00  0.00    -0.300 OA
ATOM     19  C   UNL     1      74.653  75.776  71.873  1.00  0.00     0.087 C 
ENDBRANCH  16  17
ENDBRANCH  15  16
ENDBRANCH  13  15
ENDBRANCH  11  12
ENDBRANCH   1  11
TORSDOF 9
ENDMDL
MODEL 5
REMARK VINA RESULT:    -3.398      6.488      9.775
REMARK INTER + INTRA:          -5.883
REMARK INTER:                  -5.146
REMARK INTRA:                  -0.737
REMARK UNBOUND:                -0.697
REMARK SMILES CC(=O)CCC=C(C)CCC=C(C)CCC=C(C)C
REMARK SMILES IDX 10 1 11 2 12 3 13 4 14 5 15 6 16 7 18 8 17 9 19 10 9 11 7 12
REMARK SMILES IDX 6 13 8 14 5 15 4 16 2 17 3 18 1 19
REMARK H PARENT
REMARK Flexibility Score: inf
ROOT
ATOM      1  C   UNL     1      72.348  69.836  82.304  1.00  0.00     0.032 C 
ENDROOT
BRANCH   1   2
ATOM      2  C   UNL     1      73.711  69.913  82.949  1.00  0.00    -0.028 C 
ATOM      3  C   UNL     1      74.322  71.051  83.353  1.00  0.00    -0.077 C 
ATOM      4  C   UNL     1      75.667  70.936  84.021  1.00  0.00     0.039 C 
BRANCH   3   5
ATOM      5  C   UNL     1      73.748  72.438  83.115  1.00  0.00     0.034 C 
BRANCH   5   6
ATOM      6  C   UNL     1      74.394  73.489  84.030  1.00  0.00     0.032 C 
BRANCH   6   7
ATOM      7  C   UNL     1      75.337  74.394  83.274  1.00  0.00    -0.028 C 
ATOM      8  C   UNL     1      74.271  76.495  84.125  1.00  0.00     0.039 C 
ATOM      9  C   UNL     1      75.281  75.744  83.288  1.00  0.00    -0.080 C 
ATOM     10  C   UNL     1      76.262  76.512  82.442  1.00  0.00     0.039 C 
ENDBRANCH   6   7
ENDBRANCH   5   6
ENDBRANCH   3   5
ENDBRANCH   1   2
BRANCH   1  11
ATOM     11  C   UNL     1      71.835  68.390  82.226  1.00  0.00     0.034 C 
BRANCH  11  12
ATOM     12  C   UNL     1      70.532  68.214  82.981  1.00  0.00    -0.077 C 
ATOM     13  C   UNL     1      69.995  66.977  83.087  1.00  0.00    -0.028 C 
ATOM     14  C   UNL     1      69.882  69.423  83.611  1.00  0.00     0.039 C 
BRANCH  13  15
ATOM     15  C   UNL     1      68.694  66.668  83.783  1.00  0.00     0.035 C 
BRANCH  15  16
ATOM     16  C   UNL     1      67.693  66.036  82.809  1.00  0.00     0.079 C 
BRANCH  16  17
ATOM     17  C   UNL     1      66.405  66.810  82.790  1.00  0.00     0.130 C 
ATOM     18  O   UNL     1      66.416  67.999  82.508  1.00  0.00    -0.300 OA
ATOM     19  C   UNL     1      65.104  66.129  83.092  1.00  0.00     0.087 C 
ENDBRANCH  16  17
ENDBRANCH  15  16
ENDBRANCH  13  15
ENDBRANCH  11  12
ENDBRANCH   1  11
TORSDOF 9
ENDMDL
MODEL 6
REMARK VINA RESULT:    -3.352      2.668      8.466
REMARK INTER + INTRA:          -5.812
REMARK INTER:                  -5.668
REMARK INTRA:                  -0.144
REMARK UNBOUND:                -0.697
REMARK SMILES CC(=O)CCC=C(C)CCC=C(C)CCC=C(C)C
REMARK SMILES IDX 10 1 11 2 12 3 13 4 14 5 15 6 16 7 18 8 17 9 19 10 9 11 7 12
REMARK SMILES IDX 6 13 8 14 5 15 4 16 2 17 3 18 1 19
REMARK H PARENT
REMARK Flexibility Score: inf
ROOT
ATOM      1  C   UNL     1      74.789  74.390  78.901  1.00  0.00     0.032 C 
ENDROOT
BRANCH   1   2
ATOM      2  C   UNL     1      75.646  74.831  77.739  1.00  0.00    -0.028 C 
ATOM      3  C   UNL     1      75.392  74.567  76.436  1.00  0.00    -0.077 C 
ATOM      4  C   UNL     1      76.334  75.127  75.401  1.00  0.00     0.039 C 
BRANCH   3   5
ATOM      5  C   UNL     1      74.243  73.689  75.969  1.00  0.00     0.034 C 
BRANCH   5   6
ATOM      6  C   UNL     1      73.251  74.466  75.090  1.00  0.00     0.032 C 
BRANCH   6   7
ATOM      7  C   UNL     1      73.950  75.241  73.997  1.00  0.00    -0.028 C 
ATOM      8  C   UNL     1      73.366  73.581  72.215  1.00  0.00     0.039 C 
ATOM      9  C   UNL     1      74.029  74.846  72.708  1.00  0.00    -0.080 C 
ATOM     10  C   UNL     1      74.804  75.703  71.741  1.00  0.00     0.039 C 
ENDBRANCH   6   7
ENDBRANCH   5   6
ENDBRANCH   3   5
ENDBRANCH   1   2
BRANCH   1  11
ATOM     11  C   UNL     1      74.899  75.357  80.090  1.00  0.00     0.034 C 
BRANCH  11  12
ATOM     12  C   UNL     1      74.680  74.650  81.413  1.00  0.00    -0.077 C 
ATOM     13  C   UNL     1      73.758  73.663  81.486  1.00  0.00    -0.028 C 
ATOM     14  C   UNL     1      75.514  75.054  82.606  1.00  0.00     0.039 C 
BRANCH  13  15
ATOM     15  C   UNL     1      73.421  72.901  82.743  1.00  0.00     0.035 C 
BRANCH  15  16
ATOM     16  C   UNL     1      72.547  71.683  82.424  1.00  0.00     0.079 C 
BRANCH  16  17
ATOM     17  C   UNL     1      73.369  70.425  82.412  1.00  0.00     0.130 C 
ATOM     18  O   UNL     1      72.871  69.379  82.024  1.00  0.00    -0.300 OA
ATOM     19  C   UNL     1      74.802  70.449  82.852  1.00  0.00     0.087 C 
ENDBRANCH  16  17
ENDBRANCH  15  16
ENDBRANCH  13  15
ENDBRANCH  11  12
ENDBRANCH   1  11
TORSDOF 9
ENDMDL
MODEL 7
REMARK VINA RESULT:    -3.326      6.116      9.278
REMARK INTER + INTRA:          -5.772
REMARK INTER:                  -4.305
REMARK INTRA:                  -1.468
REMARK UNBOUND:                -0.697
REMARK SMILES CC(=O)CCC=C(C)CCC=C(C)CCC=C(C)C
REMARK SMILES IDX 10 1 11 2 12 3 13 4 14 5 15 6 16 7 18 8 17 9 19 10 9 11 7 12
REMARK SMILES IDX 6 13 8 14 5 15 4 16 2 17 3 18 1 19
REMARK H PARENT
REMARK Flexibility Score: inf
ROOT
ATOM      1  C   UNL     1      72.320  69.578  81.765  1.00  0.00     0.032 C 
ENDROOT
BRANCH   1   2
ATOM      2  C   UNL     1      73.536  70.144  82.460  1.00  0.00    -0.028 C 
ATOM      3  C   UNL     1      73.510  70.971  83.530  1.00  0.00    -0.077 C 
ATOM      4  C   UNL     1      74.826  71.403  84.125  1.00  0.00     0.039 C 
BRANCH   3   5
ATOM      5  C   UNL     1      72.229  71.532  84.125  1.00  0.00     0.034 C 
BRANCH   5   6
ATOM      6  C   UNL     1      71.782  72.816  83.411  1.00  0.00     0.032 C 
BRANCH   6   7
ATOM      7  C   UNL     1      72.453  74.043  83.983  1.00  0.00    -0.028 C 
ATOM      8  C   UNL     1      74.063  74.258  82.077  1.00  0.00     0.039 C 
ATOM      9  C   UNL     1      73.491  74.687  83.408  1.00  0.00    -0.080 C 
ATOM     10  C   UNL     1      74.087  75.871  84.125  1.00  0.00     0.039 C 
ENDBRANCH   6   7
ENDBRANCH   5   6
ENDBRANCH   3   5
ENDBRANCH   1   2
BRANCH   1  11
ATOM     11  C   UNL     1      72.043  68.128  82.190  1.00  0.00     0.034 C 
BRANCH  11  12
ATOM     12  C   UNL     1      70.842  68.031  83.110  1.00  0.00    -0.077 C 
ATOM     13  C   UNL     1      69.942  69.041  83.126  1.00  0.00    -0.028 C 
ATOM     14  C   UNL     1      70.673  66.797  83.965  1.00  0.00     0.039 C 
BRANCH  13  15
ATOM     15  C   UNL     1      68.723  69.083  84.013  1.00  0.00     0.035 C 
BRANCH  15  16
ATOM     16  C   UNL     1      67.584  68.255  83.410  1.00  0.00     0.079 C 
BRANCH  16  17
ATOM     17  C   UNL     1      66.358  69.101  83.206  1.00  0.00     0.130 C 
ATOM     18  O   UNL     1      65.454  68.697  82.490  1.00  0.00    -0.300 OA
ATOM     19  C   UNL     1      66.228  70.428  83.893  1.00  0.00     0.087 C 
ENDBRANCH  16  17
ENDBRANCH  15  16
ENDBRANCH  13  15
ENDBRANCH  11  12
ENDBRANCH   1  11
TORSDOF 9
ENDMDL
MODEL 8
REMARK VINA RESULT:    -3.163      3.805      8.801
REMARK INTER + INTRA:          -5.524
REMARK INTER:                  -4.744
REMARK INTRA:                  -0.780
REMARK UNBOUND:                -0.697
REMARK SMILES CC(=O)CCC=C(C)CCC=C(C)CCC=C(C)C
REMARK SMILES IDX 10 1 11 2 12 3 13 4 14 5 15 6 16 7 18 8 17 9 19 10 9 11 7 12
REMARK SMILES IDX 6 13 8 14 5 15 4 16 2 17 3 18 1 19
REMARK H PARENT
REMARK Flexibility Score: inf
ROOT
ATOM      1  C   UNL     1      75.264  74.987  79.528  1.00  0.00     0.032 C 
ENDROOT
BRANCH   1   2
ATOM      2  C   UNL     1      74.454  74.389  78.402  1.00  0.00    -0.028 C 
ATOM      3  C   UNL     1      74.857  74.294  77.114  1.00  0.00    -0.077 C 
ATOM      4  C   UNL     1      73.934  73.624  76.129  1.00  0.00     0.039 C 
BRANCH   3   5
ATOM      5  C   UNL     1      76.162  74.879  76.601  1.00  0.00     0.034 C 
BRANCH   5   6
ATOM      6  C   UNL     1      75.935  75.833  75.419  1.00  0.00     0.032 C 
BRANCH   6   7
ATOM      7  C   UNL     1      76.082  75.132  74.089  1.00  0.00    -0.028 C 
ATOM      8  C   UNL     1      73.868  75.929  73.232  1.00  0.00     0.039 C 
ATOM      9  C   UNL     1      75.155  75.147  73.107  1.00  0.00    -0.080 C 
ATOM     10  C   UNL     1      75.425  74.358  71.853  1.00  0.00     0.039 C 
ENDBRANCH   6   7
ENDBRANCH   5   6
ENDBRANCH   3   5
ENDBRANCH   1   2
BRANCH   1  11
ATOM     11  C   UNL     1      74.597  74.761  80.894  1.00  0.00     0.034 C 
BRANCH  11  12
ATOM     12  C   UNL     1      75.460  75.268  82.032  1.00  0.00    -0.077 C 
ATOM     13  C   UNL     1      76.077  76.466  81.907  1.00  0.00    -0.028 C 
ATOM     14  C   UNL     1      75.589  74.430  83.282  1.00  0.00     0.039 C 
BRANCH  13  15
ATOM     15  C   UNL     1      76.984  77.071  82.949  1.00  0.00     0.035 C 
BRANCH  15  16
ATOM     16  C   UNL     1      76.199  78.003  83.877  1.00  0.00     0.079 C 
BRANCH  16  17
ATOM     17  C   UNL     1      75.410  79.007  83.083  1.00  0.00     0.130 C 
ATOM     18  O   UNL     1      75.979  79.717  82.268  1.00  0.00    -0.300 OA
ATOM     19  C   UNL     1      73.927  79.126  83.269  1.00  0.00     0.087 C 
ENDBRANCH  16  17
ENDBRANCH  15  16
ENDBRANCH  13  15
ENDBRANCH  11  12
ENDBRANCH   1  11
TORSDOF 9
ENDMDL
MODEL 9
REMARK VINA RESULT:    -1.246      5.917      7.418
REMARK INTER + INTRA:          -2.599
REMARK INTER:                  -2.198
REMARK INTRA:                  -0.401
REMARK UNBOUND:                -0.697
REMARK SMILES CC(=O)CCC=C(C)CCC=C(C)CCC=C(C)C
REMARK SMILES IDX 10 1 11 2 12 3 13 4 14 5 15 6 16 7 18 8 17 9 19 10 9 11 7 12
REMARK SMILES IDX 6 13 8 14 5 15 4 16 2 17 3 18 1 19
REMARK H PARENT
REMARK Flexibility Score: inf
ROOT
ATOM      1  C   UNL     1      73.217  72.046  82.562  1.00  0.00     0.032 C 
ENDROOT
BRANCH   1   2
ATOM      2  C   UNL     1      74.494  71.414  83.065  1.00  0.00    -0.028 C 
ATOM      3  C   UNL     1      74.577  70.231  83.716  1.00  0.00    -0.077 C 
ATOM      4  C   UNL     1      75.943  69.730  84.106  1.00  0.00     0.039 C 
BRANCH   3   5
ATOM      5  C   UNL     1      73.362  69.414  84.125  1.00  0.00     0.034 C 
BRANCH   5   6
ATOM      6  C   UNL     1      72.428  69.144  82.936  1.00  0.00     0.032 C 
BRANCH   6   7
ATOM      7  C   UNL     1      70.973  69.199  83.337  1.00  0.00    -0.028 C 
ATOM      8  C   UNL     1      70.623  66.737  83.040  1.00  0.00     0.039 C 
ATOM      9  C   UNL     1      70.145  68.132  83.367  1.00  0.00    -0.080 C 
ATOM     10  C   UNL     1      68.702  68.353  83.742  1.00  0.00     0.039 C 
ENDBRANCH   6   7
ENDBRANCH   5   6
ENDBRANCH   3   5
ENDBRANCH   1   2
BRANCH   1  11
ATOM     11  C   UNL     1      73.463  73.447  81.984  1.00  0.00     0.034 C 
BRANCH  11  12
ATOM     12  C   UNL     1      73.777  74.457  83.070  1.00  0.00    -0.077 C 
ATOM     13  C   UNL     1      74.974  75.088  83.055  1.00  0.00    -0.028 C 
ATOM     14  C   UNL     1      72.735  74.746  84.125  1.00  0.00     0.039 C 
BRANCH  13  15
ATOM     15  C   UNL     1      75.423  76.089  84.089  1.00  0.00     0.035 C 
BRANCH  15  16
ATOM     16  C   UNL     1      76.800  76.660  83.731  1.00  0.00     0.079 C 
BRANCH  16  17
ATOM     17  C   UNL     1      76.669  78.032  83.132  1.00  0.00     0.130 C 
ATOM     18  O   UNL     1      75.583  78.415  82.723  1.00  0.00    -0.300 OA
ATOM     19  C   UNL     1      77.857  78.943  83.053  1.00  0.00     0.087 C 
ENDBRANCH  16  17
ENDBRANCH  15  16
ENDBRANCH  13  15
ENDBRANCH  11  12
ENDBRANCH   1  11
TORSDOF 9
ENDMDL
