MODEL 1
REMARK VINA RESULT:    -6.108      0.000      0.000
REMARK INTER + INTRA:         -13.336
REMARK INTER:                 -10.572
REMARK INTRA:                  -2.764
REMARK UNBOUND:                -2.764
REMARK SMILES OC[C@H]1O[C@@H](O[C@H]2[C@@H](O)[C@H](O)[C@H](O[C@H]3[C@H](O)[C@@H](O)[C@@H](O)O[C@@H]3CO)O[C@@H]2CO)[C@H](O)[C@@H](O)[C@H]1O
REMARK SMILES IDX 7 1 26 2 25 3 12 4 10 5 8 6 6 7 5 8 3 9 33 10 4 11 31 12
REMARK SMILES IDX 29 13 2 14 1 15 34 17 32 19 30 21 27 23 28 24 9 26 11 28
REMARK SMILES IDX 13 30 14 31 22 32 15 33 21 34 17 35 19 36 23 37 24 38 16 40
REMARK SMILES IDX 18 42 20 44
REMARK H PARENT 1 16 34 18 32 20 30 22 28 25 9 27 11 29 24 39 16 41 18 43
REMARK H PARENT 20 45
REMARK Flexibility Score: inf
ROOT
ATOM      1  C   UNL     1      23.063  18.025  85.508  1.00  0.00     0.184 C 
ATOM      2  C   UNL     1      23.187  17.790  83.935  1.00  0.00     0.178 C 
ATOM      3  O   UNL     1      21.956  17.972  83.254  1.00  0.00    -0.341 OA
ATOM      4  C   UNL     1      20.900  17.110  83.718  1.00  0.00     0.282 C 
ATOM      5  C   UNL     1      20.718  17.338  85.181  1.00  0.00     0.202 C 
ATOM      6  C   UNL     1      22.015  17.053  85.980  1.00  0.00     0.180 C 
ENDROOT
BRANCH   1   7
ATOM      7  O   UNL     1      22.803  19.327  85.981  1.00  0.00    -0.341 OA
BRANCH   7   8
ATOM      8  C   UNL     1      23.634  20.313  85.429  1.00  0.00     0.282 C 
ATOM      9  C   UNL     1      24.448  20.964  87.546  1.00  0.00     0.178 C 
ATOM     10  C   UNL     1      23.700  22.288  87.406  1.00  0.00     0.177 C 
ATOM     11  O   UNL     1      24.773  20.490  86.259  1.00  0.00    -0.341 OA
ATOM     12  C   UNL     1      22.502  22.400  86.399  1.00  0.00     0.179 C 
ATOM     13  C   UNL     1      22.933  21.634  85.092  1.00  0.00     0.202 C 
BRANCH   9  14
ATOM     14  C   UNL     1      24.198  19.654  88.434  1.00  0.00     0.191 C 
BRANCH  14  15
ATOM     15  O   UNL     1      22.941  19.398  89.032  1.00  0.00    -0.394 OA
ATOM     16  H   UNL     1      22.916  19.557  90.107  1.00  0.00     0.210 HD
ENDBRANCH  14  15
ENDBRANCH   9  14
BRANCH  10  17
ATOM     17  O   UNL     1      23.453  23.091  88.604  1.00  0.00    -0.387 OA
ATOM     18  H   UNL     1      23.673  24.046  88.375  1.00  0.00     0.211 HD
ENDBRANCH  10  17
BRANCH  12  19
ATOM     19  O   UNL     1      21.196  22.037  86.865  1.00  0.00    -0.387 OA
ATOM     20  H   UNL     1      20.962  21.171  86.373  1.00  0.00     0.211 HD
ENDBRANCH  12  19
BRANCH  13  21
ATOM     21  O   UNL     1      23.751  22.451  84.244  1.00  0.00    -0.385 OA
ATOM     22  H   UNL     1      24.276  23.011  84.864  1.00  0.00     0.211 HD
ENDBRANCH  13  21
ENDBRANCH   7   8
ENDBRANCH   1   7
BRANCH   2  23
ATOM     23  C   UNL     1      23.911  16.470  83.499  1.00  0.00     0.191 C 
BRANCH  23  24
ATOM     24  O   UNL     1      24.014  16.443  82.103  1.00  0.00    -0.394 OA
ATOM     25  H   UNL     1      24.453  15.534  81.947  1.00  0.00     0.210 HD
ENDBRANCH  23  24
ENDBRANCH   2  23
BRANCH   6  26
ATOM     26  O   UNL     1      21.807  17.267  87.369  1.00  0.00    -0.387 OA
ATOM     27  H   UNL     1      22.105  16.380  87.789  1.00  0.00     0.211 HD
ENDBRANCH   6  26
BRANCH   5  28
ATOM     28  O   UNL     1      19.545  16.565  85.520  1.00  0.00    -0.385 OA
ATOM     29  H   UNL     1      18.964  16.386  84.712  1.00  0.00     0.211 HD
ENDBRANCH   5  28
BRANCH   4  30
ATOM     30  O   UNL     1      21.135  15.752  83.460  1.00  0.00    -0.341 OA
BRANCH  30  31
ATOM     31  C   UNL     1      20.306  15.249  82.464  1.00  0.00     0.184 C 
ATOM     32  C   UNL     1      19.807  13.785  82.794  1.00  0.00     0.178 C 
ATOM     33  C   UNL     1      21.054  15.130  81.120  1.00  0.00     0.180 C 
ATOM     34  O   UNL     1      18.876  13.362  81.836  1.00  0.00    -0.342 OA
ATOM     35  C   UNL     1      20.160  14.498  80.042  1.00  0.00     0.201 C 
ATOM     36  C   UNL     1      19.523  13.162  80.589  1.00  0.00     0.279 C 
BRANCH  32  37
ATOM     37  C   UNL     1      19.211  13.657  84.203  1.00  0.00     0.191 C 
BRANCH  37  38
ATOM     38  O   UNL     1      20.207  13.708  85.188  1.00  0.00    -0.394 OA
ATOM     39  H   UNL     1      19.767  13.337  85.998  1.00  0.00     0.210 HD
ENDBRANCH  37  38
ENDBRANCH  32  37
BRANCH  33  40
ATOM     40  O   UNL     1      21.536  16.431  80.779  1.00  0.00    -0.387 OA
ATOM     41  H   UNL     1      22.491  16.320  80.454  1.00  0.00     0.211 HD
ENDBRANCH  33  40
BRANCH  35  42
ATOM     42  O   UNL     1      20.920  14.381  78.861  1.00  0.00    -0.385 OA
ATOM     43  H   UNL     1      20.931  13.405  78.638  1.00  0.00     0.211 HD
ENDBRANCH  35  42
BRANCH  36  44
ATOM     44  O   UNL     1      20.507  12.152  80.666  1.00  0.00    -0.366 OA
ATOM     45  H   UNL     1      21.085  12.429  81.428  1.00  0.00     0.213 HD
ENDBRANCH  36  44
ENDBRANCH  30  31
ENDBRANCH   4  30
TORSDOF 18
ENDMDL
MODEL 2
REMARK VINA RESULT:    -5.765      1.581      1.925
REMARK INTER + INTRA:         -12.741
REMARK INTER:                 -10.223
REMARK INTRA:                  -2.518
REMARK UNBOUND:                -2.764
REMARK SMILES OC[C@H]1O[C@@H](O[C@H]2[C@@H](O)[C@H](O)[C@H](O[C@H]3[C@H](O)[C@@H](O)[C@@H](O)O[C@@H]3CO)O[C@@H]2CO)[C@H](O)[C@@H](O)[C@H]1O
REMARK SMILES IDX 7 1 26 2 25 3 12 4 10 5 8 6 6 7 5 8 3 9 33 10 4 11 31 12
REMARK SMILES IDX 29 13 2 14 1 15 34 17 32 19 30 21 27 23 28 24 9 26 11 28
REMARK SMILES IDX 13 30 14 31 22 32 15 33 21 34 17 35 19 36 23 37 24 38 16 40
REMARK SMILES IDX 18 42 20 44
REMARK H PARENT 1 16 34 18 32 20 30 22 28 25 9 27 11 29 24 39 16 41 18 43
REMARK H PARENT 20 45
REMARK Flexibility Score: inf
ROOT
ATOM      1  C   UNL     1      23.282  17.874  85.229  1.00  0.00     0.184 C 
ATOM      2  C   UNL     1      23.637  18.091  83.689  1.00  0.00     0.178 C 
ATOM      3  O   UNL     1      22.648  18.836  82.998  1.00  0.00    -0.341 OA
ATOM      4  C   UNL     1      21.336  18.242  83.039  1.00  0.00     0.282 C 
ATOM      5  C   UNL     1      20.946  18.068  84.468  1.00  0.00     0.202 C 
ATOM      6  C   UNL     1      21.949  17.175  85.242  1.00  0.00     0.180 C 
ENDROOT
BRANCH   1   7
ATOM      7  O   UNL     1      23.283  18.989  86.090  1.00  0.00    -0.341 OA
BRANCH   7   8
ATOM      8  C   UNL     1      24.453  19.761  86.026  1.00  0.00     0.282 C 
ATOM      9  C   UNL     1      24.015  20.792  88.102  1.00  0.00     0.178 C 
ATOM     10  C   UNL     1      23.757  22.109  87.373  1.00  0.00     0.177 C 
ATOM     11  O   UNL     1      24.919  20.024  87.341  1.00  0.00    -0.341 OA
ATOM     12  C   UNL     1      23.401  22.092  85.845  1.00  0.00     0.179 C 
ATOM     13  C   UNL     1      24.344  21.027  85.169  1.00  0.00     0.202 C 
BRANCH   9  14
ATOM     14  C   UNL     1      23.053  19.733  88.822  1.00  0.00     0.191 C 
BRANCH  14  15
ATOM     15  O   UNL     1      23.374  18.355  88.865  1.00  0.00    -0.394 OA
ATOM     16  H   UNL     1      24.433  18.146  88.996  1.00  0.00     0.210 HD
ENDBRANCH  14  15
ENDBRANCH   9  14
BRANCH  10  17
ATOM     17  O   UNL     1      23.031  23.172  88.067  1.00  0.00    -0.387 OA
ATOM     18  H   UNL     1      22.995  22.924  89.041  1.00  0.00     0.211 HD
ENDBRANCH  10  17
BRANCH  12  19
ATOM     19  O   UNL     1      22.024  21.946  85.477  1.00  0.00    -0.387 OA
ATOM     20  H   UNL     1      21.649  22.898  85.440  1.00  0.00     0.211 HD
ENDBRANCH  12  19
BRANCH  13  21
ATOM     21  O   UNL     1      25.640  21.570  84.884  1.00  0.00    -0.385 OA
ATOM     22  H   UNL     1      25.743  21.479  83.907  1.00  0.00     0.211 HD
ENDBRANCH  13  21
ENDBRANCH   7   8
ENDBRANCH   1   7
BRANCH   2  23
ATOM     23  C   UNL     1      24.064  16.806  82.901  1.00  0.00     0.191 C 
BRANCH  23  24
ATOM     24  O   UNL     1      24.422  17.168  81.596  1.00  0.00    -0.394 OA
ATOM     25  H   UNL     1      25.421  17.359  81.703  1.00  0.00     0.210 HD
ENDBRANCH  23  24
ENDBRANCH   2  23
BRANCH   6  26
ATOM     26  O   UNL     1      21.544  17.017  86.594  1.00  0.00    -0.387 OA
ATOM     27  H   UNL     1      20.770  16.348  86.530  1.00  0.00     0.211 HD
ENDBRANCH   6  26
BRANCH   5  28
ATOM     28  O   UNL     1      19.571  17.628  84.412  1.00  0.00    -0.385 OA
ATOM     29  H   UNL     1      19.142  17.608  85.327  1.00  0.00     0.211 HD
ENDBRANCH   5  28
BRANCH   4  30
ATOM     30  O   UNL     1      21.256  17.020  82.358  1.00  0.00    -0.341 OA
BRANCH  30  31
ATOM     31  C   UNL     1      20.521  17.114  81.182  1.00  0.00     0.184 C 
ATOM     32  C   UNL     1      19.707  15.790  80.886  1.00  0.00     0.178 C 
ATOM     33  C   UNL     1      21.443  17.305  79.960  1.00  0.00     0.180 C 
ATOM     34  O   UNL     1      18.882  15.968  79.767  1.00  0.00    -0.342 OA
ATOM     35  C   UNL     1      20.633  17.327  78.653  1.00  0.00     0.201 C 
ATOM     36  C   UNL     1      19.675  16.075  78.595  1.00  0.00     0.279 C 
BRANCH  32  37
ATOM     37  C   UNL     1      18.875  15.317  82.086  1.00  0.00     0.191 C 
BRANCH  37  38
ATOM     38  O   UNL     1      19.694  14.900  83.146  1.00  0.00    -0.394 OA
ATOM     39  H   UNL     1      19.097  14.931  83.940  1.00  0.00     0.210 HD
ENDBRANCH  37  38
ENDBRANCH  32  37
BRANCH  33  40
ATOM     40  O   UNL     1      22.211  18.488  80.181  1.00  0.00    -0.387 OA
ATOM     41  H   UNL     1      22.799  18.315  80.990  1.00  0.00     0.211 HD
ENDBRANCH  33  40
BRANCH  35  42
ATOM     42  O   UNL     1      21.541  17.459  77.582  1.00  0.00    -0.385 OA
ATOM     43  H   UNL     1      21.701  16.531  77.243  1.00  0.00     0.211 HD
ENDBRANCH  35  42
BRANCH  36  44
ATOM     44  O   UNL     1      20.424  14.901  78.360  1.00  0.00    -0.366 OA
ATOM     45  H   UNL     1      19.747  14.234  78.063  1.00  0.00     0.213 HD
ENDBRANCH  36  44
ENDBRANCH  30  31
ENDBRANCH   4  30
TORSDOF 18
ENDMDL
MODEL 3
REMARK VINA RESULT:    -5.694      1.806      3.655
REMARK INTER + INTRA:         -12.619
REMARK INTER:                 -11.246
REMARK INTRA:                  -1.373
REMARK UNBOUND:                -2.764
REMARK SMILES OC[C@H]1O[C@@H](O[C@H]2[C@@H](O)[C@H](O)[C@H](O[C@H]3[C@H](O)[C@@H](O)[C@@H](O)O[C@@H]3CO)O[C@@H]2CO)[C@H](O)[C@@H](O)[C@H]1O
REMARK SMILES IDX 7 1 26 2 25 3 12 4 10 5 8 6 6 7 5 8 3 9 33 10 4 11 31 12
REMARK SMILES IDX 29 13 2 14 1 15 34 17 32 19 30 21 27 23 28 24 9 26 11 28
REMARK SMILES IDX 13 30 14 31 22 32 15 33 21 34 17 35 19 36 23 37 24 38 16 40
REMARK SMILES IDX 18 42 20 44
REMARK H PARENT 1 16 34 18 32 20 30 22 28 25 9 27 11 29 24 39 16 41 18 43
REMARK H PARENT 20 45
REMARK Flexibility Score: inf
ROOT
ATOM      1  C   UNL     1      21.695  19.638  84.539  1.00  0.00     0.184 C 
ATOM      2  C   UNL     1      22.175  18.240  85.137  1.00  0.00     0.178 C 
ATOM      3  O   UNL     1      22.726  17.382  84.151  1.00  0.00    -0.341 OA
ATOM      4  C   UNL     1      21.824  17.081  83.070  1.00  0.00     0.282 C 
ATOM      5  C   UNL     1      21.390  18.366  82.450  1.00  0.00     0.202 C 
ATOM      6  C   UNL     1      20.689  19.298  83.471  1.00  0.00     0.180 C 
ENDROOT
BRANCH   1   7
ATOM      7  O   UNL     1      22.665  20.541  84.058  1.00  0.00    -0.341 OA
BRANCH   7   8
ATOM      8  C   UNL     1      22.888  21.641  84.899  1.00  0.00     0.282 C 
ATOM      9  C   UNL     1      25.223  21.553  84.572  1.00  0.00     0.178 C 
ATOM     10  C   UNL     1      25.391  21.102  86.021  1.00  0.00     0.177 C 
ATOM     11  O   UNL     1      24.053  22.333  84.473  1.00  0.00    -0.341 OA
ATOM     12  C   UNL     1      24.175  20.469  86.782  1.00  0.00     0.179 C 
ATOM     13  C   UNL     1      22.904  21.316  86.397  1.00  0.00     0.202 C 
BRANCH   9  14
ATOM     14  C   UNL     1      25.350  20.791  83.168  1.00  0.00     0.191 C 
BRANCH  14  15
ATOM     15  O   UNL     1      25.004  19.426  83.035  1.00  0.00    -0.394 OA
ATOM     16  H   UNL     1      23.962  19.205  83.256  1.00  0.00     0.210 HD
ENDBRANCH  14  15
ENDBRANCH   9  14
BRANCH  10  17
ATOM     17  O   UNL     1      26.647  20.471  86.426  1.00  0.00    -0.387 OA
ATOM     18  H   UNL     1      26.714  20.549  87.426  1.00  0.00     0.211 HD
ENDBRANCH  10  17
BRANCH  12  19
ATOM     19  O   UNL     1      23.971  19.055  86.665  1.00  0.00    -0.387 OA
ATOM     20  H   UNL     1      23.207  18.944  85.992  1.00  0.00     0.211 HD
ENDBRANCH  12  19
BRANCH  13  21
ATOM     21  O   UNL     1      22.804  22.509  87.185  1.00  0.00    -0.385 OA
ATOM     22  H   UNL     1      22.144  23.070  86.712  1.00  0.00     0.211 HD
ENDBRANCH  13  21
ENDBRANCH   7   8
ENDBRANCH   1   7
BRANCH   2  23
ATOM     23  C   UNL     1      21.139  17.499  86.049  1.00  0.00     0.191 C 
BRANCH  23  24
ATOM     24  O   UNL     1      21.830  16.743  87.006  1.00  0.00    -0.394 OA
ATOM     25  H   UNL     1      22.464  16.199  86.417  1.00  0.00     0.210 HD
ENDBRANCH  23  24
ENDBRANCH   2  23
BRANCH   6  26
ATOM     26  O   UNL     1      20.277  20.507  82.849  1.00  0.00    -0.387 OA
ATOM     27  H   UNL     1      19.726  20.182  82.048  1.00  0.00     0.211 HD
ENDBRANCH   6  26
BRANCH   5  28
ATOM     28  O   UNL     1      20.630  17.964  81.288  1.00  0.00    -0.385 OA
ATOM     29  H   UNL     1      19.643  18.151  81.397  1.00  0.00     0.211 HD
ENDBRANCH   5  28
BRANCH   4  30
ATOM     30  O   UNL     1      20.709  16.328  83.466  1.00  0.00    -0.341 OA
BRANCH  30  31
ATOM     31  C   UNL     1      20.849  14.976  83.175  1.00  0.00     0.184 C 
ATOM     32  C   UNL     1      19.502  14.345  82.639  1.00  0.00     0.178 C 
ATOM     33  C   UNL     1      21.203  14.165  84.439  1.00  0.00     0.180 C 
ATOM     34  O   UNL     1      19.714  13.019  82.236  1.00  0.00    -0.342 OA
ATOM     35  C   UNL     1      21.277  12.662  84.130  1.00  0.00     0.201 C 
ATOM     36  C   UNL     1      19.972  12.206  83.370  1.00  0.00     0.279 C 
BRANCH  32  37
ATOM     37  C   UNL     1      18.875  15.151  81.493  1.00  0.00     0.191 C 
BRANCH  37  38
ATOM     38  O   UNL     1      19.824  15.471  80.511  1.00  0.00    -0.394 OA
ATOM     39  H   UNL     1      19.868  14.658  79.942  1.00  0.00     0.210 HD
ENDBRANCH  37  38
ENDBRANCH  32  37
BRANCH  33  40
ATOM     40  O   UNL     1      22.414  14.705  84.971  1.00  0.00    -0.387 OA
ATOM     41  H   UNL     1      22.798  14.010  85.603  1.00  0.00     0.211 HD
ENDBRANCH  33  40
BRANCH  35  42
ATOM     42  O   UNL     1      21.559  11.984  85.333  1.00  0.00    -0.385 OA
ATOM     43  H   UNL     1      20.683  11.893  85.808  1.00  0.00     0.211 HD
ENDBRANCH  35  42
BRANCH  36  44
ATOM     44  O   UNL     1      18.875  12.185  84.260  1.00  0.00    -0.366 OA
ATOM     45  H   UNL     1      18.085  12.032  83.673  1.00  0.00     0.213 HD
ENDBRANCH  36  44
ENDBRANCH  30  31
ENDBRANCH   4  30
TORSDOF 18
ENDMDL
MODEL 4
REMARK VINA RESULT:    -5.676      1.830      3.512
REMARK INTER + INTRA:         -12.588
REMARK INTER:                 -11.469
REMARK INTRA:                  -1.119
REMARK UNBOUND:                -2.764
REMARK SMILES OC[C@H]1O[C@@H](O[C@H]2[C@@H](O)[C@H](O)[C@H](O[C@H]3[C@H](O)[C@@H](O)[C@@H](O)O[C@@H]3CO)O[C@@H]2CO)[C@H](O)[C@@H](O)[C@H]1O
REMARK SMILES IDX 7 1 26 2 25 3 12 4 10 5 8 6 6 7 5 8 3 9 33 10 4 11 31 12
REMARK SMILES IDX 29 13 2 14 1 15 34 17 32 19 30 21 27 23 28 24 9 26 11 28
REMARK SMILES IDX 13 30 14 31 22 32 15 33 21 34 17 35 19 36 23 37 24 38 16 40
REMARK SMILES IDX 18 42 20 44
REMARK H PARENT 1 16 34 18 32 20 30 22 28 25 9 27 11 29 24 39 16 41 18 43
REMARK H PARENT 20 45
REMARK Flexibility Score: inf
ROOT
ATOM      1  C   UNL     1      23.346  19.123  83.269  1.00  0.00     0.184 C 
ATOM      2  C   UNL     1      21.868  18.530  83.358  1.00  0.00     0.178 C 
ATOM      3  O   UNL     1      21.777  17.411  84.225  1.00  0.00    -0.341 OA
ATOM      4  C   UNL     1      22.639  16.318  83.857  1.00  0.00     0.282 C 
ATOM      5  C   UNL     1      24.042  16.822  83.812  1.00  0.00     0.202 C 
ATOM      6  C   UNL     1      24.211  17.984  82.801  1.00  0.00     0.180 C 
ENDROOT
BRANCH   1   7
ATOM      7  O   UNL     1      23.896  19.749  84.405  1.00  0.00    -0.341 OA
BRANCH   7   8
ATOM      8  C   UNL     1      23.085  20.754  84.954  1.00  0.00     0.282 C 
ATOM      9  C   UNL     1      24.490  21.011  86.832  1.00  0.00     0.178 C 
ATOM     10  C   UNL     1      23.397  20.406  87.711  1.00  0.00     0.177 C 
ATOM     11  O   UNL     1      23.884  21.639  85.725  1.00  0.00    -0.341 OA
ATOM     12  C   UNL     1      22.274  19.528  87.056  1.00  0.00     0.179 C 
ATOM     13  C   UNL     1      21.856  20.245  85.717  1.00  0.00     0.202 C 
BRANCH   9  14
ATOM     14  C   UNL     1      25.895  20.458  86.296  1.00  0.00     0.191 C 
BRANCH  14  15
ATOM     15  O   UNL     1      26.053  19.108  85.902  1.00  0.00    -0.394 OA
ATOM     16  H   UNL     1      26.334  18.976  84.859  1.00  0.00     0.210 HD
ENDBRANCH  14  15
ENDBRANCH   9  14
BRANCH  10  17
ATOM     17  O   UNL     1      23.754  19.897  89.035  1.00  0.00    -0.387 OA
ATOM     18  H   UNL     1      23.384  18.964  89.107  1.00  0.00     0.211 HD
ENDBRANCH  10  17
BRANCH  12  19
ATOM     19  O   UNL     1      22.525  18.126  86.894  1.00  0.00    -0.387 OA
ATOM     20  H   UNL     1      23.305  18.063  86.235  1.00  0.00     0.211 HD
ENDBRANCH  12  19
BRANCH  13  21
ATOM     21  O   UNL     1      20.921  21.305  85.954  1.00  0.00    -0.385 OA
ATOM     22  H   UNL     1      20.530  21.500  85.068  1.00  0.00     0.211 HD
ENDBRANCH  13  21
ENDBRANCH   7   8
ENDBRANCH   1   7
BRANCH   2  23
ATOM     23  C   UNL     1      21.155  18.272  81.987  1.00  0.00     0.191 C 
BRANCH  23  24
ATOM     24  O   UNL     1      21.206  19.441  81.217  1.00  0.00    -0.394 OA
ATOM     25  H   UNL     1      21.745  19.128  80.406  1.00  0.00     0.210 HD
ENDBRANCH  23  24
ENDBRANCH   2  23
BRANCH   6  26
ATOM     26  O   UNL     1      25.559  18.433  82.771  1.00  0.00    -0.387 OA
ATOM     27  H   UNL     1      25.983  17.954  83.573  1.00  0.00     0.211 HD
ENDBRANCH   6  26
BRANCH   5  28
ATOM     28  O   UNL     1      24.841  15.636  83.602  1.00  0.00    -0.385 OA
ATOM     29  H   UNL     1      25.343  15.366  84.437  1.00  0.00     0.211 HD
ENDBRANCH   5  28
BRANCH   4  30
ATOM     30  O   UNL     1      22.294  15.722  82.636  1.00  0.00    -0.341 OA
BRANCH  30  31
ATOM     31  C   UNL     1      21.542  14.564  82.802  1.00  0.00     0.184 C 
ATOM     32  C   UNL     1      20.016  14.884  83.069  1.00  0.00     0.178 C 
ATOM     33  C   UNL     1      22.010  13.765  84.036  1.00  0.00     0.180 C 
ATOM     34  O   UNL     1      19.270  13.698  83.103  1.00  0.00    -0.342 OA
ATOM     35  C   UNL     1      21.126  12.530  84.264  1.00  0.00     0.201 C 
ATOM     36  C   UNL     1      19.605  12.951  84.261  1.00  0.00     0.279 C 
BRANCH  32  37
ATOM     37  C   UNL     1      19.418  15.856  82.041  1.00  0.00     0.191 C 
BRANCH  37  38
ATOM     38  O   UNL     1      19.767  15.496  80.731  1.00  0.00    -0.394 OA
ATOM     39  H   UNL     1      20.470  16.151  80.479  1.00  0.00     0.210 HD
ENDBRANCH  37  38
ENDBRANCH  32  37
BRANCH  33  40
ATOM     40  O   UNL     1      23.393  13.457  83.849  1.00  0.00    -0.387 OA
ATOM     41  H   UNL     1      23.918  14.297  84.070  1.00  0.00     0.211 HD
ENDBRANCH  33  40
BRANCH  35  42
ATOM     42  O   UNL     1      21.583  11.876  85.426  1.00  0.00    -0.385 OA
ATOM     43  H   UNL     1      20.833  11.935  86.086  1.00  0.00     0.211 HD
ENDBRANCH  35  42
BRANCH  36  44
ATOM     44  O   UNL     1      19.296  13.655  85.446  1.00  0.00    -0.366 OA
ATOM     45  H   UNL     1      18.513  13.167  85.824  1.00  0.00     0.213 HD
ENDBRANCH  36  44
ENDBRANCH  30  31
ENDBRANCH   4  30
TORSDOF 18
ENDMDL
MODEL 5
REMARK VINA RESULT:    -5.656      1.665      3.726
REMARK INTER + INTRA:         -12.553
REMARK INTER:                 -10.359
REMARK INTRA:                  -2.194
REMARK UNBOUND:                -2.764
REMARK SMILES OC[C@H]1O[C@@H](O[C@H]2[C@@H](O)[C@H](O)[C@H](O[C@H]3[C@H](O)[C@@H](O)[C@@H](O)O[C@@H]3CO)O[C@@H]2CO)[C@H](O)[C@@H](O)[C@H]1O
REMARK SMILES IDX 7 1 26 2 25 3 12 4 10 5 8 6 6 7 5 8 3 9 33 10 4 11 31 12
REMARK SMILES IDX 29 13 2 14 1 15 34 17 32 19 30 21 27 23 28 24 9 26 11 28
REMARK SMILES IDX 13 30 14 31 22 32 15 33 21 34 17 35 19 36 23 37 24 38 16 40
REMARK SMILES IDX 18 42 20 44
REMARK H PARENT 1 16 34 18 32 20 30 22 28 25 9 27 11 29 24 39 16 41 18 43
REMARK H PARENT 20 45
REMARK Flexibility Score: inf
ROOT
ATOM      1  C   UNL     1      22.075  19.424  84.297  1.00  0.00     0.184 C 
ATOM      2  C   UNL     1      20.918  18.398  84.689  1.00  0.00     0.178 C 
ATOM      3  O   UNL     1      21.399  17.279  85.416  1.00  0.00    -0.341 OA
ATOM      4  C   UNL     1      22.404  16.520  84.718  1.00  0.00     0.282 C 
ATOM      5  C   UNL     1      23.531  17.437  84.377  1.00  0.00     0.202 C 
ATOM      6  C   UNL     1      23.069  18.625  83.497  1.00  0.00     0.180 C 
ENDROOT
BRANCH   1   7
ATOM      7  O   UNL     1      22.711  20.153  85.321  1.00  0.00    -0.341 OA
BRANCH   7   8
ATOM      8  C   UNL     1      22.343  19.760  86.617  1.00  0.00     0.282 C 
ATOM      9  C   UNL     1      22.200  21.992  87.368  1.00  0.00     0.178 C 
ATOM     10  C   UNL     1      23.434  21.761  88.236  1.00  0.00     0.177 C 
ATOM     11  O   UNL     1      21.527  20.765  87.202  1.00  0.00    -0.341 OA
ATOM     12  C   UNL     1      24.408  20.577  87.900  1.00  0.00     0.179 C 
ATOM     13  C   UNL     1      23.509  19.341  87.520  1.00  0.00     0.202 C 
BRANCH   9  14
ATOM     14  C   UNL     1      21.954  22.803  86.008  1.00  0.00     0.191 C 
BRANCH  14  15
ATOM     15  O   UNL     1      23.016  23.086  85.117  1.00  0.00    -0.394 OA
ATOM     16  H   UNL     1      22.700  23.314  84.101  1.00  0.00     0.210 HD
ENDBRANCH  14  15
ENDBRANCH   9  14
BRANCH  10  17
ATOM     17  O   UNL     1      24.173  22.918  88.740  1.00  0.00    -0.387 OA
ATOM     18  H   UNL     1      23.597  23.729  88.592  1.00  0.00     0.211 HD
ENDBRANCH  10  17
BRANCH  12  19
ATOM     19  O   UNL     1      25.463  20.821  86.961  1.00  0.00    -0.387 OA
ATOM     20  H   UNL     1      25.768  19.896  86.647  1.00  0.00     0.211 HD
ENDBRANCH  12  19
BRANCH  13  21
ATOM     21  O   UNL     1      23.037  18.651  88.684  1.00  0.00    -0.385 OA
ATOM     22  H   UNL     1      23.419  17.744  88.613  1.00  0.00     0.211 HD
ENDBRANCH  13  21
ENDBRANCH   7   8
ENDBRANCH   1   7
BRANCH   2  23
ATOM     23  C   UNL     1      19.960  17.975  83.523  1.00  0.00     0.191 C 
BRANCH  23  24
ATOM     24  O   UNL     1      18.954  17.146  84.035  1.00  0.00    -0.394 OA
ATOM     25  H   UNL     1      18.634  17.686  84.842  1.00  0.00     0.210 HD
ENDBRANCH  23  24
ENDBRANCH   2  23
BRANCH   6  26
ATOM     26  O   UNL     1      24.164  19.472  83.179  1.00  0.00    -0.387 OA
ATOM     27  H   UNL     1      23.948  20.336  83.687  1.00  0.00     0.211 HD
ENDBRANCH   6  26
BRANCH   5  28
ATOM     28  O   UNL     1      24.549  16.566  83.837  1.00  0.00    -0.385 OA
ATOM     29  H   UNL     1      24.983  16.957  83.011  1.00  0.00     0.211 HD
ENDBRANCH   5  28
BRANCH   4  30
ATOM     30  O   UNL     1      21.924  15.886  83.564  1.00  0.00    -0.341 OA
BRANCH  30  31
ATOM     31  C   UNL     1      21.812  14.509  83.721  1.00  0.00     0.184 C 
ATOM     32  C   UNL     1      22.161  13.732  82.389  1.00  0.00     0.178 C 
ATOM     33  C   UNL     1      20.364  14.101  84.061  1.00  0.00     0.180 C 
ATOM     34  O   UNL     1      22.163  12.349  82.619  1.00  0.00    -0.342 OA
ATOM     35  C   UNL     1      20.226  12.573  84.154  1.00  0.00     0.201 C 
ATOM     36  C   UNL     1      20.840  11.900  82.866  1.00  0.00     0.279 C 
BRANCH  32  37
ATOM     37  C   UNL     1      23.499  14.166  81.773  1.00  0.00     0.191 C 
BRANCH  37  38
ATOM     38  O   UNL     1      23.431  15.473  81.269  1.00  0.00    -0.394 OA
ATOM     39  H   UNL     1      24.065  15.471  80.504  1.00  0.00     0.210 HD
ENDBRANCH  37  38
ENDBRANCH  32  37
BRANCH  33  40
ATOM     40  O   UNL     1      19.994  14.786  85.258  1.00  0.00    -0.387 OA
ATOM     41  H   UNL     1      19.381  15.549  84.989  1.00  0.00     0.211 HD
ENDBRANCH  33  40
BRANCH  35  42
ATOM     42  O   UNL     1      18.875  12.274  84.423  1.00  0.00    -0.385 OA
ATOM     43  H   UNL     1      18.835  11.283  84.558  1.00  0.00     0.211 HD
ENDBRANCH  35  42
BRANCH  36  44
ATOM     44  O   UNL     1      19.996  12.121  81.755  1.00  0.00    -0.366 OA
ATOM     45  H   UNL     1      19.623  11.221  81.547  1.00  0.00     0.213 HD
ENDBRANCH  36  44
ENDBRANCH  30  31
ENDBRANCH   4  30
TORSDOF 18
ENDMDL
MODEL 6
REMARK VINA RESULT:    -5.642      1.003      1.938
REMARK INTER + INTRA:         -12.529
REMARK INTER:                 -10.010
REMARK INTRA:                  -2.519
REMARK UNBOUND:                -2.764
REMARK SMILES OC[C@H]1O[C@@H](O[C@H]2[C@@H](O)[C@H](O)[C@H](O[C@H]3[C@H](O)[C@@H](O)[C@@H](O)O[C@@H]3CO)O[C@@H]2CO)[C@H](O)[C@@H](O)[C@H]1O
REMARK SMILES IDX 7 1 26 2 25 3 12 4 10 5 8 6 6 7 5 8 3 9 33 10 4 11 31 12
REMARK SMILES IDX 29 13 2 14 1 15 34 17 32 19 30 21 27 23 28 24 9 26 11 28
REMARK SMILES IDX 13 30 14 31 22 32 15 33 21 34 17 35 19 36 23 37 24 38 16 40
REMARK SMILES IDX 18 42 20 44
REMARK H PARENT 1 16 34 18 32 20 30 22 28 25 9 27 11 29 24 39 16 41 18 43
REMARK H PARENT 20 45
REMARK Flexibility Score: inf
ROOT
ATOM      1  C   UNL     1      23.140  17.777  85.497  1.00  0.00     0.184 C 
ATOM      2  C   UNL     1      23.291  17.474  83.938  1.00  0.00     0.178 C 
ATOM      3  O   UNL     1      22.095  17.712  83.214  1.00  0.00    -0.341 OA
ATOM      4  C   UNL     1      20.970  16.940  83.678  1.00  0.00     0.282 C 
ATOM      5  C   UNL     1      20.764  17.235  85.125  1.00  0.00     0.202 C 
ATOM      6  C   UNL     1      22.016  16.896  85.973  1.00  0.00     0.180 C 
ENDROOT
BRANCH   1   7
ATOM      7  O   UNL     1      22.956  19.111  85.914  1.00  0.00    -0.341 OA
BRANCH   7   8
ATOM      8  C   UNL     1      24.094  19.691  86.495  1.00  0.00     0.282 C 
ATOM      9  C   UNL     1      23.188  21.864  86.357  1.00  0.00     0.178 C 
ATOM     10  C   UNL     1      24.224  22.210  85.290  1.00  0.00     0.177 C 
ATOM     11  O   UNL     1      23.720  20.866  87.198  1.00  0.00    -0.341 OA
ATOM     12  C   UNL     1      24.929  21.058  84.492  1.00  0.00     0.179 C 
ATOM     13  C   UNL     1      25.263  19.921  85.531  1.00  0.00     0.202 C 
BRANCH   9  14
ATOM     14  C   UNL     1      21.611  21.583  86.301  1.00  0.00     0.191 C 
BRANCH  14  15
ATOM     15  O   UNL     1      21.027  20.874  85.225  1.00  0.00    -0.394 OA
ATOM     16  H   UNL     1      21.222  21.307  84.246  1.00  0.00     0.210 HD
ENDBRANCH  14  15
ENDBRANCH   9  14
BRANCH  10  17
ATOM     17  O   UNL     1      24.000  23.376  84.437  1.00  0.00    -0.387 OA
ATOM     18  H   UNL     1      23.382  23.996  84.932  1.00  0.00     0.211 HD
ENDBRANCH  10  17
BRANCH  12  19
ATOM     19  O   UNL     1      24.287  20.571  83.306  1.00  0.00    -0.387 OA
ATOM     20  H   UNL     1      24.903  19.839  82.943  1.00  0.00     0.211 HD
ENDBRANCH  12  19
BRANCH  13  21
ATOM     21  O   UNL     1      26.475  20.197  86.245  1.00  0.00    -0.385 OA
ATOM     22  H   UNL     1      27.152  20.352  85.544  1.00  0.00     0.211 HD
ENDBRANCH  13  21
ENDBRANCH   7   8
ENDBRANCH   1   7
BRANCH   2  23
ATOM     23  C   UNL     1      23.936  16.094  83.573  1.00  0.00     0.191 C 
BRANCH  23  24
ATOM     24  O   UNL     1      24.346  16.120  82.234  1.00  0.00    -0.394 OA
ATOM     25  H   UNL     1      24.768  17.048  82.167  1.00  0.00     0.210 HD
ENDBRANCH  23  24
ENDBRANCH   2  23
BRANCH   6  26
ATOM     26  O   UNL     1      21.785  17.176  87.346  1.00  0.00    -0.387 OA
ATOM     27  H   UNL     1      20.772  17.052  87.444  1.00  0.00     0.211 HD
ENDBRANCH   6  26
BRANCH   5  28
ATOM     28  O   UNL     1      19.533  16.556  85.457  1.00  0.00    -0.385 OA
ATOM     29  H   UNL     1      19.672  15.844  86.161  1.00  0.00     0.211 HD
ENDBRANCH   5  28
BRANCH   4  30
ATOM     30  O   UNL     1      21.119  15.561  83.477  1.00  0.00    -0.341 OA
BRANCH  30  31
ATOM     31  C   UNL     1      20.348  15.091  82.420  1.00  0.00     0.184 C 
ATOM     32  C   UNL     1      19.747  13.659  82.717  1.00  0.00     0.178 C 
ATOM     33  C   UNL     1      21.196  14.917  81.143  1.00  0.00     0.180 C 
ATOM     34  O   UNL     1      18.875  13.275  81.689  1.00  0.00    -0.342 OA
ATOM     35  C   UNL     1      20.360  14.322  79.999  1.00  0.00     0.201 C 
ATOM     36  C   UNL     1      19.610  13.028  80.501  1.00  0.00     0.279 C 
BRANCH  32  37
ATOM     37  C   UNL     1      19.032  13.578  84.074  1.00  0.00     0.191 C 
BRANCH  37  38
ATOM     38  O   UNL     1      19.943  13.643  85.138  1.00  0.00    -0.394 OA
ATOM     39  H   UNL     1      20.340  12.733  85.174  1.00  0.00     0.210 HD
ENDBRANCH  37  38
ENDBRANCH  32  37
BRANCH  33  40
ATOM     40  O   UNL     1      21.773  16.187  80.834  1.00  0.00    -0.387 OA
ATOM     41  H   UNL     1      21.312  16.529  79.997  1.00  0.00     0.211 HD
ENDBRANCH  33  40
BRANCH  35  42
ATOM     42  O   UNL     1      21.206  14.151  78.885  1.00  0.00    -0.385 OA
ATOM     43  H   UNL     1      21.802  13.379  79.109  1.00  0.00     0.211 HD
ENDBRANCH  35  42
BRANCH  36  44
ATOM     44  O   UNL     1      20.529  11.968  80.665  1.00  0.00    -0.366 OA
ATOM     45  H   UNL     1      20.846  11.772  79.741  1.00  0.00     0.213 HD
ENDBRANCH  36  44
ENDBRANCH  30  31
ENDBRANCH   4  30
TORSDOF 18
ENDMDL
MODEL 7
REMARK VINA RESULT:    -5.367      1.706      3.113
REMARK INTER + INTRA:         -12.052
REMARK INTER:                 -11.185
REMARK INTRA:                  -0.868
REMARK UNBOUND:                -2.764
REMARK SMILES OC[C@H]1O[C@@H](O[C@H]2[C@@H](O)[C@H](O)[C@H](O[C@H]3[C@H](O)[C@@H](O)[C@@H](O)O[C@@H]3CO)O[C@@H]2CO)[C@H](O)[C@@H](O)[C@H]1O
REMARK SMILES IDX 7 1 26 2 25 3 12 4 10 5 8 6 6 7 5 8 3 9 33 10 4 11 31 12
REMARK SMILES IDX 29 13 2 14 1 15 34 17 32 19 30 21 27 23 28 24 9 26 11 28
REMARK SMILES IDX 13 30 14 31 22 32 15 33 21 34 17 35 19 36 23 37 24 38 16 40
REMARK SMILES IDX 18 42 20 44
REMARK H PARENT 1 16 34 18 32 20 30 22 28 25 9 27 11 29 24 39 16 41 18 43
REMARK H PARENT 20 45
REMARK Flexibility Score: inf
ROOT
ATOM      1  C   UNL     1      21.340  19.229  84.525  1.00  0.00     0.184 C 
ATOM      2  C   UNL     1      21.565  17.712  84.964  1.00  0.00     0.178 C 
ATOM      3  O   UNL     1      22.060  16.904  83.908  1.00  0.00    -0.341 OA
ATOM      4  C   UNL     1      21.208  16.876  82.747  1.00  0.00     0.282 C 
ATOM      5  C   UNL     1      21.013  18.278  82.275  1.00  0.00     0.202 C 
ATOM      6  C   UNL     1      20.380  19.177  83.367  1.00  0.00     0.180 C 
ENDROOT
BRANCH   1   7
ATOM      7  O   UNL     1      22.465  20.023  84.222  1.00  0.00    -0.341 OA
BRANCH   7   8
ATOM      8  C   UNL     1      22.579  21.178  85.009  1.00  0.00     0.282 C 
ATOM      9  C   UNL     1      24.911  21.302  84.680  1.00  0.00     0.178 C 
ATOM     10  C   UNL     1      25.120  20.939  86.149  1.00  0.00     0.177 C 
ATOM     11  O   UNL     1      23.672  21.959  84.548  1.00  0.00    -0.341 OA
ATOM     12  C   UNL     1      23.970  20.227  86.942  1.00  0.00     0.179 C 
ATOM     13  C   UNL     1      22.623  20.927  86.521  1.00  0.00     0.202 C 
BRANCH   9  14
ATOM     14  C   UNL     1      25.115  20.492  83.313  1.00  0.00     0.191 C 
BRANCH  14  15
ATOM     15  O   UNL     1      25.223  19.081  83.301  1.00  0.00    -0.394 OA
ATOM     16  H   UNL     1      24.501  18.571  83.935  1.00  0.00     0.210 HD
ENDBRANCH  14  15
ENDBRANCH   9  14
BRANCH  10  17
ATOM     17  O   UNL     1      26.431  20.453  86.578  1.00  0.00    -0.387 OA
ATOM     18  H   UNL     1      26.327  20.096  87.513  1.00  0.00     0.211 HD
ENDBRANCH  10  17
BRANCH  12  19
ATOM     19  O   UNL     1      23.905  18.796  86.892  1.00  0.00    -0.387 OA
ATOM     20  H   UNL     1      22.970  18.577  86.538  1.00  0.00     0.211 HD
ENDBRANCH  12  19
BRANCH  13  21
ATOM     21  O   UNL     1      22.406  22.141  87.252  1.00  0.00    -0.385 OA
ATOM     22  H   UNL     1      22.828  22.844  86.704  1.00  0.00     0.211 HD
ENDBRANCH  13  21
ENDBRANCH   7   8
ENDBRANCH   1   7
BRANCH   2  23
ATOM     23  C   UNL     1      20.367  17.035  85.712  1.00  0.00     0.191 C 
BRANCH  23  24
ATOM     24  O   UNL     1      20.762  16.721  87.019  1.00  0.00    -0.394 OA
ATOM     25  H   UNL     1      20.640  15.706  87.031  1.00  0.00     0.210 HD
ENDBRANCH  23  24
ENDBRANCH   2  23
BRANCH   6  26
ATOM     26  O   UNL     1      20.196  20.500  82.884  1.00  0.00    -0.387 OA
ATOM     27  H   UNL     1      20.564  21.081  83.645  1.00  0.00     0.211 HD
ENDBRANCH   6  26
BRANCH   5  28
ATOM     28  O   UNL     1      20.294  18.139  81.030  1.00  0.00    -0.385 OA
ATOM     29  H   UNL     1      19.337  17.849  81.175  1.00  0.00     0.211 HD
ENDBRANCH   5  28
BRANCH   4  30
ATOM     30  O   UNL     1      19.969  16.262  82.979  1.00  0.00    -0.341 OA
BRANCH  30  31
ATOM     31  C   UNL     1      19.939  14.942  82.541  1.00  0.00     0.184 C 
ATOM     32  C   UNL     1      20.199  13.922  83.721  1.00  0.00     0.178 C 
ATOM     33  C   UNL     1      21.057  14.669  81.514  1.00  0.00     0.180 C 
ATOM     34  O   UNL     1      20.034  12.605  83.269  1.00  0.00    -0.342 OA
ATOM     35  C   UNL     1      21.072  13.191  81.093  1.00  0.00     0.201 C 
ATOM     36  C   UNL     1      21.081  12.269  82.372  1.00  0.00     0.279 C 
BRANCH  32  37
ATOM     37  C   UNL     1      19.306  14.177  84.943  1.00  0.00     0.191 C 
BRANCH  37  38
ATOM     38  O   UNL     1      19.560  13.253  85.966  1.00  0.00    -0.394 OA
ATOM     39  H   UNL     1      18.974  12.480  85.747  1.00  0.00     0.210 HD
ENDBRANCH  37  38
ENDBRANCH  32  37
BRANCH  33  40
ATOM     40  O   UNL     1      20.873  15.576  80.426  1.00  0.00    -0.387 OA
ATOM     41  H   UNL     1      20.541  15.032  79.636  1.00  0.00     0.211 HD
ENDBRANCH  33  40
BRANCH  35  42
ATOM     42  O   UNL     1      22.141  13.007  80.192  1.00  0.00    -0.385 OA
ATOM     43  H   UNL     1      21.916  12.188  79.663  1.00  0.00     0.211 HD
ENDBRANCH  35  42
BRANCH  36  44
ATOM     44  O   UNL     1      22.345  12.323  83.000  1.00  0.00    -0.366 OA
ATOM     45  H   UNL     1      22.171  12.017  83.932  1.00  0.00     0.213 HD
ENDBRANCH  36  44
ENDBRANCH  30  31
ENDBRANCH   4  30
TORSDOF 18
ENDMDL
MODEL 8
REMARK VINA RESULT:    -5.354      2.501      8.323
REMARK INTER + INTRA:         -12.031
REMARK INTER:                  -9.494
REMARK INTRA:                  -2.537
REMARK UNBOUND:                -2.764
REMARK SMILES OC[C@H]1O[C@@H](O[C@H]2[C@@H](O)[C@H](O)[C@H](O[C@H]3[C@H](O)[C@@H](O)[C@@H](O)O[C@@H]3CO)O[C@@H]2CO)[C@H](O)[C@@H](O)[C@H]1O
REMARK SMILES IDX 7 1 26 2 25 3 12 4 10 5 8 6 6 7 5 8 3 9 33 10 4 11 31 12
REMARK SMILES IDX 29 13 2 14 1 15 34 17 32 19 30 21 27 23 28 24 9 26 11 28
REMARK SMILES IDX 13 30 14 31 22 32 15 33 21 34 17 35 19 36 23 37 24 38 16 40
REMARK SMILES IDX 18 42 20 44
REMARK H PARENT 1 16 34 18 32 20 30 22 28 25 9 27 11 29 24 39 16 41 18 43
REMARK H PARENT 20 45
REMARK Flexibility Score: inf
ROOT
ATOM      1  C   UNL     1      23.450  16.845  81.865  1.00  0.00     0.184 C 
ATOM      2  C   UNL     1      22.264  17.669  82.542  1.00  0.00     0.178 C 
ATOM      3  O   UNL     1      22.469  19.071  82.488  1.00  0.00    -0.341 OA
ATOM      4  C   UNL     1      23.688  19.507  83.121  1.00  0.00     0.282 C 
ATOM      5  C   UNL     1      24.830  18.793  82.478  1.00  0.00     0.202 C 
ATOM      6  C   UNL     1      24.698  17.254  82.601  1.00  0.00     0.180 C 
ENDROOT
BRANCH   1   7
ATOM      7  O   UNL     1      23.628  16.933  80.470  1.00  0.00    -0.341 OA
BRANCH   7   8
ATOM      8  C   UNL     1      23.154  15.818  79.761  1.00  0.00     0.282 C 
ATOM      9  C   UNL     1      23.658  16.796  77.674  1.00  0.00     0.178 C 
ATOM     10  C   UNL     1      22.163  16.927  77.394  1.00  0.00     0.177 C 
ATOM     11  O   UNL     1      23.863  15.699  78.536  1.00  0.00    -0.341 OA
ATOM     12  C   UNL     1      21.145  16.897  78.588  1.00  0.00     0.179 C 
ATOM     13  C   UNL     1      21.633  15.771  79.576  1.00  0.00     0.202 C 
BRANCH   9  14
ATOM     14  C   UNL     1      24.798  17.857  78.052  1.00  0.00     0.191 C 
BRANCH  14  15
ATOM     15  O   UNL     1      24.516  18.986  78.857  1.00  0.00    -0.394 OA
ATOM     16  H   UNL     1      25.254  19.178  79.633  1.00  0.00     0.210 HD
ENDBRANCH  14  15
ENDBRANCH   9  14
BRANCH  10  17
ATOM     17  O   UNL     1      21.716  17.847  76.349  1.00  0.00    -0.387 OA
ATOM     18  H   UNL     1      21.956  17.434  75.463  1.00  0.00     0.211 HD
ENDBRANCH  10  17
BRANCH  12  19
ATOM     19  O   UNL     1      20.842  18.134  79.244  1.00  0.00    -0.387 OA
ATOM     20  H   UNL     1      21.568  18.789  78.941  1.00  0.00     0.211 HD
ENDBRANCH  12  19
BRANCH  13  21
ATOM     21  O   UNL     1      21.206  14.470  79.150  1.00  0.00    -0.385 OA
ATOM     22  H   UNL     1      21.973  13.879  79.335  1.00  0.00     0.211 HD
ENDBRANCH  13  21
ENDBRANCH   7   8
ENDBRANCH   1   7
BRANCH   2  23
ATOM     23  C   UNL     1      21.833  17.192  83.971  1.00  0.00     0.191 C 
BRANCH  23  24
ATOM     24  O   UNL     1      20.518  17.608  84.216  1.00  0.00    -0.394 OA
ATOM     25  H   UNL     1      19.991  16.759  83.999  1.00  0.00     0.210 HD
ENDBRANCH  23  24
ENDBRANCH   2  23
BRANCH   6  26
ATOM     26  O   UNL     1      25.805  16.605  81.992  1.00  0.00    -0.387 OA
ATOM     27  H   UNL     1      26.558  17.296  82.076  1.00  0.00     0.211 HD
ENDBRANCH   6  26
BRANCH   5  28
ATOM     28  O   UNL     1      26.004  19.408  83.054  1.00  0.00    -0.385 OA
ATOM     29  H   UNL     1      26.458  20.037  82.406  1.00  0.00     0.211 HD
ENDBRANCH   5  28
BRANCH   4  30
ATOM     30  O   UNL     1      23.701  19.301  84.507  1.00  0.00    -0.341 OA
BRANCH  30  31
ATOM     31  C   UNL     1      23.438  20.465  85.220  1.00  0.00     0.184 C 
ATOM     32  C   UNL     1      24.294  20.552  86.547  1.00  0.00     0.178 C 
ATOM     33  C   UNL     1      21.967  20.518  85.682  1.00  0.00     0.180 C 
ATOM     34  O   UNL     1      24.099  21.792  87.171  1.00  0.00    -0.342 OA
ATOM     35  C   UNL     1      21.700  21.766  86.539  1.00  0.00     0.201 C 
ATOM     36  C   UNL     1      22.779  21.871  87.684  1.00  0.00     0.279 C 
BRANCH  32  37
ATOM     37  C   UNL     1      25.791  20.308  86.312  1.00  0.00     0.191 C 
BRANCH  37  38
ATOM     38  O   UNL     1      26.036  18.999  85.874  1.00  0.00    -0.394 OA
ATOM     39  H   UNL     1      26.978  19.020  85.559  1.00  0.00     0.210 HD
ENDBRANCH  37  38
ENDBRANCH  32  37
BRANCH  33  40
ATOM     40  O   UNL     1      21.146  20.433  84.516  1.00  0.00    -0.387 OA
ATOM     41  H   UNL     1      20.434  19.736  84.703  1.00  0.00     0.211 HD
ENDBRANCH  33  40
BRANCH  35  42
ATOM     42  O   UNL     1      20.355  21.725  86.959  1.00  0.00    -0.385 OA
ATOM     43  H   UNL     1      20.342  21.151  87.779  1.00  0.00     0.211 HD
ENDBRANCH  35  42
BRANCH  36  44
ATOM     44  O   UNL     1      22.540  20.885  88.667  1.00  0.00    -0.366 OA
ATOM     45  H   UNL     1      23.080  21.182  89.450  1.00  0.00     0.213 HD
ENDBRANCH  36  44
ENDBRANCH  30  31
ENDBRANCH   4  30
TORSDOF 18
ENDMDL
MODEL 9
REMARK VINA RESULT:    -5.258      1.801      7.812
REMARK INTER + INTRA:         -11.864
REMARK INTER:                 -10.813
REMARK INTRA:                  -1.051
REMARK UNBOUND:                -2.764
REMARK SMILES OC[C@H]1O[C@@H](O[C@H]2[C@@H](O)[C@H](O)[C@H](O[C@H]3[C@H](O)[C@@H](O)[C@@H](O)O[C@@H]3CO)O[C@@H]2CO)[C@H](O)[C@@H](O)[C@H]1O
REMARK SMILES IDX 7 1 26 2 25 3 12 4 10 5 8 6 6 7 5 8 3 9 33 10 4 11 31 12
REMARK SMILES IDX 29 13 2 14 1 15 34 17 32 19 30 21 27 23 28 24 9 26 11 28
REMARK SMILES IDX 13 30 14 31 22 32 15 33 21 34 17 35 19 36 23 37 24 38 16 40
REMARK SMILES IDX 18 42 20 44
REMARK H PARENT 1 16 34 18 32 20 30 22 28 25 9 27 11 29 24 39 16 41 18 43
REMARK H PARENT 20 45
REMARK Flexibility Score: inf
ROOT
ATOM      1  C   UNL     1      21.089  17.185  82.574  1.00  0.00     0.184 C 
ATOM      2  C   UNL     1      22.571  17.567  83.022  1.00  0.00     0.178 C 
ATOM      3  O   UNL     1      22.679  17.807  84.416  1.00  0.00    -0.341 OA
ATOM      4  C   UNL     1      21.819  18.859  84.894  1.00  0.00     0.282 C 
ATOM      5  C   UNL     1      20.412  18.512  84.537  1.00  0.00     0.202 C 
ATOM      6  C   UNL     1      20.225  18.338  83.009  1.00  0.00     0.180 C 
ENDROOT
BRANCH   1   7
ATOM      7  O   UNL     1      20.548  15.954  82.996  1.00  0.00    -0.341 OA
BRANCH   7   8
ATOM      8  C   UNL     1      20.809  14.886  82.124  1.00  0.00     0.282 C 
ATOM      9  C   UNL     1      20.092  13.284  83.700  1.00  0.00     0.178 C 
ATOM     10  C   UNL     1      21.535  12.806  83.845  1.00  0.00     0.177 C 
ATOM     11  O   UNL     1      19.919  13.816  82.406  1.00  0.00    -0.341 OA
ATOM     12  C   UNL     1      22.711  13.751  83.417  1.00  0.00     0.179 C 
ATOM     13  C   UNL     1      22.275  14.441  82.069  1.00  0.00     0.202 C 
BRANCH   9  14
ATOM     14  C   UNL     1      19.121  14.136  84.648  1.00  0.00     0.191 C 
BRANCH  14  15
ATOM     15  O   UNL     1      19.625  15.145  85.503  1.00  0.00    -0.394 OA
ATOM     16  H   UNL     1      20.596  14.920  85.937  1.00  0.00     0.210 HD
ENDBRANCH  14  15
ENDBRANCH   9  14
BRANCH  10  17
ATOM     17  O   UNL     1      21.903  12.009  85.015  1.00  0.00    -0.387 OA
ATOM     18  H   UNL     1      21.468  12.435  85.816  1.00  0.00     0.211 HD
ENDBRANCH  10  17
BRANCH  12  19
ATOM     19  O   UNL     1      23.219  14.674  84.389  1.00  0.00    -0.387 OA
ATOM     20  H   UNL     1      24.238  14.618  84.312  1.00  0.00     0.211 HD
ENDBRANCH  12  19
BRANCH  13  21
ATOM     21  O   UNL     1      22.516  13.593  80.939  1.00  0.00    -0.385 OA
ATOM     22  H   UNL     1      23.446  13.283  81.049  1.00  0.00     0.211 HD
ENDBRANCH  13  21
ENDBRANCH   7   8
ENDBRANCH   1   7
BRANCH   2  23
ATOM     23  C   UNL     1      23.271  18.686  82.176  1.00  0.00     0.191 C 
BRANCH  23  24
ATOM     24  O   UNL     1      22.863  18.574  80.841  1.00  0.00    -0.394 OA
ATOM     25  H   UNL     1      23.154  19.477  80.462  1.00  0.00     0.210 HD
ENDBRANCH  23  24
ENDBRANCH   2  23
BRANCH   6  26
ATOM     26  O   UNL     1      18.875  18.022  82.700  1.00  0.00    -0.387 OA
ATOM     27  H   UNL     1      18.553  17.526  83.538  1.00  0.00     0.211 HD
ENDBRANCH   6  26
BRANCH   5  28
ATOM     28  O   UNL     1      19.617  19.525  85.193  1.00  0.00    -0.385 OA
ATOM     29  H   UNL     1      18.854  19.843  84.611  1.00  0.00     0.211 HD
ENDBRANCH   5  28
BRANCH   4  30
ATOM     30  O   UNL     1      22.153  20.124  84.392  1.00  0.00    -0.341 OA
BRANCH  30  31
ATOM     31  C   UNL     1      22.930  20.861  85.279  1.00  0.00     0.184 C 
ATOM     32  C   UNL     1      24.395  20.279  85.405  1.00  0.00     0.178 C 
ATOM     33  C   UNL     1      22.348  20.809  86.707  1.00  0.00     0.180 C 
ATOM     34  O   UNL     1      25.183  21.118  86.205  1.00  0.00    -0.342 OA
ATOM     35  C   UNL     1      23.252  21.556  87.701  1.00  0.00     0.201 C 
ATOM     36  C   UNL     1      24.741  21.056  87.552  1.00  0.00     0.279 C 
BRANCH  32  37
ATOM     37  C   UNL     1      25.072  20.057  84.045  1.00  0.00     0.191 C 
BRANCH  37  38
ATOM     38  O   UNL     1      26.449  19.838  84.187  1.00  0.00    -0.394 OA
ATOM     39  H   UNL     1      26.738  20.524  84.846  1.00  0.00     0.210 HD
ENDBRANCH  37  38
ENDBRANCH  32  37
BRANCH  33  40
ATOM     40  O   UNL     1      21.015  21.317  86.647  1.00  0.00    -0.387 OA
ATOM     41  H   UNL     1      20.411  20.622  87.074  1.00  0.00     0.211 HD
ENDBRANCH  33  40
BRANCH  35  42
ATOM     42  O   UNL     1      22.684  21.429  88.985  1.00  0.00    -0.385 OA
ATOM     43  H   UNL     1      22.317  22.332  89.211  1.00  0.00     0.211 HD
ENDBRANCH  35  42
BRANCH  36  44
ATOM     44  O   UNL     1      24.871  19.754  88.085  1.00  0.00    -0.366 OA
ATOM     45  H   UNL     1      23.965  19.353  87.978  1.00  0.00     0.213 HD
ENDBRANCH  36  44
ENDBRANCH  30  31
ENDBRANCH   4  30
TORSDOF 18
ENDMDL
