MODEL 1
REMARK VINA RESULT:    -6.876      0.000      0.000
REMARK INTER + INTRA:         -21.837
REMARK INTER:                 -16.322
REMARK INTRA:                  -5.515
REMARK UNBOUND:                -5.515
REMARK SMILES O=C(OC[C@H]1O[C@H](OC(=O)c2cc(O)c(O)c(O)c2)[C@H](OC(=O)c2cc(O)c(O)c(O)c2)[C@@H](OC(=O)c2cc(O)c(O)c(O)c2)[C@H]1OC(=O)c1cc(O)c(O)c(O)c1)c1cc(O)c(O)c(O)c1
REMARK SMILES IDX 5 1 46 2 33 3 20 4 7 5 6 6 4 7 3 8 2 9 1 10 59 11 60 12
REMARK SMILES IDX 61 13 67 14 63 15 65 16 62 17 64 19 66 21 47 23 48 24 49 25
REMARK SMILES IDX 50 26 58 27 51 28 56 29 52 30 54 31 57 32 53 34 55 36 34 38
REMARK SMILES IDX 35 39 36 40 37 41 45 42 38 43 43 44 39 45 41 46 44 47 40 49
REMARK SMILES IDX 42 51 8 53 9 54 10 55 11 56 19 57 12 58 17 59 13 60 15 61
REMARK SMILES IDX 18 62 14 64 16 66 21 68 22 69 23 70 24 71 32 72 25 73 30 74
REMARK SMILES IDX 26 75 28 76 31 77 27 79 29 81
REMARK H PARENT 62 18 64 20 66 22 57 33 53 35 55 37 44 48 40 50 42 52 18 63
REMARK H PARENT 14 65 16 67 31 78 27 80 29 82
REMARK Flexibility Score: inf
ROOT
ATOM      1  C   UNL     1      15.905  24.597  38.615  1.00  0.00     0.205 C 
ATOM      2  C   UNL     1      15.496  23.883  39.917  1.00  0.00     0.254 C 
ATOM      3  C   UNL     1      16.708  23.908  40.854  1.00  0.00     0.267 C 
ATOM      4  C   UNL     1      17.151  25.364  41.090  1.00  0.00     0.290 C 
ATOM      5  C   UNL     1      17.360  26.068  39.729  1.00  0.00     0.357 C 
ATOM      6  O   UNL     1      16.222  25.956  38.883  1.00  0.00    -0.329 OA
ENDROOT
BRANCH   1   7
ATOM      7  C   UNL     1      14.801  24.538  37.544  1.00  0.00     0.269 C 
BRANCH   7   8
ATOM      8  O   UNL     1      15.094  23.497  36.617  1.00  0.00    -0.459 OA
BRANCH   8   9
ATOM      9  C   UNL     1      16.333  23.399  35.967  1.00  0.00     0.338 C 
ATOM     10  O   UNL     1      16.656  24.256  35.095  1.00  0.00    -0.246 OA
BRANCH   9  11
ATOM     11  C   UNL     1      17.242  22.277  36.278  1.00  0.00     0.067 A 
ATOM     12  C   UNL     1      18.605  22.514  36.503  1.00  0.00     0.066 A 
ATOM     13  C   UNL     1      19.487  21.458  36.746  1.00  0.00     0.162 A 
ATOM     14  C   UNL     1      16.759  20.953  36.309  1.00  0.00     0.066 A 
ATOM     15  C   UNL     1      19.007  20.127  36.740  1.00  0.00     0.200 A 
ATOM     16  C   UNL     1      17.637  19.886  36.526  1.00  0.00     0.162 A 
BRANCH  13  17
ATOM     17  O   UNL     1      20.822  21.776  36.999  1.00  0.00    -0.504 OA
ATOM     18  H   UNL     1      21.111  22.536  37.591  1.00  0.00     0.293 HD
ENDBRANCH  13  17
BRANCH  15  19
ATOM     19  O   UNL     1      19.855  19.032  36.935  1.00  0.00    -0.502 OA
ATOM     20  H   UNL     1      20.427  18.618  36.216  1.00  0.00     0.293 HD
ENDBRANCH  15  19
BRANCH  16  21
ATOM     21  O   UNL     1      17.126  18.588  36.522  1.00  0.00    -0.504 OA
ATOM     22  H   UNL     1      17.498  17.866  35.918  1.00  0.00     0.293 HD
ENDBRANCH  16  21
ENDBRANCH   9  11
ENDBRANCH   8   9
ENDBRANCH   7   8
ENDBRANCH   1   7
BRANCH   2  23
ATOM     23  O   UNL     1      14.412  24.573  40.541  1.00  0.00    -0.452 OA
BRANCH  23  24
ATOM     24  C   UNL     1      13.127  24.039  40.704  1.00  0.00     0.338 C 
ATOM     25  O   UNL     1      12.308  24.075  39.750  1.00  0.00    -0.246 OA
BRANCH  24  26
ATOM     26  C   UNL     1      12.754  23.418  41.995  1.00  0.00     0.067 A 
ATOM     27  C   UNL     1      12.692  24.186  43.172  1.00  0.00     0.066 A 
ATOM     28  C   UNL     1      12.510  22.037  42.067  1.00  0.00     0.066 A 
ATOM     29  C   UNL     1      12.405  23.578  44.407  1.00  0.00     0.162 A 
ATOM     30  C   UNL     1      12.213  21.430  43.292  1.00  0.00     0.162 A 
ATOM     31  C   UNL     1      12.162  22.196  44.465  1.00  0.00     0.200 A 
BRANCH  29  32
ATOM     32  O   UNL     1      12.368  24.341  45.571  1.00  0.00    -0.504 OA
ATOM     33  H   UNL     1      12.244  23.912  46.481  1.00  0.00     0.293 HD
ENDBRANCH  29  32
BRANCH  30  34
ATOM     34  O   UNL     1      11.979  20.057  43.322  1.00  0.00    -0.504 OA
ATOM     35  H   UNL     1      12.036  19.481  42.488  1.00  0.00     0.293 HD
ENDBRANCH  30  34
BRANCH  31  36
ATOM     36  O   UNL     1      11.876  21.569  45.677  1.00  0.00    -0.502 OA
ATOM     37  H   UNL     1      12.333  21.828  46.542  1.00  0.00     0.293 HD
ENDBRANCH  31  36
ENDBRANCH  24  26
ENDBRANCH  23  24
ENDBRANCH   2  23
BRANCH   3  38
ATOM     38  O   UNL     1      16.398  23.256  42.086  1.00  0.00    -0.450 OA
BRANCH  38  39
ATOM     39  C   UNL     1      17.232  22.285  42.657  1.00  0.00     0.338 C 
ATOM     40  O   UNL     1      18.444  22.212  42.314  1.00  0.00    -0.246 OA
BRANCH  39  41
ATOM     41  C   UNL     1      16.700  21.356  43.679  1.00  0.00     0.067 A 
ATOM     42  C   UNL     1      17.006  19.985  43.621  1.00  0.00     0.066 A 
ATOM     43  C   UNL     1      15.888  21.835  44.719  1.00  0.00     0.066 A 
ATOM     44  C   UNL     1      16.506  19.105  44.584  1.00  0.00     0.162 A 
ATOM     45  C   UNL     1      15.377  20.963  45.686  1.00  0.00     0.162 A 
ATOM     46  C   UNL     1      15.679  19.578  45.615  1.00  0.00     0.200 A 
BRANCH  44  47
ATOM     47  O   UNL     1      16.832  17.748  44.517  1.00  0.00    -0.504 OA
ATOM     48  H   UNL     1      17.667  17.378  44.964  1.00  0.00     0.293 HD
ENDBRANCH  44  47
BRANCH  45  49
ATOM     49  O   UNL     1      14.576  21.510  46.690  1.00  0.00    -0.504 OA
ATOM     50  H   UNL     1      14.778  21.438  47.676  1.00  0.00     0.293 HD
ENDBRANCH  45  49
BRANCH  46  51
ATOM     51  O   UNL     1      15.185  18.647  46.533  1.00  0.00    -0.502 OA
ATOM     52  H   UNL     1      14.343  18.102  46.382  1.00  0.00     0.293 HD
ENDBRANCH  46  51
ENDBRANCH  39  41
ENDBRANCH  38  39
ENDBRANCH   3  38
BRANCH   5  53
ATOM     53  O   UNL     1      18.527  25.566  39.082  1.00  0.00    -0.428 OA
BRANCH  53  54
ATOM     54  C   UNL     1      19.142  26.205  38.000  1.00  0.00     0.340 C 
ATOM     55  O   UNL     1      19.087  25.709  36.845  1.00  0.00    -0.246 OA
BRANCH  54  56
ATOM     56  C   UNL     1      19.852  27.476  38.221  1.00  0.00     0.067 A 
ATOM     57  C   UNL     1      20.000  28.405  37.184  1.00  0.00     0.066 A 
ATOM     58  C   UNL     1      20.375  27.771  39.485  1.00  0.00     0.066 A 
ATOM     59  C   UNL     1      20.634  29.635  37.402  1.00  0.00     0.162 A 
ATOM     60  C   UNL     1      21.035  28.978  39.718  1.00  0.00     0.162 A 
ATOM     61  C   UNL     1      21.159  29.931  38.686  1.00  0.00     0.200 A 
BRANCH  59  62
ATOM     62  O   UNL     1      20.710  30.522  36.324  1.00  0.00    -0.504 OA
ATOM     63  H   UNL     1      20.378  31.479  36.353  1.00  0.00     0.293 HD
ENDBRANCH  59  62
BRANCH  60  64
ATOM     64  O   UNL     1      21.570  29.209  40.986  1.00  0.00    -0.504 OA
ATOM     65  H   UNL     1      21.865  28.449  41.591  1.00  0.00     0.293 HD
ENDBRANCH  60  64
BRANCH  61  66
ATOM     66  O   UNL     1      21.796  31.148  38.969  1.00  0.00    -0.502 OA
ATOM     67  H   UNL     1      22.729  31.385  38.660  1.00  0.00     0.293 HD
ENDBRANCH  61  66
ENDBRANCH  54  56
ENDBRANCH  53  54
ENDBRANCH   5  53
BRANCH   4  68
ATOM     68  O   UNL     1      18.387  25.393  41.800  1.00  0.00    -0.448 OA
BRANCH  68  69
ATOM     69  C   UNL     1      18.791  26.440  42.633  1.00  0.00     0.339 C 
ATOM     70  O   UNL     1      19.842  27.090  42.374  1.00  0.00    -0.246 OA
BRANCH  69  71
ATOM     71  C   UNL     1      17.987  26.772  43.827  1.00  0.00     0.067 A 
ATOM     72  C   UNL     1      16.935  25.944  44.240  1.00  0.00     0.066 A 
ATOM     73  C   UNL     1      18.275  27.926  44.574  1.00  0.00     0.066 A 
ATOM     74  C   UNL     1      16.188  26.251  45.388  1.00  0.00     0.162 A 
ATOM     75  C   UNL     1      17.539  28.239  45.721  1.00  0.00     0.162 A 
ATOM     76  C   UNL     1      16.492  27.402  46.134  1.00  0.00     0.200 A 
BRANCH  74  77
ATOM     77  O   UNL     1      15.151  25.411  45.796  1.00  0.00    -0.504 OA
ATOM     78  H   UNL     1      14.178  25.663  45.657  1.00  0.00     0.293 HD
ENDBRANCH  74  77
BRANCH  75  79
ATOM     79  O   UNL     1      17.866  29.389  46.442  1.00  0.00    -0.504 OA
ATOM     80  H   UNL     1      17.928  29.394  47.451  1.00  0.00     0.293 HD
ENDBRANCH  75  79
BRANCH  76  81
ATOM     81  O   UNL     1      15.763  27.721  47.281  1.00  0.00    -0.502 OA
ATOM     82  H   UNL     1      14.781  27.953  47.253  1.00  0.00     0.293 HD
ENDBRANCH  76  81
ENDBRANCH  69  71
ENDBRANCH  68  69
ENDBRANCH   4  68
TORSDOF 31
ENDMDL
MODEL 2
REMARK VINA RESULT:    -6.864      4.877     10.424
REMARK INTER + INTRA:         -21.809
REMARK INTER:                 -15.117
REMARK INTRA:                  -6.692
REMARK UNBOUND:                -5.515
REMARK SMILES O=C(OC[C@H]1O[C@H](OC(=O)c2cc(O)c(O)c(O)c2)[C@H](OC(=O)c2cc(O)c(O)c(O)c2)[C@@H](OC(=O)c2cc(O)c(O)c(O)c2)[C@H]1OC(=O)c1cc(O)c(O)c(O)c1)c1cc(O)c(O)c(O)c1
REMARK SMILES IDX 5 1 46 2 33 3 20 4 7 5 6 6 4 7 3 8 2 9 1 10 59 11 60 12
REMARK SMILES IDX 61 13 67 14 63 15 65 16 62 17 64 19 66 21 47 23 48 24 49 25
REMARK SMILES IDX 50 26 58 27 51 28 56 29 52 30 54 31 57 32 53 34 55 36 34 38
REMARK SMILES IDX 35 39 36 40 37 41 45 42 38 43 43 44 39 45 41 46 44 47 40 49
REMARK SMILES IDX 42 51 8 53 9 54 10 55 11 56 19 57 12 58 17 59 13 60 15 61
REMARK SMILES IDX 18 62 14 64 16 66 21 68 22 69 23 70 24 71 32 72 25 73 30 74
REMARK SMILES IDX 26 75 28 76 31 77 27 79 29 81
REMARK H PARENT 62 18 64 20 66 22 57 33 53 35 55 37 44 48 40 50 42 52 18 63
REMARK H PARENT 14 65 16 67 31 78 27 80 29 82
REMARK Flexibility Score: inf
ROOT
ATOM      1  C   UNL     1      12.657  23.546  48.378  1.00  0.00     0.205 C 
ATOM      2  C   UNL     1      13.002  23.222  49.843  1.00  0.00     0.254 C 
ATOM      3  C   UNL     1      13.298  21.721  49.924  1.00  0.00     0.267 C 
ATOM      4  C   UNL     1      14.439  21.366  48.953  1.00  0.00     0.290 C 
ATOM      5  C   UNL     1      14.099  21.891  47.539  1.00  0.00     0.357 C 
ATOM      6  O   UNL     1      13.774  23.276  47.542  1.00  0.00    -0.329 OA
ENDROOT
BRANCH   1   7
ATOM      7  C   UNL     1      12.227  25.012  48.188  1.00  0.00     0.269 C 
BRANCH   7   8
ATOM      8  O   UNL     1      13.078  25.637  47.232  1.00  0.00    -0.459 OA
BRANCH   8   9
ATOM      9  C   UNL     1      14.156  26.450  47.607  1.00  0.00     0.338 C 
ATOM     10  O   UNL     1      14.161  27.006  48.743  1.00  0.00    -0.246 OA
BRANCH   9  11
ATOM     11  C   UNL     1      15.268  26.684  46.662  1.00  0.00     0.067 A 
ATOM     12  C   UNL     1      15.540  25.756  45.648  1.00  0.00     0.066 A 
ATOM     13  C   UNL     1      16.619  25.937  44.779  1.00  0.00     0.162 A 
ATOM     14  C   UNL     1      16.093  27.819  46.797  1.00  0.00     0.066 A 
ATOM     15  C   UNL     1      17.468  27.057  44.939  1.00  0.00     0.200 A 
ATOM     16  C   UNL     1      17.192  27.996  45.949  1.00  0.00     0.162 A 
BRANCH  13  17
ATOM     17  O   UNL     1      16.802  24.990  43.770  1.00  0.00    -0.504 OA
ATOM     18  H   UNL     1      16.600  24.012  43.881  1.00  0.00     0.293 HD
ENDBRANCH  13  17
BRANCH  15  19
ATOM     19  O   UNL     1      18.587  27.261  44.125  1.00  0.00    -0.502 OA
ATOM     20  H   UNL     1      18.912  28.165  43.818  1.00  0.00     0.293 HD
ENDBRANCH  15  19
BRANCH  16  21
ATOM     21  O   UNL     1      18.002  29.118  46.131  1.00  0.00    -0.504 OA
ATOM     22  H   UNL     1      18.985  29.115  45.891  1.00  0.00     0.293 HD
ENDBRANCH  16  21
ENDBRANCH   9  11
ENDBRANCH   8   9
ENDBRANCH   7   8
ENDBRANCH   1   7
BRANCH   2  23
ATOM     23  O   UNL     1      14.164  23.947  50.250  1.00  0.00    -0.452 OA
BRANCH  23  24
ATOM     24  C   UNL     1      14.196  24.842  51.329  1.00  0.00     0.338 C 
ATOM     25  O   UNL     1      13.128  25.157  51.913  1.00  0.00    -0.246 OA
BRANCH  24  26
ATOM     26  C   UNL     1      15.494  25.390  51.782  1.00  0.00     0.067 A 
ATOM     27  C   UNL     1      16.509  24.541  52.258  1.00  0.00     0.066 A 
ATOM     28  C   UNL     1      15.705  26.779  51.792  1.00  0.00     0.066 A 
ATOM     29  C   UNL     1      17.713  25.072  52.751  1.00  0.00     0.162 A 
ATOM     30  C   UNL     1      16.906  27.312  52.272  1.00  0.00     0.162 A 
ATOM     31  C   UNL     1      17.913  26.463  52.755  1.00  0.00     0.200 A 
BRANCH  29  32
ATOM     32  O   UNL     1      18.704  24.226  53.241  1.00  0.00    -0.504 OA
ATOM     33  H   UNL     1      18.649  23.829  54.171  1.00  0.00     0.293 HD
ENDBRANCH  29  32
BRANCH  30  34
ATOM     34  O   UNL     1      17.077  28.694  52.267  1.00  0.00    -0.504 OA
ATOM     35  H   UNL     1      16.342  29.330  52.564  1.00  0.00     0.293 HD
ENDBRANCH  30  34
BRANCH  31  36
ATOM     36  O   UNL     1      19.096  27.016  53.240  1.00  0.00    -0.502 OA
ATOM     37  H   UNL     1      19.477  27.882  52.879  1.00  0.00     0.293 HD
ENDBRANCH  31  36
ENDBRANCH  24  26
ENDBRANCH  23  24
ENDBRANCH   2  23
BRANCH   3  38
ATOM     38  O   UNL     1      13.625  21.350  51.263  1.00  0.00    -0.450 OA
BRANCH  38  39
ATOM     39  C   UNL     1      12.951  20.330  51.950  1.00  0.00     0.338 C 
ATOM     40  O   UNL     1      12.037  20.618  52.769  1.00  0.00    -0.246 OA
BRANCH  39  41
ATOM     41  C   UNL     1      13.296  18.913  51.701  1.00  0.00     0.067 A 
ATOM     42  C   UNL     1      14.443  18.347  52.284  1.00  0.00     0.066 A 
ATOM     43  C   UNL     1      12.478  18.116  50.883  1.00  0.00     0.066 A 
ATOM     44  C   UNL     1      14.773  17.010  52.051  1.00  0.00     0.162 A 
ATOM     45  C   UNL     1      12.800  16.777  50.638  1.00  0.00     0.162 A 
ATOM     46  C   UNL     1      13.966  16.216  51.220  1.00  0.00     0.200 A 
BRANCH  44  47
ATOM     47  O   UNL     1      15.910  16.463  52.649  1.00  0.00    -0.504 OA
ATOM     48  H   UNL     1      16.450  16.979  53.340  1.00  0.00     0.293 HD
ENDBRANCH  44  47
BRANCH  45  49
ATOM     49  O   UNL     1      11.941  16.048  49.816  1.00  0.00    -0.504 OA
ATOM     50  H   UNL     1      12.072  15.074  49.582  1.00  0.00     0.293 HD
ENDBRANCH  45  49
BRANCH  46  51
ATOM     51  O   UNL     1      14.360  14.893  51.000  1.00  0.00    -0.502 OA
ATOM     52  H   UNL     1      14.659  14.266  51.739  1.00  0.00     0.293 HD
ENDBRANCH  46  51
ENDBRANCH  39  41
ENDBRANCH  38  39
ENDBRANCH   3  38
BRANCH   5  53
ATOM     53  O   UNL     1      13.046  21.121  46.961  1.00  0.00    -0.428 OA
BRANCH  53  54
ATOM     54  C   UNL     1      13.131  20.529  45.697  1.00  0.00     0.340 C 
ATOM     55  O   UNL     1      12.112  20.035  45.149  1.00  0.00    -0.246 OA
BRANCH  54  56
ATOM     56  C   UNL     1      14.428  20.493  45.003  1.00  0.00     0.067 A 
ATOM     57  C   UNL     1      14.781  21.492  44.087  1.00  0.00     0.066 A 
ATOM     58  C   UNL     1      15.332  19.457  45.269  1.00  0.00     0.066 A 
ATOM     59  C   UNL     1      16.033  21.486  43.461  1.00  0.00     0.162 A 
ATOM     60  C   UNL     1      16.574  19.416  44.634  1.00  0.00     0.162 A 
ATOM     61  C   UNL     1      16.947  20.437  43.736  1.00  0.00     0.200 A 
BRANCH  59  62
ATOM     62  O   UNL     1      16.321  22.539  42.586  1.00  0.00    -0.504 OA
ATOM     63  H   UNL     1      15.873  22.666  41.685  1.00  0.00     0.293 HD
ENDBRANCH  59  62
BRANCH  60  64
ATOM     64  O   UNL     1      17.424  18.344  44.905  1.00  0.00    -0.504 OA
ATOM     65  H   UNL     1      17.549  17.982  45.845  1.00  0.00     0.293 HD
ENDBRANCH  60  64
BRANCH  61  66
ATOM     66  O   UNL     1      18.219  20.381  43.146  1.00  0.00    -0.502 OA
ATOM     67  H   UNL     1      18.820  19.569  43.170  1.00  0.00     0.293 HD
ENDBRANCH  61  66
ENDBRANCH  54  56
ENDBRANCH  53  54
ENDBRANCH   5  53
BRANCH   4  68
ATOM     68  O   UNL     1      14.596  19.950  48.875  1.00  0.00    -0.448 OA
BRANCH  68  69
ATOM     69  C   UNL     1      15.797  19.277  49.118  1.00  0.00     0.339 C 
ATOM     70  O   UNL     1      15.936  18.075  48.758  1.00  0.00    -0.246 OA
BRANCH  69  71
ATOM     71  C   UNL     1      16.896  19.978  49.813  1.00  0.00     0.067 A 
ATOM     72  C   UNL     1      18.086  20.293  49.145  1.00  0.00     0.066 A 
ATOM     73  C   UNL     1      16.757  20.349  51.160  1.00  0.00     0.066 A 
ATOM     74  C   UNL     1      19.119  20.978  49.801  1.00  0.00     0.162 A 
ATOM     75  C   UNL     1      17.779  21.035  51.823  1.00  0.00     0.162 A 
ATOM     76  C   UNL     1      18.965  21.354  51.146  1.00  0.00     0.200 A 
BRANCH  74  77
ATOM     77  O   UNL     1      20.294  21.297  49.120  1.00  0.00    -0.504 OA
ATOM     78  H   UNL     1      20.913  22.032  49.445  1.00  0.00     0.293 HD
ENDBRANCH  74  77
BRANCH  75  79
ATOM     79  O   UNL     1      17.596  21.396  53.159  1.00  0.00    -0.504 OA
ATOM     80  H   UNL     1      17.639  22.357  53.470  1.00  0.00     0.293 HD
ENDBRANCH  75  79
BRANCH  76  81
ATOM     81  O   UNL     1      19.980  22.041  51.815  1.00  0.00    -0.502 OA
ATOM     82  H   UNL     1      20.077  22.022  52.819  1.00  0.00     0.293 HD
ENDBRANCH  76  81
ENDBRANCH  69  71
ENDBRANCH  68  69
ENDBRANCH   4  68
TORSDOF 31
ENDMDL
MODEL 3
REMARK VINA RESULT:    -6.810      4.750     11.249
REMARK INTER + INTRA:         -21.682
REMARK INTER:                 -15.726
REMARK INTRA:                  -5.956
REMARK UNBOUND:                -5.515
REMARK SMILES O=C(OC[C@H]1O[C@H](OC(=O)c2cc(O)c(O)c(O)c2)[C@H](OC(=O)c2cc(O)c(O)c(O)c2)[C@@H](OC(=O)c2cc(O)c(O)c(O)c2)[C@H]1OC(=O)c1cc(O)c(O)c(O)c1)c1cc(O)c(O)c(O)c1
REMARK SMILES IDX 5 1 46 2 33 3 20 4 7 5 6 6 4 7 3 8 2 9 1 10 59 11 60 12
REMARK SMILES IDX 61 13 67 14 63 15 65 16 62 17 64 19 66 21 47 23 48 24 49 25
REMARK SMILES IDX 50 26 58 27 51 28 56 29 52 30 54 31 57 32 53 34 55 36 34 38
REMARK SMILES IDX 35 39 36 40 37 41 45 42 38 43 43 44 39 45 41 46 44 47 40 49
REMARK SMILES IDX 42 51 8 53 9 54 10 55 11 56 19 57 12 58 17 59 13 60 15 61
REMARK SMILES IDX 18 62 14 64 16 66 21 68 22 69 23 70 24 71 32 72 25 73 30 74
REMARK SMILES IDX 26 75 28 76 31 77 27 79 29 81
REMARK H PARENT 62 18 64 20 66 22 57 33 53 35 55 37 44 48 40 50 42 52 18 63
REMARK H PARENT 14 65 16 67 31 78 27 80 29 82
REMARK Flexibility Score: inf
ROOT
ATOM      1  C   UNL     1      12.516  22.750  47.753  1.00  0.00     0.205 C 
ATOM      2  C   UNL     1      13.023  24.193  47.580  1.00  0.00     0.254 C 
ATOM      3  C   UNL     1      13.387  24.723  48.971  1.00  0.00     0.267 C 
ATOM      4  C   UNL     1      14.435  23.799  49.619  1.00  0.00     0.290 C 
ATOM      5  C   UNL     1      13.930  22.338  49.585  1.00  0.00     0.357 C 
ATOM      6  O   UNL     1      13.551  21.928  48.276  1.00  0.00    -0.329 OA
ENDROOT
BRANCH   1   7
ATOM      7  C   UNL     1      12.009  22.144  46.431  1.00  0.00     0.269 C 
BRANCH   7   8
ATOM      8  O   UNL     1      12.742  20.958  46.141  1.00  0.00    -0.459 OA
BRANCH   8   9
ATOM      9  C   UNL     1      13.017  20.549  44.829  1.00  0.00     0.338 C 
ATOM     10  O   UNL     1      12.079  20.133  44.089  1.00  0.00    -0.246 OA
BRANCH   9  11
ATOM     11  C   UNL     1      14.406  20.571  44.325  1.00  0.00     0.067 A 
ATOM     12  C   UNL     1      15.303  19.554  44.679  1.00  0.00     0.066 A 
ATOM     13  C   UNL     1      16.632  19.589  44.253  1.00  0.00     0.162 A 
ATOM     14  C   UNL     1      14.856  21.637  43.519  1.00  0.00     0.066 A 
ATOM     15  C   UNL     1      17.092  20.678  43.476  1.00  0.00     0.200 A 
ATOM     16  C   UNL     1      16.192  21.695  43.108  1.00  0.00     0.162 A 
BRANCH  13  17
ATOM     17  O   UNL     1      17.455  18.521  44.614  1.00  0.00    -0.504 OA
ATOM     18  H   UNL     1      17.145  17.742  45.169  1.00  0.00     0.293 HD
ENDBRANCH  13  17
BRANCH  15  19
ATOM     19  O   UNL     1      18.423  20.782  43.060  1.00  0.00    -0.502 OA
ATOM     20  H   UNL     1      19.061  21.502  43.364  1.00  0.00     0.293 HD
ENDBRANCH  15  19
BRANCH  16  21
ATOM     21  O   UNL     1      16.606  22.779  42.334  1.00  0.00    -0.504 OA
ATOM     22  H   UNL     1      17.119  22.657  41.470  1.00  0.00     0.293 HD
ENDBRANCH  16  21
ENDBRANCH   9  11
ENDBRANCH   8   9
ENDBRANCH   7   8
ENDBRANCH   1   7
BRANCH   2  23
ATOM     23  O   UNL     1      14.190  24.212  46.756  1.00  0.00    -0.452 OA
BRANCH  23  24
ATOM     24  C   UNL     1      14.294  24.924  45.553  1.00  0.00     0.338 C 
ATOM     25  O   UNL     1      13.325  24.944  44.752  1.00  0.00    -0.246 OA
BRANCH  24  26
ATOM     26  C   UNL     1      15.540  25.662  45.249  1.00  0.00     0.067 A 
ATOM     27  C   UNL     1      15.940  26.757  46.037  1.00  0.00     0.066 A 
ATOM     28  C   UNL     1      16.311  25.309  44.129  1.00  0.00     0.066 A 
ATOM     29  C   UNL     1      17.087  27.497  45.702  1.00  0.00     0.162 A 
ATOM     30  C   UNL     1      17.459  26.037  43.798  1.00  0.00     0.162 A 
ATOM     31  C   UNL     1      17.850  27.133  44.580  1.00  0.00     0.200 A 
BRANCH  29  32
ATOM     32  O   UNL     1      17.465  28.592  46.474  1.00  0.00    -0.504 OA
ATOM     33  H   UNL     1      16.801  29.314  46.729  1.00  0.00     0.293 HD
ENDBRANCH  29  32
BRANCH  30  34
ATOM     34  O   UNL     1      18.195  25.656  42.679  1.00  0.00    -0.504 OA
ATOM     35  H   UNL     1      19.211  25.635  42.682  1.00  0.00     0.293 HD
ENDBRANCH  30  34
BRANCH  31  36
ATOM     36  O   UNL     1      18.991  27.851  44.225  1.00  0.00    -0.502 OA
ATOM     37  H   UNL     1      19.267  27.986  43.261  1.00  0.00     0.293 HD
ENDBRANCH  31  36
ENDBRANCH  24  26
ENDBRANCH  23  24
ENDBRANCH   2  23
BRANCH   3  38
ATOM     38  O   UNL     1      13.864  26.065  48.884  1.00  0.00    -0.450 OA
BRANCH  38  39
ATOM     39  C   UNL     1      13.293  27.119  49.611  1.00  0.00     0.338 C 
ATOM     40  O   UNL     1      12.118  27.498  49.354  1.00  0.00    -0.246 OA
BRANCH  39  41
ATOM     41  C   UNL     1      14.058  27.775  50.694  1.00  0.00     0.067 A 
ATOM     42  C   UNL     1      13.734  27.531  52.040  1.00  0.00     0.066 A 
ATOM     43  C   UNL     1      15.118  28.644  50.390  1.00  0.00     0.066 A 
ATOM     44  C   UNL     1      14.452  28.150  53.067  1.00  0.00     0.162 A 
ATOM     45  C   UNL     1      15.842  29.272  51.408  1.00  0.00     0.162 A 
ATOM     46  C   UNL     1      15.502  29.032  52.765  1.00  0.00     0.200 A 
BRANCH  44  47
ATOM     47  O   UNL     1      14.124  27.885  54.398  1.00  0.00    -0.504 OA
ATOM     48  H   UNL     1      14.773  27.415  55.024  1.00  0.00     0.293 HD
ENDBRANCH  44  47
BRANCH  45  49
ATOM     49  O   UNL     1      16.881  30.123  51.030  1.00  0.00    -0.504 OA
ATOM     50  H   UNL     1      17.777  29.806  50.690  1.00  0.00     0.293 HD
ENDBRANCH  45  49
BRANCH  46  51
ATOM     51  O   UNL     1      16.167  29.643  53.831  1.00  0.00    -0.502 OA
ATOM     52  H   UNL     1      15.737  30.329  54.442  1.00  0.00     0.293 HD
ENDBRANCH  46  51
ENDBRANCH  39  41
ENDBRANCH  38  39
ENDBRANCH   3  38
BRANCH   5  53
ATOM     53  O   UNL     1      12.854  22.161  50.505  1.00  0.00    -0.428 OA
BRANCH  53  54
ATOM     54  C   UNL     1      12.897  21.257  51.573  1.00  0.00     0.340 C 
ATOM     55  O   UNL     1      12.546  21.611  52.728  1.00  0.00    -0.246 OA
BRANCH  54  56
ATOM     56  C   UNL     1      13.353  19.879  51.334  1.00  0.00     0.067 A 
ATOM     57  C   UNL     1      14.484  19.373  51.988  1.00  0.00     0.066 A 
ATOM     58  C   UNL     1      12.645  19.053  50.454  1.00  0.00     0.066 A 
ATOM     59  C   UNL     1      14.894  18.048  51.798  1.00  0.00     0.162 A 
ATOM     60  C   UNL     1      13.052  17.738  50.228  1.00  0.00     0.162 A 
ATOM     61  C   UNL     1      14.171  17.213  50.908  1.00  0.00     0.200 A 
BRANCH  59  62
ATOM     62  O   UNL     1      16.012  17.610  52.515  1.00  0.00    -0.504 OA
ATOM     63  H   UNL     1      16.894  17.349  52.086  1.00  0.00     0.293 HD
ENDBRANCH  59  62
BRANCH  60  64
ATOM     64  O   UNL     1      12.333  16.967  49.314  1.00  0.00    -0.504 OA
ATOM     65  H   UNL     1      11.476  17.301  48.887  1.00  0.00     0.293 HD
ENDBRANCH  60  64
BRANCH  61  66
ATOM     66  O   UNL     1      14.527  15.875  50.683  1.00  0.00    -0.502 OA
ATOM     67  H   UNL     1      15.404  15.465  50.976  1.00  0.00     0.293 HD
ENDBRANCH  61  66
ENDBRANCH  54  56
ENDBRANCH  53  54
ENDBRANCH   5  53
BRANCH   4  68
ATOM     68  O   UNL     1      14.639  24.166  50.981  1.00  0.00    -0.448 OA
BRANCH  68  69
ATOM     69  C   UNL     1      15.892  24.227  51.600  1.00  0.00     0.339 C 
ATOM     70  O   UNL     1      16.496  25.331  51.706  1.00  0.00    -0.246 OA
BRANCH  69  71
ATOM     71  C   UNL     1      16.509  22.988  52.116  1.00  0.00     0.067 A 
ATOM     72  C   UNL     1      16.143  22.464  53.362  1.00  0.00     0.066 A 
ATOM     73  C   UNL     1      17.474  22.309  51.353  1.00  0.00     0.066 A 
ATOM     74  C   UNL     1      16.715  21.276  53.839  1.00  0.00     0.162 A 
ATOM     75  C   UNL     1      18.048  21.122  51.817  1.00  0.00     0.162 A 
ATOM     76  C   UNL     1      17.670  20.599  53.062  1.00  0.00     0.200 A 
BRANCH  74  77
ATOM     77  O   UNL     1      16.331  20.758  55.076  1.00  0.00    -0.504 OA
ATOM     78  H   UNL     1      16.626  21.190  55.946  1.00  0.00     0.293 HD
ENDBRANCH  74  77
BRANCH  75  79
ATOM     79  O   UNL     1      18.994  20.471  51.022  1.00  0.00    -0.504 OA
ATOM     80  H   UNL     1      18.762  19.668  50.454  1.00  0.00     0.293 HD
ENDBRANCH  75  79
BRANCH  76  81
ATOM     81  O   UNL     1      18.248  19.412  53.518  1.00  0.00    -0.502 OA
ATOM     82  H   UNL     1      17.699  18.634  53.851  1.00  0.00     0.293 HD
ENDBRANCH  76  81
ENDBRANCH  69  71
ENDBRANCH  68  69
ENDBRANCH   4  68
TORSDOF 31
ENDMDL
MODEL 4
REMARK VINA RESULT:    -6.702      4.708     11.018
REMARK INTER + INTRA:         -21.425
REMARK INTER:                 -16.851
REMARK INTRA:                  -4.575
REMARK UNBOUND:                -5.515
REMARK SMILES O=C(OC[C@H]1O[C@H](OC(=O)c2cc(O)c(O)c(O)c2)[C@H](OC(=O)c2cc(O)c(O)c(O)c2)[C@@H](OC(=O)c2cc(O)c(O)c(O)c2)[C@H]1OC(=O)c1cc(O)c(O)c(O)c1)c1cc(O)c(O)c(O)c1
REMARK SMILES IDX 5 1 46 2 33 3 20 4 7 5 6 6 4 7 3 8 2 9 1 10 59 11 60 12
REMARK SMILES IDX 61 13 67 14 63 15 65 16 62 17 64 19 66 21 47 23 48 24 49 25
REMARK SMILES IDX 50 26 58 27 51 28 56 29 52 30 54 31 57 32 53 34 55 36 34 38
REMARK SMILES IDX 35 39 36 40 37 41 45 42 38 43 43 44 39 45 41 46 44 47 40 49
REMARK SMILES IDX 42 51 8 53 9 54 10 55 11 56 19 57 12 58 17 59 13 60 15 61
REMARK SMILES IDX 18 62 14 64 16 66 21 68 22 69 23 70 24 71 32 72 25 73 30 74
REMARK SMILES IDX 26 75 28 76 31 77 27 79 29 81
REMARK H PARENT 62 18 64 20 66 22 57 33 53 35 55 37 44 48 40 50 42 52 18 63
REMARK H PARENT 14 65 16 67 31 78 27 80 29 82
REMARK Flexibility Score: inf
ROOT
ATOM      1  C   UNL     1      13.059  23.015  46.839  1.00  0.00     0.205 C 
ATOM      2  C   UNL     1      13.061  24.255  47.752  1.00  0.00     0.254 C 
ATOM      3  C   UNL     1      12.853  23.767  49.190  1.00  0.00     0.267 C 
ATOM      4  C   UNL     1      13.955  22.757  49.558  1.00  0.00     0.290 C 
ATOM      5  C   UNL     1      14.014  21.641  48.489  1.00  0.00     0.357 C 
ATOM      6  O   UNL     1      14.146  22.162  47.172  1.00  0.00    -0.329 OA
ENDROOT
BRANCH   1   7
ATOM      7  C   UNL     1      13.146  23.387  45.348  1.00  0.00     0.269 C 
BRANCH   7   8
ATOM      8  O   UNL     1      12.533  22.366  44.567  1.00  0.00    -0.459 OA
BRANCH   8   9
ATOM      9  C   UNL     1      13.202  21.716  43.521  1.00  0.00     0.338 C 
ATOM     10  O   UNL     1      12.816  21.880  42.328  1.00  0.00    -0.246 OA
BRANCH   9  11
ATOM     11  C   UNL     1      14.336  20.816  43.817  1.00  0.00     0.067 A 
ATOM     12  C   UNL     1      14.132  19.639  44.549  1.00  0.00     0.066 A 
ATOM     13  C   UNL     1      15.202  18.805  44.881  1.00  0.00     0.162 A 
ATOM     14  C   UNL     1      15.642  21.153  43.405  1.00  0.00     0.066 A 
ATOM     15  C   UNL     1      16.516  19.163  44.499  1.00  0.00     0.200 A 
ATOM     16  C   UNL     1      16.724  20.338  43.754  1.00  0.00     0.162 A 
BRANCH  13  17
ATOM     17  O   UNL     1      14.914  17.630  45.577  1.00  0.00    -0.504 OA
ATOM     18  H   UNL     1      14.366  17.602  46.420  1.00  0.00     0.293 HD
ENDBRANCH  13  17
BRANCH  15  19
ATOM     19  O   UNL     1      17.626  18.385  44.843  1.00  0.00    -0.502 OA
ATOM     20  H   UNL     1      18.073  17.723  44.228  1.00  0.00     0.293 HD
ENDBRANCH  15  19
BRANCH  16  21
ATOM     21  O   UNL     1      18.004  20.719  43.351  1.00  0.00    -0.504 OA
ATOM     22  H   UNL     1      18.243  21.685  43.163  1.00  0.00     0.293 HD
ENDBRANCH  16  21
ENDBRANCH   9  11
ENDBRANCH   8   9
ENDBRANCH   7   8
ENDBRANCH   1   7
BRANCH   2  23
ATOM     23  O   UNL     1      14.317  24.930  47.668  1.00  0.00    -0.452 OA
BRANCH  23  24
ATOM     24  C   UNL     1      14.470  26.260  47.254  1.00  0.00     0.338 C 
ATOM     25  O   UNL     1      13.644  27.132  47.627  1.00  0.00    -0.246 OA
BRANCH  24  26
ATOM     26  C   UNL     1      15.618  26.627  46.394  1.00  0.00     0.067 A 
ATOM     27  C   UNL     1      16.372  27.786  46.656  1.00  0.00     0.066 A 
ATOM     28  C   UNL     1      15.932  25.848  45.269  1.00  0.00     0.066 A 
ATOM     29  C   UNL     1      17.417  28.167  45.797  1.00  0.00     0.162 A 
ATOM     30  C   UNL     1      16.978  26.218  44.417  1.00  0.00     0.162 A 
ATOM     31  C   UNL     1      17.722  27.378  44.675  1.00  0.00     0.200 A 
BRANCH  29  32
ATOM     32  O   UNL     1      18.145  29.326  46.050  1.00  0.00    -0.504 OA
ATOM     33  H   UNL     1      17.809  30.237  45.758  1.00  0.00     0.293 HD
ENDBRANCH  29  32
BRANCH  30  34
ATOM     34  O   UNL     1      17.257  25.419  43.311  1.00  0.00    -0.504 OA
ATOM     35  H   UNL     1      16.528  25.083  42.690  1.00  0.00     0.293 HD
ENDBRANCH  30  34
BRANCH  31  36
ATOM     36  O   UNL     1      18.752  27.734  43.806  1.00  0.00    -0.502 OA
ATOM     37  H   UNL     1      18.579  28.195  42.922  1.00  0.00     0.293 HD
ENDBRANCH  31  36
ENDBRANCH  24  26
ENDBRANCH  23  24
ENDBRANCH   2  23
BRANCH   3  38
ATOM     38  O   UNL     1      12.841  24.872  50.094  1.00  0.00    -0.450 OA
BRANCH  38  39
ATOM     39  C   UNL     1      13.367  24.792  51.391  1.00  0.00     0.338 C 
ATOM     40  O   UNL     1      12.774  24.110  52.272  1.00  0.00    -0.246 OA
BRANCH  39  41
ATOM     41  C   UNL     1      14.628  25.489  51.727  1.00  0.00     0.067 A 
ATOM     42  C   UNL     1      15.451  25.011  52.761  1.00  0.00     0.066 A 
ATOM     43  C   UNL     1      15.018  26.634  51.012  1.00  0.00     0.066 A 
ATOM     44  C   UNL     1      16.642  25.667  53.082  1.00  0.00     0.162 A 
ATOM     45  C   UNL     1      16.206  27.301  51.326  1.00  0.00     0.162 A 
ATOM     46  C   UNL     1      17.026  26.821  52.381  1.00  0.00     0.200 A 
BRANCH  44  47
ATOM     47  O   UNL     1      17.453  25.169  54.104  1.00  0.00    -0.504 OA
ATOM     48  H   UNL     1      17.800  24.213  54.092  1.00  0.00     0.293 HD
ENDBRANCH  44  47
BRANCH  45  49
ATOM     49  O   UNL     1      16.529  28.431  50.575  1.00  0.00    -0.504 OA
ATOM     50  H   UNL     1      16.176  29.358  50.765  1.00  0.00     0.293 HD
ENDBRANCH  45  49
BRANCH  46  51
ATOM     51  O   UNL     1      18.213  27.451  52.763  1.00  0.00    -0.502 OA
ATOM     52  H   UNL     1      18.438  28.413  52.535  1.00  0.00     0.293 HD
ENDBRANCH  46  51
ENDBRANCH  39  41
ENDBRANCH  38  39
ENDBRANCH   3  38
BRANCH   5  53
ATOM     53  O   UNL     1      12.871  20.794  48.590  1.00  0.00    -0.428 OA
BRANCH  53  54
ATOM     54  C   UNL     1      12.933  19.401  48.468  1.00  0.00     0.340 C 
ATOM     55  O   UNL     1      12.674  18.841  47.372  1.00  0.00    -0.246 OA
BRANCH  54  56
ATOM     56  C   UNL     1      13.312  18.591  49.637  1.00  0.00     0.067 A 
ATOM     57  C   UNL     1      12.501  18.555  50.778  1.00  0.00     0.066 A 
ATOM     58  C   UNL     1      14.488  17.834  49.608  1.00  0.00     0.066 A 
ATOM     59  C   UNL     1      12.834  17.749  51.874  1.00  0.00     0.162 A 
ATOM     60  C   UNL     1      14.855  17.046  50.700  1.00  0.00     0.162 A 
ATOM     61  C   UNL     1      14.025  16.980  51.839  1.00  0.00     0.200 A 
BRANCH  59  62
ATOM     62  O   UNL     1      11.954  17.743  52.961  1.00  0.00    -0.504 OA
ATOM     63  H   UNL     1      10.956  17.586  52.881  1.00  0.00     0.293 HD
ENDBRANCH  59  62
BRANCH  60  64
ATOM     64  O   UNL     1      16.055  16.338  50.636  1.00  0.00    -0.504 OA
ATOM     65  H   UNL     1      16.114  15.418  50.213  1.00  0.00     0.293 HD
ENDBRANCH  60  64
BRANCH  61  66
ATOM     66  O   UNL     1      14.408  16.148  52.901  1.00  0.00    -0.502 OA
ATOM     67  H   UNL     1      14.132  16.293  53.863  1.00  0.00     0.293 HD
ENDBRANCH  61  66
ENDBRANCH  54  56
ENDBRANCH  53  54
ENDBRANCH   5  53
BRANCH   4  68
ATOM     68  O   UNL     1      13.667  22.152  50.817  1.00  0.00    -0.448 OA
BRANCH  68  69
ATOM     69  C   UNL     1      14.610  21.480  51.601  1.00  0.00     0.339 C 
ATOM     70  O   UNL     1      14.260  20.922  52.678  1.00  0.00    -0.246 OA
BRANCH  69  71
ATOM     71  C   UNL     1      16.022  21.441  51.167  1.00  0.00     0.067 A 
ATOM     72  C   UNL     1      16.986  22.252  51.778  1.00  0.00     0.066 A 
ATOM     73  C   UNL     1      16.419  20.576  50.134  1.00  0.00     0.066 A 
ATOM     74  C   UNL     1      18.330  22.195  51.378  1.00  0.00     0.162 A 
ATOM     75  C   UNL     1      17.755  20.509  49.730  1.00  0.00     0.162 A 
ATOM     76  C   UNL     1      18.718  21.318  50.351  1.00  0.00     0.200 A 
BRANCH  74  77
ATOM     77  O   UNL     1      19.283  22.999  52.004  1.00  0.00    -0.504 OA
ATOM     78  H   UNL     1      19.693  23.800  51.534  1.00  0.00     0.293 HD
ENDBRANCH  74  77
BRANCH  75  79
ATOM     79  O   UNL     1      18.111  19.627  48.708  1.00  0.00    -0.504 OA
ATOM     80  H   UNL     1      17.489  18.901  48.380  1.00  0.00     0.293 HD
ENDBRANCH  75  79
BRANCH  76  81
ATOM     81  O   UNL     1      20.051  21.245  49.942  1.00  0.00    -0.502 OA
ATOM     82  H   UNL     1      20.334  20.778  49.094  1.00  0.00     0.293 HD
ENDBRANCH  76  81
ENDBRANCH  69  71
ENDBRANCH  68  69
ENDBRANCH   4  68
TORSDOF 31
ENDMDL
MODEL 5
REMARK VINA RESULT:    -6.627      2.298      7.283
REMARK INTER + INTRA:         -21.247
REMARK INTER:                 -15.580
REMARK INTRA:                  -5.667
REMARK UNBOUND:                -5.515
REMARK SMILES O=C(OC[C@H]1O[C@H](OC(=O)c2cc(O)c(O)c(O)c2)[C@H](OC(=O)c2cc(O)c(O)c(O)c2)[C@@H](OC(=O)c2cc(O)c(O)c(O)c2)[C@H]1OC(=O)c1cc(O)c(O)c(O)c1)c1cc(O)c(O)c(O)c1
REMARK SMILES IDX 5 1 46 2 33 3 20 4 7 5 6 6 4 7 3 8 2 9 1 10 59 11 60 12
REMARK SMILES IDX 61 13 67 14 63 15 65 16 62 17 64 19 66 21 47 23 48 24 49 25
REMARK SMILES IDX 50 26 58 27 51 28 56 29 52 30 54 31 57 32 53 34 55 36 34 38
REMARK SMILES IDX 35 39 36 40 37 41 45 42 38 43 43 44 39 45 41 46 44 47 40 49
REMARK SMILES IDX 42 51 8 53 9 54 10 55 11 56 19 57 12 58 17 59 13 60 15 61
REMARK SMILES IDX 18 62 14 64 16 66 21 68 22 69 23 70 24 71 32 72 25 73 30 74
REMARK SMILES IDX 26 75 28 76 31 77 27 79 29 81
REMARK H PARENT 62 18 64 20 66 22 57 33 53 35 55 37 44 48 40 50 42 52 18 63
REMARK H PARENT 14 65 16 67 31 78 27 80 29 82
REMARK Flexibility Score: inf
ROOT
ATOM      1  C   UNL     1      17.583  25.984  41.987  1.00  0.00     0.205 C 
ATOM      2  C   UNL     1      16.478  25.988  43.059  1.00  0.00     0.254 C 
ATOM      3  C   UNL     1      15.707  24.670  42.930  1.00  0.00     0.267 C 
ATOM      4  C   UNL     1      16.679  23.486  43.083  1.00  0.00     0.290 C 
ATOM      5  C   UNL     1      17.861  23.654  42.100  1.00  0.00     0.357 C 
ATOM      6  O   UNL     1      18.494  24.921  42.229  1.00  0.00    -0.329 OA
ENDROOT
BRANCH   1   7
ATOM      7  C   UNL     1      18.359  27.314  41.941  1.00  0.00     0.269 C 
BRANCH   7   8
ATOM      8  O   UNL     1      19.757  27.048  41.979  1.00  0.00    -0.459 OA
BRANCH   8   9
ATOM      9  C   UNL     1      20.562  27.103  40.832  1.00  0.00     0.338 C 
ATOM     10  O   UNL     1      20.887  26.035  40.238  1.00  0.00    -0.246 OA
BRANCH   9  11
ATOM     11  C   UNL     1      21.057  28.406  40.340  1.00  0.00     0.067 A 
ATOM     12  C   UNL     1      20.764  28.825  39.035  1.00  0.00     0.066 A 
ATOM     13  C   UNL     1      21.269  30.029  38.538  1.00  0.00     0.162 A 
ATOM     14  C   UNL     1      21.866  29.219  41.160  1.00  0.00     0.066 A 
ATOM     15  C   UNL     1      22.110  30.827  39.350  1.00  0.00     0.200 A 
ATOM     16  C   UNL     1      22.397  30.414  40.664  1.00  0.00     0.162 A 
BRANCH  13  17
ATOM     17  O   UNL     1      20.901  30.399  37.244  1.00  0.00    -0.504 OA
ATOM     18  H   UNL     1      19.970  30.677  36.987  1.00  0.00     0.293 HD
ENDBRANCH  13  17
BRANCH  15  19
ATOM     19  O   UNL     1      22.675  32.018  38.885  1.00  0.00    -0.502 OA
ATOM     20  H   UNL     1      22.147  32.833  38.614  1.00  0.00     0.293 HD
ENDBRANCH  15  19
BRANCH  16  21
ATOM     21  O   UNL     1      23.215  31.178  41.497  1.00  0.00    -0.504 OA
ATOM     22  H   UNL     1      24.196  30.965  41.630  1.00  0.00     0.293 HD
ENDBRANCH  16  21
ENDBRANCH   9  11
ENDBRANCH   8   9
ENDBRANCH   7   8
ENDBRANCH   1   7
BRANCH   2  23
ATOM     23  O   UNL     1      17.054  26.063  44.364  1.00  0.00    -0.452 OA
BRANCH  23  24
ATOM     24  C   UNL     1      16.873  27.138  45.246  1.00  0.00     0.338 C 
ATOM     25  O   UNL     1      17.500  28.212  45.060  1.00  0.00    -0.246 OA
BRANCH  24  26
ATOM     26  C   UNL     1      15.928  27.002  46.376  1.00  0.00     0.067 A 
ATOM     27  C   UNL     1      14.927  26.012  46.365  1.00  0.00     0.066 A 
ATOM     28  C   UNL     1      15.987  27.900  47.454  1.00  0.00     0.066 A 
ATOM     29  C   UNL     1      13.990  25.932  47.409  1.00  0.00     0.162 A 
ATOM     30  C   UNL     1      15.062  27.817  48.500  1.00  0.00     0.162 A 
ATOM     31  C   UNL     1      14.060  26.836  48.482  1.00  0.00     0.200 A 
BRANCH  29  32
ATOM     32  O   UNL     1      12.990  24.964  47.379  1.00  0.00    -0.504 OA
ATOM     33  H   UNL     1      12.865  24.308  48.141  1.00  0.00     0.293 HD
ENDBRANCH  29  32
BRANCH  30  34
ATOM     34  O   UNL     1      15.152  28.728  49.550  1.00  0.00    -0.504 OA
ATOM     35  H   UNL     1      15.021  29.726  49.412  1.00  0.00     0.293 HD
ENDBRANCH  30  34
BRANCH  31  36
ATOM     36  O   UNL     1      13.142  26.779  49.528  1.00  0.00    -0.502 OA
ATOM     37  H   UNL     1      12.145  26.866  49.380  1.00  0.00     0.293 HD
ENDBRANCH  31  36
ENDBRANCH  24  26
ENDBRANCH  23  24
ENDBRANCH   2  23
BRANCH   3  38
ATOM     38  O   UNL     1      14.660  24.609  43.898  1.00  0.00    -0.450 OA
BRANCH  38  39
ATOM     39  C   UNL     1      13.312  24.462  43.543  1.00  0.00     0.338 C 
ATOM     40  O   UNL     1      12.413  24.574  44.421  1.00  0.00    -0.246 OA
BRANCH  39  41
ATOM     41  C   UNL     1      12.937  24.195  42.137  1.00  0.00     0.067 A 
ATOM     42  C   UNL     1      12.769  22.875  41.684  1.00  0.00     0.066 A 
ATOM     43  C   UNL     1      12.742  25.258  41.240  1.00  0.00     0.066 A 
ATOM     44  C   UNL     1      12.417  22.619  40.357  1.00  0.00     0.162 A 
ATOM     45  C   UNL     1      12.393  25.015  39.908  1.00  0.00     0.162 A 
ATOM     46  C   UNL     1      12.237  23.679  39.454  1.00  0.00     0.200 A 
BRANCH  44  47
ATOM     47  O   UNL     1      12.241  21.301  39.929  1.00  0.00    -0.504 OA
ATOM     48  H   UNL     1      13.019  20.648  39.879  1.00  0.00     0.293 HD
ENDBRANCH  44  47
BRANCH  45  49
ATOM     49  O   UNL     1      12.217  26.120  39.075  1.00  0.00    -0.504 OA
ATOM     50  H   UNL     1      11.409  26.261  38.485  1.00  0.00     0.293 HD
ENDBRANCH  45  49
BRANCH  46  51
ATOM     51  O   UNL     1      11.913  23.362  38.132  1.00  0.00    -0.502 OA
ATOM     52  H   UNL     1      11.843  22.412  37.783  1.00  0.00     0.293 HD
ENDBRANCH  46  51
ENDBRANCH  39  41
ENDBRANCH  38  39
ENDBRANCH   3  38
BRANCH   5  53
ATOM     53  O   UNL     1      17.428  23.435  40.758  1.00  0.00    -0.428 OA
BRANCH  53  54
ATOM     54  C   UNL     1      18.192  23.781  39.638  1.00  0.00     0.340 C 
ATOM     55  O   UNL     1      19.368  23.355  39.507  1.00  0.00    -0.246 OA
BRANCH  54  56
ATOM     56  C   UNL     1      17.603  24.646  38.603  1.00  0.00     0.067 A 
ATOM     57  C   UNL     1      16.239  24.572  38.297  1.00  0.00     0.066 A 
ATOM     58  C   UNL     1      18.409  25.566  37.923  1.00  0.00     0.066 A 
ATOM     59  C   UNL     1      15.666  25.426  37.347  1.00  0.00     0.162 A 
ATOM     60  C   UNL     1      17.865  26.407  36.952  1.00  0.00     0.162 A 
ATOM     61  C   UNL     1      16.485  26.360  36.663  1.00  0.00     0.200 A 
BRANCH  59  62
ATOM     62  O   UNL     1      14.290  25.313  37.124  1.00  0.00    -0.504 OA
ATOM     63  H   UNL     1      13.871  24.632  36.500  1.00  0.00     0.293 HD
ENDBRANCH  59  62
BRANCH  60  64
ATOM     64  O   UNL     1      18.717  27.282  36.277  1.00  0.00    -0.504 OA
ATOM     65  H   UNL     1      18.961  28.192  36.654  1.00  0.00     0.293 HD
ENDBRANCH  60  64
BRANCH  61  66
ATOM     66  O   UNL     1      15.969  27.247  35.707  1.00  0.00    -0.502 OA
ATOM     67  H   UNL     1      14.985  27.448  35.592  1.00  0.00     0.293 HD
ENDBRANCH  61  66
ENDBRANCH  54  56
ENDBRANCH  53  54
ENDBRANCH   5  53
BRANCH   4  68
ATOM     68  O   UNL     1      16.015  22.262  42.775  1.00  0.00    -0.448 OA
BRANCH  68  69
ATOM     69  C   UNL     1      16.155  21.083  43.513  1.00  0.00     0.339 C 
ATOM     70  O   UNL     1      17.205  20.389  43.412  1.00  0.00    -0.246 OA
BRANCH  69  71
ATOM     71  C   UNL     1      15.058  20.647  44.403  1.00  0.00     0.067 A 
ATOM     72  C   UNL     1      14.847  19.289  44.674  1.00  0.00     0.066 A 
ATOM     73  C   UNL     1      14.212  21.597  44.998  1.00  0.00     0.066 A 
ATOM     74  C   UNL     1      13.818  18.881  45.536  1.00  0.00     0.162 A 
ATOM     75  C   UNL     1      13.186  21.201  45.861  1.00  0.00     0.162 A 
ATOM     76  C   UNL     1      12.985  19.840  46.135  1.00  0.00     0.200 A 
BRANCH  74  77
ATOM     77  O   UNL     1      13.627  17.526  45.808  1.00  0.00    -0.504 OA
ATOM     78  H   UNL     1      14.103  16.805  45.274  1.00  0.00     0.293 HD
ENDBRANCH  74  77
BRANCH  75  79
ATOM     79  O   UNL     1      12.376  22.177  46.443  1.00  0.00    -0.504 OA
ATOM     80  H   UNL     1      11.398  22.279  46.206  1.00  0.00     0.293 HD
ENDBRANCH  75  79
BRANCH  76  81
ATOM     81  O   UNL     1      11.959  19.453  46.999  1.00  0.00    -0.502 OA
ATOM     82  H   UNL     1      11.307  18.717  46.773  1.00  0.00     0.293 HD
ENDBRANCH  76  81
ENDBRANCH  69  71
ENDBRANCH  68  69
ENDBRANCH   4  68
TORSDOF 31
ENDMDL
MODEL 6
REMARK VINA RESULT:    -6.611      4.958      9.365
REMARK INTER + INTRA:         -21.208
REMARK INTER:                 -15.658
REMARK INTRA:                  -5.550
REMARK UNBOUND:                -5.515
REMARK SMILES O=C(OC[C@H]1O[C@H](OC(=O)c2cc(O)c(O)c(O)c2)[C@H](OC(=O)c2cc(O)c(O)c(O)c2)[C@@H](OC(=O)c2cc(O)c(O)c(O)c2)[C@H]1OC(=O)c1cc(O)c(O)c(O)c1)c1cc(O)c(O)c(O)c1
REMARK SMILES IDX 5 1 46 2 33 3 20 4 7 5 6 6 4 7 3 8 2 9 1 10 59 11 60 12
REMARK SMILES IDX 61 13 67 14 63 15 65 16 62 17 64 19 66 21 47 23 48 24 49 25
REMARK SMILES IDX 50 26 58 27 51 28 56 29 52 30 54 31 57 32 53 34 55 36 34 38
REMARK SMILES IDX 35 39 36 40 37 41 45 42 38 43 43 44 39 45 41 46 44 47 40 49
REMARK SMILES IDX 42 51 8 53 9 54 10 55 11 56 19 57 12 58 17 59 13 60 15 61
REMARK SMILES IDX 18 62 14 64 16 66 21 68 22 69 23 70 24 71 32 72 25 73 30 74
REMARK SMILES IDX 26 75 28 76 31 77 27 79 29 81
REMARK H PARENT 62 18 64 20 66 22 57 33 53 35 55 37 44 48 40 50 42 52 18 63
REMARK H PARENT 14 65 16 67 31 78 27 80 29 82
REMARK Flexibility Score: inf
ROOT
ATOM      1  C   UNL     1      13.913  20.871  48.099  1.00  0.00     0.205 C 
ATOM      2  C   UNL     1      14.450  20.949  49.540  1.00  0.00     0.254 C 
ATOM      3  C   UNL     1      14.948  22.380  49.768  1.00  0.00     0.267 C 
ATOM      4  C   UNL     1      13.801  23.375  49.507  1.00  0.00     0.290 C 
ATOM      5  C   UNL     1      13.190  23.107  48.112  1.00  0.00     0.357 C 
ATOM      6  O   UNL     1      12.805  21.748  47.943  1.00  0.00    -0.329 OA
ENDROOT
BRANCH   1   7
ATOM      7  C   UNL     1      13.485  19.444  47.711  1.00  0.00     0.269 C 
BRANCH   7   8
ATOM      8  O   UNL     1      14.049  19.107  46.447  1.00  0.00    -0.459 OA
BRANCH   8   9
ATOM      9  C   UNL     1      13.532  19.597  45.240  1.00  0.00     0.338 C 
ATOM     10  O   UNL     1      12.347  19.316  44.901  1.00  0.00    -0.246 OA
BRANCH   9  11
ATOM     11  C   UNL     1      14.384  20.414  44.350  1.00  0.00     0.067 A 
ATOM     12  C   UNL     1      15.768  20.199  44.304  1.00  0.00     0.066 A 
ATOM     13  C   UNL     1      16.592  20.997  43.507  1.00  0.00     0.162 A 
ATOM     14  C   UNL     1      13.820  21.446  43.572  1.00  0.00     0.066 A 
ATOM     15  C   UNL     1      16.030  22.055  42.756  1.00  0.00     0.200 A 
ATOM     16  C   UNL     1      14.640  22.267  42.791  1.00  0.00     0.162 A 
BRANCH  13  17
ATOM     17  O   UNL     1      17.955  20.697  43.483  1.00  0.00    -0.504 OA
ATOM     18  H   UNL     1      18.343  19.906  42.997  1.00  0.00     0.293 HD
ENDBRANCH  13  17
BRANCH  15  19
ATOM     19  O   UNL     1      16.816  22.910  41.976  1.00  0.00    -0.502 OA
ATOM     20  H   UNL     1      17.324  23.704  42.335  1.00  0.00     0.293 HD
ENDBRANCH  15  19
BRANCH  16  21
ATOM     21  O   UNL     1      14.049  23.295  42.056  1.00  0.00    -0.504 OA
ATOM     22  H   UNL     1      14.561  23.820  41.357  1.00  0.00     0.293 HD
ENDBRANCH  16  21
ENDBRANCH   9  11
ENDBRANCH   8   9
ENDBRANCH   7   8
ENDBRANCH   1   7
BRANCH   2  23
ATOM     23  O   UNL     1      13.406  20.667  50.474  1.00  0.00    -0.452 OA
BRANCH  23  24
ATOM     24  C   UNL     1      13.550  19.823  51.584  1.00  0.00     0.338 C 
ATOM     25  O   UNL     1      13.457  20.295  52.746  1.00  0.00    -0.246 OA
BRANCH  24  26
ATOM     26  C   UNL     1      13.789  18.378  51.374  1.00  0.00     0.067 A 
ATOM     27  C   UNL     1      12.797  17.557  50.805  1.00  0.00     0.066 A 
ATOM     28  C   UNL     1      14.996  17.796  51.794  1.00  0.00     0.066 A 
ATOM     29  C   UNL     1      13.004  16.174  50.672  1.00  0.00     0.162 A 
ATOM     30  C   UNL     1      15.210  16.421  51.654  1.00  0.00     0.162 A 
ATOM     31  C   UNL     1      14.216  15.605  51.095  1.00  0.00     0.200 A 
BRANCH  29  32
ATOM     32  O   UNL     1      12.009  15.366  50.128  1.00  0.00    -0.504 OA
ATOM     33  H   UNL     1      12.229  14.620  49.478  1.00  0.00     0.293 HD
ENDBRANCH  29  32
BRANCH  30  34
ATOM     34  O   UNL     1      16.420  15.882  52.085  1.00  0.00    -0.504 OA
ATOM     35  H   UNL     1      17.231  15.821  51.477  1.00  0.00     0.293 HD
ENDBRANCH  30  34
BRANCH  31  36
ATOM     36  O   UNL     1      14.446  14.235  50.976  1.00  0.00    -0.502 OA
ATOM     37  H   UNL     1      14.581  13.637  51.781  1.00  0.00     0.293 HD
ENDBRANCH  31  36
ENDBRANCH  24  26
ENDBRANCH  23  24
ENDBRANCH   2  23
BRANCH   3  38
ATOM     38  O   UNL     1      15.465  22.523  51.090  1.00  0.00    -0.450 OA
BRANCH  38  39
ATOM     39  C   UNL     1      16.765  22.131  51.439  1.00  0.00     0.338 C 
ATOM     40  O   UNL     1      17.225  21.031  51.028  1.00  0.00    -0.246 OA
BRANCH  39  41
ATOM     41  C   UNL     1      17.610  23.014  52.273  1.00  0.00     0.067 A 
ATOM     42  C   UNL     1      17.438  24.409  52.230  1.00  0.00     0.066 A 
ATOM     43  C   UNL     1      18.589  22.469  53.119  1.00  0.00     0.066 A 
ATOM     44  C   UNL     1      18.234  25.247  53.015  1.00  0.00     0.162 A 
ATOM     45  C   UNL     1      19.395  23.298  53.906  1.00  0.00     0.162 A 
ATOM     46  C   UNL     1      19.225  24.706  53.849  1.00  0.00     0.200 A 
BRANCH  44  47
ATOM     47  O   UNL     1      18.039  26.629  52.969  1.00  0.00    -0.504 OA
ATOM     48  H   UNL     1      18.673  27.273  53.434  1.00  0.00     0.293 HD
ENDBRANCH  44  47
BRANCH  45  49
ATOM     49  O   UNL     1      20.347  22.686  54.722  1.00  0.00    -0.504 OA
ATOM     50  H   UNL     1      21.344  22.794  54.607  1.00  0.00     0.293 HD
ENDBRANCH  45  49
BRANCH  46  51
ATOM     51  O   UNL     1      20.009  25.594  54.590  1.00  0.00    -0.502 OA
ATOM     52  H   UNL     1      20.523  26.366  54.180  1.00  0.00     0.293 HD
ENDBRANCH  46  51
ENDBRANCH  39  41
ENDBRANCH  38  39
ENDBRANCH   3  38
BRANCH   5  53
ATOM     53  O   UNL     1      14.095  23.512  47.086  1.00  0.00    -0.428 OA
BRANCH  53  54
ATOM     54  C   UNL     1      13.849  24.586  46.223  1.00  0.00     0.340 C 
ATOM     55  O   UNL     1      12.683  24.832  45.822  1.00  0.00    -0.246 OA
BRANCH  54  56
ATOM     56  C   UNL     1      14.970  25.436  45.792  1.00  0.00     0.067 A 
ATOM     57  C   UNL     1      15.361  26.547  46.550  1.00  0.00     0.066 A 
ATOM     58  C   UNL     1      15.667  25.128  44.618  1.00  0.00     0.066 A 
ATOM     59  C   UNL     1      16.457  27.331  46.168  1.00  0.00     0.162 A 
ATOM     60  C   UNL     1      16.744  25.912  44.203  1.00  0.00     0.162 A 
ATOM     61  C   UNL     1      17.163  27.012  44.980  1.00  0.00     0.200 A 
BRANCH  59  62
ATOM     62  O   UNL     1      16.805  28.401  46.998  1.00  0.00    -0.504 OA
ATOM     63  H   UNL     1      16.136  28.949  47.527  1.00  0.00     0.293 HD
ENDBRANCH  59  62
BRANCH  60  64
ATOM     64  O   UNL     1      17.382  25.585  43.006  1.00  0.00    -0.504 OA
ATOM     65  H   UNL     1      18.267  25.089  42.989  1.00  0.00     0.293 HD
ENDBRANCH  60  64
BRANCH  61  66
ATOM     66  O   UNL     1      18.273  27.754  44.549  1.00  0.00    -0.502 OA
ATOM     67  H   UNL     1      19.154  27.796  45.043  1.00  0.00     0.293 HD
ENDBRANCH  61  66
ENDBRANCH  54  56
ENDBRANCH  53  54
ENDBRANCH   5  53
BRANCH   4  68
ATOM     68  O   UNL     1      14.297  24.712  49.526  1.00  0.00    -0.448 OA
BRANCH  68  69
ATOM     69  C   UNL     1      13.590  25.805  50.037  1.00  0.00     0.339 C 
ATOM     70  O   UNL     1      12.333  25.856  49.930  1.00  0.00    -0.246 OA
BRANCH  69  71
ATOM     71  C   UNL     1      14.327  26.907  50.690  1.00  0.00     0.067 A 
ATOM     72  C   UNL     1      15.127  27.781  49.943  1.00  0.00     0.066 A 
ATOM     73  C   UNL     1      14.227  27.098  52.078  1.00  0.00     0.066 A 
ATOM     74  C   UNL     1      15.808  28.839  50.564  1.00  0.00     0.162 A 
ATOM     75  C   UNL     1      14.898  28.152  52.706  1.00  0.00     0.162 A 
ATOM     76  C   UNL     1      15.691  29.028  51.951  1.00  0.00     0.200 A 
BRANCH  74  77
ATOM     77  O   UNL     1      16.591  29.711  49.806  1.00  0.00    -0.504 OA
ATOM     78  H   UNL     1      17.167  30.423  50.243  1.00  0.00     0.293 HD
ENDBRANCH  74  77
BRANCH  75  79
ATOM     79  O   UNL     1      14.762  28.314  54.086  1.00  0.00    -0.504 OA
ATOM     80  H   UNL     1      14.344  27.607  54.675  1.00  0.00     0.293 HD
ENDBRANCH  75  79
BRANCH  76  81
ATOM     81  O   UNL     1      16.357  30.078  52.586  1.00  0.00    -0.502 OA
ATOM     82  H   UNL     1      16.069  31.040  52.491  1.00  0.00     0.293 HD
ENDBRANCH  76  81
ENDBRANCH  69  71
ENDBRANCH  68  69
ENDBRANCH   4  68
TORSDOF 31
ENDMDL
MODEL 7
REMARK VINA RESULT:    -6.603      2.434      8.903
REMARK INTER + INTRA:         -21.190
REMARK INTER:                 -16.168
REMARK INTRA:                  -5.023
REMARK UNBOUND:                -5.515
REMARK SMILES O=C(OC[C@H]1O[C@H](OC(=O)c2cc(O)c(O)c(O)c2)[C@H](OC(=O)c2cc(O)c(O)c(O)c2)[C@@H](OC(=O)c2cc(O)c(O)c(O)c2)[C@H]1OC(=O)c1cc(O)c(O)c(O)c1)c1cc(O)c(O)c(O)c1
REMARK SMILES IDX 5 1 46 2 33 3 20 4 7 5 6 6 4 7 3 8 2 9 1 10 59 11 60 12
REMARK SMILES IDX 61 13 67 14 63 15 65 16 62 17 64 19 66 21 47 23 48 24 49 25
REMARK SMILES IDX 50 26 58 27 51 28 56 29 52 30 54 31 57 32 53 34 55 36 34 38
REMARK SMILES IDX 35 39 36 40 37 41 45 42 38 43 43 44 39 45 41 46 44 47 40 49
REMARK SMILES IDX 42 51 8 53 9 54 10 55 11 56 19 57 12 58 17 59 13 60 15 61
REMARK SMILES IDX 18 62 14 64 16 66 21 68 22 69 23 70 24 71 32 72 25 73 30 74
REMARK SMILES IDX 26 75 28 76 31 77 27 79 29 81
REMARK H PARENT 62 18 64 20 66 22 57 33 53 35 55 37 44 48 40 50 42 52 18 63
REMARK H PARENT 14 65 16 67 31 78 27 80 29 82
REMARK Flexibility Score: inf
ROOT
ATOM      1  C   UNL     1      17.015  22.480  42.492  1.00  0.00     0.205 C 
ATOM      2  C   UNL     1      15.794  23.362  42.176  1.00  0.00     0.254 C 
ATOM      3  C   UNL     1      14.543  22.581  42.593  1.00  0.00     0.267 C 
ATOM      4  C   UNL     1      14.637  22.210  44.085  1.00  0.00     0.290 C 
ATOM      5  C   UNL     1      15.979  21.492  44.356  1.00  0.00     0.357 C 
ATOM      6  O   UNL     1      17.096  22.241  43.891  1.00  0.00    -0.329 OA
ENDROOT
BRANCH   1   7
ATOM      7  C   UNL     1      18.334  23.112  42.011  1.00  0.00     0.269 C 
BRANCH   7   8
ATOM      8  O   UNL     1      18.243  23.398  40.619  1.00  0.00    -0.459 OA
BRANCH   8   9
ATOM      9  C   UNL     1      19.369  23.690  39.837  1.00  0.00     0.338 C 
ATOM     10  O   UNL     1      20.314  22.852  39.757  1.00  0.00    -0.246 OA
BRANCH   9  11
ATOM     11  C   UNL     1      19.467  24.987  39.137  1.00  0.00     0.067 A 
ATOM     12  C   UNL     1      19.067  25.098  37.798  1.00  0.00     0.066 A 
ATOM     13  C   UNL     1      19.201  26.305  37.107  1.00  0.00     0.162 A 
ATOM     14  C   UNL     1      20.003  26.114  39.792  1.00  0.00     0.066 A 
ATOM     15  C   UNL     1      19.774  27.425  37.755  1.00  0.00     0.200 A 
ATOM     16  C   UNL     1      20.165  27.320  39.102  1.00  0.00     0.162 A 
BRANCH  13  17
ATOM     17  O   UNL     1      18.745  26.349  35.789  1.00  0.00    -0.504 OA
ATOM     18  H   UNL     1      17.863  26.748  35.518  1.00  0.00     0.293 HD
ENDBRANCH  13  17
BRANCH  15  19
ATOM     19  O   UNL     1      19.970  28.642  37.095  1.00  0.00    -0.502 OA
ATOM     20  H   UNL     1      20.800  28.882  36.574  1.00  0.00     0.293 HD
ENDBRANCH  15  19
BRANCH  16  21
ATOM     21  O   UNL     1      20.725  28.405  39.776  1.00  0.00    -0.504 OA
ATOM     22  H   UNL     1      21.498  28.297  40.421  1.00  0.00     0.293 HD
ENDBRANCH  16  21
ENDBRANCH   9  11
ENDBRANCH   8   9
ENDBRANCH   7   8
ENDBRANCH   1   7
BRANCH   2  23
ATOM     23  O   UNL     1      15.853  24.577  42.925  1.00  0.00    -0.452 OA
BRANCH  23  24
ATOM     24  C   UNL     1      16.286  25.804  42.403  1.00  0.00     0.338 C 
ATOM     25  O   UNL     1      15.793  26.237  41.330  1.00  0.00    -0.246 OA
BRANCH  24  26
ATOM     26  C   UNL     1      17.308  26.586  43.133  1.00  0.00     0.067 A 
ATOM     27  C   UNL     1      16.987  27.249  44.332  1.00  0.00     0.066 A 
ATOM     28  C   UNL     1      18.601  26.722  42.604  1.00  0.00     0.066 A 
ATOM     29  C   UNL     1      17.942  28.047  44.985  1.00  0.00     0.162 A 
ATOM     30  C   UNL     1      19.558  27.507  43.255  1.00  0.00     0.162 A 
ATOM     31  C   UNL     1      19.233  28.174  44.446  1.00  0.00     0.200 A 
BRANCH  29  32
ATOM     32  O   UNL     1      17.611  28.717  46.160  1.00  0.00    -0.504 OA
ATOM     33  H   UNL     1      16.650  28.795  46.471  1.00  0.00     0.293 HD
ENDBRANCH  29  32
BRANCH  30  34
ATOM     34  O   UNL     1      20.830  27.618  42.697  1.00  0.00    -0.504 OA
ATOM     35  H   UNL     1      21.390  26.803  42.464  1.00  0.00     0.293 HD
ENDBRANCH  30  34
BRANCH  31  36
ATOM     36  O   UNL     1      20.199  28.960  45.072  1.00  0.00    -0.502 OA
ATOM     37  H   UNL     1      20.952  28.561  45.616  1.00  0.00     0.293 HD
ENDBRANCH  31  36
ENDBRANCH  24  26
ENDBRANCH  23  24
ENDBRANCH   2  23
BRANCH   3  38
ATOM     38  O   UNL     1      13.367  23.344  42.324  1.00  0.00    -0.450 OA
BRANCH  38  39
ATOM     39  C   UNL     1      12.578  23.137  41.183  1.00  0.00     0.338 C 
ATOM     40  O   UNL     1      11.879  22.093  41.080  1.00  0.00    -0.246 OA
BRANCH  39  41
ATOM     41  C   UNL     1      12.546  24.153  40.107  1.00  0.00     0.067 A 
ATOM     42  C   UNL     1      12.288  25.501  40.411  1.00  0.00     0.066 A 
ATOM     43  C   UNL     1      12.777  23.781  38.773  1.00  0.00     0.066 A 
ATOM     44  C   UNL     1      12.255  26.463  39.398  1.00  0.00     0.162 A 
ATOM     45  C   UNL     1      12.743  24.734  37.750  1.00  0.00     0.162 A 
ATOM     46  C   UNL     1      12.469  26.092  38.061  1.00  0.00     0.200 A 
BRANCH  44  47
ATOM     47  O   UNL     1      12.011  27.800  39.721  1.00  0.00    -0.504 OA
ATOM     48  H   UNL     1      12.769  28.448  39.920  1.00  0.00     0.293 HD
ENDBRANCH  44  47
BRANCH  45  49
ATOM     49  O   UNL     1      12.981  24.292  36.449  1.00  0.00    -0.504 OA
ATOM     50  H   UNL     1      12.956  23.323  36.167  1.00  0.00     0.293 HD
ENDBRANCH  45  49
BRANCH  46  51
ATOM     51  O   UNL     1      12.398  27.092  37.088  1.00  0.00    -0.502 OA
ATOM     52  H   UNL     1      12.847  27.996  37.177  1.00  0.00     0.293 HD
ENDBRANCH  46  51
ENDBRANCH  39  41
ENDBRANCH  38  39
ENDBRANCH   3  38
BRANCH   5  53
ATOM     53  O   UNL     1      15.970  20.184  43.786  1.00  0.00    -0.428 OA
BRANCH  53  54
ATOM     54  C   UNL     1      16.232  19.023  44.521  1.00  0.00     0.340 C 
ATOM     55  O   UNL     1      16.980  18.125  44.056  1.00  0.00    -0.246 OA
BRANCH  54  56
ATOM     56  C   UNL     1      15.629  18.861  45.854  1.00  0.00     0.067 A 
ATOM     57  C   UNL     1      14.302  18.437  45.994  1.00  0.00     0.066 A 
ATOM     58  C   UNL     1      16.391  19.120  46.999  1.00  0.00     0.066 A 
ATOM     59  C   UNL     1      13.739  18.236  47.261  1.00  0.00     0.162 A 
ATOM     60  C   UNL     1      15.841  18.955  48.271  1.00  0.00     0.162 A 
ATOM     61  C   UNL     1      14.516  18.496  48.419  1.00  0.00     0.200 A 
BRANCH  59  62
ATOM     62  O   UNL     1      12.419  17.778  47.315  1.00  0.00    -0.504 OA
ATOM     63  H   UNL     1      11.609  18.386  47.350  1.00  0.00     0.293 HD
ENDBRANCH  59  62
BRANCH  60  64
ATOM     64  O   UNL     1      16.630  19.261  49.381  1.00  0.00    -0.504 OA
ATOM     65  H   UNL     1      17.496  19.782  49.297  1.00  0.00     0.293 HD
ENDBRANCH  60  64
BRANCH  61  66
ATOM     66  O   UNL     1      14.011  18.307  49.714  1.00  0.00    -0.502 OA
ATOM     67  H   UNL     1      13.130  17.854  49.919  1.00  0.00     0.293 HD
ENDBRANCH  61  66
ENDBRANCH  54  56
ENDBRANCH  53  54
ENDBRANCH   5  53
BRANCH   4  68
ATOM     68  O   UNL     1      13.579  21.323  44.439  1.00  0.00    -0.448 OA
BRANCH  68  69
ATOM     69  C   UNL     1      12.744  21.496  45.547  1.00  0.00     0.339 C 
ATOM     70  O   UNL     1      11.875  20.626  45.832  1.00  0.00    -0.246 OA
BRANCH  69  71
ATOM     71  C   UNL     1      12.877  22.714  46.375  1.00  0.00     0.067 A 
ATOM     72  C   UNL     1      13.468  22.661  47.644  1.00  0.00     0.066 A 
ATOM     73  C   UNL     1      12.417  23.949  45.892  1.00  0.00     0.066 A 
ATOM     74  C   UNL     1      13.612  23.823  48.417  1.00  0.00     0.162 A 
ATOM     75  C   UNL     1      12.559  25.114  46.652  1.00  0.00     0.162 A 
ATOM     76  C   UNL     1      13.159  25.056  47.919  1.00  0.00     0.200 A 
BRANCH  74  77
ATOM     77  O   UNL     1      14.214  23.759  49.674  1.00  0.00    -0.504 OA
ATOM     78  H   UNL     1      13.720  24.043  50.514  1.00  0.00     0.293 HD
ENDBRANCH  74  77
BRANCH  75  79
ATOM     79  O   UNL     1      12.100  26.324  46.130  1.00  0.00    -0.504 OA
ATOM     80  H   UNL     1      11.947  26.462  45.141  1.00  0.00     0.293 HD
ENDBRANCH  75  79
BRANCH  76  81
ATOM     81  O   UNL     1      13.298  26.223  48.672  1.00  0.00    -0.502 OA
ATOM     82  H   UNL     1      13.892  26.986  48.387  1.00  0.00     0.293 HD
ENDBRANCH  76  81
ENDBRANCH  69  71
ENDBRANCH  68  69
ENDBRANCH   4  68
TORSDOF 31
ENDMDL
MODEL 8
REMARK VINA RESULT:    -6.603      2.469      8.930
REMARK INTER + INTRA:         -21.190
REMARK INTER:                 -16.050
REMARK INTRA:                  -5.140
REMARK UNBOUND:                -5.515
REMARK SMILES O=C(OC[C@H]1O[C@H](OC(=O)c2cc(O)c(O)c(O)c2)[C@H](OC(=O)c2cc(O)c(O)c(O)c2)[C@@H](OC(=O)c2cc(O)c(O)c(O)c2)[C@H]1OC(=O)c1cc(O)c(O)c(O)c1)c1cc(O)c(O)c(O)c1
REMARK SMILES IDX 5 1 46 2 33 3 20 4 7 5 6 6 4 7 3 8 2 9 1 10 59 11 60 12
REMARK SMILES IDX 61 13 67 14 63 15 65 16 62 17 64 19 66 21 47 23 48 24 49 25
REMARK SMILES IDX 50 26 58 27 51 28 56 29 52 30 54 31 57 32 53 34 55 36 34 38
REMARK SMILES IDX 35 39 36 40 37 41 45 42 38 43 43 44 39 45 41 46 44 47 40 49
REMARK SMILES IDX 42 51 8 53 9 54 10 55 11 56 19 57 12 58 17 59 13 60 15 61
REMARK SMILES IDX 18 62 14 64 16 66 21 68 22 69 23 70 24 71 32 72 25 73 30 74
REMARK SMILES IDX 26 75 28 76 31 77 27 79 29 81
REMARK H PARENT 62 18 64 20 66 22 57 33 53 35 55 37 44 48 40 50 42 52 18 63
REMARK H PARENT 14 65 16 67 31 78 27 80 29 82
REMARK Flexibility Score: inf
ROOT
ATOM      1  C   UNL     1      17.109  22.060  42.703  1.00  0.00     0.205 C 
ATOM      2  C   UNL     1      15.997  23.072  42.372  1.00  0.00     0.254 C 
ATOM      3  C   UNL     1      14.661  22.432  42.765  1.00  0.00     0.267 C 
ATOM      4  C   UNL     1      14.690  22.047  44.255  1.00  0.00     0.290 C 
ATOM      5  C   UNL     1      15.941  21.185  44.544  1.00  0.00     0.357 C 
ATOM      6  O   UNL     1      17.140  21.809  44.101  1.00  0.00    -0.329 OA
ENDROOT
BRANCH   1   7
ATOM      7  C   UNL     1      18.497  22.546  42.246  1.00  0.00     0.269 C 
BRANCH   7   8
ATOM      8  O   UNL     1      18.388  23.156  40.964  1.00  0.00    -0.459 OA
BRANCH   8   9
ATOM      9  C   UNL     1      19.505  23.398  40.152  1.00  0.00     0.338 C 
ATOM     10  O   UNL     1      20.485  22.599  40.173  1.00  0.00    -0.246 OA
BRANCH   9  11
ATOM     11  C   UNL     1      19.549  24.603  39.298  1.00  0.00     0.067 A 
ATOM     12  C   UNL     1      19.976  25.828  39.826  1.00  0.00     0.066 A 
ATOM     13  C   UNL     1      19.974  26.987  39.046  1.00  0.00     0.162 A 
ATOM     14  C   UNL     1      19.120  24.543  37.956  1.00  0.00     0.066 A 
ATOM     15  C   UNL     1      19.508  26.933  37.711  1.00  0.00     0.200 A 
ATOM     16  C   UNL     1      19.089  25.703  37.173  1.00  0.00     0.162 A 
BRANCH  13  17
ATOM     17  O   UNL     1      20.451  28.161  39.630  1.00  0.00    -0.504 OA
ATOM     18  H   UNL     1      21.332  28.227  40.110  1.00  0.00     0.293 HD
ENDBRANCH  13  17
BRANCH  15  19
ATOM     19  O   UNL     1      19.445  28.072  36.901  1.00  0.00    -0.502 OA
ATOM     20  H   UNL     1      19.479  29.019  37.245  1.00  0.00     0.293 HD
ENDBRANCH  15  19
BRANCH  16  21
ATOM     21  O   UNL     1      18.633  25.609  35.858  1.00  0.00    -0.504 OA
ATOM     22  H   UNL     1      18.892  26.284  35.150  1.00  0.00     0.293 HD
ENDBRANCH  16  21
ENDBRANCH   9  11
ENDBRANCH   8   9
ENDBRANCH   7   8
ENDBRANCH   1   7
BRANCH   2  23
ATOM     23  O   UNL     1      16.177  24.271  43.129  1.00  0.00    -0.452 OA
BRANCH  23  24
ATOM     24  C   UNL     1      16.371  25.538  42.562  1.00  0.00     0.338 C 
ATOM     25  O   UNL     1      15.701  25.883  41.555  1.00  0.00    -0.246 OA
BRANCH  24  26
ATOM     26  C   UNL     1      17.352  26.465  43.169  1.00  0.00     0.067 A 
ATOM     27  C   UNL     1      18.626  26.642  42.599  1.00  0.00     0.066 A 
ATOM     28  C   UNL     1      17.038  27.139  44.361  1.00  0.00     0.066 A 
ATOM     29  C   UNL     1      19.577  27.470  43.218  1.00  0.00     0.162 A 
ATOM     30  C   UNL     1      17.979  27.973  44.975  1.00  0.00     0.162 A 
ATOM     31  C   UNL     1      19.251  28.140  44.409  1.00  0.00     0.200 A 
BRANCH  29  32
ATOM     32  O   UNL     1      20.843  27.623  42.659  1.00  0.00    -0.504 OA
ATOM     33  H   UNL     1      21.458  28.378  42.939  1.00  0.00     0.293 HD
ENDBRANCH  29  32
BRANCH  30  34
ATOM     34  O   UNL     1      17.630  28.623  46.157  1.00  0.00    -0.504 OA
ATOM     35  H   UNL     1      16.663  28.746  46.440  1.00  0.00     0.293 HD
ENDBRANCH  30  34
BRANCH  31  36
ATOM     36  O   UNL     1      20.176  28.966  45.044  1.00  0.00    -0.502 OA
ATOM     37  H   UNL     1      21.169  28.914  44.853  1.00  0.00     0.293 HD
ENDBRANCH  31  36
ENDBRANCH  24  26
ENDBRANCH  23  24
ENDBRANCH   2  23
BRANCH   3  38
ATOM     38  O   UNL     1      13.581  23.319  42.480  1.00  0.00    -0.450 OA
BRANCH  38  39
ATOM     39  C   UNL     1      12.631  23.058  41.483  1.00  0.00     0.338 C 
ATOM     40  O   UNL     1      11.875  22.053  41.578  1.00  0.00    -0.246 OA
BRANCH  39  41
ATOM     41  C   UNL     1      12.497  23.972  40.326  1.00  0.00     0.067 A 
ATOM     42  C   UNL     1      12.445  23.459  39.018  1.00  0.00     0.066 A 
ATOM     43  C   UNL     1      12.417  25.360  40.523  1.00  0.00     0.066 A 
ATOM     44  C   UNL     1      12.320  24.317  37.923  1.00  0.00     0.162 A 
ATOM     45  C   UNL     1      12.295  26.230  39.435  1.00  0.00     0.162 A 
ATOM     46  C   UNL     1      12.256  25.706  38.116  1.00  0.00     0.200 A 
BRANCH  44  47
ATOM     47  O   UNL     1      12.256  23.788  36.633  1.00  0.00    -0.504 OA
ATOM     48  H   UNL     1      11.389  23.782  36.100  1.00  0.00     0.293 HD
ENDBRANCH  44  47
BRANCH  45  49
ATOM     49  O   UNL     1      12.221  27.596  39.706  1.00  0.00    -0.504 OA
ATOM     50  H   UNL     1      12.492  28.014  40.585  1.00  0.00     0.293 HD
ENDBRANCH  45  49
BRANCH  46  51
ATOM     51  O   UNL     1      12.159  26.518  36.982  1.00  0.00    -0.502 OA
ATOM     52  H   UNL     1      12.791  26.456  36.192  1.00  0.00     0.293 HD
ENDBRANCH  46  51
ENDBRANCH  39  41
ENDBRANCH  38  39
ENDBRANCH   3  38
BRANCH   5  53
ATOM     53  O   UNL     1      15.797  19.888  43.967  1.00  0.00    -0.428 OA
BRANCH  53  54
ATOM     54  C   UNL     1      15.991  18.702  44.682  1.00  0.00     0.340 C 
ATOM     55  O   UNL     1      16.616  17.738  44.170  1.00  0.00    -0.246 OA
BRANCH  54  56
ATOM     56  C   UNL     1      15.462  18.590  46.051  1.00  0.00     0.067 A 
ATOM     57  C   UNL     1      16.278  18.851  47.159  1.00  0.00     0.066 A 
ATOM     58  C   UNL     1      14.124  18.234  46.254  1.00  0.00     0.066 A 
ATOM     59  C   UNL     1      15.766  18.792  48.461  1.00  0.00     0.162 A 
ATOM     60  C   UNL     1      13.600  18.140  47.544  1.00  0.00     0.162 A 
ATOM     61  C   UNL     1      14.408  18.434  48.662  1.00  0.00     0.200 A 
BRANCH  59  62
ATOM     62  O   UNL     1      16.636  19.100  49.512  1.00  0.00    -0.504 OA
ATOM     63  H   UNL     1      17.118  19.987  49.606  1.00  0.00     0.293 HD
ENDBRANCH  59  62
BRANCH  60  64
ATOM     64  O   UNL     1      12.270  17.746  47.695  1.00  0.00    -0.504 OA
ATOM     65  H   UNL     1      11.525  18.418  47.847  1.00  0.00     0.293 HD
ENDBRANCH  60  64
BRANCH  61  66
ATOM     66  O   UNL     1      13.835  18.365  49.941  1.00  0.00    -0.502 OA
ATOM     67  H   UNL     1      13.644  17.502  50.431  1.00  0.00     0.293 HD
ENDBRANCH  61  66
ENDBRANCH  54  56
ENDBRANCH  53  54
ENDBRANCH   5  53
BRANCH   4  68
ATOM     68  O   UNL     1      13.535  21.279  44.587  1.00  0.00    -0.448 OA
BRANCH  68  69
ATOM     69  C   UNL     1      12.822  21.408  45.783  1.00  0.00     0.339 C 
ATOM     70  O   UNL     1      11.875  20.616  46.048  1.00  0.00    -0.246 OA
BRANCH  69  71
ATOM     71  C   UNL     1      13.175  22.489  46.728  1.00  0.00     0.067 A 
ATOM     72  C   UNL     1      13.028  23.835  46.371  1.00  0.00     0.066 A 
ATOM     73  C   UNL     1      13.659  22.176  48.009  1.00  0.00     0.066 A 
ATOM     74  C   UNL     1      13.343  24.857  47.279  1.00  0.00     0.162 A 
ATOM     75  C   UNL     1      13.972  23.186  48.922  1.00  0.00     0.162 A 
ATOM     76  C   UNL     1      13.815  24.533  48.562  1.00  0.00     0.200 A 
BRANCH  74  77
ATOM     77  O   UNL     1      13.179  26.194  46.915  1.00  0.00    -0.504 OA
ATOM     78  H   UNL     1      12.444  26.484  46.279  1.00  0.00     0.293 HD
ENDBRANCH  74  77
BRANCH  75  79
ATOM     79  O   UNL     1      14.438  22.833  50.190  1.00  0.00    -0.504 OA
ATOM     80  H   UNL     1      15.424  22.777  50.407  1.00  0.00     0.293 HD
ENDBRANCH  75  79
BRANCH  76  81
ATOM     81  O   UNL     1      14.130  25.536  49.480  1.00  0.00    -0.502 OA
ATOM     82  H   UNL     1      13.594  26.387  49.560  1.00  0.00     0.293 HD
ENDBRANCH  76  81
ENDBRANCH  69  71
ENDBRANCH  68  69
ENDBRANCH   4  68
TORSDOF 31
ENDMDL
MODEL 9
REMARK VINA RESULT:    -6.578      4.892     11.229
REMARK INTER + INTRA:         -21.130
REMARK INTER:                 -15.902
REMARK INTRA:                  -5.228
REMARK UNBOUND:                -5.515
REMARK SMILES O=C(OC[C@H]1O[C@H](OC(=O)c2cc(O)c(O)c(O)c2)[C@H](OC(=O)c2cc(O)c(O)c(O)c2)[C@@H](OC(=O)c2cc(O)c(O)c(O)c2)[C@H]1OC(=O)c1cc(O)c(O)c(O)c1)c1cc(O)c(O)c(O)c1
REMARK SMILES IDX 5 1 46 2 33 3 20 4 7 5 6 6 4 7 3 8 2 9 1 10 59 11 60 12
REMARK SMILES IDX 61 13 67 14 63 15 65 16 62 17 64 19 66 21 47 23 48 24 49 25
REMARK SMILES IDX 50 26 58 27 51 28 56 29 52 30 54 31 57 32 53 34 55 36 34 38
REMARK SMILES IDX 35 39 36 40 37 41 45 42 38 43 43 44 39 45 41 46 44 47 40 49
REMARK SMILES IDX 42 51 8 53 9 54 10 55 11 56 19 57 12 58 17 59 13 60 15 61
REMARK SMILES IDX 18 62 14 64 16 66 21 68 22 69 23 70 24 71 32 72 25 73 30 74
REMARK SMILES IDX 26 75 28 76 31 77 27 79 29 81
REMARK H PARENT 62 18 64 20 66 22 57 33 53 35 55 37 44 48 40 50 42 52 18 63
REMARK H PARENT 14 65 16 67 31 78 27 80 29 82
REMARK Flexibility Score: inf
ROOT
ATOM      1  C   UNL     1      12.549  23.695  47.899  1.00  0.00     0.205 C 
ATOM      2  C   UNL     1      13.299  25.021  47.682  1.00  0.00     0.254 C 
ATOM      3  C   UNL     1      13.730  25.537  49.059  1.00  0.00     0.267 C 
ATOM      4  C   UNL     1      14.596  24.473  49.761  1.00  0.00     0.290 C 
ATOM      5  C   UNL     1      13.848  23.120  49.772  1.00  0.00     0.357 C 
ATOM      6  O   UNL     1      13.421  22.730  48.472  1.00  0.00    -0.329 OA
ENDROOT
BRANCH   1   7
ATOM      7  C   UNL     1      11.963  23.133  46.591  1.00  0.00     0.269 C 
BRANCH   7   8
ATOM      8  O   UNL     1      12.677  21.959  46.217  1.00  0.00    -0.459 OA
BRANCH   8   9
ATOM      9  C   UNL     1      12.905  21.615  44.877  1.00  0.00     0.338 C 
ATOM     10  O   UNL     1      11.931  21.524  44.076  1.00  0.00    -0.246 OA
BRANCH   9  11
ATOM     11  C   UNL     1      14.277  21.325  44.413  1.00  0.00     0.067 A 
ATOM     12  C   UNL     1      14.989  20.241  44.943  1.00  0.00     0.066 A 
ATOM     13  C   UNL     1      16.305  19.986  44.552  1.00  0.00     0.162 A 
ATOM     14  C   UNL     1      14.901  22.161  43.464  1.00  0.00     0.066 A 
ATOM     15  C   UNL     1      16.943  20.847  43.628  1.00  0.00     0.200 A 
ATOM     16  C   UNL     1      16.228  21.930  43.085  1.00  0.00     0.162 A 
BRANCH  13  17
ATOM     17  O   UNL     1      16.935  18.865  45.095  1.00  0.00    -0.504 OA
ATOM     18  H   UNL     1      17.005  17.981  44.621  1.00  0.00     0.293 HD
ENDBRANCH  13  17
BRANCH  15  19
ATOM     19  O   UNL     1      18.272  20.661  43.237  1.00  0.00    -0.502 OA
ATOM     20  H   UNL     1      18.748  19.772  43.235  1.00  0.00     0.293 HD
ENDBRANCH  15  19
BRANCH  16  21
ATOM     21  O   UNL     1      16.820  22.795  42.164  1.00  0.00    -0.504 OA
ATOM     22  H   UNL     1      16.279  23.284  41.461  1.00  0.00     0.293 HD
ENDBRANCH  16  21
ENDBRANCH   9  11
ENDBRANCH   8   9
ENDBRANCH   7   8
ENDBRANCH   1   7
BRANCH   2  23
ATOM     23  O   UNL     1      14.462  24.808  46.881  1.00  0.00    -0.452 OA
BRANCH  23  24
ATOM     24  C   UNL     1      14.611  25.275  45.568  1.00  0.00     0.338 C 
ATOM     25  O   UNL     1      13.718  25.041  44.714  1.00  0.00    -0.246 OA
BRANCH  24  26
ATOM     26  C   UNL     1      15.814  26.058  45.206  1.00  0.00     0.067 A 
ATOM     27  C   UNL     1      16.622  25.677  44.118  1.00  0.00     0.066 A 
ATOM     28  C   UNL     1      16.194  27.165  45.983  1.00  0.00     0.066 A 
ATOM     29  C   UNL     1      17.799  26.383  43.821  1.00  0.00     0.162 A 
ATOM     30  C   UNL     1      17.360  27.877  45.684  1.00  0.00     0.162 A 
ATOM     31  C   UNL     1      18.168  27.489  44.605  1.00  0.00     0.200 A 
BRANCH  29  32
ATOM     32  O   UNL     1      18.605  25.986  42.757  1.00  0.00    -0.504 OA
ATOM     33  H   UNL     1      18.211  25.756  41.852  1.00  0.00     0.293 HD
ENDBRANCH  29  32
BRANCH  30  34
ATOM     34  O   UNL     1      17.703  28.967  46.480  1.00  0.00    -0.504 OA
ATOM     35  H   UNL     1      18.596  29.025  46.960  1.00  0.00     0.293 HD
ENDBRANCH  30  34
BRANCH  31  36
ATOM     36  O   UNL     1      19.332  28.205  44.334  1.00  0.00    -0.502 OA
ATOM     37  H   UNL     1      19.369  29.215  44.380  1.00  0.00     0.293 HD
ENDBRANCH  31  36
ENDBRANCH  24  26
ENDBRANCH  23  24
ENDBRANCH   2  23
BRANCH   3  38
ATOM     38  O   UNL     1      14.433  26.772  48.931  1.00  0.00    -0.450 OA
BRANCH  38  39
ATOM     39  C   UNL     1      13.963  27.969  49.490  1.00  0.00     0.338 C 
ATOM     40  O   UNL     1      13.013  28.592  48.942  1.00  0.00    -0.246 OA
BRANCH  39  41
ATOM     41  C   UNL     1      14.565  28.495  50.736  1.00  0.00     0.067 A 
ATOM     42  C   UNL     1      13.954  28.253  51.978  1.00  0.00     0.066 A 
ATOM     43  C   UNL     1      15.756  29.237  50.690  1.00  0.00     0.066 A 
ATOM     44  C   UNL     1      14.518  28.748  53.156  1.00  0.00     0.162 A 
ATOM     45  C   UNL     1      16.329  29.742  51.862  1.00  0.00     0.162 A 
ATOM     46  C   UNL     1      15.700  29.505  53.112  1.00  0.00     0.200 A 
BRANCH  44  47
ATOM     47  O   UNL     1      13.903  28.485  54.382  1.00  0.00    -0.504 OA
ATOM     48  H   UNL     1      14.406  28.044  55.148  1.00  0.00     0.293 HD
ENDBRANCH  44  47
BRANCH  45  49
ATOM     49  O   UNL     1      17.512  30.470  51.740  1.00  0.00    -0.504 OA
ATOM     50  H   UNL     1      18.133  30.413  50.945  1.00  0.00     0.293 HD
ENDBRANCH  45  49
BRANCH  46  51
ATOM     51  O   UNL     1      16.203  29.998  54.318  1.00  0.00    -0.502 OA
ATOM     52  H   UNL     1      17.081  30.499  54.398  1.00  0.00     0.293 HD
ENDBRANCH  46  51
ENDBRANCH  39  41
ENDBRANCH  38  39
ENDBRANCH   3  38
BRANCH   5  53
ATOM     53  O   UNL     1      12.746  23.167  50.677  1.00  0.00    -0.428 OA
BRANCH  53  54
ATOM     54  C   UNL     1      12.753  22.542  51.929  1.00  0.00     0.340 C 
ATOM     55  O   UNL     1      12.091  23.017  52.887  1.00  0.00    -0.246 OA
BRANCH  54  56
ATOM     56  C   UNL     1      13.541  21.313  52.118  1.00  0.00     0.067 A 
ATOM     57  C   UNL     1      13.552  20.311  51.140  1.00  0.00     0.066 A 
ATOM     58  C   UNL     1      14.303  21.145  53.280  1.00  0.00     0.066 A 
ATOM     59  C   UNL     1      14.337  19.162  51.294  1.00  0.00     0.162 A 
ATOM     60  C   UNL     1      15.070  19.995  53.467  1.00  0.00     0.162 A 
ATOM     61  C   UNL     1      15.111  18.997  52.471  1.00  0.00     0.200 A 
BRANCH  59  62
ATOM     62  O   UNL     1      14.319  18.224  50.256  1.00  0.00    -0.504 OA
ATOM     63  H   UNL     1      15.121  17.668  49.981  1.00  0.00     0.293 HD
ENDBRANCH  59  62
BRANCH  60  64
ATOM     64  O   UNL     1      15.783  19.858  54.659  1.00  0.00    -0.504 OA
ATOM     65  H   UNL     1      16.502  19.152  54.776  1.00  0.00     0.293 HD
ENDBRANCH  60  64
BRANCH  61  66
ATOM     66  O   UNL     1      15.923  17.872  52.680  1.00  0.00    -0.502 OA
ATOM     67  H   UNL     1      16.926  17.867  52.557  1.00  0.00     0.293 HD
ENDBRANCH  61  66
ENDBRANCH  54  56
ENDBRANCH  53  54
ENDBRANCH   5  53
BRANCH   4  68
ATOM     68  O   UNL     1      14.843  24.855  51.113  1.00  0.00    -0.448 OA
BRANCH  68  69
ATOM     69  C   UNL     1      16.102  24.828  51.720  1.00  0.00     0.339 C 
ATOM     70  O   UNL     1      16.647  25.900  52.104  1.00  0.00    -0.246 OA
BRANCH  69  71
ATOM     71  C   UNL     1      16.798  23.536  51.895  1.00  0.00     0.067 A 
ATOM     72  C   UNL     1      16.758  22.554  50.896  1.00  0.00     0.066 A 
ATOM     73  C   UNL     1      17.521  23.277  53.071  1.00  0.00     0.066 A 
ATOM     74  C   UNL     1      17.438  21.338  51.057  1.00  0.00     0.162 A 
ATOM     75  C   UNL     1      18.205  22.070  53.240  1.00  0.00     0.162 A 
ATOM     76  C   UNL     1      18.167  21.094  52.232  1.00  0.00     0.200 A 
BRANCH  74  77
ATOM     77  O   UNL     1      17.400  20.374  50.049  1.00  0.00    -0.504 OA
ATOM     78  H   UNL     1      18.158  20.275  49.381  1.00  0.00     0.293 HD
ENDBRANCH  74  77
BRANCH  75  79
ATOM     79  O   UNL     1      18.922  21.857  54.418  1.00  0.00    -0.504 OA
ATOM     80  H   UNL     1      19.495  21.036  54.562  1.00  0.00     0.293 HD
ENDBRANCH  75  79
BRANCH  76  81
ATOM     81  O   UNL     1      18.854  19.891  52.409  1.00  0.00    -0.502 OA
ATOM     82  H   UNL     1      19.846  19.804  52.251  1.00  0.00     0.293 HD
ENDBRANCH  76  81
ENDBRANCH  69  71
ENDBRANCH  68  69
ENDBRANCH   4  68
TORSDOF 31
ENDMDL
