MODEL 1
REMARK VINA RESULT:    11.431      0.000      0.000
REMARK INTER + INTRA:          14.641
REMARK INTER:                  15.441
REMARK INTRA:                  -0.800
REMARK UNBOUND:                -0.800
REMARK SMILES CC[C@H](CC[C@@H](C)[C@H]1CC[C@H]2[C@@H]3CC(=O)C4=CC(=O)CC[C@@]4(C)[C@@H]3CC[C@]12C)C(C)C
REMARK SMILES IDX 4 1 3 2 2 3 1 4 29 5 30 6 31 7 5 8 6 9 7 10 8 11 9 12 27 13
REMARK SMILES IDX 10 14 11 15 26 16 28 17 12 18 25 19 24 20 13 21 22 22 14 23
REMARK SMILES IDX 16 24 21 25 23 26 15 27 17 28 20 29 18 30 19 31
REMARK H PARENT
REMARK Flexibility Score: inf
ROOT
ATOM      1  C   UNL     1     102.385  49.110  55.114  1.00  0.00     0.004 C 
ENDROOT
BRANCH   1   2
ATOM      2  C   UNL     1     103.875  49.034  54.636  1.00  0.00    -0.009 C 
BRANCH   2   3
ATOM      3  C   UNL     1     103.968  48.325  53.251  1.00  0.00     0.000 C 
ATOM      4  C   UNL     1     102.676  47.627  52.821  1.00  0.00     0.004 C 
ENDBRANCH   2   3
BRANCH   2   5
ATOM      5  C   UNL     1     104.523  50.464  54.610  1.00  0.00    -0.014 C 
ATOM      6  C   UNL     1     105.787  50.488  53.728  1.00  0.00     0.007 C 
ATOM      7  C   UNL     1     103.569  51.565  54.107  1.00  0.00     0.007 C 
ENDBRANCH   2   5
ENDBRANCH   1   2
BRANCH   1   8
ATOM      8  C   UNL     1     102.240  49.145  56.651  1.00  0.00     0.004 C 
BRANCH   8   9
ATOM      9  C   UNL     1     102.182  47.740  57.305  1.00  0.00    -0.011 C 
ATOM     10  C   UNL     1     101.655  46.680  56.305  1.00  0.00     0.008 C 
BRANCH   9  11
ATOM     11  C   UNL     1     103.522  47.394  58.048  1.00  0.00    -0.002 C 
ATOM     12  C   UNL     1     104.737  47.195  57.105  1.00  0.00     0.005 C 
ATOM     13  C   UNL     1     104.051  48.278  59.224  1.00  0.00    -0.026 C 
ATOM     14  C   UNL     1     105.984  47.613  57.895  1.00  0.00     0.005 C 
ATOM     15  C   UNL     1     105.493  47.743  59.332  1.00  0.00    -0.001 C 
ATOM     16  C   UNL     1     103.336  48.050  60.595  1.00  0.00     0.007 C 
ATOM     17  C   UNL     1     104.009  49.791  58.860  1.00  0.00     0.012 C 
ATOM     18  C   UNL     1     106.372  48.548  60.322  1.00  0.00     0.004 C 
ATOM     19  C   UNL     1     104.303  47.941  61.805  1.00  0.00     0.005 C 
ATOM     20  C   UNL     1     105.599  48.806  61.680  1.00  0.00     0.003 C 
ATOM     21  C   UNL     1     107.737  47.872  60.507  1.00  0.00     0.085 C 
ATOM     22  C   UNL     1     106.486  48.791  63.004  1.00  0.00    -0.000 C 
ATOM     23  C   UNL     1     108.563  48.658  61.469  1.00  0.00     0.159 C 
ATOM     24  C   UNL     1     107.932  49.196  62.693  1.00  0.00     0.005 C 
ATOM     25  C   UNL     1     105.861  49.799  64.026  1.00  0.00     0.020 C 
ATOM     26  C   UNL     1     106.531  47.382  63.656  1.00  0.00     0.017 C 
ATOM     27  O   UNL     1     109.792  48.825  61.240  1.00  0.00    -0.295 OA
ATOM     28  C   UNL     1     108.674  49.903  63.571  1.00  0.00     0.055 C 
ATOM     29  C   UNL     1     106.735  50.021  65.263  1.00  0.00     0.081 C 
ATOM     30  C   UNL     1     108.131  50.368  64.855  1.00  0.00     0.156 C 
ATOM     31  O   UNL     1     108.866  51.023  65.641  1.00  0.00    -0.295 OA
ENDBRANCH   9  11
ENDBRANCH   8   9
ENDBRANCH   1   8
TORSDOF 6
ENDMDL
