MODEL 1
REMARK VINA RESULT:    -5.370      0.000      0.000
REMARK INTER + INTRA:          -5.684
REMARK INTER:                  -5.684
REMARK INTRA:                   0.000
REMARK UNBOUND:                 0.000
REMARK SMILES O=c1ccc2cc(O)c(O)cc2o1
REMARK SMILES IDX 4 1 3 2 2 3 1 4 13 5 12 6 11 7 9 8 7 9 6 10 5 11 8 12 10 14
REMARK H PARENT 8 13 10 15
REMARK Flexibility Score: inf
ROOT
ATOM      1  C   UNL     1       7.910  -8.683  -8.138  1.00  0.00     0.019 A 
ATOM      2  C   UNL     1       8.079  -8.365  -9.486  1.00  0.00     0.094 A 
ATOM      3  C   UNL     1       8.241  -7.023  -9.850  1.00  0.00     0.336 A 
ATOM      4  O   UNL     1       8.396  -6.715 -11.060  1.00  0.00    -0.246 OA
ATOM      5  O   UNL     1       8.235  -6.068  -8.923  1.00  0.00    -0.423 OA
ATOM      6  C   UNL     1       8.076  -6.329  -7.628  1.00  0.00     0.142 A 
ATOM      7  C   UNL     1       8.077  -5.284  -6.699  1.00  0.00     0.098 A 
ATOM      8  C   UNL     1       7.910  -5.553  -5.333  1.00  0.00     0.161 A 
ATOM      9  C   UNL     1       7.742  -6.874  -4.894  1.00  0.00     0.158 A 
ATOM     10  C   UNL     1       7.739  -7.927  -5.821  1.00  0.00     0.062 A 
ATOM     11  C   UNL     1       7.906  -7.659  -7.186  1.00  0.00     0.022 A 
ENDROOT
BRANCH   9  12
ATOM     12  O   UNL     1       7.576  -7.133  -3.534  1.00  0.00    -0.504 OA
ATOM     13  H   UNL     1       6.878  -7.787  -3.200  1.00  0.00     0.293 HD
ENDBRANCH   9  12
BRANCH   8  14
ATOM     14  O   UNL     1       7.911  -4.512  -4.405  1.00  0.00    -0.504 OA
ATOM     15  H   UNL     1       7.490  -3.616  -4.614  1.00  0.00     0.293 HD
ENDBRANCH   8  14
TORSDOF 2
ENDMDL
MODEL 2
REMARK VINA RESULT:    -5.343      1.680      2.344
REMARK INTER + INTRA:          -5.655
REMARK INTER:                  -5.655
REMARK INTRA:                   0.000
REMARK UNBOUND:                 0.000
REMARK SMILES O=c1ccc2cc(O)c(O)cc2o1
REMARK SMILES IDX 4 1 3 2 2 3 1 4 13 5 12 6 11 7 9 8 7 9 6 10 5 11 8 12 10 14
REMARK H PARENT 8 13 10 15
REMARK Flexibility Score: inf
ROOT
ATOM      1  C   UNL     1      10.218  -7.356  -9.516  1.00  0.00     0.019 A 
ATOM      2  C   UNL     1       9.422  -8.067 -10.415  1.00  0.00     0.094 A 
ATOM      3  C   UNL     1       8.038  -8.100 -10.214  1.00  0.00     0.336 A 
ATOM      4  O   UNL     1       7.303  -8.735 -11.014  1.00  0.00    -0.246 OA
ATOM      5  O   UNL     1       7.491  -7.462  -9.182  1.00  0.00    -0.423 OA
ATOM      6  C   UNL     1       8.213  -6.773  -8.303  1.00  0.00     0.142 A 
ATOM      7  C   UNL     1       7.584  -6.123  -7.237  1.00  0.00     0.098 A 
ATOM      8  C   UNL     1       8.340  -5.395  -6.306  1.00  0.00     0.161 A 
ATOM      9  C   UNL     1       9.734  -5.319  -6.443  1.00  0.00     0.158 A 
ATOM     10  C   UNL     1      10.372  -5.969  -7.510  1.00  0.00     0.062 A 
ATOM     11  C   UNL     1       9.617  -6.696  -8.440  1.00  0.00     0.022 A 
ENDROOT
BRANCH   9  12
ATOM     12  O   UNL     1      10.479  -4.594  -5.514  1.00  0.00    -0.504 OA
ATOM     13  H   UNL     1      10.121  -4.395  -4.587  1.00  0.00     0.293 HD
ENDBRANCH   9  12
BRANCH   8  14
ATOM     14  O   UNL     1       7.715  -4.746  -5.243  1.00  0.00    -0.504 OA
ATOM     15  H   UNL     1       8.087  -4.791  -4.303  1.00  0.00     0.293 HD
ENDBRANCH   8  14
TORSDOF 2
ENDMDL
MODEL 3
REMARK VINA RESULT:    -5.195      1.074      2.230
REMARK INTER + INTRA:          -5.499
REMARK INTER:                  -5.499
REMARK INTRA:                   0.000
REMARK UNBOUND:                 0.000
REMARK SMILES O=c1ccc2cc(O)c(O)cc2o1
REMARK SMILES IDX 4 1 3 2 2 3 1 4 13 5 12 6 11 7 9 8 7 9 6 10 5 11 8 12 10 14
REMARK H PARENT 8 13 10 15
REMARK Flexibility Score: inf
ROOT
ATOM      1  C   UNL     1       8.605  -5.395  -8.418  1.00  0.00     0.019 A 
ATOM      2  C   UNL     1       8.560  -6.026  -9.661  1.00  0.00     0.094 A 
ATOM      3  C   UNL     1       8.157  -7.364  -9.728  1.00  0.00     0.336 A 
ATOM      4  O   UNL     1       8.109  -7.951 -10.840  1.00  0.00    -0.246 OA
ATOM      5  O   UNL     1       7.822  -8.023  -8.621  1.00  0.00    -0.423 OA
ATOM      6  C   UNL     1       7.851  -7.459  -7.416  1.00  0.00     0.142 A 
ATOM      7  C   UNL     1       7.489  -8.201  -6.288  1.00  0.00     0.098 A 
ATOM      8  C   UNL     1       7.518  -7.612  -5.015  1.00  0.00     0.161 A 
ATOM      9  C   UNL     1       7.912  -6.273  -4.871  1.00  0.00     0.158 A 
ATOM     10  C   UNL     1       8.278  -5.524  -6.000  1.00  0.00     0.062 A 
ATOM     11  C   UNL     1       8.248  -6.112  -7.271  1.00  0.00     0.022 A 
ENDROOT
BRANCH   9  12
ATOM     12  O   UNL     1       7.939  -5.695  -3.604  1.00  0.00    -0.504 OA
ATOM     13  H   UNL     1       7.811  -6.250  -2.765  1.00  0.00     0.293 HD
ENDBRANCH   9  12
BRANCH   8  14
ATOM     14  O   UNL     1       7.156  -8.349  -3.889  1.00  0.00    -0.504 OA
ATOM     15  H   UNL     1       7.542  -9.269  -3.712  1.00  0.00     0.293 HD
ENDBRANCH   8  14
TORSDOF 2
ENDMDL
MODEL 4
REMARK VINA RESULT:    -5.171      1.717      2.125
REMARK INTER + INTRA:          -5.474
REMARK INTER:                  -5.474
REMARK INTRA:                   0.000
REMARK UNBOUND:                 0.000
REMARK SMILES O=c1ccc2cc(O)c(O)cc2o1
REMARK SMILES IDX 4 1 3 2 2 3 1 4 13 5 12 6 11 7 9 8 7 9 6 10 5 11 8 12 10 14
REMARK H PARENT 8 13 10 15
REMARK Flexibility Score: inf
ROOT
ATOM      1  C   UNL     1       7.531  -7.672  -9.133  1.00  0.00     0.019 A 
ATOM      2  C   UNL     1       8.242  -8.304 -10.154  1.00  0.00     0.094 A 
ATOM      3  C   UNL     1       9.630  -8.135 -10.217  1.00  0.00     0.336 A 
ATOM      4  O   UNL     1      10.289  -8.697 -11.130  1.00  0.00    -0.246 OA
ATOM      5  O   UNL     1      10.260  -7.383  -9.317  1.00  0.00    -0.423 OA
ATOM      6  C   UNL     1       9.619  -6.764  -8.329  1.00  0.00     0.142 A 
ATOM      7  C   UNL     1      10.334  -5.986  -7.412  1.00  0.00     0.098 A 
ATOM      8  C   UNL     1       9.664  -5.331  -6.369  1.00  0.00     0.161 A 
ATOM      9  C   UNL     1       8.272  -5.454  -6.242  1.00  0.00     0.158 A 
ATOM     10  C   UNL     1       7.550  -6.232  -7.159  1.00  0.00     0.062 A 
ATOM     11  C   UNL     1       8.218  -6.887  -8.202  1.00  0.00     0.022 A 
ENDROOT
BRANCH   9  12
ATOM     12  O   UNL     1       7.615  -4.799  -5.203  1.00  0.00    -0.504 OA
ATOM     13  H   UNL     1       7.103  -3.938  -5.357  1.00  0.00     0.293 HD
ENDBRANCH   9  12
BRANCH   8  14
ATOM     14  O   UNL     1      10.374  -4.555  -5.453  1.00  0.00    -0.504 OA
ATOM     15  H   UNL     1      10.629  -3.596  -5.656  1.00  0.00     0.293 HD
ENDBRANCH   8  14
TORSDOF 2
ENDMDL
MODEL 5
REMARK VINA RESULT:    -5.007      2.385      5.316
REMARK INTER + INTRA:          -5.300
REMARK INTER:                  -5.300
REMARK INTRA:                   0.000
REMARK UNBOUND:                 0.000
REMARK SMILES O=c1ccc2cc(O)c(O)cc2o1
REMARK SMILES IDX 4 1 3 2 2 3 1 4 13 5 12 6 11 7 9 8 7 9 6 10 5 11 8 12 10 14
REMARK H PARENT 8 13 10 15
REMARK Flexibility Score: inf
ROOT
ATOM      1  C   UNL     1       8.618  -8.354  -8.450  1.00  0.00     0.019 A 
ATOM      2  C   UNL     1       9.244  -7.610  -7.450  1.00  0.00     0.094 A 
ATOM      3  C   UNL     1       9.611  -6.286  -7.720  1.00  0.00     0.336 A 
ATOM      4  O   UNL     1      10.176  -5.598  -6.830  1.00  0.00    -0.246 OA
ATOM      5  O   UNL     1       9.364  -5.748  -8.912  1.00  0.00    -0.423 OA
ATOM      6  C   UNL     1       8.770  -6.423  -9.892  1.00  0.00     0.142 A 
ATOM      7  C   UNL     1       8.537  -5.805 -11.125  1.00  0.00     0.098 A 
ATOM      8  C   UNL     1       7.911  -6.511 -12.162  1.00  0.00     0.161 A 
ATOM      9  C   UNL     1       7.516  -7.843 -11.965  1.00  0.00     0.158 A 
ATOM     10  C   UNL     1       7.747  -8.468 -10.730  1.00  0.00     0.062 A 
ATOM     11  C   UNL     1       8.372  -7.763  -9.694  1.00  0.00     0.022 A 
ENDROOT
BRANCH   9  12
ATOM     12  O   UNL     1       6.894  -8.538 -13.001  1.00  0.00    -0.504 OA
ATOM     13  H   UNL     1       6.639  -8.080 -13.869  1.00  0.00     0.293 HD
ENDBRANCH   9  12
BRANCH   8  14
ATOM     14  O   UNL     1       7.677  -5.898 -13.392  1.00  0.00    -0.504 OA
ATOM     15  H   UNL     1       8.429  -5.479 -13.926  1.00  0.00     0.293 HD
ENDBRANCH   8  14
TORSDOF 2
ENDMDL
MODEL 6
REMARK VINA RESULT:    -4.980      2.650      3.402
REMARK INTER + INTRA:          -5.271
REMARK INTER:                  -5.271
REMARK INTRA:                   0.000
REMARK UNBOUND:                 0.000
REMARK SMILES O=c1ccc2cc(O)c(O)cc2o1
REMARK SMILES IDX 4 1 3 2 2 3 1 4 13 5 12 6 11 7 9 8 7 9 6 10 5 11 8 12 10 14
REMARK H PARENT 8 13 10 15
REMARK Flexibility Score: inf
ROOT
ATOM      1  C   UNL     1      11.279  -7.886 -10.450  1.00  0.00     0.019 A 
ATOM      2  C   UNL     1      10.783  -8.401 -11.648  1.00  0.00     0.094 A 
ATOM      3  C   UNL     1       9.467  -8.102 -12.020  1.00  0.00     0.336 A 
ATOM      4  O   UNL     1       9.000  -8.557 -13.096  1.00  0.00    -0.246 OA
ATOM      5  O   UNL     1       8.704  -7.338 -11.242  1.00  0.00    -0.423 OA
ATOM      6  C   UNL     1       9.139  -6.827 -10.093  1.00  0.00     0.142 A 
ATOM      7  C   UNL     1       8.291  -6.030  -9.316  1.00  0.00     0.098 A 
ATOM      8  C   UNL     1       8.744  -5.489  -8.104  1.00  0.00     0.161 A 
ATOM      9  C   UNL     1      10.052  -5.747  -7.667  1.00  0.00     0.158 A 
ATOM     10  C   UNL     1      10.907  -6.546  -8.441  1.00  0.00     0.062 A 
ATOM     11  C   UNL     1      10.455  -7.086  -9.652  1.00  0.00     0.022 A 
ENDROOT
BRANCH   9  12
ATOM     12  O   UNL     1      10.494  -5.206  -6.461  1.00  0.00    -0.504 OA
ATOM     13  H   UNL     1      10.390  -4.219  -6.252  1.00  0.00     0.293 HD
ENDBRANCH   9  12
BRANCH   8  14
ATOM     14  O   UNL     1       7.902  -4.695  -7.329  1.00  0.00    -0.504 OA
ATOM     15  H   UNL     1       7.093  -4.235  -7.728  1.00  0.00     0.293 HD
ENDBRANCH   8  14
TORSDOF 2
ENDMDL
MODEL 7
REMARK VINA RESULT:    -4.973      2.024      2.093
REMARK INTER + INTRA:          -5.264
REMARK INTER:                  -5.264
REMARK INTRA:                   0.000
REMARK UNBOUND:                 0.000
REMARK SMILES O=c1ccc2cc(O)c(O)cc2o1
REMARK SMILES IDX 4 1 3 2 2 3 1 4 13 5 12 6 11 7 9 8 7 9 6 10 5 11 8 12 10 14
REMARK H PARENT 8 13 10 15
REMARK Flexibility Score: inf
ROOT
ATOM      1  C   UNL     1       9.817  -8.392  -8.749  1.00  0.00     0.019 A 
ATOM      2  C   UNL     1      10.761  -7.712  -9.519  1.00  0.00     0.094 A 
ATOM      3  C   UNL     1      11.097  -6.398  -9.174  1.00  0.00     0.336 A 
ATOM      4  O   UNL     1      11.946  -5.768  -9.856  1.00  0.00    -0.246 OA
ATOM      5  O   UNL     1      10.525  -5.809  -8.126  1.00  0.00    -0.423 OA
ATOM      6  C   UNL     1       9.621  -6.423  -7.366  1.00  0.00     0.142 A 
ATOM      7  C   UNL     1       9.053  -5.753  -6.278  1.00  0.00     0.098 A 
ATOM      8  C   UNL     1       8.100  -6.395  -5.473  1.00  0.00     0.161 A 
ATOM      9  C   UNL     1       7.713  -7.712  -5.759  1.00  0.00     0.158 A 
ATOM     10  C   UNL     1       8.279  -8.389  -6.851  1.00  0.00     0.062 A 
ATOM     11  C   UNL     1       9.232  -7.749  -7.654  1.00  0.00     0.022 A 
ENDROOT
BRANCH   9  12
ATOM     12  O   UNL     1       6.765  -8.342  -4.955  1.00  0.00    -0.504 OA
ATOM     13  H   UNL     1       7.037  -8.977  -4.213  1.00  0.00     0.293 HD
ENDBRANCH   9  12
BRANCH   8  14
ATOM     14  O   UNL     1       7.532  -5.730  -4.387  1.00  0.00    -0.504 OA
ATOM     15  H   UNL     1       7.337  -6.209  -3.517  1.00  0.00     0.293 HD
ENDBRANCH   8  14
TORSDOF 2
ENDMDL
MODEL 8
REMARK VINA RESULT:    -4.932      1.404      2.681
REMARK INTER + INTRA:          -5.220
REMARK INTER:                  -5.220
REMARK INTRA:                   0.000
REMARK UNBOUND:                 0.000
REMARK SMILES O=c1ccc2cc(O)c(O)cc2o1
REMARK SMILES IDX 4 1 3 2 2 3 1 4 13 5 12 6 11 7 9 8 7 9 6 10 5 11 8 12 10 14
REMARK H PARENT 8 13 10 15
REMARK Flexibility Score: inf
ROOT
ATOM      1  C   UNL     1       8.109  -4.994 -10.166  1.00  0.00     0.019 A 
ATOM      2  C   UNL     1       8.268  -5.741 -11.333  1.00  0.00     0.094 A 
ATOM      3  C   UNL     1       8.273  -7.138 -11.248  1.00  0.00     0.336 A 
ATOM      4  O   UNL     1       8.416  -7.829 -12.290  1.00  0.00    -0.246 OA
ATOM      5  O   UNL     1       8.127  -7.741 -10.071  1.00  0.00    -0.423 OA
ATOM      6  C   UNL     1       7.972  -7.066  -8.935  1.00  0.00     0.142 A 
ATOM      7  C   UNL     1       7.824  -7.755  -7.727  1.00  0.00     0.098 A 
ATOM      8  C   UNL     1       7.661  -7.049  -6.526  1.00  0.00     0.161 A 
ATOM      9  C   UNL     1       7.646  -5.646  -6.534  1.00  0.00     0.158 A 
ATOM     10  C   UNL     1       7.795  -4.949  -7.743  1.00  0.00     0.062 A 
ATOM     11  C   UNL     1       7.958  -5.654  -8.943  1.00  0.00     0.022 A 
ENDROOT
BRANCH   9  12
ATOM     12  O   UNL     1       7.483  -4.952  -5.337  1.00  0.00    -0.504 OA
ATOM     13  H   UNL     1       6.805  -4.204  -5.245  1.00  0.00     0.293 HD
ENDBRANCH   9  12
BRANCH   8  14
ATOM     14  O   UNL     1       7.512  -7.733  -5.321  1.00  0.00    -0.504 OA
ATOM     15  H   UNL     1       8.149  -7.588  -4.547  1.00  0.00     0.293 HD
ENDBRANCH   8  14
TORSDOF 2
ENDMDL
MODEL 9
REMARK VINA RESULT:    -4.922     23.926     24.792
REMARK INTER + INTRA:          -5.210
REMARK INTER:                  -5.210
REMARK INTRA:                   0.000
REMARK UNBOUND:                 0.000
REMARK SMILES O=c1ccc2cc(O)c(O)cc2o1
REMARK SMILES IDX 4 1 3 2 2 3 1 4 13 5 12 6 11 7 9 8 7 9 6 10 5 11 8 12 10 14
REMARK H PARENT 8 13 10 15
REMARK Flexibility Score: inf
ROOT
ATOM      1  C   UNL     1      24.785   5.907 -18.074  1.00  0.00     0.019 A 
ATOM      2  C   UNL     1      25.028   6.544 -16.857  1.00  0.00     0.094 A 
ATOM      3  C   UNL     1      24.589   7.861 -16.682  1.00  0.00     0.336 A 
ATOM      4  O   UNL     1      24.799   8.453 -15.592  1.00  0.00    -0.246 OA
ATOM      5  O   UNL     1      23.949   8.494 -17.663  1.00  0.00    -0.423 OA
ATOM      6  C   UNL     1      23.697   7.923 -18.838  1.00  0.00     0.142 A 
ATOM      7  C   UNL     1      23.021   8.637 -19.832  1.00  0.00     0.098 A 
ATOM      8  C   UNL     1      22.753   8.040 -21.072  1.00  0.00     0.161 A 
ATOM      9  C   UNL     1      23.163   6.722 -21.319  1.00  0.00     0.158 A 
ATOM     10  C   UNL     1      23.843   6.000 -20.326  1.00  0.00     0.062 A 
ATOM     11  C   UNL     1      24.111   6.596 -19.087  1.00  0.00     0.022 A 
ENDROOT
BRANCH   9  12
ATOM     12  O   UNL     1      22.893   6.136 -22.555  1.00  0.00    -0.504 OA
ATOM     13  H   UNL     1      21.944   6.017 -22.890  1.00  0.00     0.293 HD
ENDBRANCH   9  12
BRANCH   8  14
ATOM     14  O   UNL     1      22.078   8.750 -22.065  1.00  0.00    -0.504 OA
ATOM     15  H   UNL     1      22.027   8.410 -23.017  1.00  0.00     0.293 HD
ENDBRANCH   8  14
TORSDOF 2
ENDMDL
