MODEL 1
REMARK VINA RESULT:    -6.767      0.000      0.000
REMARK INTER + INTRA:          -9.271
REMARK INTER:                  -9.140
REMARK INTRA:                  -0.130
REMARK UNBOUND:                -0.130
REMARK SMILES O=c1c(-c2ccc(O)cc2)coc2c([C@H]3O[C@@H](CO)[C@H](O)[C@H](O)[C@@H]3O)c(O)ccc12
REMARK SMILES IDX 3 1 11 2 12 3 13 4 30 5 2 6 1 7 29 8 28 9 26 10 14 11 4 12
REMARK SMILES IDX 5 13 6 14 7 15 10 16 9 17 8 18 15 20 24 21 16 22 22 23 17 24
REMARK SMILES IDX 20 25 25 26 23 28 18 30 19 31 21 33 27 35
REMARK H PARENT 8 19 25 27 23 29 19 32 21 34 27 36
REMARK Flexibility Score: inf
ROOT
ATOM      1  C   UNL     1      -9.300 -21.274   0.106  1.00  0.00     0.065 A 
ATOM      2  C   UNL     1      -9.252 -21.433   1.504  1.00  0.00     0.208 A 
ATOM      3  O   UNL     1      -9.496 -20.417   2.312  1.00  0.00    -0.463 OA
ATOM      4  C   UNL     1      -9.760 -19.186   1.887  1.00  0.00     0.147 A 
ATOM      5  C   UNL     1      -9.903 -18.938   0.495  1.00  0.00     0.066 A 
ATOM      6  C   UNL     1      -9.728 -20.021  -0.400  1.00  0.00     0.200 A 
ATOM      7  O   UNL     1      -9.992 -19.886  -1.626  1.00  0.00    -0.288 OA
ATOM      8  C   UNL     1     -10.378 -17.690   0.064  1.00  0.00     0.020 A 
ATOM      9  C   UNL     1     -10.548 -16.653   0.990  1.00  0.00     0.047 A 
ATOM     10  C   UNL     1     -10.266 -16.848   2.346  1.00  0.00     0.125 A 
ATOM     11  C   UNL     1      -9.919 -18.141   2.827  1.00  0.00     0.069 A 
ENDROOT
BRANCH   1  12
ATOM     12  C   UNL     1      -8.950 -22.430  -0.763  1.00  0.00    -0.011 A 
ATOM     13  C   UNL     1      -7.704 -22.462  -1.428  1.00  0.00     0.013 A 
ATOM     14  C   UNL     1      -7.328 -23.572  -2.182  1.00  0.00     0.047 A 
ATOM     15  C   UNL     1      -8.177 -24.686  -2.265  1.00  0.00     0.115 A 
ATOM     16  C   UNL     1      -9.794 -23.548  -0.858  1.00  0.00     0.013 A 
ATOM     17  C   UNL     1      -9.414 -24.669  -1.606  1.00  0.00     0.047 A 
BRANCH  15  18
ATOM     18  O   UNL     1      -7.776 -25.806  -2.991  1.00  0.00    -0.508 OA
ATOM     19  H   UNL     1      -8.433 -26.310  -3.581  1.00  0.00     0.293 HD
ENDBRANCH  15  18
ENDBRANCH   1  12
BRANCH  11  20
ATOM     20  C   UNL     1      -9.846 -18.407   4.334  1.00  0.00     0.188 C 
ATOM     21  C   UNL     1      -8.464 -18.035   4.931  1.00  0.00     0.179 C 
ATOM     22  O   UNL     1     -10.316 -19.721   4.606  1.00  0.00    -0.362 OA
ATOM     23  C   UNL     1      -7.445 -19.103   4.533  1.00  0.00     0.177 C 
ATOM     24  C   UNL     1      -9.459 -20.582   5.360  1.00  0.00     0.176 C 
ATOM     25  C   UNL     1      -7.925 -20.511   4.995  1.00  0.00     0.177 C 
BRANCH  21  26
ATOM     26  O   UNL     1      -8.516 -17.947   6.328  1.00  0.00    -0.387 OA
ATOM     27  H   UNL     1      -9.059 -17.131   6.543  1.00  0.00     0.211 HD
ENDBRANCH  21  26
BRANCH  23  28
ATOM     28  O   UNL     1      -6.185 -18.790   5.061  1.00  0.00    -0.387 OA
ATOM     29  H   UNL     1      -6.181 -19.145   5.995  1.00  0.00     0.211 HD
ENDBRANCH  23  28
BRANCH  24  30
ATOM     30  C   UNL     1     -10.026 -22.014   5.149  1.00  0.00     0.191 C 
BRANCH  30  31
ATOM     31  O   UNL     1      -9.055 -23.018   5.296  1.00  0.00    -0.394 OA
ATOM     32  H   UNL     1      -9.149 -23.364   6.222  1.00  0.00     0.210 HD
ENDBRANCH  30  31
ENDBRANCH  24  30
BRANCH  25  33
ATOM     33  O   UNL     1      -7.101 -20.924   6.075  1.00  0.00    -0.388 OA
ATOM     34  H   UNL     1      -7.624 -21.488   6.694  1.00  0.00     0.211 HD
ENDBRANCH  25  33
ENDBRANCH  11  20
BRANCH  10  35
ATOM     35  O   UNL     1     -10.412 -15.772   3.234  1.00  0.00    -0.507 OA
ATOM     36  H   UNL     1     -11.265 -15.249   3.264  1.00  0.00     0.293 HD
ENDBRANCH  10  35
TORSDOF 9
ENDMDL
MODEL 2
REMARK VINA RESULT:    -6.720     13.303     16.194
REMARK INTER + INTRA:          -9.207
REMARK INTER:                  -9.123
REMARK INTRA:                  -0.084
REMARK UNBOUND:                -0.130
REMARK SMILES O=c1c(-c2ccc(O)cc2)coc2c([C@H]3O[C@@H](CO)[C@H](O)[C@H](O)[C@@H]3O)c(O)ccc12
REMARK SMILES IDX 3 1 11 2 12 3 13 4 30 5 2 6 1 7 29 8 28 9 26 10 14 11 4 12
REMARK SMILES IDX 5 13 6 14 7 15 10 16 9 17 8 18 15 20 24 21 16 22 22 23 17 24
REMARK SMILES IDX 20 25 25 26 23 28 18 30 19 31 21 33 27 35
REMARK H PARENT 8 19 25 27 23 29 19 32 21 34 27 36
REMARK Flexibility Score: inf
ROOT
ATOM      1  C   UNL     1       2.453 -26.877   6.375  1.00  0.00     0.065 A 
ATOM      2  C   UNL     1       3.179 -25.685   6.188  1.00  0.00     0.208 A 
ATOM      3  O   UNL     1       4.183 -25.629   5.332  1.00  0.00    -0.463 OA
ATOM      4  C   UNL     1       4.607 -26.672   4.627  1.00  0.00     0.147 A 
ATOM      5  C   UNL     1       3.895 -27.900   4.689  1.00  0.00     0.066 A 
ATOM      6  C   UNL     1       2.762 -27.976   5.536  1.00  0.00     0.200 A 
ATOM      7  O   UNL     1       2.013 -28.990   5.511  1.00  0.00    -0.288 OA
ATOM      8  C   UNL     1       4.222 -28.932   3.795  1.00  0.00     0.020 A 
ATOM      9  C   UNL     1       5.345 -28.804   2.968  1.00  0.00     0.047 A 
ATOM     10  C   UNL     1       6.139 -27.654   3.008  1.00  0.00     0.125 A 
ATOM     11  C   UNL     1       5.749 -26.540   3.801  1.00  0.00     0.069 A 
ENDROOT
BRANCH   1  12
ATOM     12  C   UNL     1       1.374 -26.910   7.400  1.00  0.00    -0.011 A 
ATOM     13  C   UNL     1       0.159 -26.227   7.169  1.00  0.00     0.013 A 
ATOM     14  C   UNL     1      -0.890 -26.313   8.082  1.00  0.00     0.047 A 
ATOM     15  C   UNL     1      -0.758 -27.107   9.232  1.00  0.00     0.115 A 
ATOM     16  C   UNL     1       1.497 -27.696   8.557  1.00  0.00     0.013 A 
ATOM     17  C   UNL     1       0.440 -27.792   9.471  1.00  0.00     0.047 A 
BRANCH  15  18
ATOM     18  O   UNL     1      -1.827 -27.216  10.120  1.00  0.00    -0.508 OA
ATOM     19  H   UNL     1      -2.764 -27.429   9.789  1.00  0.00     0.293 HD
ENDBRANCH  15  18
ENDBRANCH   1  12
BRANCH  11  20
ATOM     20  C   UNL     1       6.480 -25.202   3.662  1.00  0.00     0.188 C 
ATOM     21  C   UNL     1       5.501 -24.003   3.568  1.00  0.00     0.179 C 
ATOM     22  O   UNL     1       7.456 -25.300   2.633  1.00  0.00    -0.362 OA
ATOM     23  C   UNL     1       4.870 -23.982   2.175  1.00  0.00     0.177 C 
ATOM     24  C   UNL     1       7.415 -24.319   1.593  1.00  0.00     0.176 C 
ATOM     25  C   UNL     1       5.976 -23.926   1.079  1.00  0.00     0.177 C 
BRANCH  21  26
ATOM     26  O   UNL     1       6.158 -22.785   3.793  1.00  0.00    -0.387 OA
ATOM     27  H   UNL     1       5.847 -22.455   4.688  1.00  0.00     0.211 HD
ENDBRANCH  21  26
BRANCH  23  28
ATOM     28  O   UNL     1       3.980 -22.906   2.063  1.00  0.00    -0.387 OA
ATOM     29  H   UNL     1       3.731 -22.853   1.096  1.00  0.00     0.211 HD
ENDBRANCH  23  28
BRANCH  24  30
ATOM     30  C   UNL     1       8.289 -24.898   0.447  1.00  0.00     0.191 C 
BRANCH  30  31
ATOM     31  O   UNL     1       7.604 -25.829  -0.352  1.00  0.00    -0.394 OA
ATOM     32  H   UNL     1       6.682 -25.882   0.011  1.00  0.00     0.210 HD
ENDBRANCH  30  31
ENDBRANCH  24  30
BRANCH  25  33
ATOM     33  O   UNL     1       5.953 -22.631   0.498  1.00  0.00    -0.388 OA
ATOM     34  H   UNL     1       5.767 -22.704  -0.468  1.00  0.00     0.211 HD
ENDBRANCH  25  33
ENDBRANCH  11  20
BRANCH  10  35
ATOM     35  O   UNL     1       7.278 -27.583   2.192  1.00  0.00    -0.507 OA
ATOM     36  H   UNL     1       7.484 -26.750   1.677  1.00  0.00     0.293 HD
ENDBRANCH  10  35
TORSDOF 9
ENDMDL
MODEL 3
REMARK VINA RESULT:    -6.655     14.411     16.651
REMARK INTER + INTRA:          -9.119
REMARK INTER:                  -9.073
REMARK INTRA:                  -0.047
REMARK UNBOUND:                -0.130
REMARK SMILES O=c1c(-c2ccc(O)cc2)coc2c([C@H]3O[C@@H](CO)[C@H](O)[C@H](O)[C@@H]3O)c(O)ccc12
REMARK SMILES IDX 3 1 11 2 12 3 13 4 30 5 2 6 1 7 29 8 28 9 26 10 14 11 4 12
REMARK SMILES IDX 5 13 6 14 7 15 10 16 9 17 8 18 15 20 24 21 16 22 22 23 17 24
REMARK SMILES IDX 20 25 25 26 23 28 18 30 19 31 21 33 27 35
REMARK H PARENT 8 19 25 27 23 29 19 32 21 34 27 36
REMARK Flexibility Score: inf
ROOT
ATOM      1  C   UNL     1       5.596 -29.407   1.919  1.00  0.00     0.065 A 
ATOM      2  C   UNL     1       6.284 -28.180   1.872  1.00  0.00     0.208 A 
ATOM      3  O   UNL     1       6.009 -27.213   2.729  1.00  0.00    -0.463 OA
ATOM      4  C   UNL     1       5.059 -27.299   3.654  1.00  0.00     0.147 A 
ATOM      5  C   UNL     1       4.357 -28.522   3.831  1.00  0.00     0.066 A 
ATOM      6  C   UNL     1       4.681 -29.609   2.983  1.00  0.00     0.200 A 
ATOM      7  O   UNL     1       4.197 -30.754   3.198  1.00  0.00    -0.288 OA
ATOM      8  C   UNL     1       3.503 -28.673   4.934  1.00  0.00     0.020 A 
ATOM      9  C   UNL     1       3.223 -27.570   5.752  1.00  0.00     0.047 A 
ATOM     10  C   UNL     1       3.798 -26.321   5.494  1.00  0.00     0.125 A 
ATOM     11  C   UNL     1       4.774 -26.178   4.469  1.00  0.00     0.069 A 
ENDROOT
BRANCH   1  12
ATOM     12  C   UNL     1       5.893 -30.440   0.890  1.00  0.00    -0.011 A 
ATOM     13  C   UNL     1       5.266 -30.378  -0.375  1.00  0.00     0.013 A 
ATOM     14  C   UNL     1       5.592 -31.291  -1.376  1.00  0.00     0.047 A 
ATOM     15  C   UNL     1       6.572 -32.268  -1.144  1.00  0.00     0.115 A 
ATOM     16  C   UNL     1       6.867 -31.427   1.112  1.00  0.00     0.013 A 
ATOM     17  C   UNL     1       7.204 -32.338   0.104  1.00  0.00     0.047 A 
BRANCH  15  18
ATOM     18  O   UNL     1       6.918 -33.153  -2.165  1.00  0.00    -0.508 OA
ATOM     19  H   UNL     1       6.665 -32.962  -3.131  1.00  0.00     0.293 HD
ENDBRANCH  15  18
ENDBRANCH   1  12
BRANCH  11  20
ATOM     20  C   UNL     1       5.574 -24.879   4.345  1.00  0.00     0.188 C 
ATOM     21  C   UNL     1       4.701 -23.694   3.855  1.00  0.00     0.179 C 
ATOM     22  O   UNL     1       6.767 -25.126   3.612  1.00  0.00    -0.362 OA
ATOM     23  C   UNL     1       4.432 -23.857   2.359  1.00  0.00     0.177 C 
ATOM     24  C   UNL     1       7.025 -24.296   2.477  1.00  0.00     0.176 C 
ATOM     25  C   UNL     1       5.774 -23.962   1.574  1.00  0.00     0.177 C 
BRANCH  21  26
ATOM     26  O   UNL     1       5.335 -22.464   4.077  1.00  0.00    -0.387 OA
ATOM     27  H   UNL     1       5.223 -22.258   5.053  1.00  0.00     0.211 HD
ENDBRANCH  21  26
BRANCH  23  28
ATOM     28  O   UNL     1       3.644 -22.797   1.891  1.00  0.00    -0.387 OA
ATOM     29  H   UNL     1       2.780 -23.205   1.597  1.00  0.00     0.211 HD
ENDBRANCH  23  28
BRANCH  24  30
ATOM     30  C   UNL     1       8.127 -25.035   1.668  1.00  0.00     0.191 C 
BRANCH  30  31
ATOM     31  O   UNL     1       7.847 -25.107   0.293  1.00  0.00    -0.394 OA
ATOM     32  H   UNL     1       7.400 -24.253   0.055  1.00  0.00     0.210 HD
ENDBRANCH  30  31
ENDBRANCH  24  30
BRANCH  25  33
ATOM     33  O   UNL     1       5.951 -22.758   0.843  1.00  0.00    -0.388 OA
ATOM     34  H   UNL     1       6.887 -22.455   0.924  1.00  0.00     0.211 HD
ENDBRANCH  25  33
ENDBRANCH  11  20
BRANCH  10  35
ATOM     35  O   UNL     1       3.461 -25.234   6.314  1.00  0.00    -0.507 OA
ATOM     36  H   UNL     1       4.111 -24.887   6.991  1.00  0.00     0.293 HD
ENDBRANCH  10  35
TORSDOF 9
ENDMDL
MODEL 4
REMARK VINA RESULT:    -6.442     13.802     15.714
REMARK INTER + INTRA:          -8.832
REMARK INTER:                  -8.829
REMARK INTRA:                  -0.003
REMARK UNBOUND:                -0.130
REMARK SMILES O=c1c(-c2ccc(O)cc2)coc2c([C@H]3O[C@@H](CO)[C@H](O)[C@H](O)[C@@H]3O)c(O)ccc12
REMARK SMILES IDX 3 1 11 2 12 3 13 4 30 5 2 6 1 7 29 8 28 9 26 10 14 11 4 12
REMARK SMILES IDX 5 13 6 14 7 15 10 16 9 17 8 18 15 20 24 21 16 22 22 23 17 24
REMARK SMILES IDX 20 25 25 26 23 28 18 30 19 31 21 33 27 35
REMARK H PARENT 8 19 25 27 23 29 19 32 21 34 27 36
REMARK Flexibility Score: inf
ROOT
ATOM      1  C   UNL     1       1.599 -27.821   7.408  1.00  0.00     0.065 A 
ATOM      2  C   UNL     1       1.706 -27.093   6.207  1.00  0.00     0.208 A 
ATOM      3  O   UNL     1       2.605 -26.135   6.071  1.00  0.00    -0.463 OA
ATOM      4  C   UNL     1       3.433 -25.761   7.040  1.00  0.00     0.147 A 
ATOM      5  C   UNL     1       3.455 -26.482   8.265  1.00  0.00     0.066 A 
ATOM      6  C   UNL     1       2.560 -27.568   8.419  1.00  0.00     0.200 A 
ATOM      7  O   UNL     1       2.645 -28.329   9.422  1.00  0.00    -0.288 OA
ATOM      8  C   UNL     1       4.464 -26.215   9.203  1.00  0.00     0.020 A 
ATOM      9  C   UNL     1       5.334 -25.136   9.000  1.00  0.00     0.047 A 
ATOM     10  C   UNL     1       5.223 -24.328   7.863  1.00  0.00     0.125 A 
ATOM     11  C   UNL     1       4.302 -24.664   6.833  1.00  0.00     0.069 A 
ENDROOT
BRANCH   1  12
ATOM     12  C   UNL     1       0.526 -28.843   7.538  1.00  0.00    -0.011 A 
ATOM     13  C   UNL     1      -0.700 -28.506   8.153  1.00  0.00     0.013 A 
ATOM     14  C   UNL     1      -1.744 -29.427   8.213  1.00  0.00     0.047 A 
ATOM     15  C   UNL     1      -1.595 -30.696   7.633  1.00  0.00     0.115 A 
ATOM     16  C   UNL     1       0.665 -30.118   6.966  1.00  0.00     0.013 A 
ATOM     17  C   UNL     1      -0.385 -31.042   7.016  1.00  0.00     0.047 A 
BRANCH  15  18
ATOM     18  O   UNL     1      -2.658 -31.598   7.665  1.00  0.00    -0.508 OA
ATOM     19  H   UNL     1      -2.548 -32.549   7.325  1.00  0.00     0.293 HD
ENDBRANCH  15  18
ENDBRANCH   1  12
BRANCH  11  20
ATOM     20  C   UNL     1       4.347 -23.926   5.491  1.00  0.00     0.188 C 
ATOM     21  C   UNL     1       4.681 -24.874   4.309  1.00  0.00     0.179 C 
ATOM     22  O   UNL     1       5.157 -22.765   5.615  1.00  0.00    -0.362 OA
ATOM     23  C   UNL     1       6.171 -25.216   4.350  1.00  0.00     0.177 C 
ATOM     24  C   UNL     1       6.223 -22.604   4.675  1.00  0.00     0.176 C 
ATOM     25  C   UNL     1       7.028 -23.914   4.321  1.00  0.00     0.177 C 
BRANCH  21  26
ATOM     26  O   UNL     1       4.379 -24.282   3.076  1.00  0.00    -0.387 OA
ATOM     27  H   UNL     1       4.408 -25.016   2.393  1.00  0.00     0.211 HD
ENDBRANCH  21  26
BRANCH  23  28
ATOM     28  O   UNL     1       6.501 -26.072   3.291  1.00  0.00    -0.387 OA
ATOM     29  H   UNL     1       5.679 -26.141   2.726  1.00  0.00     0.211 HD
ENDBRANCH  23  28
BRANCH  24  30
ATOM     30  C   UNL     1       7.150 -21.517   5.286  1.00  0.00     0.191 C 
BRANCH  30  31
ATOM     31  O   UNL     1       6.786 -20.211   4.917  1.00  0.00    -0.394 OA
ATOM     32  H   UNL     1       6.788 -19.674   5.752  1.00  0.00     0.210 HD
ENDBRANCH  30  31
ENDBRANCH  24  30
BRANCH  25  33
ATOM     33  O   UNL     1       7.653 -23.828   3.050  1.00  0.00    -0.388 OA
ATOM     34  H   UNL     1       7.350 -24.575   2.480  1.00  0.00     0.211 HD
ENDBRANCH  25  33
ENDBRANCH  11  20
BRANCH  10  35
ATOM     35  O   UNL     1       6.089 -23.234   7.717  1.00  0.00    -0.507 OA
ATOM     36  H   UNL     1       6.979 -23.346   7.274  1.00  0.00     0.293 HD
ENDBRANCH  10  35
TORSDOF 9
ENDMDL
MODEL 5
REMARK VINA RESULT:    -6.442     13.507     15.562
REMARK INTER + INTRA:          -8.832
REMARK INTER:                  -8.711
REMARK INTRA:                  -0.122
REMARK UNBOUND:                -0.130
REMARK SMILES O=c1c(-c2ccc(O)cc2)coc2c([C@H]3O[C@@H](CO)[C@H](O)[C@H](O)[C@@H]3O)c(O)ccc12
REMARK SMILES IDX 3 1 11 2 12 3 13 4 30 5 2 6 1 7 29 8 28 9 26 10 14 11 4 12
REMARK SMILES IDX 5 13 6 14 7 15 10 16 9 17 8 18 15 20 24 21 16 22 22 23 17 24
REMARK SMILES IDX 20 25 25 26 23 28 18 30 19 31 21 33 27 35
REMARK H PARENT 8 19 25 27 23 29 19 32 21 34 27 36
REMARK Flexibility Score: inf
ROOT
ATOM      1  C   UNL     1       2.781 -28.102   5.978  1.00  0.00     0.065 A 
ATOM      2  C   UNL     1       3.559 -27.458   4.997  1.00  0.00     0.208 A 
ATOM      3  O   UNL     1       4.358 -26.455   5.314  1.00  0.00    -0.463 OA
ATOM      4  C   UNL     1       4.462 -25.957   6.541  1.00  0.00     0.147 A 
ATOM      5  C   UNL     1       3.774 -26.584   7.615  1.00  0.00     0.066 A 
ATOM      6  C   UNL     1       2.969 -27.713   7.328  1.00  0.00     0.200 A 
ATOM      7  O   UNL     1       2.462 -28.391   8.263  1.00  0.00    -0.288 OA
ATOM      8  C   UNL     1       4.044 -26.183   8.933  1.00  0.00     0.020 A 
ATOM      9  C   UNL     1       4.858 -25.067   9.166  1.00  0.00     0.047 A 
ATOM     10  C   UNL     1       5.420 -24.353   8.103  1.00  0.00     0.125 A 
ATOM     11  C   UNL     1       5.276 -24.823   6.769  1.00  0.00     0.069 A 
ENDROOT
BRANCH   1  12
ATOM     12  C   UNL     1       1.845 -29.181   5.562  1.00  0.00    -0.011 A 
ATOM     13  C   UNL     1       2.255 -30.532   5.615  1.00  0.00     0.013 A 
ATOM     14  C   UNL     1       1.366 -31.559   5.305  1.00  0.00     0.047 A 
ATOM     15  C   UNL     1       0.039 -31.259   4.961  1.00  0.00     0.115 A 
ATOM     16  C   UNL     1       0.516 -28.893   5.210  1.00  0.00     0.013 A 
ATOM     17  C   UNL     1      -0.382 -29.924   4.907  1.00  0.00     0.047 A 
BRANCH  15  18
ATOM     18  O   UNL     1      -0.853 -32.295   4.688  1.00  0.00    -0.508 OA
ATOM     19  H   UNL     1      -0.521 -33.241   4.518  1.00  0.00     0.293 HD
ENDBRANCH  15  18
ENDBRANCH   1  12
BRANCH  11  20
ATOM     20  C   UNL     1       6.086 -24.184   5.636  1.00  0.00     0.188 C 
ATOM     21  C   UNL     1       5.470 -22.844   5.156  1.00  0.00     0.179 C 
ATOM     22  O   UNL     1       6.341 -25.156   4.631  1.00  0.00    -0.362 OA
ATOM     23  C   UNL     1       4.229 -23.138   4.314  1.00  0.00     0.177 C 
ATOM     24  C   UNL     1       5.969 -24.826   3.289  1.00  0.00     0.176 C 
ATOM     25  C   UNL     1       4.589 -24.079   3.126  1.00  0.00     0.177 C 
BRANCH  21  26
ATOM     26  O   UNL     1       6.382 -22.107   4.388  1.00  0.00    -0.387 OA
ATOM     27  H   UNL     1       7.006 -21.661   5.036  1.00  0.00     0.211 HD
ENDBRANCH  21  26
BRANCH  23  28
ATOM     28  O   UNL     1       3.652 -21.942   3.867  1.00  0.00    -0.387 OA
ATOM     29  H   UNL     1       2.663 -22.082   3.902  1.00  0.00     0.211 HD
ENDBRANCH  23  28
BRANCH  24  30
ATOM     30  C   UNL     1       5.980 -26.174   2.516  1.00  0.00     0.191 C 
BRANCH  30  31
ATOM     31  O   UNL     1       6.491 -27.240   3.275  1.00  0.00    -0.394 OA
ATOM     32  H   UNL     1       5.705 -27.721   3.644  1.00  0.00     0.210 HD
ENDBRANCH  30  31
ENDBRANCH  24  30
BRANCH  25  33
ATOM     33  O   UNL     1       4.534 -23.317   1.930  1.00  0.00    -0.388 OA
ATOM     34  H   UNL     1       5.447 -23.055   1.661  1.00  0.00     0.211 HD
ENDBRANCH  25  33
ENDBRANCH  11  20
BRANCH  10  35
ATOM     35  O   UNL     1       6.196 -23.218   8.379  1.00  0.00    -0.507 OA
ATOM     36  H   UNL     1       7.018 -23.289   8.946  1.00  0.00     0.293 HD
ENDBRANCH  10  35
TORSDOF 9
ENDMDL
MODEL 6
REMARK VINA RESULT:    -6.327     15.649     18.397
REMARK INTER + INTRA:          -8.677
REMARK INTER:                  -8.572
REMARK INTRA:                  -0.105
REMARK UNBOUND:                -0.130
REMARK SMILES O=c1c(-c2ccc(O)cc2)coc2c([C@H]3O[C@@H](CO)[C@H](O)[C@H](O)[C@@H]3O)c(O)ccc12
REMARK SMILES IDX 3 1 11 2 12 3 13 4 30 5 2 6 1 7 29 8 28 9 26 10 14 11 4 12
REMARK SMILES IDX 5 13 6 14 7 15 10 16 9 17 8 18 15 20 24 21 16 22 22 23 17 24
REMARK SMILES IDX 20 25 25 26 23 28 18 30 19 31 21 33 27 35
REMARK H PARENT 8 19 25 27 23 29 19 32 21 34 27 36
REMARK Flexibility Score: inf
ROOT
ATOM      1  C   UNL     1       5.806 -26.705   4.833  1.00  0.00     0.065 A 
ATOM      2  C   UNL     1       6.130 -28.014   4.426  1.00  0.00     0.208 A 
ATOM      3  O   UNL     1       6.557 -28.258   3.201  1.00  0.00    -0.463 OA
ATOM      4  C   UNL     1       6.675 -27.325   2.263  1.00  0.00     0.147 A 
ATOM      5  C   UNL     1       6.444 -25.962   2.593  1.00  0.00     0.066 A 
ATOM      6  C   UNL     1       6.061 -25.650   3.921  1.00  0.00     0.200 A 
ATOM      7  O   UNL     1       5.992 -24.449   4.300  1.00  0.00    -0.288 OA
ATOM      8  C   UNL     1       6.764 -24.964   1.661  1.00  0.00     0.020 A 
ATOM      9  C   UNL     1       7.150 -25.323   0.363  1.00  0.00     0.047 A 
ATOM     10  C   UNL     1       7.237 -26.667  -0.014  1.00  0.00     0.125 A 
ATOM     11  C   UNL     1       7.055 -27.695   0.951  1.00  0.00     0.069 A 
ENDROOT
BRANCH   1  12
ATOM     12  C   UNL     1       5.264 -26.488   6.201  1.00  0.00    -0.011 A 
ATOM     13  C   UNL     1       3.922 -26.821   6.490  1.00  0.00     0.013 A 
ATOM     14  C   UNL     1       3.421 -26.698   7.785  1.00  0.00     0.047 A 
ATOM     15  C   UNL     1       4.259 -26.268   8.825  1.00  0.00     0.115 A 
ATOM     16  C   UNL     1       6.092 -26.053   7.249  1.00  0.00     0.013 A 
ATOM     17  C   UNL     1       5.594 -25.939   8.553  1.00  0.00     0.047 A 
BRANCH  15  18
ATOM     18  O   UNL     1       3.759 -26.185  10.124  1.00  0.00    -0.508 OA
ATOM     19  H   UNL     1       3.097 -26.872  10.475  1.00  0.00     0.293 HD
ENDBRANCH  15  18
ENDBRANCH   1  12
BRANCH  11  20
ATOM     20  C   UNL     1       7.384 -29.149   0.599  1.00  0.00     0.188 C 
ATOM     21  C   UNL     1       6.205 -29.864  -0.112  1.00  0.00     0.179 C 
ATOM     22  O   UNL     1       7.921 -29.803   1.741  1.00  0.00    -0.362 OA
ATOM     23  C   UNL     1       5.127 -30.194   0.920  1.00  0.00     0.177 C 
ATOM     24  C   UNL     1       7.300 -31.025   2.150  1.00  0.00     0.176 C 
ATOM     25  C   UNL     1       5.724 -31.052   2.075  1.00  0.00     0.177 C 
BRANCH  21  26
ATOM     26  O   UNL     1       6.624 -31.048  -0.734  1.00  0.00    -0.387 OA
ATOM     27  H   UNL     1       6.070 -31.787  -0.342  1.00  0.00     0.211 HD
ENDBRANCH  21  26
BRANCH  23  28
ATOM     28  O   UNL     1       4.048 -30.842   0.303  1.00  0.00    -0.387 OA
ATOM     29  H   UNL     1       4.433 -31.333  -0.479  1.00  0.00     0.211 HD
ENDBRANCH  23  28
BRANCH  24  30
ATOM     30  C   UNL     1       7.804 -31.278   3.598  1.00  0.00     0.191 C 
BRANCH  30  31
ATOM     31  O   UNL     1       8.692 -30.289   4.053  1.00  0.00    -0.394 OA
ATOM     32  H   UNL     1       8.792 -30.433   5.030  1.00  0.00     0.210 HD
ENDBRANCH  30  31
ENDBRANCH  24  30
BRANCH  25  33
ATOM     33  O   UNL     1       5.219 -32.372   1.949  1.00  0.00    -0.388 OA
ATOM     34  H   UNL     1       5.679 -32.966   2.589  1.00  0.00     0.211 HD
ENDBRANCH  25  33
ENDBRANCH  11  20
BRANCH  10  35
ATOM     35  O   UNL     1       7.589 -26.983  -1.334  1.00  0.00    -0.507 OA
ATOM     36  H   UNL     1       8.532 -26.871  -1.650  1.00  0.00     0.293 HD
ENDBRANCH  10  35
TORSDOF 9
ENDMDL
MODEL 7
REMARK VINA RESULT:    -6.288     15.360     18.973
REMARK INTER + INTRA:          -8.625
REMARK INTER:                  -8.411
REMARK INTRA:                  -0.213
REMARK UNBOUND:                -0.130
REMARK SMILES O=c1c(-c2ccc(O)cc2)coc2c([C@H]3O[C@@H](CO)[C@H](O)[C@H](O)[C@@H]3O)c(O)ccc12
REMARK SMILES IDX 3 1 11 2 12 3 13 4 30 5 2 6 1 7 29 8 28 9 26 10 14 11 4 12
REMARK SMILES IDX 5 13 6 14 7 15 10 16 9 17 8 18 15 20 24 21 16 22 22 23 17 24
REMARK SMILES IDX 20 25 25 26 23 28 18 30 19 31 21 33 27 35
REMARK H PARENT 8 19 25 27 23 29 19 32 21 34 27 36
REMARK Flexibility Score: inf
ROOT
ATOM      1  C   UNL     1       5.865 -26.336   3.835  1.00  0.00     0.065 A 
ATOM      2  C   UNL     1       6.582 -26.583   2.649  1.00  0.00     0.208 A 
ATOM      3  O   UNL     1       6.749 -27.814   2.199  1.00  0.00    -0.463 OA
ATOM      4  C   UNL     1       6.304 -28.894   2.832  1.00  0.00     0.147 A 
ATOM      5  C   UNL     1       5.506 -28.748   3.999  1.00  0.00     0.066 A 
ATOM      6  C   UNL     1       5.237 -27.439   4.467  1.00  0.00     0.200 A 
ATOM      7  O   UNL     1       4.414 -27.252   5.405  1.00  0.00    -0.288 OA
ATOM      8  C   UNL     1       4.873 -29.874   4.545  1.00  0.00     0.020 A 
ATOM      9  C   UNL     1       5.162 -31.148   4.039  1.00  0.00     0.047 A 
ATOM     10  C   UNL     1       6.064 -31.313   2.982  1.00  0.00     0.125 A 
ATOM     11  C   UNL     1       6.609 -30.178   2.321  1.00  0.00     0.069 A 
ENDROOT
BRANCH   1  12
ATOM     12  C   UNL     1       5.762 -24.939   4.338  1.00  0.00    -0.011 A 
ATOM     13  C   UNL     1       6.868 -24.334   4.974  1.00  0.00     0.013 A 
ATOM     14  C   UNL     1       6.815 -23.002   5.380  1.00  0.00     0.047 A 
ATOM     15  C   UNL     1       5.665 -22.238   5.132  1.00  0.00     0.115 A 
ATOM     16  C   UNL     1       4.614 -24.166   4.101  1.00  0.00     0.013 A 
ATOM     17  C   UNL     1       4.561 -22.825   4.498  1.00  0.00     0.047 A 
BRANCH  15  18
ATOM     18  O   UNL     1       5.635 -20.895   5.509  1.00  0.00    -0.508 OA
ATOM     19  H   UNL     1       6.429 -20.285   5.335  1.00  0.00     0.293 HD
ENDBRANCH  15  18
ENDBRANCH   1  12
BRANCH  11  20
ATOM     20  C   UNL     1       7.400 -30.351   1.022  1.00  0.00     0.188 C 
ATOM     21  C   UNL     1       6.647 -29.776  -0.207  1.00  0.00     0.179 C 
ATOM     22  O   UNL     1       7.846 -31.696   0.914  1.00  0.00    -0.362 OA
ATOM     23  C   UNL     1       5.513 -30.728  -0.586  1.00  0.00     0.177 C 
ATOM     24  C   UNL     1       7.523 -32.401  -0.288  1.00  0.00     0.176 C 
ATOM     25  C   UNL     1       6.070 -32.158  -0.855  1.00  0.00     0.177 C 
BRANCH  21  26
ATOM     26  O   UNL     1       7.503 -29.620  -1.305  1.00  0.00    -0.387 OA
ATOM     27  H   UNL     1       8.220 -30.316  -1.210  1.00  0.00     0.211 HD
ENDBRANCH  21  26
BRANCH  23  28
ATOM     28  O   UNL     1       4.815 -30.231  -1.696  1.00  0.00    -0.387 OA
ATOM     29  H   UNL     1       4.296 -29.444  -1.366  1.00  0.00     0.211 HD
ENDBRANCH  23  28
BRANCH  24  30
ATOM     30  C   UNL     1       7.760 -33.902   0.038  1.00  0.00     0.191 C 
BRANCH  30  31
ATOM     31  O   UNL     1       8.348 -34.106   1.298  1.00  0.00    -0.394 OA
ATOM     32  H   UNL     1       9.320 -34.226   1.136  1.00  0.00     0.210 HD
ENDBRANCH  30  31
ENDBRANCH  24  30
BRANCH  25  33
ATOM     33  O   UNL     1       5.995 -32.404  -2.251  1.00  0.00    -0.388 OA
ATOM     34  H   UNL     1       6.071 -31.552  -2.742  1.00  0.00     0.211 HD
ENDBRANCH  25  33
ENDBRANCH  11  20
BRANCH  10  35
ATOM     35  O   UNL     1       6.355 -32.609   2.531  1.00  0.00    -0.507 OA
ATOM     36  H   UNL     1       7.071 -32.761   1.848  1.00  0.00     0.293 HD
ENDBRANCH  10  35
TORSDOF 9
ENDMDL
MODEL 8
REMARK VINA RESULT:    -6.257     14.335     16.293
REMARK INTER + INTRA:          -8.582
REMARK INTER:                  -8.305
REMARK INTRA:                  -0.278
REMARK UNBOUND:                -0.130
REMARK SMILES O=c1c(-c2ccc(O)cc2)coc2c([C@H]3O[C@@H](CO)[C@H](O)[C@H](O)[C@@H]3O)c(O)ccc12
REMARK SMILES IDX 3 1 11 2 12 3 13 4 30 5 2 6 1 7 29 8 28 9 26 10 14 11 4 12
REMARK SMILES IDX 5 13 6 14 7 15 10 16 9 17 8 18 15 20 24 21 16 22 22 23 17 24
REMARK SMILES IDX 20 25 25 26 23 28 18 30 19 31 21 33 27 35
REMARK H PARENT 8 19 25 27 23 29 19 32 21 34 27 36
REMARK Flexibility Score: inf
ROOT
ATOM      1  C   UNL     1       3.794 -26.002   5.963  1.00  0.00     0.065 A 
ATOM      2  C   UNL     1       2.940 -26.315   7.038  1.00  0.00     0.208 A 
ATOM      3  O   UNL     1       2.417 -27.522   7.161  1.00  0.00    -0.463 OA
ATOM      4  C   UNL     1       2.614 -28.501   6.284  1.00  0.00     0.147 A 
ATOM      5  C   UNL     1       3.518 -28.308   5.205  1.00  0.00     0.066 A 
ATOM      6  C   UNL     1       4.161 -27.052   5.085  1.00  0.00     0.200 A 
ATOM      7  O   UNL     1       5.080 -26.882   4.238  1.00  0.00    -0.288 OA
ATOM      8  C   UNL     1       3.877 -29.402   4.403  1.00  0.00     0.020 A 
ATOM      9  C   UNL     1       3.221 -30.629   4.568  1.00  0.00     0.047 A 
ATOM     10  C   UNL     1       2.222 -30.785   5.534  1.00  0.00     0.125 A 
ATOM     11  C   UNL     1       1.940 -29.734   6.450  1.00  0.00     0.069 A 
ENDROOT
BRANCH   1  12
ATOM     12  C   UNL     1       4.303 -24.610   5.830  1.00  0.00    -0.011 A 
ATOM     13  C   UNL     1       5.359 -24.162   6.655  1.00  0.00     0.013 A 
ATOM     14  C   UNL     1       5.900 -22.889   6.489  1.00  0.00     0.047 A 
ATOM     15  C   UNL     1       5.417 -22.045   5.477  1.00  0.00     0.115 A 
ATOM     16  C   UNL     1       3.823 -23.754   4.825  1.00  0.00     0.013 A 
ATOM     17  C   UNL     1       4.372 -22.479   4.650  1.00  0.00     0.047 A 
BRANCH  15  18
ATOM     18  O   UNL     1       5.990 -20.788   5.296  1.00  0.00    -0.508 OA
ATOM     19  H   UNL     1       5.514 -19.945   5.608  1.00  0.00     0.293 HD
ENDBRANCH  15  18
ENDBRANCH   1  12
BRANCH  11  20
ATOM     20  C   UNL     1       1.024 -29.985   7.652  1.00  0.00     0.188 C 
ATOM     21  C   UNL     1       1.822 -30.261   8.953  1.00  0.00     0.179 C 
ATOM     22  O   UNL     1       0.038 -30.947   7.302  1.00  0.00    -0.362 OA
ATOM     23  C   UNL     1       2.397 -31.677   8.895  1.00  0.00     0.177 C 
ATOM     24  C   UNL     1      -0.094 -32.091   8.151  1.00  0.00     0.176 C 
ATOM     25  C   UNL     1       1.258 -32.716   8.673  1.00  0.00     0.177 C 
BRANCH  21  26
ATOM     26  O   UNL     1       1.009 -30.140  10.088  1.00  0.00    -0.387 OA
ATOM     27  H   UNL     1       1.047 -29.177  10.365  1.00  0.00     0.211 HD
ENDBRANCH  21  26
BRANCH  23  28
ATOM     28  O   UNL     1       3.123 -31.951  10.062  1.00  0.00    -0.387 OA
ATOM     29  H   UNL     1       2.755 -32.809  10.421  1.00  0.00     0.211 HD
ENDBRANCH  23  28
BRANCH  24  30
ATOM     30  C   UNL     1      -0.916 -33.122   7.329  1.00  0.00     0.191 C 
BRANCH  30  31
ATOM     31  O   UNL     1      -1.282 -32.647   6.059  1.00  0.00    -0.394 OA
ATOM     32  H   UNL     1      -1.546 -31.698   6.181  1.00  0.00     0.210 HD
ENDBRANCH  30  31
ENDBRANCH  24  30
BRANCH  25  33
ATOM     33  O   UNL     1       1.079 -33.438   9.882  1.00  0.00    -0.388 OA
ATOM     34  H   UNL     1       0.123 -33.446  10.125  1.00  0.00     0.211 HD
ENDBRANCH  25  33
ENDBRANCH  11  20
BRANCH  10  35
ATOM     35  O   UNL     1       1.562 -32.019   5.640  1.00  0.00    -0.507 OA
ATOM     36  H   UNL     1       1.833 -32.682   6.339  1.00  0.00     0.293 HD
ENDBRANCH  10  35
TORSDOF 9
ENDMDL
MODEL 9
REMARK VINA RESULT:    -6.177      3.462      8.764
REMARK INTER + INTRA:          -8.475
REMARK INTER:                  -8.310
REMARK INTRA:                  -0.164
REMARK UNBOUND:                -0.130
REMARK SMILES O=c1c(-c2ccc(O)cc2)coc2c([C@H]3O[C@@H](CO)[C@H](O)[C@H](O)[C@@H]3O)c(O)ccc12
REMARK SMILES IDX 3 1 11 2 12 3 13 4 30 5 2 6 1 7 29 8 28 9 26 10 14 11 4 12
REMARK SMILES IDX 5 13 6 14 7 15 10 16 9 17 8 18 15 20 24 21 16 22 22 23 17 24
REMARK SMILES IDX 20 25 25 26 23 28 18 30 19 31 21 33 27 35
REMARK H PARENT 8 19 25 27 23 29 19 32 21 34 27 36
REMARK Flexibility Score: inf
ROOT
ATOM      1  C   UNL     1      -9.392 -22.274  -0.530  1.00  0.00     0.065 A 
ATOM      2  C   UNL     1     -10.287 -23.255  -0.063  1.00  0.00     0.208 A 
ATOM      3  O   UNL     1     -10.135 -24.525  -0.390  1.00  0.00    -0.463 OA
ATOM      4  C   UNL     1      -9.175 -24.967  -1.195  1.00  0.00     0.147 A 
ATOM      5  C   UNL     1      -8.177 -24.068  -1.660  1.00  0.00     0.066 A 
ATOM      6  C   UNL     1      -8.262 -22.711  -1.266  1.00  0.00     0.200 A 
ATOM      7  O   UNL     1      -7.322 -21.910  -1.526  1.00  0.00    -0.288 OA
ATOM      8  C   UNL     1      -7.059 -24.573  -2.341  1.00  0.00     0.020 A 
ATOM      9  C   UNL     1      -7.016 -25.927  -2.698  1.00  0.00     0.047 A 
ATOM     10  C   UNL     1      -8.068 -26.790  -2.372  1.00  0.00     0.125 A 
ATOM     11  C   UNL     1      -9.144 -26.334  -1.562  1.00  0.00     0.069 A 
ENDROOT
BRANCH   1  12
ATOM     12  C   UNL     1      -9.644 -20.847  -0.192  1.00  0.00    -0.011 A 
ATOM     13  C   UNL     1      -9.544 -20.411   1.148  1.00  0.00     0.013 A 
ATOM     14  C   UNL     1      -9.700 -19.064   1.471  1.00  0.00     0.047 A 
ATOM     15  C   UNL     1      -9.931 -18.120   0.459  1.00  0.00     0.115 A 
ATOM     16  C   UNL     1      -9.882 -19.894  -1.195  1.00  0.00     0.013 A 
ATOM     17  C   UNL     1     -10.028 -18.540  -0.874  1.00  0.00     0.047 A 
BRANCH  15  18
ATOM     18  O   UNL     1     -10.048 -16.771   0.789  1.00  0.00    -0.508 OA
ATOM     19  H   UNL     1     -10.395 -16.483   1.700  1.00  0.00     0.293 HD
ENDBRANCH  15  18
ENDBRANCH   1  12
BRANCH  11  20
ATOM     20  C   UNL     1     -10.165 -27.330  -1.006  1.00  0.00     0.188 C 
ATOM     21  C   UNL     1      -9.997 -27.557   0.519  1.00  0.00     0.179 C 
ATOM     22  O   UNL     1     -10.179 -28.497  -1.818  1.00  0.00    -0.362 OA
ATOM     23  C   UNL     1      -8.771 -28.439   0.760  1.00  0.00     0.177 C 
ATOM     24  C   UNL     1      -9.993 -29.755  -1.164  1.00  0.00     0.176 C 
ATOM     25  C   UNL     1      -8.904 -29.779  -0.023  1.00  0.00     0.177 C 
BRANCH  21  26
ATOM     26  O   UNL     1     -11.125 -28.178   1.072  1.00  0.00    -0.387 OA
ATOM     27  H   UNL     1     -11.888 -27.537   0.957  1.00  0.00     0.211 HD
ENDBRANCH  21  26
BRANCH  23  28
ATOM     28  O   UNL     1      -8.596 -28.660   2.133  1.00  0.00    -0.387 OA
ATOM     29  H   UNL     1      -7.698 -29.087   2.231  1.00  0.00     0.211 HD
ENDBRANCH  23  28
BRANCH  24  30
ATOM     30  C   UNL     1      -9.650 -30.761  -2.297  1.00  0.00     0.191 C 
BRANCH  30  31
ATOM     31  O   UNL     1      -9.443 -32.069  -1.829  1.00  0.00    -0.394 OA
ATOM     32  H   UNL     1      -9.138 -31.983  -0.888  1.00  0.00     0.210 HD
ENDBRANCH  30  31
ENDBRANCH  24  30
BRANCH  25  33
ATOM     33  O   UNL     1      -9.140 -30.816   0.917  1.00  0.00    -0.388 OA
ATOM     34  H   UNL     1      -9.224 -30.430   1.822  1.00  0.00     0.211 HD
ENDBRANCH  25  33
ENDBRANCH  11  20
BRANCH  10  35
ATOM     35  O   UNL     1      -8.003 -28.129  -2.783  1.00  0.00    -0.507 OA
ATOM     36  H   UNL     1      -8.650 -28.804  -2.424  1.00  0.00     0.293 HD
ENDBRANCH  10  35
TORSDOF 9
ENDMDL
