MODEL 1
REMARK VINA RESULT:    -6.032      0.000      0.000
REMARK INTER + INTRA:          -9.140
REMARK INTER:                  -8.500
REMARK INTRA:                  -0.640
REMARK UNBOUND:                -0.640
REMARK SMILES O=C(C=Cc1ccc(O)cc1)CC(=O)C=Cc1ccc(O)cc1
REMARK SMILES IDX 12 1 2 2 1 3 3 4 4 5 5 6 6 7 7 8 8 9 11 10 10 11 9 12 13 14
REMARK SMILES IDX 14 15 15 16 16 17 17 18 18 19 23 20 19 21 22 22 20 23 21 24
REMARK H PARENT 9 13 21 25
REMARK Flexibility Score: inf
ROOT
ATOM      1  C   UNL     1       8.957  11.029  13.752  1.00  0.00     0.160 C 
ENDROOT
BRANCH   1   2
ATOM      2  C   UNL     1       8.987  11.546  15.165  1.00  0.00     0.163 C 
ATOM      3  O   UNL     1       8.875  12.788  15.349  1.00  0.00    -0.294 OA
BRANCH   2   4
ATOM      4  C   UNL     1       9.189  10.681  16.351  1.00  0.00     0.048 C 
ATOM      5  C   UNL     1       9.798  11.086  17.476  1.00  0.00     0.012 C 
BRANCH   5   6
ATOM      6  C   UNL     1       9.978  10.226  18.671  1.00  0.00    -0.025 A 
ATOM      7  C   UNL     1       9.347   8.973  18.809  1.00  0.00     0.012 A 
ATOM      8  C   UNL     1       9.560   8.195  19.953  1.00  0.00     0.047 A 
ATOM      9  C   UNL     1      10.408   8.650  20.966  1.00  0.00     0.115 A 
ATOM     10  C   UNL     1      10.841  10.666  19.690  1.00  0.00     0.012 A 
ATOM     11  C   UNL     1      11.050   9.887  20.832  1.00  0.00     0.047 A 
BRANCH   9  12
ATOM     12  O   UNL     1      10.609   7.864  22.099  1.00  0.00    -0.508 OA
ATOM     13  H   UNL     1      10.710   8.278  23.019  1.00  0.00     0.293 HD
ENDBRANCH   9  12
ENDBRANCH   5   6
ENDBRANCH   2   4
ENDBRANCH   1   2
BRANCH   1  14
ATOM     14  C   UNL     1      10.359  10.901  13.219  1.00  0.00     0.163 C 
ATOM     15  O   UNL     1      11.297  11.458  13.849  1.00  0.00    -0.294 OA
BRANCH  14  16
ATOM     16  C   UNL     1      10.703  10.022  12.083  1.00  0.00     0.048 C 
ATOM     17  C   UNL     1      11.108  10.429  10.870  1.00  0.00     0.012 C 
BRANCH  17  18
ATOM     18  C   UNL     1      11.437  11.822  10.500  1.00  0.00    -0.025 A 
ATOM     19  C   UNL     1      12.714  12.322  10.793  1.00  0.00     0.012 A 
ATOM     20  C   UNL     1      10.480  12.676   9.923  1.00  0.00     0.012 A 
ATOM     21  C   UNL     1      13.048  13.641  10.472  1.00  0.00     0.047 A 
ATOM     22  C   UNL     1      10.814  13.995   9.603  1.00  0.00     0.047 A 
ATOM     23  C   UNL     1      12.101  14.480   9.874  1.00  0.00     0.115 A 
BRANCH  23  24
ATOM     24  O   UNL     1      12.447  15.792   9.558  1.00  0.00    -0.508 OA
ATOM     25  H   UNL     1      12.235  16.192   8.652  1.00  0.00     0.293 HD
ENDBRANCH  23  24
ENDBRANCH  17  18
ENDBRANCH  14  16
ENDBRANCH   1  14
TORSDOF 8
ENDMDL
MODEL 2
REMARK VINA RESULT:    -5.948      1.685      9.433
REMARK INTER + INTRA:          -9.022
REMARK INTER:                  -8.280
REMARK INTRA:                  -0.742
REMARK UNBOUND:                -0.640
REMARK SMILES O=C(C=Cc1ccc(O)cc1)CC(=O)C=Cc1ccc(O)cc1
REMARK SMILES IDX 12 1 2 2 1 3 3 4 4 5 5 6 6 7 7 8 8 9 11 10 10 11 9 12 13 14
REMARK SMILES IDX 14 15 15 16 16 17 17 18 18 19 23 20 19 21 22 22 20 23 21 24
REMARK H PARENT 9 13 21 25
REMARK Flexibility Score: inf
ROOT
ATOM      1  C   UNL     1       8.875  11.799  16.741  1.00  0.00     0.160 C 
ENDROOT
BRANCH   1   2
ATOM      2  C   UNL     1       9.136  11.458  15.299  1.00  0.00     0.163 C 
ATOM      3  O   UNL     1       8.947  10.270  14.923  1.00  0.00    -0.294 OA
BRANCH   2   4
ATOM      4  C   UNL     1       9.651  12.430  14.307  1.00  0.00     0.048 C 
ATOM      5  C   UNL     1      10.497  12.110  13.315  1.00  0.00     0.012 C 
BRANCH   5   6
ATOM      6  C   UNL     1      10.992  13.079  12.308  1.00  0.00    -0.025 A 
ATOM      7  C   UNL     1      10.331  14.295  12.033  1.00  0.00     0.012 A 
ATOM      8  C   UNL     1      10.848  15.180  11.080  1.00  0.00     0.047 A 
ATOM      9  C   UNL     1      12.028  14.873  10.399  1.00  0.00     0.115 A 
ATOM     10  C   UNL     1      12.187  12.787  11.627  1.00  0.00     0.012 A 
ATOM     11  C   UNL     1      12.698  13.675  10.675  1.00  0.00     0.047 A 
BRANCH   9  12
ATOM     12  O   UNL     1      12.528  15.764   9.452  1.00  0.00    -0.508 OA
ATOM     13  H   UNL     1      12.238  15.724   8.482  1.00  0.00     0.293 HD
ENDBRANCH   9  12
ENDBRANCH   5   6
ENDBRANCH   2   4
ENDBRANCH   1   2
BRANCH   1  14
ATOM     14  C   UNL     1      10.173  12.096  17.445  1.00  0.00     0.163 C 
ATOM     15  O   UNL     1      11.233  11.588  16.994  1.00  0.00    -0.294 OA
BRANCH  14  16
ATOM     16  C   UNL     1      10.279  13.080  18.542  1.00  0.00     0.048 C 
ATOM     17  C   UNL     1      10.274  12.798  19.854  1.00  0.00     0.012 C 
BRANCH  17  18
ATOM     18  C   UNL     1      10.322  11.441  20.437  1.00  0.00    -0.025 A 
ATOM     19  C   UNL     1      11.550  10.766  20.492  1.00  0.00     0.012 A 
ATOM     20  C   UNL     1       9.157  10.786  20.877  1.00  0.00     0.012 A 
ATOM     21  C   UNL     1      11.623   9.474  21.021  1.00  0.00     0.047 A 
ATOM     22  C   UNL     1       9.232   9.494  21.406  1.00  0.00     0.047 A 
ATOM     23  C   UNL     1      10.467   8.836  21.482  1.00  0.00     0.115 A 
BRANCH  23  24
ATOM     24  O   UNL     1      10.554   7.549  22.009  1.00  0.00    -0.508 OA
ATOM     25  H   UNL     1      10.886   7.384  22.952  1.00  0.00     0.293 HD
ENDBRANCH  23  24
ENDBRANCH  17  18
ENDBRANCH  14  16
ENDBRANCH   1  14
TORSDOF 8
ENDMDL
MODEL 3
REMARK VINA RESULT:    -5.948      4.451      6.026
REMARK INTER + INTRA:          -9.021
REMARK INTER:                  -7.938
REMARK INTRA:                  -1.084
REMARK UNBOUND:                -0.640
REMARK SMILES O=C(C=Cc1ccc(O)cc1)CC(=O)C=Cc1ccc(O)cc1
REMARK SMILES IDX 12 1 2 2 1 3 3 4 4 5 5 6 6 7 7 8 8 9 11 10 10 11 9 12 13 14
REMARK SMILES IDX 14 15 15 16 16 17 17 18 18 19 23 20 19 21 22 22 20 23 21 24
REMARK H PARENT 9 13 21 25
REMARK Flexibility Score: inf
ROOT
ATOM      1  C   UNL     1      11.518  11.701  14.606  1.00  0.00     0.160 C 
ENDROOT
BRANCH   1   2
ATOM      2  C   UNL     1      12.670  11.236  13.758  1.00  0.00     0.163 C 
ATOM      3  O   UNL     1      12.429  10.452  12.801  1.00  0.00    -0.294 OA
BRANCH   2   4
ATOM      4  C   UNL     1      14.081  11.609  14.015  1.00  0.00     0.048 C 
ATOM      5  C   UNL     1      14.660  11.553  15.225  1.00  0.00     0.012 C 
BRANCH   5   6
ATOM      6  C   UNL     1      16.079  11.904  15.477  1.00  0.00    -0.025 A 
ATOM      7  C   UNL     1      16.593  12.106  16.775  1.00  0.00     0.012 A 
ATOM      8  C   UNL     1      17.944  12.424  16.958  1.00  0.00     0.047 A 
ATOM      9  C   UNL     1      18.798  12.534  15.857  1.00  0.00     0.115 A 
ATOM     10  C   UNL     1      16.950  12.003  14.379  1.00  0.00     0.012 A 
ATOM     11  C   UNL     1      18.298  12.322  14.567  1.00  0.00     0.047 A 
BRANCH   9  12
ATOM     12  O   UNL     1      20.139  12.853  16.057  1.00  0.00    -0.508 OA
ATOM     13  H   UNL     1      20.730  12.301  16.667  1.00  0.00     0.293 HD
ENDBRANCH   9  12
ENDBRANCH   5   6
ENDBRANCH   2   4
ENDBRANCH   1   2
BRANCH   1  14
ATOM     14  C   UNL     1      10.249  11.705  13.797  1.00  0.00     0.163 C 
ATOM     15  O   UNL     1       9.596  10.633  13.693  1.00  0.00    -0.294 OA
BRANCH  14  16
ATOM     16  C   UNL     1       9.653  12.943  13.253  1.00  0.00     0.048 C 
ATOM     17  C   UNL     1      10.029  13.565  12.124  1.00  0.00     0.012 C 
BRANCH  17  18
ATOM     18  C   UNL     1      10.997  13.040  11.139  1.00  0.00    -0.025 A 
ATOM     19  C   UNL     1      10.596  12.013  10.270  1.00  0.00     0.012 A 
ATOM     20  C   UNL     1      12.326  13.496  11.097  1.00  0.00     0.012 A 
ATOM     21  C   UNL     1      11.495  11.483   9.340  1.00  0.00     0.047 A 
ATOM     22  C   UNL     1      13.225  12.965  10.166  1.00  0.00     0.047 A 
ATOM     23  C   UNL     1      12.810  11.959   9.283  1.00  0.00     0.115 A 
BRANCH  23  24
ATOM     24  O   UNL     1      13.695  11.424   8.351  1.00  0.00    -0.508 OA
ATOM     25  H   UNL     1      13.630  11.653   7.366  1.00  0.00     0.293 HD
ENDBRANCH  23  24
ENDBRANCH  17  18
ENDBRANCH  14  16
ENDBRANCH   1  14
TORSDOF 8
ENDMDL
MODEL 4
REMARK VINA RESULT:    -5.834      1.850      2.547
REMARK INTER + INTRA:          -8.861
REMARK INTER:                  -8.585
REMARK INTRA:                  -0.276
REMARK UNBOUND:                -0.640
REMARK SMILES O=C(C=Cc1ccc(O)cc1)CC(=O)C=Cc1ccc(O)cc1
REMARK SMILES IDX 12 1 2 2 1 3 3 4 4 5 5 6 6 7 7 8 8 9 11 10 10 11 9 12 13 14
REMARK SMILES IDX 14 15 15 16 16 17 17 18 18 19 23 20 19 21 22 22 20 23 21 24
REMARK H PARENT 9 13 21 25
REMARK Flexibility Score: inf
ROOT
ATOM      1  C   UNL     1       8.891  12.965  14.312  1.00  0.00     0.160 C 
ENDROOT
BRANCH   1   2
ATOM      2  C   UNL     1       9.927  11.993  14.810  1.00  0.00     0.163 C 
ATOM      3  O   UNL     1      10.746  11.515  13.980  1.00  0.00    -0.294 OA
BRANCH   2   4
ATOM      4  C   UNL     1      10.006  11.528  16.214  1.00  0.00     0.048 C 
ATOM      5  C   UNL     1       9.128  10.679  16.772  1.00  0.00     0.012 C 
BRANCH   5   6
ATOM      6  C   UNL     1       9.223  10.195  18.170  1.00  0.00    -0.025 A 
ATOM      7  C   UNL     1       9.290  11.070  19.275  1.00  0.00     0.012 A 
ATOM      8  C   UNL     1       9.366  10.560  20.576  1.00  0.00     0.047 A 
ATOM      9  C   UNL     1       9.367   9.180  20.794  1.00  0.00     0.115 A 
ATOM     10  C   UNL     1       9.209   8.809  18.403  1.00  0.00     0.012 A 
ATOM     11  C   UNL     1       9.286   8.305  19.705  1.00  0.00     0.047 A 
BRANCH   9  12
ATOM     12  O   UNL     1       9.445   8.690  22.096  1.00  0.00    -0.508 OA
ATOM     13  H   UNL     1      10.333   8.445  22.517  1.00  0.00     0.293 HD
ENDBRANCH   9  12
ENDBRANCH   5   6
ENDBRANCH   2   4
ENDBRANCH   1   2
BRANCH   1  14
ATOM     14  C   UNL     1       9.197  13.365  12.893  1.00  0.00     0.163 C 
ATOM     15  O   UNL     1       8.919  12.560  11.966  1.00  0.00    -0.294 OA
BRANCH  14  16
ATOM     16  C   UNL     1       9.660  14.720  12.529  1.00  0.00     0.048 C 
ATOM     17  C   UNL     1      10.656  15.006  11.676  1.00  0.00     0.012 C 
BRANCH  17  18
ATOM     18  C   UNL     1      11.363  14.025  10.826  1.00  0.00    -0.025 A 
ATOM     19  C   UNL     1      12.400  13.262  11.383  1.00  0.00     0.012 A 
ATOM     20  C   UNL     1      11.066  13.887   9.458  1.00  0.00     0.012 A 
ATOM     21  C   UNL     1      13.099  12.340  10.598  1.00  0.00     0.047 A 
ATOM     22  C   UNL     1      11.766  12.965   8.674  1.00  0.00     0.047 A 
ATOM     23  C   UNL     1      12.784  12.187   9.244  1.00  0.00     0.115 A 
BRANCH  23  24
ATOM     24  O   UNL     1      13.486  11.263   8.474  1.00  0.00    -0.508 OA
ATOM     25  H   UNL     1      13.747  10.356   8.841  1.00  0.00     0.293 HD
ENDBRANCH  23  24
ENDBRANCH  17  18
ENDBRANCH  14  16
ENDBRANCH   1  14
TORSDOF 8
ENDMDL
MODEL 5
REMARK VINA RESULT:    -5.783      4.647      6.163
REMARK INTER + INTRA:          -8.789
REMARK INTER:                  -8.329
REMARK INTRA:                  -0.461
REMARK UNBOUND:                -0.640
REMARK SMILES O=C(C=Cc1ccc(O)cc1)CC(=O)C=Cc1ccc(O)cc1
REMARK SMILES IDX 12 1 2 2 1 3 3 4 4 5 5 6 6 7 7 8 8 9 11 10 10 11 9 12 13 14
REMARK SMILES IDX 14 15 15 16 16 17 17 18 18 19 23 20 19 21 22 22 20 23 21 24
REMARK H PARENT 9 13 21 25
REMARK Flexibility Score: inf
ROOT
ATOM      1  C   UNL     1      12.585  11.801  12.232  1.00  0.00     0.160 C 
ENDROOT
BRANCH   1   2
ATOM      2  C   UNL     1      13.133  11.671  13.628  1.00  0.00     0.163 C 
ATOM      3  O   UNL     1      12.355  11.285  14.541  1.00  0.00    -0.294 OA
BRANCH   2   4
ATOM      4  C   UNL     1      14.524  12.020  13.998  1.00  0.00     0.048 C 
ATOM      5  C   UNL     1      15.110  11.642  15.145  1.00  0.00     0.012 C 
BRANCH   5   6
ATOM      6  C   UNL     1      16.511  11.970  15.503  1.00  0.00    -0.025 A 
ATOM      7  C   UNL     1      16.934  12.148  16.837  1.00  0.00     0.012 A 
ATOM      8  C   UNL     1      18.272  12.445  17.120  1.00  0.00     0.047 A 
ATOM      9  C   UNL     1      19.204  12.558  16.086  1.00  0.00     0.115 A 
ATOM     10  C   UNL     1      17.461  12.071  14.471  1.00  0.00     0.012 A 
ATOM     11  C   UNL     1      18.796  12.369  14.760  1.00  0.00     0.047 A 
BRANCH   9  12
ATOM     12  O   UNL     1      20.531  12.856  16.385  1.00  0.00    -0.508 OA
ATOM     13  H   UNL     1      20.799  13.235  17.286  1.00  0.00     0.293 HD
ENDBRANCH   9  12
ENDBRANCH   5   6
ENDBRANCH   2   4
ENDBRANCH   1   2
BRANCH   1  14
ATOM     14  C   UNL     1      11.096  11.580  12.238  1.00  0.00     0.163 C 
ATOM     15  O   UNL     1      10.641  10.526  11.720  1.00  0.00    -0.294 OA
BRANCH  14  16
ATOM     16  C   UNL     1      10.161  12.464  12.963  1.00  0.00     0.048 C 
ATOM     17  C   UNL     1       9.717  13.656  12.536  1.00  0.00     0.012 C 
BRANCH  17  18
ATOM     18  C   UNL     1       9.955  14.228  11.194  1.00  0.00    -0.025 A 
ATOM     19  C   UNL     1      11.099  15.011  10.980  1.00  0.00     0.012 A 
ATOM     20  C   UNL     1       9.031  14.061  10.147  1.00  0.00     0.012 A 
ATOM     21  C   UNL     1      11.342  15.581   9.727  1.00  0.00     0.047 A 
ATOM     22  C   UNL     1       9.275  14.631   8.894  1.00  0.00     0.047 A 
ATOM     23  C   UNL     1      10.434  15.390   8.680  1.00  0.00     0.115 A 
BRANCH  23  24
ATOM     24  O   UNL     1      10.688  15.961   7.435  1.00  0.00    -0.508 OA
ATOM     25  H   UNL     1      10.968  15.398   6.641  1.00  0.00     0.293 HD
ENDBRANCH  23  24
ENDBRANCH  17  18
ENDBRANCH  14  16
ENDBRANCH   1  14
TORSDOF 8
ENDMDL
MODEL 6
REMARK VINA RESULT:    -5.768      4.241      5.086
REMARK INTER + INTRA:          -8.768
REMARK INTER:                  -7.680
REMARK INTRA:                  -1.088
REMARK UNBOUND:                -0.640
REMARK SMILES O=C(C=Cc1ccc(O)cc1)CC(=O)C=Cc1ccc(O)cc1
REMARK SMILES IDX 12 1 2 2 1 3 3 4 4 5 5 6 6 7 7 8 8 9 11 10 10 11 9 12 13 14
REMARK SMILES IDX 14 15 15 16 16 17 17 18 18 19 23 20 19 21 22 22 20 23 21 24
REMARK H PARENT 9 13 21 25
REMARK Flexibility Score: inf
ROOT
ATOM      1  C   UNL     1      12.267  10.559  13.020  1.00  0.00     0.160 C 
ENDROOT
BRANCH   1   2
ATOM      2  C   UNL     1      13.217  11.660  13.411  1.00  0.00     0.163 C 
ATOM      3  O   UNL     1      13.370  12.626  12.616  1.00  0.00    -0.294 OA
BRANCH   2   4
ATOM      4  C   UNL     1      14.019  11.646  14.656  1.00  0.00     0.048 C 
ATOM      5  C   UNL     1      15.297  12.049  14.726  1.00  0.00     0.012 C 
BRANCH   5   6
ATOM      6  C   UNL     1      16.091  12.058  15.979  1.00  0.00    -0.025 A 
ATOM      7  C   UNL     1      17.501  12.111  15.986  1.00  0.00     0.012 A 
ATOM      8  C   UNL     1      18.201  12.129  17.197  1.00  0.00     0.047 A 
ATOM      9  C   UNL     1      17.511  12.105  18.411  1.00  0.00     0.115 A 
ATOM     10  C   UNL     1      15.407  12.049  17.207  1.00  0.00     0.012 A 
ATOM     11  C   UNL     1      16.112  12.067  18.414  1.00  0.00     0.047 A 
BRANCH   9  12
ATOM     12  O   UNL     1      18.224  12.122  19.609  1.00  0.00    -0.508 OA
ATOM     13  H   UNL     1      19.233  12.205  19.623  1.00  0.00     0.293 HD
ENDBRANCH   9  12
ENDBRANCH   5   6
ENDBRANCH   2   4
ENDBRANCH   1   2
BRANCH   1  14
ATOM     14  C   UNL     1      10.850  10.967  13.326  1.00  0.00     0.163 C 
ATOM     15  O   UNL     1      10.625  11.623  14.377  1.00  0.00    -0.294 OA
BRANCH  14  16
ATOM     16  C   UNL     1       9.740  10.770  12.372  1.00  0.00     0.048 C 
ATOM     17  C   UNL     1       9.435  11.577  11.344  1.00  0.00     0.012 C 
BRANCH  17  18
ATOM     18  C   UNL     1      10.250  12.721  10.883  1.00  0.00    -0.025 A 
ATOM     19  C   UNL     1      11.200  12.517   9.871  1.00  0.00     0.012 A 
ATOM     20  C   UNL     1      10.143  13.990  11.480  1.00  0.00     0.012 A 
ATOM     21  C   UNL     1      11.999  13.575   9.428  1.00  0.00     0.047 A 
ATOM     22  C   UNL     1      10.943  15.047  11.036  1.00  0.00     0.047 A 
ATOM     23  C   UNL     1      11.872  14.843  10.006  1.00  0.00     0.115 A 
BRANCH  23  24
ATOM     24  O   UNL     1      12.672  15.889   9.554  1.00  0.00    -0.508 OA
ATOM     25  H   UNL     1      13.600  16.046   9.928  1.00  0.00     0.293 HD
ENDBRANCH  23  24
ENDBRANCH  17  18
ENDBRANCH  14  16
ENDBRANCH   1  14
TORSDOF 8
ENDMDL
MODEL 7
REMARK VINA RESULT:    -5.687      1.944      2.649
REMARK INTER + INTRA:          -8.654
REMARK INTER:                  -7.854
REMARK INTRA:                  -0.800
REMARK UNBOUND:                -0.640
REMARK SMILES O=C(C=Cc1ccc(O)cc1)CC(=O)C=Cc1ccc(O)cc1
REMARK SMILES IDX 12 1 2 2 1 3 3 4 4 5 5 6 6 7 7 8 8 9 11 10 10 11 9 12 13 14
REMARK SMILES IDX 14 15 15 16 16 17 17 18 18 19 23 20 19 21 22 22 20 23 21 24
REMARK H PARENT 9 13 21 25
REMARK Flexibility Score: inf
ROOT
ATOM      1  C   UNL     1      10.628  12.367  12.937  1.00  0.00     0.160 C 
ENDROOT
BRANCH   1   2
ATOM      2  C   UNL     1       9.991  11.531  14.015  1.00  0.00     0.163 C 
ATOM      3  O   UNL     1       9.052  10.755  13.692  1.00  0.00    -0.294 OA
BRANCH   2   4
ATOM      4  C   UNL     1      10.374  11.606  15.444  1.00  0.00     0.048 C 
ATOM      5  C   UNL     1       9.492  11.604  16.455  1.00  0.00     0.012 C 
BRANCH   5   6
ATOM      6  C   UNL     1       9.878  11.654  17.886  1.00  0.00    -0.025 A 
ATOM      7  C   UNL     1      10.046  10.494  18.670  1.00  0.00     0.012 A 
ATOM      8  C   UNL     1      10.423  10.597  20.014  1.00  0.00     0.047 A 
ATOM      9  C   UNL     1      10.646  11.850  20.590  1.00  0.00     0.115 A 
ATOM     10  C   UNL     1      10.119  12.909  18.473  1.00  0.00     0.012 A 
ATOM     11  C   UNL     1      10.495  13.006  19.816  1.00  0.00     0.047 A 
BRANCH   9  12
ATOM     12  O   UNL     1      11.019  11.935  21.929  1.00  0.00    -0.508 OA
ATOM     13  H   UNL     1      10.847  11.174  22.576  1.00  0.00     0.293 HD
ENDBRANCH   9  12
ENDBRANCH   5   6
ENDBRANCH   2   4
ENDBRANCH   1   2
BRANCH   1  14
ATOM     14  C   UNL     1      11.979  11.808  12.579  1.00  0.00     0.163 C 
ATOM     15  O   UNL     1      12.081  10.572  12.358  1.00  0.00    -0.294 OA
BRANCH  14  16
ATOM     16  C   UNL     1      13.154  12.664  12.321  1.00  0.00     0.048 C 
ATOM     17  C   UNL     1      13.345  13.429  11.234  1.00  0.00     0.012 C 
BRANCH  17  18
ATOM     18  C   UNL     1      12.344  13.677  10.176  1.00  0.00    -0.025 A 
ATOM     19  C   UNL     1      11.552  14.833  10.243  1.00  0.00     0.012 A 
ATOM     20  C   UNL     1      12.120  12.750   9.142  1.00  0.00     0.012 A 
ATOM     21  C   UNL     1      10.584  15.085   9.267  1.00  0.00     0.047 A 
ATOM     22  C   UNL     1      11.151  13.003   8.166  1.00  0.00     0.047 A 
ATOM     23  C   UNL     1      10.382  14.174   8.225  1.00  0.00     0.115 A 
BRANCH  23  24
ATOM     24  O   UNL     1       9.416  14.438   7.257  1.00  0.00    -0.508 OA
ATOM     25  H   UNL     1       9.566  15.131   6.534  1.00  0.00     0.293 HD
ENDBRANCH  23  24
ENDBRANCH  17  18
ENDBRANCH  14  16
ENDBRANCH   1  14
TORSDOF 8
ENDMDL
MODEL 8
REMARK VINA RESULT:    -5.616      1.601      2.137
REMARK INTER + INTRA:          -8.553
REMARK INTER:                  -7.728
REMARK INTRA:                  -0.825
REMARK UNBOUND:                -0.640
REMARK SMILES O=C(C=Cc1ccc(O)cc1)CC(=O)C=Cc1ccc(O)cc1
REMARK SMILES IDX 12 1 2 2 1 3 3 4 4 5 5 6 6 7 7 8 8 9 11 10 10 11 9 12 13 14
REMARK SMILES IDX 14 15 15 16 16 17 17 18 18 19 23 20 19 21 22 22 20 23 21 24
REMARK H PARENT 9 13 21 25
REMARK Flexibility Score: inf
ROOT
ATOM      1  C   UNL     1       8.895  10.494  13.542  1.00  0.00     0.160 C 
ENDROOT
BRANCH   1   2
ATOM      2  C   UNL     1       9.505  11.662  14.269  1.00  0.00     0.163 C 
ATOM      3  O   UNL     1       9.641  12.748  13.645  1.00  0.00    -0.294 OA
BRANCH   2   4
ATOM      4  C   UNL     1       9.999  11.591  15.663  1.00  0.00     0.048 C 
ATOM      5  C   UNL     1       9.262  11.924  16.735  1.00  0.00     0.012 C 
BRANCH   5   6
ATOM      6  C   UNL     1       9.750  11.830  18.133  1.00  0.00    -0.025 A 
ATOM      7  C   UNL     1      10.039  10.598  18.755  1.00  0.00     0.012 A 
ATOM      8  C   UNL     1      10.509  10.566  20.074  1.00  0.00     0.047 A 
ATOM      9  C   UNL     1      10.705  11.754  20.782  1.00  0.00     0.115 A 
ATOM     10  C   UNL     1       9.966  13.019  18.850  1.00  0.00     0.012 A 
ATOM     11  C   UNL     1      10.434  12.982  20.166  1.00  0.00     0.047 A 
BRANCH   9  12
ATOM     12  O   UNL     1      11.171  11.704  22.094  1.00  0.00    -0.508 OA
ATOM     13  H   UNL     1      10.594  11.350  22.848  1.00  0.00     0.293 HD
ENDBRANCH   9  12
ENDBRANCH   5   6
ENDBRANCH   2   4
ENDBRANCH   1   2
BRANCH   1  14
ATOM     14  C   UNL     1       9.642  10.235  12.261  1.00  0.00     0.163 C 
ATOM     15  O   UNL     1      10.863   9.933  12.325  1.00  0.00    -0.294 OA
BRANCH  14  16
ATOM     16  C   UNL     1       8.971  10.162  10.947  1.00  0.00     0.048 C 
ATOM     17  C   UNL     1       9.098  11.052   9.950  1.00  0.00     0.012 C 
BRANCH  17  18
ATOM     18  C   UNL     1      10.054  12.179   9.925  1.00  0.00    -0.025 A 
ATOM     19  C   UNL     1       9.613  13.456  10.305  1.00  0.00     0.012 A 
ATOM     20  C   UNL     1      11.374  12.015   9.468  1.00  0.00     0.012 A 
ATOM     21  C   UNL     1      10.489  14.544  10.274  1.00  0.00     0.047 A 
ATOM     22  C   UNL     1      12.249  13.105   9.437  1.00  0.00     0.047 A 
ATOM     23  C   UNL     1      11.809  14.373   9.844  1.00  0.00     0.115 A 
BRANCH  23  24
ATOM     24  O   UNL     1      12.673  15.465   9.819  1.00  0.00    -0.508 OA
ATOM     25  H   UNL     1      12.407  16.359  10.215  1.00  0.00     0.293 HD
ENDBRANCH  23  24
ENDBRANCH  17  18
ENDBRANCH  14  16
ENDBRANCH   1  14
TORSDOF 8
ENDMDL
