MODEL 1
REMARK VINA RESULT:    -4.199      0.000      0.000
REMARK INTER + INTRA:          -9.474
REMARK INTER:                  -7.390
REMARK INTRA:                  -2.084
REMARK UNBOUND:                -2.084
REMARK SMILES CCCCCCC=CCCCCCCCC(=O)[O-]
REMARK SMILES IDX 10 1 11 2 12 3 13 4 14 5 15 6 16 7 17 8 18 9 9 10 8 11 7 12
REMARK SMILES IDX 6 13 5 14 4 15 3 16 2 17 1 18
REMARK H PARENT
REMARK Flexibility Score: inf
ROOT
ATOM      1  C   UNL     1      12.124   2.337  -1.974  1.00  0.00     0.004 C 
ENDROOT
BRANCH   1   2
ATOM      2  C   UNL     1      11.372   1.891  -0.702  1.00  0.00     0.000 C 
BRANCH   2   3
ATOM      3  C   UNL     1       9.839   1.985  -0.785  1.00  0.00     0.000 C 
BRANCH   3   4
ATOM      4  C   UNL     1       9.311   3.398  -0.496  1.00  0.00     0.000 C 
BRANCH   4   5
ATOM      5  C   UNL     1       9.645   3.827   0.938  1.00  0.00     0.006 C 
BRANCH   5   6
ATOM      6  C   UNL     1       8.956   5.148   1.291  1.00  0.00     0.053 C 
BRANCH   6   7
ATOM      7  C   UNL     1       9.951   6.132   1.819  1.00  0.00     0.041 C 
ATOM      8  O   UNL     1      10.026   7.286   1.322  1.00  0.00    -0.550 OA
ATOM      9  O   UNL     1      10.829   5.760   2.829  1.00  0.00    -0.550 OA
ENDBRANCH   6   7
ENDBRANCH   5   6
ENDBRANCH   4   5
ENDBRANCH   3   4
ENDBRANCH   2   3
ENDBRANCH   1   2
BRANCH   1  10
ATOM     10  C   UNL     1      11.887   1.440  -3.202  1.00  0.00     0.027 C 
BRANCH  10  11
ATOM     11  C   UNL     1      11.488   2.225  -4.422  1.00  0.00    -0.031 C 
ATOM     12  C   UNL     1      10.899   3.426  -4.324  1.00  0.00    -0.031 C 
BRANCH  12  13
ATOM     13  C   UNL     1      10.511   4.213  -5.546  1.00  0.00     0.027 C 
BRANCH  13  14
ATOM     14  C   UNL     1       9.584   5.379  -5.178  1.00  0.00     0.004 C 
BRANCH  14  15
ATOM     15  C   UNL     1       8.795   5.131  -3.882  1.00  0.00     0.000 C 
BRANCH  15  16
ATOM     16  C   UNL     1       8.955   6.253  -2.835  1.00  0.00    -0.000 C 
BRANCH  16  17
ATOM     17  C   UNL     1      10.389   6.802  -2.790  1.00  0.00    -0.003 C 
ATOM     18  C   UNL     1      11.232   6.055  -1.759  1.00  0.00     0.004 C 
ENDBRANCH  16  17
ENDBRANCH  15  16
ENDBRANCH  14  15
ENDBRANCH  13  14
ENDBRANCH  12  13
ENDBRANCH  10  11
ENDBRANCH   1  10
TORSDOF 13
ENDMDL
MODEL 2
REMARK VINA RESULT:    -4.192      3.000      4.948
REMARK INTER + INTRA:          -9.463
REMARK INTER:                  -7.352
REMARK INTRA:                  -2.111
REMARK UNBOUND:                -2.084
REMARK SMILES CCCCCCC=CCCCCCCCC(=O)[O-]
REMARK SMILES IDX 10 1 11 2 12 3 13 4 14 5 15 6 16 7 17 8 18 9 9 10 8 11 7 12
REMARK SMILES IDX 6 13 5 14 4 15 3 16 2 17 1 18
REMARK H PARENT
REMARK Flexibility Score: inf
ROOT
ATOM      1  C   UNL     1       9.137   4.408   0.994  1.00  0.00     0.004 C 
ENDROOT
BRANCH   1   2
ATOM      2  C   UNL     1       9.997   3.127   1.007  1.00  0.00     0.000 C 
BRANCH   2   3
ATOM      3  C   UNL     1      10.345   2.563  -0.381  1.00  0.00     0.000 C 
BRANCH   3   4
ATOM      4  C   UNL     1      11.526   1.581  -0.348  1.00  0.00     0.000 C 
BRANCH   4   5
ATOM      5  C   UNL     1      12.375   1.698  -1.620  1.00  0.00     0.006 C 
BRANCH   5   6
ATOM      6  C   UNL     1      11.766   2.710  -2.594  1.00  0.00     0.053 C 
BRANCH   6   7
ATOM      7  C   UNL     1      11.521   2.073  -3.926  1.00  0.00     0.041 C 
ATOM      8  O   UNL     1      11.389   0.824  -4.016  1.00  0.00    -0.550 OA
ATOM      9  O   UNL     1      11.486   2.853  -5.074  1.00  0.00    -0.550 OA
ENDBRANCH   6   7
ENDBRANCH   5   6
ENDBRANCH   4   5
ENDBRANCH   3   4
ENDBRANCH   2   3
ENDBRANCH   1   2
BRANCH   1  10
ATOM     10  C   UNL     1       9.935   5.713   1.169  1.00  0.00     0.027 C 
BRANCH  10  11
ATOM     11  C   UNL     1       9.994   6.527  -0.096  1.00  0.00    -0.031 C 
ATOM     12  C   UNL     1      10.577   6.058  -1.208  1.00  0.00    -0.031 C 
BRANCH  12  13
ATOM     13  C   UNL     1      10.624   6.869  -2.473  1.00  0.00     0.027 C 
BRANCH  13  14
ATOM     14  C   UNL     1       9.536   6.418  -3.458  1.00  0.00     0.004 C 
BRANCH  14  15
ATOM     15  C   UNL     1       9.132   4.947  -3.270  1.00  0.00     0.000 C 
BRANCH  15  16
ATOM     16  C   UNL     1       7.611   4.739  -3.108  1.00  0.00    -0.000 C 
BRANCH  16  17
ATOM     17  C   UNL     1       6.950   5.885  -2.327  1.00  0.00    -0.003 C 
ATOM     18  C   UNL     1       6.336   5.380  -1.024  1.00  0.00     0.004 C 
ENDBRANCH  16  17
ENDBRANCH  15  16
ENDBRANCH  14  15
ENDBRANCH  13  14
ENDBRANCH  12  13
ENDBRANCH  10  11
ENDBRANCH   1  10
TORSDOF 13
ENDMDL
MODEL 3
REMARK VINA RESULT:    -4.186      1.393      4.192
REMARK INTER + INTRA:          -9.452
REMARK INTER:                  -7.980
REMARK INTRA:                  -1.472
REMARK UNBOUND:                -2.084
REMARK SMILES CCCCCCC=CCCCCCCCC(=O)[O-]
REMARK SMILES IDX 10 1 11 2 12 3 13 4 14 5 15 6 16 7 17 8 18 9 9 10 8 11 7 12
REMARK SMILES IDX 6 13 5 14 4 15 3 16 2 17 1 18
REMARK H PARENT
REMARK Flexibility Score: inf
ROOT
ATOM      1  C   UNL     1       8.374   5.494  -4.034  1.00  0.00     0.004 C 
ENDROOT
BRANCH   1   2
ATOM      2  C   UNL     1       8.209   5.254  -2.519  1.00  0.00     0.000 C 
BRANCH   2   3
ATOM      3  C   UNL     1       7.820   3.818  -2.126  1.00  0.00     0.000 C 
BRANCH   3   4
ATOM      4  C   UNL     1       8.790   3.192  -1.113  1.00  0.00     0.000 C 
BRANCH   4   5
ATOM      5  C   UNL     1       8.554   3.755   0.294  1.00  0.00     0.006 C 
BRANCH   5   6
ATOM      6  C   UNL     1       9.879   4.130   0.964  1.00  0.00     0.053 C 
BRANCH   6   7
ATOM      7  C   UNL     1       9.705   5.341   1.826  1.00  0.00     0.041 C 
ATOM      8  O   UNL     1      10.695   5.845   2.416  1.00  0.00    -0.550 OA
ATOM      9  O   UNL     1       8.440   5.883   2.016  1.00  0.00    -0.550 OA
ENDBRANCH   6   7
ENDBRANCH   5   6
ENDBRANCH   4   5
ENDBRANCH   3   4
ENDBRANCH   2   3
ENDBRANCH   1   2
BRANCH   1  10
ATOM     10  C   UNL     1       9.835   5.568  -4.513  1.00  0.00     0.027 C 
BRANCH  10  11
ATOM     11  C   UNL     1      10.406   4.214  -4.835  1.00  0.00    -0.031 C 
ATOM     12  C   UNL     1      11.024   3.471  -3.904  1.00  0.00    -0.031 C 
BRANCH  12  13
ATOM     13  C   UNL     1      11.584   2.113  -4.227  1.00  0.00     0.027 C 
BRANCH  13  14
ATOM     14  C   UNL     1      11.656   1.235  -2.970  1.00  0.00     0.004 C 
BRANCH  14  15
ATOM     15  C   UNL     1      12.228   1.979  -1.752  1.00  0.00     0.000 C 
BRANCH  15  16
ATOM     16  C   UNL     1      11.974   1.259  -0.411  1.00  0.00    -0.000 C 
BRANCH  16  17
ATOM     17  C   UNL     1      13.051   0.207  -0.105  1.00  0.00    -0.003 C 
ATOM     18  C   UNL     1      12.919  -0.316   1.323  1.00  0.00     0.004 C 
ENDBRANCH  16  17
ENDBRANCH  15  16
ENDBRANCH  14  15
ENDBRANCH  13  14
ENDBRANCH  12  13
ENDBRANCH  10  11
ENDBRANCH   1  10
TORSDOF 13
ENDMDL
MODEL 4
REMARK VINA RESULT:    -4.131      1.659      4.615
REMARK INTER + INTRA:          -9.355
REMARK INTER:                  -7.701
REMARK INTRA:                  -1.655
REMARK UNBOUND:                -2.084
REMARK SMILES CCCCCCC=CCCCCCCCC(=O)[O-]
REMARK SMILES IDX 10 1 11 2 12 3 13 4 14 5 15 6 16 7 17 8 18 9 9 10 8 11 7 12
REMARK SMILES IDX 6 13 5 14 4 15 3 16 2 17 1 18
REMARK H PARENT
REMARK Flexibility Score: inf
ROOT
ATOM      1  C   UNL     1      12.269   1.607  -1.979  1.00  0.00     0.004 C 
ENDROOT
BRANCH   1   2
ATOM      2  C   UNL     1      11.070   1.705  -2.946  1.00  0.00     0.000 C 
BRANCH   2   3
ATOM      3  C   UNL     1      11.355   2.452  -4.260  1.00  0.00     0.000 C 
BRANCH   3   4
ATOM      4  C   UNL     1      10.755   3.867  -4.285  1.00  0.00     0.000 C 
BRANCH   4   5
ATOM      5  C   UNL     1      10.056   4.191  -2.959  1.00  0.00     0.006 C 
BRANCH   5   6
ATOM      6  C   UNL     1      10.837   5.245  -2.170  1.00  0.00     0.053 C 
BRANCH   6   7
ATOM      7  C   UNL     1      10.028   6.495  -2.024  1.00  0.00     0.041 C 
ATOM      8  O   UNL     1       8.983   6.657  -2.708  1.00  0.00    -0.550 OA
ATOM      9  O   UNL     1      10.454   7.504  -1.169  1.00  0.00    -0.550 OA
ENDBRANCH   6   7
ENDBRANCH   5   6
ENDBRANCH   4   5
ENDBRANCH   3   4
ENDBRANCH   2   3
ENDBRANCH   1   2
BRANCH   1  10
ATOM     10  C   UNL     1      11.883   1.510  -0.492  1.00  0.00     0.027 C 
BRANCH  10  11
ATOM     11  C   UNL     1      10.470   1.958  -0.232  1.00  0.00    -0.031 C 
ATOM     12  C   UNL     1      10.194   2.958   0.618  1.00  0.00    -0.031 C 
BRANCH  12  13
ATOM     13  C   UNL     1       8.782   3.411   0.867  1.00  0.00     0.027 C 
BRANCH  13  14
ATOM     14  C   UNL     1       8.720   4.930   1.078  1.00  0.00     0.004 C 
BRANCH  14  15
ATOM     15  C   UNL     1       9.976   5.491   1.766  1.00  0.00     0.000 C 
BRANCH  15  16
ATOM     16  C   UNL     1       9.670   6.543   2.852  1.00  0.00    -0.000 C 
BRANCH  16  17
ATOM     17  C   UNL     1       9.567   7.961   2.272  1.00  0.00    -0.003 C 
ATOM     18  C   UNL     1      10.296   8.971   3.155  1.00  0.00     0.004 C 
ENDBRANCH  16  17
ENDBRANCH  15  16
ENDBRANCH  14  15
ENDBRANCH  13  14
ENDBRANCH  12  13
ENDBRANCH  10  11
ENDBRANCH   1  10
TORSDOF 13
ENDMDL
MODEL 5
REMARK VINA RESULT:    -4.110      3.121      5.118
REMARK INTER + INTRA:          -9.318
REMARK INTER:                  -7.167
REMARK INTRA:                  -2.151
REMARK UNBOUND:                -2.084
REMARK SMILES CCCCCCC=CCCCCCCCC(=O)[O-]
REMARK SMILES IDX 10 1 11 2 12 3 13 4 14 5 15 6 16 7 17 8 18 9 9 10 8 11 7 12
REMARK SMILES IDX 6 13 5 14 4 15 3 16 2 17 1 18
REMARK H PARENT
REMARK Flexibility Score: inf
ROOT
ATOM      1  C   UNL     1       9.994   4.451   1.240  1.00  0.00     0.004 C 
ENDROOT
BRANCH   1   2
ATOM      2  C   UNL     1       9.642   3.019   0.786  1.00  0.00     0.000 C 
BRANCH   2   3
ATOM      3  C   UNL     1      10.264   2.591  -0.555  1.00  0.00     0.000 C 
BRANCH   3   4
ATOM      4  C   UNL     1      11.480   1.668  -0.381  1.00  0.00     0.000 C 
BRANCH   4   5
ATOM      5  C   UNL     1      12.244   1.512  -1.702  1.00  0.00     0.006 C 
BRANCH   5   6
ATOM      6  C   UNL     1      11.866   2.619  -2.689  1.00  0.00     0.053 C 
BRANCH   6   7
ATOM      7  C   UNL     1      11.526   2.037  -4.024  1.00  0.00     0.041 C 
ATOM      8  O   UNL     1      11.545   2.759  -5.055  1.00  0.00    -0.550 OA
ATOM      9  O   UNL     1      11.140   0.706  -4.124  1.00  0.00    -0.550 OA
ENDBRANCH   6   7
ENDBRANCH   5   6
ENDBRANCH   4   5
ENDBRANCH   3   4
ENDBRANCH   2   3
ENDBRANCH   1   2
BRANCH   1  10
ATOM     10  C   UNL     1       8.780   5.380   1.419  1.00  0.00     0.027 C 
BRANCH  10  11
ATOM     11  C   UNL     1       7.636   5.016   0.513  1.00  0.00    -0.031 C 
ATOM     12  C   UNL     1       7.098   5.906  -0.334  1.00  0.00    -0.031 C 
BRANCH  12  13
ATOM     13  C   UNL     1       5.962   5.536  -1.247  1.00  0.00     0.027 C 
BRANCH  13  14
ATOM     14  C   UNL     1       6.445   4.632  -2.390  1.00  0.00     0.004 C 
BRANCH  14  15
ATOM     15  C   UNL     1       7.454   5.330  -3.318  1.00  0.00     0.000 C 
BRANCH  15  16
ATOM     16  C   UNL     1       8.837   4.647  -3.354  1.00  0.00    -0.000 C 
BRANCH  16  17
ATOM     17  C   UNL     1       9.985   5.667  -3.393  1.00  0.00    -0.003 C 
ATOM     18  C   UNL     1      10.420   6.061  -1.984  1.00  0.00     0.004 C 
ENDBRANCH  16  17
ENDBRANCH  15  16
ENDBRANCH  14  15
ENDBRANCH  13  14
ENDBRANCH  12  13
ENDBRANCH  10  11
ENDBRANCH   1  10
TORSDOF 13
ENDMDL
MODEL 6
REMARK VINA RESULT:    -4.094      1.139      1.763
REMARK INTER + INTRA:          -9.290
REMARK INTER:                  -7.414
REMARK INTRA:                  -1.876
REMARK UNBOUND:                -2.084
REMARK SMILES CCCCCCC=CCCCCCCCC(=O)[O-]
REMARK SMILES IDX 10 1 11 2 12 3 13 4 14 5 15 6 16 7 17 8 18 9 9 10 8 11 7 12
REMARK SMILES IDX 6 13 5 14 4 15 3 16 2 17 1 18
REMARK H PARENT
REMARK Flexibility Score: inf
ROOT
ATOM      1  C   UNL     1      12.211   1.979  -1.840  1.00  0.00     0.004 C 
ENDROOT
BRANCH   1   2
ATOM      2  C   UNL     1      11.349   1.756  -0.580  1.00  0.00     0.000 C 
BRANCH   2   3
ATOM      3  C   UNL     1      10.133   2.689  -0.451  1.00  0.00     0.000 C 
BRANCH   3   4
ATOM      4  C   UNL     1       9.835   3.085   1.003  1.00  0.00     0.000 C 
BRANCH   4   5
ATOM      5  C   UNL     1       9.021   4.383   1.064  1.00  0.00     0.006 C 
BRANCH   5   6
ATOM      6  C   UNL     1       9.939   5.602   1.183  1.00  0.00     0.053 C 
BRANCH   6   7
ATOM      7  C   UNL     1       9.910   6.147   2.576  1.00  0.00     0.041 C 
ATOM      8  O   UNL     1      10.931   6.069   3.308  1.00  0.00    -0.550 OA
ATOM      9  O   UNL     1       8.740   6.697   3.082  1.00  0.00    -0.550 OA
ENDBRANCH   6   7
ENDBRANCH   5   6
ENDBRANCH   4   5
ENDBRANCH   3   4
ENDBRANCH   2   3
ENDBRANCH   1   2
BRANCH   1  10
ATOM     10  C   UNL     1      11.710   1.242  -3.095  1.00  0.00     0.027 C 
BRANCH  10  11
ATOM     11  C   UNL     1      11.185   2.183  -4.146  1.00  0.00    -0.031 C 
ATOM     12  C   UNL     1      11.049   3.496  -3.910  1.00  0.00    -0.031 C 
BRANCH  12  13
ATOM     13  C   UNL     1      10.534   4.435  -4.966  1.00  0.00     0.027 C 
BRANCH  13  14
ATOM     14  C   UNL     1       9.700   5.562  -4.341  1.00  0.00     0.004 C 
BRANCH  14  15
ATOM     15  C   UNL     1       9.616   5.466  -2.809  1.00  0.00     0.000 C 
BRANCH  15  16
ATOM     16  C   UNL     1       8.346   6.113  -2.217  1.00  0.00    -0.000 C 
BRANCH  16  17
ATOM     17  C   UNL     1       7.079   5.310  -2.546  1.00  0.00    -0.003 C 
ATOM     18  C   UNL     1       7.278   3.825  -2.256  1.00  0.00     0.004 C 
ENDBRANCH  16  17
ENDBRANCH  15  16
ENDBRANCH  14  15
ENDBRANCH  13  14
ENDBRANCH  12  13
ENDBRANCH  10  11
ENDBRANCH   1  10
TORSDOF 13
ENDMDL
MODEL 7
REMARK VINA RESULT:    -4.081      0.940      1.781
REMARK INTER + INTRA:          -9.267
REMARK INTER:                  -7.288
REMARK INTRA:                  -1.979
REMARK UNBOUND:                -2.084
REMARK SMILES CCCCCCC=CCCCCCCCC(=O)[O-]
REMARK SMILES IDX 10 1 11 2 12 3 13 4 14 5 15 6 16 7 17 8 18 9 9 10 8 11 7 12
REMARK SMILES IDX 6 13 5 14 4 15 3 16 2 17 1 18
REMARK H PARENT
REMARK Flexibility Score: inf
ROOT
ATOM      1  C   UNL     1      11.205   1.939  -0.161  1.00  0.00     0.004 C 
ENDROOT
BRANCH   1   2
ATOM      2  C   UNL     1       9.771   2.414  -0.473  1.00  0.00     0.000 C 
BRANCH   2   3
ATOM      3  C   UNL     1       9.056   3.131   0.685  1.00  0.00     0.000 C 
BRANCH   3   4
ATOM      4  C   UNL     1       8.199   4.316   0.216  1.00  0.00     0.000 C 
BRANCH   4   5
ATOM      5  C   UNL     1       8.395   5.532   1.129  1.00  0.00     0.006 C 
BRANCH   5   6
ATOM      6  C   UNL     1       9.877   5.746   1.449  1.00  0.00     0.053 C 
BRANCH   6   7
ATOM      7  C   UNL     1      10.034   6.478   2.744  1.00  0.00     0.041 C 
ATOM      8  O   UNL     1      10.928   6.135   3.561  1.00  0.00    -0.550 OA
ATOM      9  O   UNL     1       9.160   7.507   3.070  1.00  0.00    -0.550 OA
ENDBRANCH   6   7
ENDBRANCH   5   6
ENDBRANCH   4   5
ENDBRANCH   3   4
ENDBRANCH   2   3
ENDBRANCH   1   2
BRANCH   1  10
ATOM     10  C   UNL     1      12.000   1.461  -1.388  1.00  0.00     0.027 C 
BRANCH  10  11
ATOM     11  C   UNL     1      11.248   1.659  -2.677  1.00  0.00    -0.031 C 
ATOM     12  C   UNL     1      11.789   2.315  -3.714  1.00  0.00    -0.031 C 
BRANCH  12  13
ATOM     13  C   UNL     1      11.039   2.501  -5.004  1.00  0.00     0.027 C 
BRANCH  13  14
ATOM     14  C   UNL     1      10.976   3.984  -5.396  1.00  0.00     0.004 C 
BRANCH  14  15
ATOM     15  C   UNL     1       9.616   4.629  -5.081  1.00  0.00     0.000 C 
BRANCH  15  16
ATOM     16  C   UNL     1       9.284   4.671  -3.575  1.00  0.00    -0.000 C 
BRANCH  16  17
ATOM     17  C   UNL     1       9.857   5.922  -2.891  1.00  0.00    -0.003 C 
ATOM     18  C   UNL     1      11.039   5.567  -1.994  1.00  0.00     0.004 C 
ENDBRANCH  16  17
ENDBRANCH  15  16
ENDBRANCH  14  15
ENDBRANCH  13  14
ENDBRANCH  12  13
ENDBRANCH  10  11
ENDBRANCH   1  10
TORSDOF 13
ENDMDL
MODEL 8
REMARK VINA RESULT:    -3.934      2.736      5.299
REMARK INTER + INTRA:          -9.008
REMARK INTER:                  -7.698
REMARK INTRA:                  -1.310
REMARK UNBOUND:                -2.084
REMARK SMILES CCCCCCC=CCCCCCCCC(=O)[O-]
REMARK SMILES IDX 10 1 11 2 12 3 13 4 14 5 15 6 16 7 17 8 18 9 9 10 8 11 7 12
REMARK SMILES IDX 6 13 5 14 4 15 3 16 2 17 1 18
REMARK H PARENT
REMARK Flexibility Score: inf
ROOT
ATOM      1  C   UNL     1       9.767   4.745   1.254  1.00  0.00     0.004 C 
ENDROOT
BRANCH   1   2
ATOM      2  C   UNL     1       8.646   5.666   1.780  1.00  0.00     0.000 C 
BRANCH   2   3
ATOM      3  C   UNL     1       7.940   6.510   0.705  1.00  0.00     0.000 C 
BRANCH   3   4
ATOM      4  C   UNL     1       6.510   6.032   0.413  1.00  0.00     0.000 C 
BRANCH   4   5
ATOM      5  C   UNL     1       6.383   5.527  -1.029  1.00  0.00     0.006 C 
BRANCH   5   6
ATOM      6  C   UNL     1       7.697   5.708  -1.792  1.00  0.00     0.053 C 
BRANCH   6   7
ATOM      7  C   UNL     1       7.908   4.577  -2.749  1.00  0.00     0.041 C 
ATOM      8  O   UNL     1       8.669   4.720  -3.741  1.00  0.00    -0.550 OA
ATOM      9  O   UNL     1       7.225   3.380  -2.571  1.00  0.00    -0.550 OA
ENDBRANCH   6   7
ENDBRANCH   5   6
ENDBRANCH   4   5
ENDBRANCH   3   4
ENDBRANCH   2   3
ENDBRANCH   1   2
BRANCH   1  10
ATOM     10  C   UNL     1       9.313   3.312   0.924  1.00  0.00     0.027 C 
BRANCH  10  11
ATOM     11  C   UNL     1       9.997   2.757  -0.297  1.00  0.00    -0.031 C 
ATOM     12  C   UNL     1      11.174   2.121  -0.215  1.00  0.00    -0.031 C 
BRANCH  12  13
ATOM     13  C   UNL     1      11.849   1.557  -1.435  1.00  0.00     0.027 C 
BRANCH  13  14
ATOM     14  C   UNL     1      12.125   2.657  -2.470  1.00  0.00     0.004 C 
BRANCH  14  15
ATOM     15  C   UNL     1      11.481   2.368  -3.837  1.00  0.00     0.000 C 
BRANCH  15  16
ATOM     16  C   UNL     1      11.480   0.873  -4.216  1.00  0.00    -0.000 C 
BRANCH  16  17
ATOM     17  C   UNL     1      11.483   0.661  -5.738  1.00  0.00    -0.003 C 
ATOM     18  C   UNL     1      12.328  -0.550  -6.124  1.00  0.00     0.004 C 
ENDBRANCH  16  17
ENDBRANCH  15  16
ENDBRANCH  14  15
ENDBRANCH  13  14
ENDBRANCH  12  13
ENDBRANCH  10  11
ENDBRANCH   1  10
TORSDOF 13
ENDMDL
