MODEL 1
REMARK VINA RESULT:    -2.680      0.000      0.000
REMARK INTER + INTRA:         -10.119
REMARK INTER:                  -5.813
REMARK INTRA:                  -4.305
REMARK UNBOUND:                -4.305
REMARK SMILES CCCCCCCCCCCCCCCCCCCCCC(=O)[O-]
REMARK SMILES IDX 12 1 11 2 10 3 9 4 8 5 7 6 6 7 5 8 4 9 3 10 2 11 1 12 13 13
REMARK SMILES IDX 14 14 15 15 16 16 17 17 18 18 19 19 20 20 21 21 22 22 23 23
REMARK SMILES IDX 24 24
REMARK H PARENT
REMARK Flexibility Score: inf
ROOT
ATOM      1  C   UNL     1     -12.662 -24.691  20.629  1.00  0.00     0.000 C 
ENDROOT
BRANCH   1   2
ATOM      2  C   UNL     1     -13.662 -23.700  20.005  1.00  0.00     0.000 C 
BRANCH   2   3
ATOM      3  C   UNL     1     -15.065 -23.792  20.629  1.00  0.00     0.000 C 
BRANCH   3   4
ATOM      4  C   UNL     1     -15.517 -22.462  21.254  1.00  0.00    -0.000 C 
BRANCH   4   5
ATOM      5  C   UNL     1     -14.376 -21.436  21.347  1.00  0.00    -0.000 C 
BRANCH   5   6
ATOM      6  C   UNL     1     -14.205 -20.936  22.788  1.00  0.00    -0.000 C 
BRANCH   6   7
ATOM      7  C   UNL     1     -12.737 -21.031  23.231  1.00  0.00    -0.000 C 
BRANCH   7   8
ATOM      8  C   UNL     1     -12.354 -22.437  23.719  1.00  0.00    -0.000 C 
BRANCH   8   9
ATOM      9  C   UNL     1     -13.469 -23.099  24.547  1.00  0.00    -0.000 C 
BRANCH   9  10
ATOM     10  C   UNL     1     -13.695 -24.570  24.164  1.00  0.00    -0.000 C 
BRANCH  10  11
ATOM     11  C   UNL     1     -15.184 -24.930  24.051  1.00  0.00    -0.003 C 
ATOM     12  C   UNL     1     -16.007 -24.202  25.111  1.00  0.00     0.004 C 
ENDBRANCH  10  11
ENDBRANCH   9  10
ENDBRANCH   8   9
ENDBRANCH   7   8
ENDBRANCH   6   7
ENDBRANCH   5   6
ENDBRANCH   4   5
ENDBRANCH   3   4
ENDBRANCH   2   3
ENDBRANCH   1   2
BRANCH   1  13
ATOM     13  C   UNL     1     -11.221 -24.167  20.772  1.00  0.00     0.000 C 
BRANCH  13  14
ATOM     14  C   UNL     1     -10.879 -23.062  19.756  1.00  0.00     0.000 C 
BRANCH  14  15
ATOM     15  C   UNL     1     -10.709 -21.687  20.431  1.00  0.00     0.000 C 
BRANCH  15  16
ATOM     16  C   UNL     1      -9.847 -20.698  19.622  1.00  0.00     0.000 C 
BRANCH  16  17
ATOM     17  C   UNL     1     -10.329 -19.233  19.668  1.00  0.00     0.000 C 
BRANCH  17  18
ATOM     18  C   UNL     1     -11.789 -19.081  20.141  1.00  0.00     0.000 C 
BRANCH  18  19
ATOM     19  C   UNL     1     -12.631 -18.231  19.171  1.00  0.00     0.000 C 
BRANCH  19  20
ATOM     20  C   UNL     1     -13.746 -19.039  18.490  1.00  0.00     0.006 C 
BRANCH  20  21
ATOM     21  C   UNL     1     -13.259 -20.394  17.960  1.00  0.00     0.053 C 
BRANCH  21  22
ATOM     22  C   UNL     1     -14.418 -21.225  17.507  1.00  0.00     0.041 C 
ATOM     23  O   UNL     1     -14.254 -22.115  16.631  1.00  0.00    -0.550 OA
ATOM     24  O   UNL     1     -15.689 -20.987  18.015  1.00  0.00    -0.550 OA
ENDBRANCH  21  22
ENDBRANCH  20  21
ENDBRANCH  19  20
ENDBRANCH  18  19
ENDBRANCH  17  18
ENDBRANCH  16  17
ENDBRANCH  15  16
ENDBRANCH  14  15
ENDBRANCH  13  14
ENDBRANCH   1  13
TORSDOF 20
ENDMDL
MODEL 2
REMARK VINA RESULT:    -2.673      3.235      5.576
REMARK INTER + INTRA:         -10.103
REMARK INTER:                  -6.447
REMARK INTRA:                  -3.656
REMARK UNBOUND:                -4.305
REMARK SMILES CCCCCCCCCCCCCCCCCCCCCC(=O)[O-]
REMARK SMILES IDX 12 1 11 2 10 3 9 4 8 5 7 6 6 7 5 8 4 9 3 10 2 11 1 12 13 13
REMARK SMILES IDX 14 14 15 15 16 16 17 17 18 18 19 19 20 20 21 21 22 22 23 23
REMARK SMILES IDX 24 24
REMARK H PARENT
REMARK Flexibility Score: inf
ROOT
ATOM      1  C   UNL     1     -15.370 -22.554  21.427  1.00  0.00     0.000 C 
ENDROOT
BRANCH   1   2
ATOM      2  C   UNL     1     -15.164 -21.899  22.805  1.00  0.00     0.000 C 
BRANCH   2   3
ATOM      3  C   UNL     1     -14.172 -20.723  22.768  1.00  0.00     0.000 C 
BRANCH   3   4
ATOM      4  C   UNL     1     -12.717 -21.177  22.974  1.00  0.00    -0.000 C 
BRANCH   4   5
ATOM      5  C   UNL     1     -12.586 -22.268  24.050  1.00  0.00    -0.000 C 
BRANCH   5   6
ATOM      6  C   UNL     1     -12.069 -23.578  23.441  1.00  0.00    -0.000 C 
BRANCH   6   7
ATOM      7  C   UNL     1     -11.831 -23.426  21.931  1.00  0.00    -0.000 C 
BRANCH   7   8
ATOM      8  C   UNL     1     -11.556 -24.768  21.235  1.00  0.00    -0.000 C 
BRANCH   8   9
ATOM      9  C   UNL     1     -10.655 -24.618  19.998  1.00  0.00    -0.000 C 
BRANCH   9  10
ATOM     10  C   UNL     1     -10.175 -23.173  19.788  1.00  0.00    -0.000 C 
BRANCH  10  11
ATOM     11  C   UNL     1      -9.320 -23.011  18.523  1.00  0.00    -0.003 C 
ATOM     12  C   UNL     1     -10.195 -22.781  17.294  1.00  0.00     0.004 C 
ENDBRANCH  10  11
ENDBRANCH   9  10
ENDBRANCH   8   9
ENDBRANCH   7   8
ENDBRANCH   6   7
ENDBRANCH   5   6
ENDBRANCH   4   5
ENDBRANCH   3   4
ENDBRANCH   2   3
ENDBRANCH   1   2
BRANCH   1  13
ATOM     13  C   UNL     1     -15.111 -21.634  20.219  1.00  0.00     0.000 C 
BRANCH  13  14
ATOM     14  C   UNL     1     -13.990 -22.151  19.299  1.00  0.00     0.000 C 
BRANCH  14  15
ATOM     15  C   UNL     1     -12.952 -21.057  18.981  1.00  0.00     0.000 C 
BRANCH  15  16
ATOM     16  C   UNL     1     -13.297 -19.678  19.577  1.00  0.00     0.000 C 
BRANCH  16  17
ATOM     17  C   UNL     1     -12.080 -18.775  19.865  1.00  0.00     0.000 C 
BRANCH  17  18
ATOM     18  C   UNL     1     -10.750 -19.550  19.972  1.00  0.00     0.000 C 
BRANCH  18  19
ATOM     19  C   UNL     1      -9.775 -19.195  18.834  1.00  0.00     0.000 C 
BRANCH  19  20
ATOM     20  C   UNL     1      -8.322 -19.571  19.160  1.00  0.00     0.006 C 
BRANCH  20  21
ATOM     21  C   UNL     1      -7.891 -19.119  20.562  1.00  0.00     0.053 C 
BRANCH  21  22
ATOM     22  C   UNL     1      -6.752 -18.152  20.472  1.00  0.00     0.041 C 
ATOM     23  O   UNL     1      -6.226 -17.696  21.522  1.00  0.00    -0.550 OA
ATOM     24  O   UNL     1      -6.301 -17.718  19.232  1.00  0.00    -0.550 OA
ENDBRANCH  21  22
ENDBRANCH  20  21
ENDBRANCH  19  20
ENDBRANCH  18  19
ENDBRANCH  17  18
ENDBRANCH  16  17
ENDBRANCH  15  16
ENDBRANCH  14  15
ENDBRANCH  13  14
ENDBRANCH   1  13
TORSDOF 20
ENDMDL
MODEL 3
REMARK VINA RESULT:    -2.665      2.545      4.543
REMARK INTER + INTRA:         -10.086
REMARK INTER:                  -5.671
REMARK INTRA:                  -4.415
REMARK UNBOUND:                -4.305
REMARK SMILES CCCCCCCCCCCCCCCCCCCCCC(=O)[O-]
REMARK SMILES IDX 12 1 11 2 10 3 9 4 8 5 7 6 6 7 5 8 4 9 3 10 2 11 1 12 13 13
REMARK SMILES IDX 14 14 15 15 16 16 17 17 18 18 19 19 20 20 21 21 22 22 23 23
REMARK SMILES IDX 24 24
REMARK H PARENT
REMARK Flexibility Score: inf
ROOT
ATOM      1  C   UNL     1     -10.898 -22.719  20.792  1.00  0.00     0.000 C 
ENDROOT
BRANCH   1   2
ATOM      2  C   UNL     1     -11.935 -23.855  20.867  1.00  0.00     0.000 C 
BRANCH   2   3
ATOM      3  C   UNL     1     -12.201 -24.329  22.307  1.00  0.00     0.000 C 
BRANCH   3   4
ATOM      4  C   UNL     1     -11.946 -23.223  23.344  1.00  0.00    -0.000 C 
BRANCH   4   5
ATOM      5  C   UNL     1     -13.247 -22.570  23.841  1.00  0.00    -0.000 C 
BRANCH   5   6
ATOM      6  C   UNL     1     -13.379 -21.137  23.308  1.00  0.00    -0.000 C 
BRANCH   6   7
ATOM      7  C   UNL     1     -14.734 -20.933  22.613  1.00  0.00    -0.000 C 
BRANCH   7   8
ATOM      8  C   UNL     1     -15.136 -22.129  21.735  1.00  0.00    -0.000 C 
BRANCH   8   9
ATOM      9  C   UNL     1     -15.253 -21.757  20.247  1.00  0.00    -0.000 C 
BRANCH   9  10
ATOM     10  C   UNL     1     -14.822 -22.901  19.316  1.00  0.00    -0.000 C 
BRANCH  10  11
ATOM     11  C   UNL     1     -14.776 -22.479  17.840  1.00  0.00    -0.003 C 
ATOM     12  C   UNL     1     -13.358 -22.578  17.285  1.00  0.00     0.004 C 
ENDBRANCH  10  11
ENDBRANCH   9  10
ENDBRANCH   8   9
ENDBRANCH   7   8
ENDBRANCH   6   7
ENDBRANCH   5   6
ENDBRANCH   4   5
ENDBRANCH   3   4
ENDBRANCH   2   3
ENDBRANCH   1   2
BRANCH   1  13
ATOM     13  C   UNL     1     -11.384 -21.433  20.098  1.00  0.00     0.000 C 
BRANCH  13  14
ATOM     14  C   UNL     1     -11.075 -20.159  20.906  1.00  0.00     0.000 C 
BRANCH  14  15
ATOM     15  C   UNL     1     -11.933 -18.963  20.452  1.00  0.00     0.000 C 
BRANCH  15  16
ATOM     16  C   UNL     1     -13.021 -19.331  19.423  1.00  0.00     0.000 C 
BRANCH  16  17
ATOM     17  C   UNL     1     -13.262 -18.270  18.330  1.00  0.00     0.000 C 
BRANCH  17  18
ATOM     18  C   UNL     1     -12.041 -18.039  17.416  1.00  0.00     0.000 C 
BRANCH  18  19
ATOM     19  C   UNL     1     -11.613 -19.321  16.679  1.00  0.00     0.000 C 
BRANCH  19  20
ATOM     20  C   UNL     1     -10.180 -19.753  17.024  1.00  0.00     0.006 C 
BRANCH  20  21
ATOM     21  C   UNL     1      -9.374 -18.643  17.713  1.00  0.00     0.053 C 
BRANCH  21  22
ATOM     22  C   UNL     1      -8.390 -19.232  18.676  1.00  0.00     0.041 C 
ATOM     23  O   UNL     1      -7.719 -18.481  19.432  1.00  0.00    -0.550 OA
ATOM     24  O   UNL     1      -8.179 -20.604  18.706  1.00  0.00    -0.550 OA
ENDBRANCH  21  22
ENDBRANCH  20  21
ENDBRANCH  19  20
ENDBRANCH  18  19
ENDBRANCH  17  18
ENDBRANCH  16  17
ENDBRANCH  15  16
ENDBRANCH  14  15
ENDBRANCH  13  14
ENDBRANCH   1  13
TORSDOF 20
ENDMDL
MODEL 4
REMARK VINA RESULT:    -2.634      8.676     10.703
REMARK INTER + INTRA:         -10.020
REMARK INTER:                  -6.592
REMARK INTRA:                  -3.428
REMARK UNBOUND:                -4.305
REMARK SMILES CCCCCCCCCCCCCCCCCCCCCC(=O)[O-]
REMARK SMILES IDX 12 1 11 2 10 3 9 4 8 5 7 6 6 7 5 8 4 9 3 10 2 11 1 12 13 13
REMARK SMILES IDX 14 14 15 15 16 16 17 17 18 18 19 19 20 20 21 21 22 22 23 23
REMARK SMILES IDX 24 24
REMARK H PARENT
REMARK Flexibility Score: inf
ROOT
ATOM      1  C   UNL     1     -17.621 -13.360  27.364  1.00  0.00     0.000 C 
ENDROOT
BRANCH   1   2
ATOM      2  C   UNL     1     -16.578 -14.387  27.840  1.00  0.00     0.000 C 
BRANCH   2   3
ATOM      3  C   UNL     1     -15.685 -14.906  26.700  1.00  0.00     0.000 C 
BRANCH   3   4
ATOM      4  C   UNL     1     -15.303 -16.385  26.880  1.00  0.00    -0.000 C 
BRANCH   4   5
ATOM      5  C   UNL     1     -16.200 -17.105  27.900  1.00  0.00    -0.000 C 
BRANCH   5   6
ATOM      6  C   UNL     1     -15.362 -17.721  29.029  1.00  0.00    -0.000 C 
BRANCH   6   7
ATOM      7  C   UNL     1     -15.154 -16.715  30.171  1.00  0.00    -0.000 C 
BRANCH   7   8
ATOM      8  C   UNL     1     -13.672 -16.521  30.529  1.00  0.00    -0.000 C 
BRANCH   8   9
ATOM      9  C   UNL     1     -12.734 -16.837  29.352  1.00  0.00    -0.000 C 
BRANCH   9  10
ATOM     10  C   UNL     1     -12.069 -15.579  28.772  1.00  0.00    -0.000 C 
BRANCH  10  11
ATOM     11  C   UNL     1     -12.221 -14.354  29.686  1.00  0.00    -0.003 C 
ATOM     12  C   UNL     1     -11.415 -13.171  29.157  1.00  0.00     0.004 C 
ENDBRANCH  10  11
ENDBRANCH   9  10
ENDBRANCH   8   9
ENDBRANCH   7   8
ENDBRANCH   6   7
ENDBRANCH   5   6
ENDBRANCH   4   5
ENDBRANCH   3   4
ENDBRANCH   2   3
ENDBRANCH   1   2
BRANCH   1  13
ATOM     13  C   UNL     1     -19.090 -13.802  27.511  1.00  0.00     0.000 C 
BRANCH  13  14
ATOM     14  C   UNL     1     -19.247 -15.117  28.296  1.00  0.00     0.000 C 
BRANCH  14  15
ATOM     15  C   UNL     1     -19.831 -16.245  27.424  1.00  0.00     0.000 C 
BRANCH  15  16
ATOM     16  C   UNL     1     -19.793 -15.948  25.912  1.00  0.00     0.000 C 
BRANCH  16  17
ATOM     17  C   UNL     1     -18.732 -16.744  25.123  1.00  0.00     0.000 C 
BRANCH  17  18
ATOM     18  C   UNL     1     -18.046 -15.922  24.012  1.00  0.00     0.000 C 
BRANCH  18  19
ATOM     19  C   UNL     1     -18.573 -14.477  23.947  1.00  0.00     0.000 C 
BRANCH  19  20
ATOM     20  C   UNL     1     -17.842 -13.627  22.896  1.00  0.00     0.006 C 
BRANCH  20  21
ATOM     21  C   UNL     1     -18.760 -12.600  22.220  1.00  0.00     0.053 C 
BRANCH  21  22
ATOM     22  C   UNL     1     -19.040 -13.000  20.805  1.00  0.00     0.041 C 
ATOM     23  O   UNL     1     -19.307 -12.123  19.941  1.00  0.00    -0.550 OA
ATOM     24  O   UNL     1     -19.053 -14.343  20.449  1.00  0.00    -0.550 OA
ENDBRANCH  21  22
ENDBRANCH  20  21
ENDBRANCH  19  20
ENDBRANCH  18  19
ENDBRANCH  17  18
ENDBRANCH  16  17
ENDBRANCH  15  16
ENDBRANCH  14  15
ENDBRANCH  13  14
ENDBRANCH   1  13
TORSDOF 20
ENDMDL
MODEL 5
REMARK VINA RESULT:    -2.622      1.860      2.334
REMARK INTER + INTRA:          -9.993
REMARK INTER:                  -5.755
REMARK INTRA:                  -4.238
REMARK UNBOUND:                -4.305
REMARK SMILES CCCCCCCCCCCCCCCCCCCCCC(=O)[O-]
REMARK SMILES IDX 12 1 11 2 10 3 9 4 8 5 7 6 6 7 5 8 4 9 3 10 2 11 1 12 13 13
REMARK SMILES IDX 14 14 15 15 16 16 17 17 18 18 19 19 20 20 21 21 22 22 23 23
REMARK SMILES IDX 24 24
REMARK H PARENT
REMARK Flexibility Score: inf
ROOT
ATOM      1  C   UNL     1     -13.710 -23.772  19.228  1.00  0.00     0.000 C 
ENDROOT
BRANCH   1   2
ATOM      2  C   UNL     1     -15.084 -23.631  19.909  1.00  0.00     0.000 C 
BRANCH   2   3
ATOM      3  C   UNL     1     -15.327 -22.224  20.482  1.00  0.00     0.000 C 
BRANCH   3   4
ATOM      4  C   UNL     1     -15.991 -22.263  21.869  1.00  0.00    -0.000 C 
BRANCH   4   5
ATOM      5  C   UNL     1     -15.132 -21.590  22.952  1.00  0.00    -0.000 C 
BRANCH   5   6
ATOM      6  C   UNL     1     -13.974 -20.803  22.324  1.00  0.00    -0.000 C 
BRANCH   6   7
ATOM      7  C   UNL     1     -12.689 -20.966  23.150  1.00  0.00    -0.000 C 
BRANCH   7   8
ATOM      8  C   UNL     1     -12.473 -22.409  23.635  1.00  0.00    -0.000 C 
BRANCH   8   9
ATOM      9  C   UNL     1     -11.907 -23.323  22.535  1.00  0.00    -0.000 C 
BRANCH   9  10
ATOM     10  C   UNL     1     -12.376 -24.780  22.679  1.00  0.00    -0.000 C 
BRANCH  10  11
ATOM     11  C   UNL     1     -13.506 -24.940  23.706  1.00  0.00    -0.003 C 
ATOM     12  C   UNL     1     -14.761 -25.517  23.057  1.00  0.00     0.004 C 
ENDBRANCH  10  11
ENDBRANCH   9  10
ENDBRANCH   8   9
ENDBRANCH   7   8
ENDBRANCH   6   7
ENDBRANCH   5   6
ENDBRANCH   4   5
ENDBRANCH   3   4
ENDBRANCH   2   3
ENDBRANCH   1   2
BRANCH   1  13
ATOM     13  C   UNL     1     -12.873 -22.481  19.169  1.00  0.00     0.000 C 
BRANCH  13  14
ATOM     14  C   UNL     1     -11.910 -22.443  17.968  1.00  0.00     0.000 C 
BRANCH  14  15
ATOM     15  C   UNL     1     -10.661 -21.587  18.254  1.00  0.00     0.000 C 
BRANCH  15  16
ATOM     16  C   UNL     1     -10.232 -21.586  19.735  1.00  0.00     0.000 C 
BRANCH  16  17
ATOM     17  C   UNL     1     -10.247 -20.200  20.411  1.00  0.00     0.000 C 
BRANCH  17  18
ATOM     18  C   UNL     1     -10.837 -19.087  19.520  1.00  0.00     0.000 C 
BRANCH  18  19
ATOM     19  C   UNL     1     -12.250 -18.669  19.969  1.00  0.00     0.000 C 
BRANCH  19  20
ATOM     20  C   UNL     1     -13.303 -18.866  18.869  1.00  0.00     0.006 C 
BRANCH  20  21
ATOM     21  C   UNL     1     -13.585 -17.582  18.078  1.00  0.00     0.053 C 
BRANCH  21  22
ATOM     22  C   UNL     1     -12.899 -17.624  16.749  1.00  0.00     0.041 C 
ATOM     23  O   UNL     1     -13.481 -18.129  15.753  1.00  0.00    -0.550 OA
ATOM     24  O   UNL     1     -11.600 -17.150  16.619  1.00  0.00    -0.550 OA
ENDBRANCH  21  22
ENDBRANCH  20  21
ENDBRANCH  19  20
ENDBRANCH  18  19
ENDBRANCH  17  18
ENDBRANCH  16  17
ENDBRANCH  15  16
ENDBRANCH  14  15
ENDBRANCH  13  14
ENDBRANCH   1  13
TORSDOF 20
ENDMDL
MODEL 6
REMARK VINA RESULT:    -2.618      2.922      4.284
REMARK INTER + INTRA:          -9.985
REMARK INTER:                  -5.867
REMARK INTRA:                  -4.118
REMARK UNBOUND:                -4.305
REMARK SMILES CCCCCCCCCCCCCCCCCCCCCC(=O)[O-]
REMARK SMILES IDX 12 1 11 2 10 3 9 4 8 5 7 6 6 7 5 8 4 9 3 10 2 11 1 12 13 13
REMARK SMILES IDX 14 14 15 15 16 16 17 17 18 18 19 19 20 20 21 21 22 22 23 23
REMARK SMILES IDX 24 24
REMARK H PARENT
REMARK Flexibility Score: inf
ROOT
ATOM      1  C   UNL     1     -11.165 -23.325  20.581  1.00  0.00     0.000 C 
ENDROOT
BRANCH   1   2
ATOM      2  C   UNL     1     -11.539 -22.274  21.641  1.00  0.00     0.000 C 
BRANCH   2   3
ATOM      3  C   UNL     1     -11.998 -22.900  22.970  1.00  0.00     0.000 C 
BRANCH   3   4
ATOM      4  C   UNL     1     -12.901 -21.957  23.781  1.00  0.00    -0.000 C 
BRANCH   4   5
ATOM      5  C   UNL     1     -13.835 -21.122  22.889  1.00  0.00    -0.000 C 
BRANCH   5   6
ATOM      6  C   UNL     1     -15.304 -21.488  23.139  1.00  0.00    -0.000 C 
BRANCH   6   7
ATOM      7  C   UNL     1     -16.016 -21.830  21.822  1.00  0.00    -0.000 C 
BRANCH   7   8
ATOM      8  C   UNL     1     -15.104 -22.568  20.828  1.00  0.00    -0.000 C 
BRANCH   8   9
ATOM      9  C   UNL     1     -15.490 -24.047  20.658  1.00  0.00    -0.000 C 
BRANCH   9  10
ATOM     10  C   UNL     1     -14.389 -25.004  21.141  1.00  0.00    -0.000 C 
BRANCH  10  11
ATOM     11  C   UNL     1     -14.853 -25.909  22.292  1.00  0.00    -0.003 C 
ATOM     12  C   UNL     1     -14.871 -25.150  23.616  1.00  0.00     0.004 C 
ENDBRANCH  10  11
ENDBRANCH   9  10
ENDBRANCH   8   9
ENDBRANCH   7   8
ENDBRANCH   6   7
ENDBRANCH   5   6
ENDBRANCH   4   5
ENDBRANCH   3   4
ENDBRANCH   2   3
ENDBRANCH   1   2
BRANCH   1  13
ATOM     13  C   UNL     1     -10.584 -22.758  19.272  1.00  0.00     0.000 C 
BRANCH  13  14
ATOM     14  C   UNL     1     -11.509 -22.973  18.060  1.00  0.00     0.000 C 
BRANCH  14  15
ATOM     15  C   UNL     1     -12.835 -22.202  18.200  1.00  0.00     0.000 C 
BRANCH  15  16
ATOM     16  C   UNL     1     -12.680 -20.671  18.100  1.00  0.00     0.000 C 
BRANCH  16  17
ATOM     17  C   UNL     1     -13.310 -19.880  19.265  1.00  0.00     0.000 C 
BRANCH  17  18
ATOM     18  C   UNL     1     -12.277 -19.111  20.115  1.00  0.00     0.000 C 
BRANCH  18  19
ATOM     19  C   UNL     1     -10.902 -19.027  19.428  1.00  0.00     0.000 C 
BRANCH  19  20
ATOM     20  C   UNL     1      -9.748 -19.426  20.360  1.00  0.00     0.006 C 
BRANCH  20  21
ATOM     21  C   UNL     1      -8.428 -19.647  19.611  1.00  0.00     0.053 C 
BRANCH  21  22
ATOM     22  C   UNL     1      -7.368 -18.729  20.136  1.00  0.00     0.041 C 
ATOM     23  O   UNL     1      -6.839 -18.951  21.257  1.00  0.00    -0.550 OA
ATOM     24  O   UNL     1      -6.998 -17.604  19.411  1.00  0.00    -0.550 OA
ENDBRANCH  21  22
ENDBRANCH  20  21
ENDBRANCH  19  20
ENDBRANCH  18  19
ENDBRANCH  17  18
ENDBRANCH  16  17
ENDBRANCH  15  16
ENDBRANCH  14  15
ENDBRANCH  13  14
ENDBRANCH   1  13
TORSDOF 20
ENDMDL
MODEL 7
REMARK VINA RESULT:    -2.613      4.336      5.851
REMARK INTER + INTRA:          -9.973
REMARK INTER:                  -7.259
REMARK INTRA:                  -2.714
REMARK UNBOUND:                -4.305
REMARK SMILES CCCCCCCCCCCCCCCCCCCCCC(=O)[O-]
REMARK SMILES IDX 12 1 11 2 10 3 9 4 8 5 7 6 6 7 5 8 4 9 3 10 2 11 1 12 13 13
REMARK SMILES IDX 14 14 15 15 16 16 17 17 18 18 19 19 20 20 21 21 22 22 23 23
REMARK SMILES IDX 24 24
REMARK H PARENT
REMARK Flexibility Score: inf
ROOT
ATOM      1  C   UNL     1     -13.437 -20.932  19.356  1.00  0.00     0.000 C 
ENDROOT
BRANCH   1   2
ATOM      2  C   UNL     1     -14.843 -21.557  19.353  1.00  0.00     0.000 C 
BRANCH   2   3
ATOM      3  C   UNL     1     -15.083 -22.498  20.547  1.00  0.00     0.000 C 
BRANCH   3   4
ATOM      4  C   UNL     1     -15.896 -21.829  21.667  1.00  0.00    -0.000 C 
BRANCH   4   5
ATOM      5  C   UNL     1     -15.122 -21.755  22.994  1.00  0.00    -0.000 C 
BRANCH   5   6
ATOM      6  C   UNL     1     -14.082 -20.627  22.960  1.00  0.00    -0.000 C 
BRANCH   6   7
ATOM      7  C   UNL     1     -12.698 -21.144  23.381  1.00  0.00    -0.000 C 
BRANCH   7   8
ATOM      8  C   UNL     1     -12.767 -22.485  24.129  1.00  0.00    -0.000 C 
BRANCH   8   9
ATOM      9  C   UNL     1     -11.917 -23.578  23.461  1.00  0.00    -0.000 C 
BRANCH   9  10
ATOM     10  C   UNL     1     -12.740 -24.478  22.525  1.00  0.00    -0.000 C 
BRANCH  10  11
ATOM     11  C   UNL     1     -12.104 -24.626  21.135  1.00  0.00    -0.003 C 
ATOM     12  C   UNL     1     -11.162 -23.463  20.836  1.00  0.00     0.004 C 
ENDBRANCH  10  11
ENDBRANCH   9  10
ENDBRANCH   8   9
ENDBRANCH   7   8
ENDBRANCH   6   7
ENDBRANCH   5   6
ENDBRANCH   4   5
ENDBRANCH   3   4
ENDBRANCH   2   3
ENDBRANCH   1   2
BRANCH   1  13
ATOM     13  C   UNL     1     -13.398 -19.403  19.168  1.00  0.00     0.000 C 
BRANCH  13  14
ATOM     14  C   UNL     1     -12.219 -18.737  19.900  1.00  0.00     0.000 C 
BRANCH  14  15
ATOM     15  C   UNL     1     -11.316 -19.768  20.602  1.00  0.00     0.000 C 
BRANCH  15  16
ATOM     16  C   UNL     1      -9.996 -20.052  19.856  1.00  0.00     0.000 C 
BRANCH  16  17
ATOM     17  C   UNL     1      -8.771 -19.287  20.397  1.00  0.00     0.000 C 
BRANCH  17  18
ATOM     18  C   UNL     1      -7.752 -18.905  19.304  1.00  0.00     0.000 C 
BRANCH  18  19
ATOM     19  C   UNL     1      -6.499 -18.225  19.886  1.00  0.00     0.000 C 
BRANCH  19  20
ATOM     20  C   UNL     1      -6.309 -18.514  21.382  1.00  0.00     0.006 C 
BRANCH  20  21
ATOM     21  C   UNL     1      -5.041 -17.868  21.956  1.00  0.00     0.053 C 
BRANCH  21  22
ATOM     22  C   UNL     1      -3.884 -18.814  21.863  1.00  0.00     0.041 C 
ATOM     23  O   UNL     1      -2.997 -18.643  20.986  1.00  0.00    -0.550 OA
ATOM     24  O   UNL     1      -3.810 -19.910  22.713  1.00  0.00    -0.550 OA
ENDBRANCH  21  22
ENDBRANCH  20  21
ENDBRANCH  19  20
ENDBRANCH  18  19
ENDBRANCH  17  18
ENDBRANCH  16  17
ENDBRANCH  15  16
ENDBRANCH  14  15
ENDBRANCH  13  14
ENDBRANCH   1  13
TORSDOF 20
ENDMDL
MODEL 8
REMARK VINA RESULT:    -2.579      9.125     11.729
REMARK INTER + INTRA:          -9.899
REMARK INTER:                  -5.801
REMARK INTRA:                  -4.097
REMARK UNBOUND:                -4.305
REMARK SMILES CCCCCCCCCCCCCCCCCCCCCC(=O)[O-]
REMARK SMILES IDX 12 1 11 2 10 3 9 4 8 5 7 6 6 7 5 8 4 9 3 10 2 11 1 12 13 13
REMARK SMILES IDX 14 14 15 15 16 16 17 17 18 18 19 19 20 20 21 21 22 22 23 23
REMARK SMILES IDX 24 24
REMARK H PARENT
REMARK Flexibility Score: inf
ROOT
ATOM      1  C   UNL     1     -17.312 -13.967  23.403  1.00  0.00     0.000 C 
ENDROOT
BRANCH   1   2
ATOM      2  C   UNL     1     -18.536 -14.888  23.556  1.00  0.00     0.000 C 
BRANCH   2   3
ATOM      3  C   UNL     1     -18.171 -16.290  24.074  1.00  0.00     0.000 C 
BRANCH   3   4
ATOM      4  C   UNL     1     -18.655 -16.527  25.514  1.00  0.00    -0.000 C 
BRANCH   4   5
ATOM      5  C   UNL     1     -17.508 -16.894  26.469  1.00  0.00    -0.000 C 
BRANCH   5   6
ATOM      6  C   UNL     1     -16.145 -16.599  25.828  1.00  0.00    -0.000 C 
BRANCH   6   7
ATOM      7  C   UNL     1     -15.076 -16.351  26.902  1.00  0.00    -0.000 C 
BRANCH   7   8
ATOM      8  C   UNL     1     -15.285 -15.026  27.653  1.00  0.00    -0.000 C 
BRANCH   8   9
ATOM      9  C   UNL     1     -14.048 -14.605  28.465  1.00  0.00    -0.000 C 
BRANCH   9  10
ATOM     10  C   UNL     1     -14.366 -13.523  29.509  1.00  0.00    -0.000 C 
BRANCH  10  11
ATOM     11  C   UNL     1     -13.256 -12.468  29.626  1.00  0.00    -0.003 C 
ATOM     12  C   UNL     1     -11.898 -13.057  29.252  1.00  0.00     0.004 C 
ENDBRANCH  10  11
ENDBRANCH   9  10
ENDBRANCH   8   9
ENDBRANCH   7   8
ENDBRANCH   6   7
ENDBRANCH   5   6
ENDBRANCH   4   5
ENDBRANCH   3   4
ENDBRANCH   2   3
ENDBRANCH   1   2
BRANCH   1  13
ATOM     13  C   UNL     1     -16.827 -13.300  24.704  1.00  0.00     0.000 C 
BRANCH  13  14
ATOM     14  C   UNL     1     -17.981 -12.795  25.588  1.00  0.00     0.000 C 
BRANCH  14  15
ATOM     15  C   UNL     1     -17.473 -11.998  26.805  1.00  0.00     0.000 C 
BRANCH  15  16
ATOM     16  C   UNL     1     -17.789 -12.661  28.160  1.00  0.00     0.000 C 
BRANCH  16  17
ATOM     17  C   UNL     1     -18.940 -13.688  28.125  1.00  0.00     0.000 C 
BRANCH  17  18
ATOM     18  C   UNL     1     -18.823 -14.781  29.206  1.00  0.00     0.000 C 
BRANCH  18  19
ATOM     19  C   UNL     1     -17.803 -14.414  30.299  1.00  0.00     0.000 C 
BRANCH  19  20
ATOM     20  C   UNL     1     -17.090 -15.642  30.882  1.00  0.00     0.006 C 
BRANCH  20  21
ATOM     21  C   UNL     1     -17.379 -16.927  30.094  1.00  0.00     0.053 C 
BRANCH  21  22
ATOM     22  C   UNL     1     -16.180 -17.823  30.096  1.00  0.00     0.041 C 
ATOM     23  O   UNL     1     -15.089 -17.419  30.579  1.00  0.00    -0.550 OA
ATOM     24  O   UNL     1     -16.252 -19.086  29.522  1.00  0.00    -0.550 OA
ENDBRANCH  21  22
ENDBRANCH  20  21
ENDBRANCH  19  20
ENDBRANCH  18  19
ENDBRANCH  17  18
ENDBRANCH  16  17
ENDBRANCH  15  16
ENDBRANCH  14  15
ENDBRANCH  13  14
ENDBRANCH   1  13
TORSDOF 20
ENDMDL
MODEL 9
REMARK VINA RESULT:    -2.544      1.429      5.095
REMARK INTER + INTRA:          -9.824
REMARK INTER:                  -5.332
REMARK INTRA:                  -4.493
REMARK UNBOUND:                -4.305
REMARK SMILES CCCCCCCCCCCCCCCCCCCCCC(=O)[O-]
REMARK SMILES IDX 12 1 11 2 10 3 9 4 8 5 7 6 6 7 5 8 4 9 3 10 2 11 1 12 13 13
REMARK SMILES IDX 14 14 15 15 16 16 17 17 18 18 19 19 20 20 21 21 22 22 23 23
REMARK SMILES IDX 24 24
REMARK H PARENT
REMARK Flexibility Score: inf
ROOT
ATOM      1  C   UNL     1     -12.837 -24.782  21.372  1.00  0.00     0.000 C 
ENDROOT
BRANCH   1   2
ATOM      2  C   UNL     1     -11.329 -24.594  21.131  1.00  0.00     0.000 C 
BRANCH   2   3
ATOM      3  C   UNL     1     -11.002 -23.305  20.357  1.00  0.00     0.000 C 
BRANCH   3   4
ATOM      4  C   UNL     1     -12.188 -22.812  19.512  1.00  0.00    -0.000 C 
BRANCH   4   5
ATOM      5  C   UNL     1     -11.815 -22.604  18.035  1.00  0.00    -0.000 C 
BRANCH   5   6
ATOM      6  C   UNL     1     -12.490 -21.346  17.472  1.00  0.00    -0.000 C 
BRANCH   6   7
ATOM      7  C   UNL     1     -13.048 -20.469  18.603  1.00  0.00    -0.000 C 
BRANCH   7   8
ATOM      8  C   UNL     1     -12.367 -19.093  18.678  1.00  0.00    -0.000 C 
BRANCH   8   9
ATOM      9  C   UNL     1     -11.893 -18.745  20.100  1.00  0.00    -0.000 C 
BRANCH   9  10
ATOM     10  C   UNL     1     -10.794 -19.694  20.604  1.00  0.00    -0.000 C 
BRANCH  10  11
ATOM     11  C   UNL     1      -9.411 -19.360  20.024  1.00  0.00    -0.003 C 
ATOM     12  C   UNL     1      -9.014 -20.359  18.941  1.00  0.00     0.004 C 
ENDBRANCH  10  11
ENDBRANCH   9  10
ENDBRANCH   8   9
ENDBRANCH   7   8
ENDBRANCH   6   7
ENDBRANCH   5   6
ENDBRANCH   4   5
ENDBRANCH   3   4
ENDBRANCH   2   3
ENDBRANCH   1   2
BRANCH   1  13
ATOM     13  C   UNL     1     -13.307 -24.526  22.817  1.00  0.00     0.000 C 
BRANCH  13  14
ATOM     14  C   UNL     1     -12.286 -23.731  23.650  1.00  0.00     0.000 C 
BRANCH  14  15
ATOM     15  C   UNL     1     -12.861 -22.388  24.141  1.00  0.00     0.000 C 
BRANCH  15  16
ATOM     16  C   UNL     1     -12.658 -21.223  23.151  1.00  0.00     0.000 C 
BRANCH  16  17
ATOM     17  C   UNL     1     -13.921 -20.816  22.366  1.00  0.00     0.000 C 
BRANCH  17  18
ATOM     18  C   UNL     1     -15.233 -21.309  23.011  1.00  0.00     0.000 C 
BRANCH  18  19
ATOM     19  C   UNL     1     -16.073 -22.164  22.045  1.00  0.00     0.000 C 
BRANCH  19  20
ATOM     20  C   UNL     1     -15.529 -22.143  20.608  1.00  0.00     0.006 C 
BRANCH  20  21
ATOM     21  C   UNL     1     -16.032 -23.322  19.765  1.00  0.00     0.053 C 
BRANCH  21  22
ATOM     22  C   UNL     1     -15.752 -23.084  18.314  1.00  0.00     0.041 C 
ATOM     23  O   UNL     1     -16.218 -22.066  17.738  1.00  0.00    -0.550 OA
ATOM     24  O   UNL     1     -15.016 -24.010  17.585  1.00  0.00    -0.550 OA
ENDBRANCH  21  22
ENDBRANCH  20  21
ENDBRANCH  19  20
ENDBRANCH  18  19
ENDBRANCH  17  18
ENDBRANCH  16  17
ENDBRANCH  15  16
ENDBRANCH  14  15
ENDBRANCH  13  14
ENDBRANCH   1  13
TORSDOF 20
ENDMDL
