MODEL 1
REMARK VINA RESULT:    -4.506      0.000      0.000
REMARK INTER + INTRA:          -4.787
REMARK INTER:                  -4.769
REMARK INTRA:                  -0.018
REMARK UNBOUND:                -0.018
REMARK SMILES O=C([O-])c1cccnc1
REMARK SMILES IDX 4 1 5 2 9 3 6 4 8 5 7 6 2 7 1 8 3 9
REMARK H PARENT
REMARK Flexibility Score: inf
ROOT
ATOM      1  C   UNL     1     -16.554 -11.122   2.224  1.00  0.00     0.016 A 
ATOM      2  C   UNL     1     -16.820 -11.597   0.928  1.00  0.00     0.013 A 
ATOM      3  C   UNL     1     -15.412 -10.329   2.422  1.00  0.00     0.120 A 
ATOM      4  C   UNL     1     -15.961 -11.281  -0.125  1.00  0.00     0.021 A 
ATOM      5  N   UNL     1     -14.591 -10.035   1.379  1.00  0.00    -0.264 NA
ATOM      6  C   UNL     1     -14.838 -10.490   0.123  1.00  0.00     0.111 A 
ENDROOT
BRANCH   1   7
ATOM      7  C   UNL     1     -17.453 -11.445   3.353  1.00  0.00     0.073 C 
ATOM      8  O   UNL     1     -17.673 -12.644   3.674  1.00  0.00    -0.545 OA
ATOM      9  O   UNL     1     -18.067 -10.430   4.078  1.00  0.00    -0.545 OA
ENDBRANCH   1   7
TORSDOF 1
ENDMDL
MODEL 2
REMARK VINA RESULT:    -4.202      3.141      3.791
REMARK INTER + INTRA:          -4.466
REMARK INTER:                  -4.444
REMARK INTRA:                  -0.022
REMARK UNBOUND:                -0.018
REMARK SMILES O=C([O-])c1cccnc1
REMARK SMILES IDX 4 1 5 2 9 3 6 4 8 5 7 6 2 7 1 8 3 9
REMARK H PARENT
REMARK Flexibility Score: inf
ROOT
ATOM      1  C   UNL     1     -14.931  -9.894   1.281  1.00  0.00     0.016 A 
ATOM      2  C   UNL     1     -15.284 -10.708   0.191  1.00  0.00     0.013 A 
ATOM      3  C   UNL     1     -15.847  -9.759   2.338  1.00  0.00     0.120 A 
ATOM      4  C   UNL     1     -16.518 -11.360   0.174  1.00  0.00     0.021 A 
ATOM      5  N   UNL     1     -17.042 -10.405   2.296  1.00  0.00    -0.264 NA
ATOM      6  C   UNL     1     -17.394 -11.194   1.247  1.00  0.00     0.111 A 
ENDROOT
BRANCH   1   7
ATOM      7  C   UNL     1     -13.628  -9.195   1.319  1.00  0.00     0.073 C 
ATOM      8  O   UNL     1     -13.105  -8.875   2.420  1.00  0.00    -0.545 OA
ATOM      9  O   UNL     1     -12.962  -8.882   0.140  1.00  0.00    -0.545 OA
ENDBRANCH   1   7
TORSDOF 1
ENDMDL
MODEL 3
REMARK VINA RESULT:    -3.700     11.332     11.820
REMARK INTER + INTRA:          -3.934
REMARK INTER:                  -3.917
REMARK INTRA:                  -0.018
REMARK UNBOUND:                -0.018
REMARK SMILES O=C([O-])c1cccnc1
REMARK SMILES IDX 4 1 5 2 9 3 6 4 8 5 7 6 2 7 1 8 3 9
REMARK H PARENT
REMARK Flexibility Score: inf
ROOT
ATOM      1  C   UNL     1      -6.155 -16.300   3.109  1.00  0.00     0.016 A 
ATOM      2  C   UNL     1      -6.489 -15.782   4.372  1.00  0.00     0.013 A 
ATOM      3  C   UNL     1      -5.319 -15.538   2.275  1.00  0.00     0.120 A 
ATOM      4  C   UNL     1      -5.996 -14.540   4.774  1.00  0.00     0.021 A 
ATOM      5  N   UNL     1      -4.852 -14.331   2.691  1.00  0.00    -0.264 NA
ATOM      6  C   UNL     1      -5.170 -13.821   3.910  1.00  0.00     0.111 A 
ENDROOT
BRANCH   1   7
ATOM      7  C   UNL     1      -6.667 -17.614   2.665  1.00  0.00     0.073 C 
ATOM      8  O   UNL     1      -5.870 -18.548   2.379  1.00  0.00    -0.545 OA
ATOM      9  O   UNL     1      -8.034 -17.838   2.557  1.00  0.00    -0.545 OA
ENDBRANCH   1   7
TORSDOF 1
ENDMDL
MODEL 4
REMARK VINA RESULT:    -3.626     11.339     11.844
REMARK INTER + INTRA:          -3.856
REMARK INTER:                  -3.839
REMARK INTRA:                  -0.018
REMARK UNBOUND:                -0.018
REMARK SMILES O=C([O-])c1cccnc1
REMARK SMILES IDX 4 1 5 2 9 3 6 4 8 5 7 6 2 7 1 8 3 9
REMARK H PARENT
REMARK Flexibility Score: inf
ROOT
ATOM      1  C   UNL     1      -6.088 -16.279   3.141  1.00  0.00     0.016 A 
ATOM      2  C   UNL     1      -5.263 -15.498   2.314  1.00  0.00     0.013 A 
ATOM      3  C   UNL     1      -6.448 -15.768   4.399  1.00  0.00     0.120 A 
ATOM      4  C   UNL     1      -4.820 -14.247   2.747  1.00  0.00     0.021 A 
ATOM      5  N   UNL     1      -6.003 -14.547   4.797  1.00  0.00    -0.264 NA
ATOM      6  C   UNL     1      -5.205 -13.783   4.005  1.00  0.00     0.111 A 
ENDROOT
BRANCH   1   7
ATOM      7  C   UNL     1      -6.569 -17.607   2.701  1.00  0.00     0.073 C 
ATOM      8  O   UNL     1      -5.752 -18.536   2.458  1.00  0.00    -0.545 OA
ATOM      9  O   UNL     1      -7.929 -17.849   2.551  1.00  0.00    -0.545 OA
ENDBRANCH   1   7
TORSDOF 1
ENDMDL
MODEL 5
REMARK VINA RESULT:    -3.554     12.001     12.655
REMARK INTER + INTRA:          -3.780
REMARK INTER:                  -3.757
REMARK INTRA:                  -0.023
REMARK UNBOUND:                -0.018
REMARK SMILES O=C([O-])c1cccnc1
REMARK SMILES IDX 4 1 5 2 9 3 6 4 8 5 7 6 2 7 1 8 3 9
REMARK H PARENT
REMARK Flexibility Score: inf
ROOT
ATOM      1  C   UNL     1      -6.175 -17.779   2.209  1.00  0.00     0.016 A 
ATOM      2  C   UNL     1      -6.950 -17.063   3.137  1.00  0.00     0.013 A 
ATOM      3  C   UNL     1      -4.782 -17.807   2.383  1.00  0.00     0.120 A 
ATOM      4  C   UNL     1      -6.335 -16.399   4.200  1.00  0.00     0.021 A 
ATOM      5  N   UNL     1      -4.207 -17.153   3.427  1.00  0.00    -0.264 NA
ATOM      6  C   UNL     1      -4.946 -16.456   4.329  1.00  0.00     0.111 A 
ENDROOT
BRANCH   1   7
ATOM      7  C   UNL     1      -6.808 -18.489   1.076  1.00  0.00     0.073 C 
ATOM      8  O   UNL     1      -8.013 -18.853   1.141  1.00  0.00    -0.545 OA
ATOM      9  O   UNL     1      -6.082 -18.764  -0.077  1.00  0.00    -0.545 OA
ENDBRANCH   1   7
TORSDOF 1
ENDMDL
MODEL 6
REMARK VINA RESULT:    -3.528     11.643     12.166
REMARK INTER + INTRA:          -3.753
REMARK INTER:                  -3.732
REMARK INTRA:                  -0.021
REMARK UNBOUND:                -0.018
REMARK SMILES O=C([O-])c1cccnc1
REMARK SMILES IDX 4 1 5 2 9 3 6 4 8 5 7 6 2 7 1 8 3 9
REMARK H PARENT
REMARK Flexibility Score: inf
ROOT
ATOM      1  C   UNL     1      -6.165 -17.131   2.980  1.00  0.00     0.016 A 
ATOM      2  C   UNL     1      -5.207 -17.374   1.982  1.00  0.00     0.013 A 
ATOM      3  C   UNL     1      -7.455 -17.661   2.811  1.00  0.00     0.120 A 
ATOM      4  C   UNL     1      -5.544 -18.124   0.854  1.00  0.00     0.021 A 
ATOM      5  N   UNL     1      -7.757 -18.389   1.703  1.00  0.00    -0.264 NA
ATOM      6  C   UNL     1      -6.839 -18.629   0.731  1.00  0.00     0.111 A 
ENDROOT
BRANCH   1   7
ATOM      7  C   UNL     1      -5.827 -16.339   4.183  1.00  0.00     0.073 C 
ATOM      8  O   UNL     1      -4.701 -16.461   4.735  1.00  0.00    -0.545 OA
ATOM      9  O   UNL     1      -6.748 -15.447   4.720  1.00  0.00    -0.545 OA
ENDBRANCH   1   7
TORSDOF 1
ENDMDL
MODEL 7
REMARK VINA RESULT:    -3.471     11.576     12.083
REMARK INTER + INTRA:          -3.692
REMARK INTER:                  -3.675
REMARK INTRA:                  -0.016
REMARK UNBOUND:                -0.018
REMARK SMILES O=C([O-])c1cccnc1
REMARK SMILES IDX 4 1 5 2 9 3 6 4 8 5 7 6 2 7 1 8 3 9
REMARK H PARENT
REMARK Flexibility Score: inf
ROOT
ATOM      1  C   UNL     1      -6.079 -16.735   3.168  1.00  0.00     0.016 A 
ATOM      2  C   UNL     1      -7.113 -17.645   2.887  1.00  0.00     0.013 A 
ATOM      3  C   UNL     1      -5.024 -16.618   2.248  1.00  0.00     0.120 A 
ATOM      4  C   UNL     1      -7.077 -18.408   1.719  1.00  0.00     0.021 A 
ATOM      5  N   UNL     1      -5.013 -17.373   1.117  1.00  0.00    -0.264 NA
ATOM      6  C   UNL     1      -6.007 -18.256   0.836  1.00  0.00     0.111 A 
ENDROOT
BRANCH   1   7
ATOM      7  C   UNL     1      -6.099 -15.917   4.400  1.00  0.00     0.073 C 
ATOM      8  O   UNL     1      -6.757 -14.843   4.445  1.00  0.00    -0.545 OA
ATOM      9  O   UNL     1      -5.392 -16.322   5.526  1.00  0.00    -0.545 OA
ENDBRANCH   1   7
TORSDOF 1
ENDMDL
MODEL 8
REMARK VINA RESULT:    -3.319     11.522     12.056
REMARK INTER + INTRA:          -3.531
REMARK INTER:                  -3.509
REMARK INTRA:                  -0.022
REMARK UNBOUND:                -0.018
REMARK SMILES O=C([O-])c1cccnc1
REMARK SMILES IDX 4 1 5 2 9 3 6 4 8 5 7 6 2 7 1 8 3 9
REMARK H PARENT
REMARK Flexibility Score: inf
ROOT
ATOM      1  C   UNL     1      -5.347 -15.148   2.829  1.00  0.00     0.016 A 
ATOM      2  C   UNL     1      -4.722 -14.291   1.907  1.00  0.00     0.013 A 
ATOM      3  C   UNL     1      -5.496 -16.502   2.487  1.00  0.00     0.120 A 
ATOM      4  C   UNL     1      -4.267 -14.788   0.685  1.00  0.00     0.021 A 
ATOM      5  N   UNL     1      -5.044 -16.961   1.290  1.00  0.00    -0.264 NA
ATOM      6  C   UNL     1      -4.440 -16.141   0.391  1.00  0.00     0.111 A 
ENDROOT
BRANCH   1   7
ATOM      7  C   UNL     1      -5.835 -14.641   4.130  1.00  0.00     0.073 C 
ATOM      8  O   UNL     1      -6.746 -15.249   4.754  1.00  0.00    -0.545 OA
ATOM      9  O   UNL     1      -5.295 -13.486   4.684  1.00  0.00    -0.545 OA
ENDBRANCH   1   7
TORSDOF 1
ENDMDL
MODEL 9
REMARK VINA RESULT:    -3.281     12.031     12.537
REMARK INTER + INTRA:          -3.491
REMARK INTER:                  -3.467
REMARK INTRA:                  -0.024
REMARK UNBOUND:                -0.018
REMARK SMILES O=C([O-])c1cccnc1
REMARK SMILES IDX 4 1 5 2 9 3 6 4 8 5 7 6 2 7 1 8 3 9
REMARK H PARENT
REMARK Flexibility Score: inf
ROOT
ATOM      1  C   UNL     1      -5.138 -15.279   2.283  1.00  0.00     0.016 A 
ATOM      2  C   UNL     1      -5.138 -14.150   3.119  1.00  0.00     0.013 A 
ATOM      3  C   UNL     1      -5.789 -16.441   2.731  1.00  0.00     0.120 A 
ATOM      4  C   UNL     1      -5.772 -14.197   4.362  1.00  0.00     0.021 A 
ATOM      5  N   UNL     1      -6.400 -16.461   3.945  1.00  0.00    -0.264 NA
ATOM      6  C   UNL     1      -6.404 -15.375   4.762  1.00  0.00     0.111 A 
ENDROOT
BRANCH   1   7
ATOM      7  C   UNL     1      -4.472 -15.249   0.963  1.00  0.00     0.073 C 
ATOM      8  O   UNL     1      -3.724 -14.286   0.645  1.00  0.00    -0.545 OA
ATOM      9  O   UNL     1      -4.663 -16.284   0.054  1.00  0.00    -0.545 OA
ENDBRANCH   1   7
TORSDOF 1
ENDMDL
