MODEL 1
REMARK VINA RESULT:    -6.685      0.000      0.000
REMARK INTER + INTRA:          -8.152
REMARK INTER:                  -7.857
REMARK INTRA:                  -0.295
REMARK UNBOUND:                -0.295
REMARK SMILES O=c1c(O)c(-c2ccc(O)c(O)c2)oc2cc(O)ccc12
REMARK SMILES IDX 5 1 3 2 2 3 1 4 21 5 15 6 14 7 16 8 17 9 19 10 20 11 6 12
REMARK SMILES IDX 7 13 8 14 9 15 13 16 11 17 10 18 12 20 4 22 18 24
REMARK H PARENT 10 19 12 21 4 23 18 25
REMARK Flexibility Score: inf
ROOT
ATOM      1  C   UNL     1      50.174  47.338  11.877  1.00  0.00     0.180 A 
ATOM      2  C   UNL     1      50.925  48.046  12.839  1.00  0.00     0.208 A 
ATOM      3  C   UNL     1      52.292  47.759  12.974  1.00  0.00     0.235 A 
ATOM      4  O   UNL     1      52.982  48.372  13.835  1.00  0.00    -0.285 OA
ATOM      5  C   UNL     1      52.881  46.795  12.142  1.00  0.00     0.069 A 
ATOM      6  C   UNL     1      52.067  46.147  11.189  1.00  0.00     0.142 A 
ATOM      7  O   UNL     1      50.775  46.441  11.098  1.00  0.00    -0.452 OA
ATOM      8  C   UNL     1      52.620  45.187  10.333  1.00  0.00     0.094 A 
ATOM      9  C   UNL     1      53.977  44.863  10.420  1.00  0.00     0.119 A 
ATOM     10  C   UNL     1      54.788  45.503  11.366  1.00  0.00     0.047 A 
ATOM     11  C   UNL     1      54.246  46.465  12.224  1.00  0.00     0.020 A 
ENDROOT
BRANCH   1  12
ATOM     12  C   UNL     1      48.724  47.569  11.686  1.00  0.00     0.025 A 
ATOM     13  C   UNL     1      47.766  46.707  12.247  1.00  0.00     0.016 A 
ATOM     14  C   UNL     1      46.403  46.932  12.032  1.00  0.00     0.051 A 
ATOM     15  C   UNL     1      45.980  48.011  11.246  1.00  0.00     0.157 A 
ATOM     16  C   UNL     1      48.295  48.637  10.880  1.00  0.00     0.062 A 
ATOM     17  C   UNL     1      46.928  48.863  10.666  1.00  0.00     0.158 A 
BRANCH  15  18
ATOM     18  O   UNL     1      44.622  48.240  11.032  1.00  0.00    -0.504 OA
ATOM     19  H   UNL     1      43.983  48.399  11.802  1.00  0.00     0.293 HD
ENDBRANCH  15  18
BRANCH  17  20
ATOM     20  O   UNL     1      46.505  49.933   9.878  1.00  0.00    -0.504 OA
ATOM     21  H   UNL     1      47.166  50.531   9.397  1.00  0.00     0.293 HD
ENDBRANCH  17  20
ENDBRANCH   1  12
BRANCH   2  22
ATOM     22  O   UNL     1      50.322  49.035  13.620  1.00  0.00    -0.502 OA
ATOM     23  H   UNL     1      49.660  48.818  14.354  1.00  0.00     0.293 HD
ENDBRANCH   2  22
BRANCH   9  24
ATOM     24  O   UNL     1      54.510  43.905   9.560  1.00  0.00    -0.508 OA
ATOM     25  H   UNL     1      54.602  44.079   8.566  1.00  0.00     0.293 HD
ENDBRANCH   9  24
TORSDOF 5
ENDMDL
MODEL 2
REMARK VINA RESULT:    -6.402      5.299      7.337
REMARK INTER + INTRA:          -7.820
REMARK INTER:                  -7.781
REMARK INTRA:                  -0.038
REMARK UNBOUND:                -0.295
REMARK SMILES O=c1c(O)c(-c2ccc(O)c(O)c2)oc2cc(O)ccc12
REMARK SMILES IDX 5 1 3 2 2 3 1 4 21 5 15 6 14 7 16 8 17 9 19 10 20 11 6 12
REMARK SMILES IDX 7 13 8 14 9 15 13 16 11 17 10 18 12 20 4 22 18 24
REMARK H PARENT 10 19 12 21 4 23 18 25
REMARK Flexibility Score: inf
ROOT
ATOM      1  C   UNL     1      45.259  45.429   9.841  1.00  0.00     0.180 A 
ATOM      2  C   UNL     1      45.660  44.577  10.891  1.00  0.00     0.208 A 
ATOM      3  C   UNL     1      45.585  43.188  10.700  1.00  0.00     0.235 A 
ATOM      4  O   UNL     1      45.928  42.405  11.629  1.00  0.00    -0.285 OA
ATOM      5  C   UNL     1      45.134  42.683   9.471  1.00  0.00     0.069 A 
ATOM      6  C   UNL     1      44.774  43.601   8.462  1.00  0.00     0.142 A 
ATOM      7  O   UNL     1      44.851  44.908   8.685  1.00  0.00    -0.452 OA
ATOM      8  C   UNL     1      44.329  43.136   7.219  1.00  0.00     0.094 A 
ATOM      9  C   UNL     1      44.238  41.763   6.971  1.00  0.00     0.119 A 
ATOM     10  C   UNL     1      44.594  40.848   7.971  1.00  0.00     0.047 A 
ATOM     11  C   UNL     1      45.041  41.303   9.215  1.00  0.00     0.020 A 
ENDROOT
BRANCH   1  12
ATOM     12  C   UNL     1      45.290  46.903   9.969  1.00  0.00     0.025 A 
ATOM     13  C   UNL     1      44.150  47.685   9.714  1.00  0.00     0.016 A 
ATOM     14  C   UNL     1      44.210  49.077   9.819  1.00  0.00     0.051 A 
ATOM     15  C   UNL     1      45.411  49.708  10.166  1.00  0.00     0.157 A 
ATOM     16  C   UNL     1      46.498  47.543  10.296  1.00  0.00     0.062 A 
ATOM     17  C   UNL     1      46.558  48.940  10.402  1.00  0.00     0.158 A 
BRANCH  15  18
ATOM     18  O   UNL     1      45.475  51.096  10.274  1.00  0.00    -0.504 OA
ATOM     19  H   UNL     1      45.399  51.562  11.170  1.00  0.00     0.293 HD
ENDBRANCH  15  18
BRANCH  17  20
ATOM     20  O   UNL     1      47.754  49.571  10.741  1.00  0.00    -0.504 OA
ATOM     21  H   UNL     1      48.333  49.236  11.502  1.00  0.00     0.293 HD
ENDBRANCH  17  20
ENDBRANCH   1  12
BRANCH   2  22
ATOM     22  O   UNL     1      46.151  45.108  12.086  1.00  0.00    -0.502 OA
ATOM     23  H   UNL     1      46.114  46.098  12.293  1.00  0.00     0.293 HD
ENDBRANCH   2  22
BRANCH   9  24
ATOM     24  O   UNL     1      43.794  41.318   5.727  1.00  0.00    -0.508 OA
ATOM     25  H   UNL     1      43.244  40.472   5.633  1.00  0.00     0.293 HD
ENDBRANCH   9  24
TORSDOF 5
ENDMDL
MODEL 3
REMARK VINA RESULT:    -6.386      1.572      6.642
REMARK INTER + INTRA:          -7.801
REMARK INTER:                  -7.713
REMARK INTRA:                  -0.088
REMARK UNBOUND:                -0.295
REMARK SMILES O=c1c(O)c(-c2ccc(O)c(O)c2)oc2cc(O)ccc12
REMARK SMILES IDX 5 1 3 2 2 3 1 4 21 5 15 6 14 7 16 8 17 9 19 10 20 11 6 12
REMARK SMILES IDX 7 13 8 14 9 15 13 16 11 17 10 18 12 20 4 22 18 24
REMARK H PARENT 10 19 12 21 4 23 18 25
REMARK Flexibility Score: inf
ROOT
ATOM      1  C   UNL     1      51.204  47.553  11.959  1.00  0.00     0.180 A 
ATOM      2  C   UNL     1      51.527  48.780  12.576  1.00  0.00     0.208 A 
ATOM      3  C   UNL     1      50.502  49.712  12.803  1.00  0.00     0.235 A 
ATOM      4  O   UNL     1      50.768  50.821  13.345  1.00  0.00    -0.285 OA
ATOM      5  C   UNL     1      49.186  49.397  12.430  1.00  0.00     0.069 A 
ATOM      6  C   UNL     1      48.942  48.139  11.839  1.00  0.00     0.142 A 
ATOM      7  O   UNL     1      49.941  47.288  11.634  1.00  0.00    -0.452 OA
ATOM      8  C   UNL     1      47.642  47.784  11.463  1.00  0.00     0.094 A 
ATOM      9  C   UNL     1      46.580  48.671  11.668  1.00  0.00     0.119 A 
ATOM     10  C   UNL     1      46.820  49.921  12.254  1.00  0.00     0.047 A 
ATOM     11  C   UNL     1      48.114  50.285  12.634  1.00  0.00     0.020 A 
ENDROOT
BRANCH   1  12
ATOM     12  C   UNL     1      52.230  46.526  11.668  1.00  0.00     0.025 A 
ATOM     13  C   UNL     1      52.452  46.062  10.360  1.00  0.00     0.016 A 
ATOM     14  C   UNL     1      53.409  45.074  10.113  1.00  0.00     0.051 A 
ATOM     15  C   UNL     1      54.148  44.527  11.170  1.00  0.00     0.157 A 
ATOM     16  C   UNL     1      52.959  45.958  12.727  1.00  0.00     0.062 A 
ATOM     17  C   UNL     1      53.920  44.968  12.480  1.00  0.00     0.158 A 
BRANCH  15  18
ATOM     18  O   UNL     1      55.105  43.544  10.928  1.00  0.00    -0.504 OA
ATOM     19  H   UNL     1      55.743  43.235  11.653  1.00  0.00     0.293 HD
ENDBRANCH  15  18
BRANCH  17  20
ATOM     20  O   UNL     1      54.652  44.417  13.531  1.00  0.00    -0.504 OA
ATOM     21  H   UNL     1      54.921  44.969  14.337  1.00  0.00     0.293 HD
ENDBRANCH  17  20
ENDBRANCH   1  12
BRANCH   2  22
ATOM     22  O   UNL     1      52.837  49.046  12.982  1.00  0.00    -0.502 OA
ATOM     23  H   UNL     1      53.564  49.307  12.327  1.00  0.00     0.293 HD
ENDBRANCH   2  22
BRANCH   9  24
ATOM     24  O   UNL     1      45.292  48.300  11.287  1.00  0.00    -0.508 OA
ATOM     25  H   UNL     1      45.117  47.437  10.785  1.00  0.00     0.293 HD
ENDBRANCH   9  24
TORSDOF 5
ENDMDL
MODEL 4
REMARK VINA RESULT:    -6.267      8.885     11.627
REMARK INTER + INTRA:          -7.662
REMARK INTER:                  -7.638
REMARK INTRA:                  -0.023
REMARK UNBOUND:                -0.295
REMARK SMILES O=c1c(O)c(-c2ccc(O)c(O)c2)oc2cc(O)ccc12
REMARK SMILES IDX 5 1 3 2 2 3 1 4 21 5 15 6 14 7 16 8 17 9 19 10 20 11 6 12
REMARK SMILES IDX 7 13 8 14 9 15 13 16 11 17 10 18 12 20 4 22 18 24
REMARK H PARENT 10 19 12 21 4 23 18 25
REMARK Flexibility Score: inf
ROOT
ATOM      1  C   UNL     1      45.132  39.091   9.659  1.00  0.00     0.180 A 
ATOM      2  C   UNL     1      44.321  38.029   9.205  1.00  0.00     0.208 A 
ATOM      3  C   UNL     1      43.496  38.237   8.089  1.00  0.00     0.235 A 
ATOM      4  O   UNL     1      42.755  37.305   7.671  1.00  0.00    -0.285 OA
ATOM      5  C   UNL     1      43.511  39.483   7.442  1.00  0.00     0.069 A 
ATOM      6  C   UNL     1      44.367  40.486   7.943  1.00  0.00     0.142 A 
ATOM      7  O   UNL     1      45.127  40.252   9.007  1.00  0.00    -0.452 OA
ATOM      8  C   UNL     1      44.417  41.738   7.320  1.00  0.00     0.094 A 
ATOM      9  C   UNL     1      43.620  42.002   6.201  1.00  0.00     0.119 A 
ATOM     10  C   UNL     1      42.768  41.008   5.702  1.00  0.00     0.047 A 
ATOM     11  C   UNL     1      42.712  39.754   6.317  1.00  0.00     0.020 A 
ENDROOT
BRANCH   1  12
ATOM     12  C   UNL     1      46.016  38.957  10.839  1.00  0.00     0.025 A 
ATOM     13  C   UNL     1      45.957  39.872  11.904  1.00  0.00     0.016 A 
ATOM     14  C   UNL     1      46.818  39.739  12.997  1.00  0.00     0.051 A 
ATOM     15  C   UNL     1      47.757  38.700  13.035  1.00  0.00     0.157 A 
ATOM     16  C   UNL     1      46.973  37.929  10.873  1.00  0.00     0.062 A 
ATOM     17  C   UNL     1      47.836  37.795  11.970  1.00  0.00     0.158 A 
BRANCH  15  18
ATOM     18  O   UNL     1      48.615  38.563  14.125  1.00  0.00    -0.504 OA
ATOM     19  H   UNL     1      48.396  38.969  15.027  1.00  0.00     0.293 HD
ENDBRANCH  15  18
BRANCH  17  20
ATOM     20  O   UNL     1      48.775  36.765  12.007  1.00  0.00    -0.504 OA
ATOM     21  H   UNL     1      49.761  36.951  12.147  1.00  0.00     0.293 HD
ENDBRANCH  17  20
ENDBRANCH   1  12
BRANCH   2  22
ATOM     22  O   UNL     1      44.365  36.785   9.839  1.00  0.00    -0.502 OA
ATOM     23  H   UNL     1      43.594  36.431  10.392  1.00  0.00     0.293 HD
ENDBRANCH   2  22
BRANCH   9  24
ATOM     24  O   UNL     1      43.684  43.254   5.593  1.00  0.00    -0.508 OA
ATOM     25  H   UNL     1      42.858  43.832   5.485  1.00  0.00     0.293 HD
ENDBRANCH   9  24
TORSDOF 5
ENDMDL
MODEL 5
REMARK VINA RESULT:    -6.004      9.153     11.208
REMARK INTER + INTRA:          -7.352
REMARK INTER:                  -7.227
REMARK INTRA:                  -0.125
REMARK UNBOUND:                -0.295
REMARK SMILES O=c1c(O)c(-c2ccc(O)c(O)c2)oc2cc(O)ccc12
REMARK SMILES IDX 5 1 3 2 2 3 1 4 21 5 15 6 14 7 16 8 17 9 19 10 20 11 6 12
REMARK SMILES IDX 7 13 8 14 9 15 13 16 11 17 10 18 12 20 4 22 18 24
REMARK H PARENT 10 19 12 21 4 23 18 25
REMARK Flexibility Score: inf
ROOT
ATOM      1  C   UNL     1      45.364  38.979  10.154  1.00  0.00     0.180 A 
ATOM      2  C   UNL     1      45.691  39.856  11.210  1.00  0.00     0.208 A 
ATOM      3  C   UNL     1      45.632  41.240  10.982  1.00  0.00     0.235 A 
ATOM      4  O   UNL     1      45.930  42.044  11.908  1.00  0.00    -0.285 OA
ATOM      5  C   UNL     1      45.234  41.716   9.723  1.00  0.00     0.069 A 
ATOM      6  C   UNL     1      44.901  40.774   8.726  1.00  0.00     0.142 A 
ATOM      7  O   UNL     1      44.977  39.472   8.980  1.00  0.00    -0.452 OA
ATOM      8  C   UNL     1      44.490  41.210   7.462  1.00  0.00     0.094 A 
ATOM      9  C   UNL     1      44.409  42.577   7.178  1.00  0.00     0.119 A 
ATOM     10  C   UNL     1      44.740  43.515   8.165  1.00  0.00     0.047 A 
ATOM     11  C   UNL     1      45.150  43.090   9.432  1.00  0.00     0.020 A 
ENDROOT
BRANCH   1  12
ATOM     12  C   UNL     1      45.419  37.508  10.309  1.00  0.00     0.025 A 
ATOM     13  C   UNL     1      46.612  36.853  10.663  1.00  0.00     0.016 A 
ATOM     14  C   UNL     1      46.645  35.461  10.779  1.00  0.00     0.051 A 
ATOM     15  C   UNL     1      45.493  34.703  10.532  1.00  0.00     0.157 A 
ATOM     16  C   UNL     1      44.272  36.741  10.041  1.00  0.00     0.062 A 
ATOM     17  C   UNL     1      44.305  35.344  10.160  1.00  0.00     0.158 A 
BRANCH  15  18
ATOM     18  O   UNL     1      45.522  33.315  10.650  1.00  0.00    -0.504 OA
ATOM     19  H   UNL     1      46.355  32.781  10.431  1.00  0.00     0.293 HD
ENDBRANCH  15  18
BRANCH  17  20
ATOM     20  O   UNL     1      43.162  34.588   9.907  1.00  0.00    -0.504 OA
ATOM     21  H   UNL     1      43.101  33.968   9.109  1.00  0.00     0.293 HD
ENDBRANCH  17  20
ENDBRANCH   1  12
BRANCH   2  22
ATOM     22  O   UNL     1      46.036  39.353  12.467  1.00  0.00    -0.502 OA
ATOM     23  H   UNL     1      45.367  39.281  13.223  1.00  0.00     0.293 HD
ENDBRANCH   2  22
BRANCH   9  24
ATOM     24  O   UNL     1      43.997  42.992   5.913  1.00  0.00    -0.508 OA
ATOM     25  H   UNL     1      43.438  42.394   5.316  1.00  0.00     0.293 HD
ENDBRANCH   9  24
TORSDOF 5
ENDMDL
MODEL 6
REMARK VINA RESULT:    -5.976      8.163     10.485
REMARK INTER + INTRA:          -7.319
REMARK INTER:                  -7.113
REMARK INTRA:                  -0.207
REMARK UNBOUND:                -0.295
REMARK SMILES O=c1c(O)c(-c2ccc(O)c(O)c2)oc2cc(O)ccc12
REMARK SMILES IDX 5 1 3 2 2 3 1 4 21 5 15 6 14 7 16 8 17 9 19 10 20 11 6 12
REMARK SMILES IDX 7 13 8 14 9 15 13 16 11 17 10 18 12 20 4 22 18 24
REMARK H PARENT 10 19 12 21 4 23 18 25
REMARK Flexibility Score: inf
ROOT
ATOM      1  C   UNL     1      45.841  39.670  10.788  1.00  0.00     0.180 A 
ATOM      2  C   UNL     1      45.962  40.726  11.716  1.00  0.00     0.208 A 
ATOM      3  C   UNL     1      45.700  42.036  11.287  1.00  0.00     0.235 A 
ATOM      4  O   UNL     1      45.811  42.998  12.097  1.00  0.00    -0.285 OA
ATOM      5  C   UNL     1      45.307  42.263   9.958  1.00  0.00     0.069 A 
ATOM      6  C   UNL     1      45.187  41.151   9.098  1.00  0.00     0.142 A 
ATOM      7  O   UNL     1      45.452  39.927   9.541  1.00  0.00    -0.452 OA
ATOM      8  C   UNL     1      44.789  41.335   7.769  1.00  0.00     0.094 A 
ATOM      9  C   UNL     1      44.510  42.618   7.287  1.00  0.00     0.119 A 
ATOM     10  C   UNL     1      44.630  43.724   8.138  1.00  0.00     0.047 A 
ATOM     11  C   UNL     1      45.026  43.550   9.468  1.00  0.00     0.020 A 
ENDROOT
BRANCH   1  12
ATOM     12  C   UNL     1      46.118  38.263  11.157  1.00  0.00     0.025 A 
ATOM     13  C   UNL     1      45.082  37.320  11.276  1.00  0.00     0.016 A 
ATOM     14  C   UNL     1      45.365  36.004  11.649  1.00  0.00     0.051 A 
ATOM     15  C   UNL     1      46.683  35.614  11.920  1.00  0.00     0.157 A 
ATOM     16  C   UNL     1      47.435  37.872  11.451  1.00  0.00     0.062 A 
ATOM     17  C   UNL     1      47.720  36.550  11.824  1.00  0.00     0.158 A 
BRANCH  15  18
ATOM     18  O   UNL     1      46.970  34.301  12.290  1.00  0.00    -0.504 OA
ATOM     19  H   UNL     1      47.724  34.083  12.930  1.00  0.00     0.293 HD
ENDBRANCH  15  18
BRANCH  17  20
ATOM     20  O   UNL     1      49.030  36.163  12.101  1.00  0.00    -0.504 OA
ATOM     21  H   UNL     1      49.583  35.644  11.429  1.00  0.00     0.293 HD
ENDBRANCH  17  20
ENDBRANCH   1  12
BRANCH   2  22
ATOM     22  O   UNL     1      46.306  40.464  13.044  1.00  0.00    -0.502 OA
ATOM     23  H   UNL     1      46.248  41.170  13.768  1.00  0.00     0.293 HD
ENDBRANCH   2  22
BRANCH   9  24
ATOM     24  O   UNL     1      44.114  42.781   5.961  1.00  0.00    -0.508 OA
ATOM     25  H   UNL     1      43.466  42.140   5.519  1.00  0.00     0.293 HD
ENDBRANCH   9  24
TORSDOF 5
ENDMDL
MODEL 7
REMARK VINA RESULT:    -5.886      5.226      7.703
REMARK INTER + INTRA:          -7.214
REMARK INTER:                  -7.630
REMARK INTRA:                   0.416
REMARK UNBOUND:                -0.295
REMARK SMILES O=c1c(O)c(-c2ccc(O)c(O)c2)oc2cc(O)ccc12
REMARK SMILES IDX 5 1 3 2 2 3 1 4 21 5 15 6 14 7 16 8 17 9 19 10 20 11 6 12
REMARK SMILES IDX 7 13 8 14 9 15 13 16 11 17 10 18 12 20 4 22 18 24
REMARK H PARENT 10 19 12 21 4 23 18 25
REMARK Flexibility Score: inf
ROOT
ATOM      1  C   UNL     1      45.259  44.185   9.710  1.00  0.00     0.180 A 
ATOM      2  C   UNL     1      45.698  43.713  10.964  1.00  0.00     0.208 A 
ATOM      3  C   UNL     1      46.181  44.637  11.904  1.00  0.00     0.235 A 
ATOM      4  O   UNL     1      46.589  44.237  13.029  1.00  0.00    -0.285 OA
ATOM      5  C   UNL     1      46.199  46.003  11.582  1.00  0.00     0.069 A 
ATOM      6  C   UNL     1      45.721  46.398  10.315  1.00  0.00     0.142 A 
ATOM      7  O   UNL     1      45.279  45.491   9.451  1.00  0.00    -0.452 OA
ATOM      8  C   UNL     1      45.713  47.752   9.961  1.00  0.00     0.094 A 
ATOM      9  C   UNL     1      46.180  48.719  10.858  1.00  0.00     0.119 A 
ATOM     10  C   UNL     1      46.657  48.329  12.117  1.00  0.00     0.047 A 
ATOM     11  C   UNL     1      46.667  46.980  12.480  1.00  0.00     0.020 A 
ENDROOT
BRANCH   1  12
ATOM     12  C   UNL     1      44.752  43.274   8.659  1.00  0.00     0.025 A 
ATOM     13  C   UNL     1      44.939  41.883   8.745  1.00  0.00     0.016 A 
ATOM     14  C   UNL     1      44.473  41.044   7.729  1.00  0.00     0.051 A 
ATOM     15  C   UNL     1      43.826  41.582   6.609  1.00  0.00     0.157 A 
ATOM     16  C   UNL     1      44.122  43.810   7.524  1.00  0.00     0.062 A 
ATOM     17  C   UNL     1      43.653  42.968   6.505  1.00  0.00     0.158 A 
BRANCH  15  18
ATOM     18  O   UNL     1      43.358  40.749   5.595  1.00  0.00    -0.504 OA
ATOM     19  H   UNL     1      43.901  39.961   5.263  1.00  0.00     0.293 HD
ENDBRANCH  15  18
BRANCH  17  20
ATOM     20  O   UNL     1      43.015  43.503   5.386  1.00  0.00    -0.504 OA
ATOM     21  H   UNL     1      42.412  44.313   5.457  1.00  0.00     0.293 HD
ENDBRANCH  17  20
ENDBRANCH   1  12
BRANCH   2  22
ATOM     22  O   UNL     1      45.622  42.353  11.274  1.00  0.00    -0.502 OA
ATOM     23  H   UNL     1      46.442  41.800  11.492  1.00  0.00     0.293 HD
ENDBRANCH   2  22
BRANCH   9  24
ATOM     24  O   UNL     1      46.164  50.062  10.489  1.00  0.00    -0.508 OA
ATOM     25  H   UNL     1      45.983  50.795  11.165  1.00  0.00     0.293 HD
ENDBRANCH   9  24
TORSDOF 5
ENDMDL
MODEL 8
REMARK VINA RESULT:    -5.844      9.136     10.365
REMARK INTER + INTRA:          -7.165
REMARK INTER:                  -6.849
REMARK INTRA:                  -0.316
REMARK UNBOUND:                -0.295
REMARK SMILES O=c1c(O)c(-c2ccc(O)c(O)c2)oc2cc(O)ccc12
REMARK SMILES IDX 5 1 3 2 2 3 1 4 21 5 15 6 14 7 16 8 17 9 19 10 20 11 6 12
REMARK SMILES IDX 7 13 8 14 9 15 13 16 11 17 10 18 12 20 4 22 18 24
REMARK H PARENT 10 19 12 21 4 23 18 25
REMARK Flexibility Score: inf
ROOT
ATOM      1  C   UNL     1      44.980  39.433   9.854  1.00  0.00     0.180 A 
ATOM      2  C   UNL     1      45.828  39.806  10.917  1.00  0.00     0.208 A 
ATOM      3  C   UNL     1      46.425  38.798  11.691  1.00  0.00     0.235 A 
ATOM      4  O   UNL     1      47.180  39.107  12.654  1.00  0.00    -0.285 OA
ATOM      5  C   UNL     1      46.179  37.452  11.380  1.00  0.00     0.069 A 
ATOM      6  C   UNL     1      45.336  37.161  10.286  1.00  0.00     0.142 A 
ATOM      7  O   UNL     1      44.785  38.144   9.583  1.00  0.00    -0.452 OA
ATOM      8  C   UNL     1      45.075  35.831   9.938  1.00  0.00     0.094 A 
ATOM      9  C   UNL     1      45.645  34.785  10.672  1.00  0.00     0.119 A 
ATOM     10  C   UNL     1      46.481  35.070  11.759  1.00  0.00     0.047 A 
ATOM     11  C   UNL     1      46.749  36.396  12.114  1.00  0.00     0.020 A 
ENDROOT
BRANCH   1  12
ATOM     12  C   UNL     1      44.299  40.435   9.003  1.00  0.00     0.025 A 
ATOM     13  C   UNL     1      42.987  40.859   9.277  1.00  0.00     0.016 A 
ATOM     14  C   UNL     1      42.357  41.788   8.445  1.00  0.00     0.051 A 
ATOM     15  C   UNL     1      43.022  42.297   7.322  1.00  0.00     0.157 A 
ATOM     16  C   UNL     1      44.954  40.932   7.863  1.00  0.00     0.062 A 
ATOM     17  C   UNL     1      44.321  41.866   7.029  1.00  0.00     0.158 A 
BRANCH  15  18
ATOM     18  O   UNL     1      42.397  43.226   6.492  1.00  0.00    -0.504 OA
ATOM     19  H   UNL     1      41.493  43.620   6.723  1.00  0.00     0.293 HD
ENDBRANCH  15  18
BRANCH  17  20
ATOM     20  O   UNL     1      44.979  42.368   5.907  1.00  0.00    -0.504 OA
ATOM     21  H   UNL     1      44.469  42.733   5.112  1.00  0.00     0.293 HD
ENDBRANCH  17  20
ENDBRANCH   1  12
BRANCH   2  22
ATOM     22  O   UNL     1      46.094  41.154  11.172  1.00  0.00    -0.502 OA
ATOM     23  H   UNL     1      45.476  41.895  10.865  1.00  0.00     0.293 HD
ENDBRANCH   2  22
BRANCH   9  24
ATOM     24  O   UNL     1      45.374  33.467  10.310  1.00  0.00    -0.508 OA
ATOM     25  H   UNL     1      45.937  32.698  10.655  1.00  0.00     0.293 HD
ENDBRANCH   9  24
TORSDOF 5
ENDMDL
MODEL 9
REMARK VINA RESULT:    -5.667      8.536      9.469
REMARK INTER + INTRA:          -6.956
REMARK INTER:                  -6.705
REMARK INTRA:                  -0.252
REMARK UNBOUND:                -0.295
REMARK SMILES O=c1c(O)c(-c2ccc(O)c(O)c2)oc2cc(O)ccc12
REMARK SMILES IDX 5 1 3 2 2 3 1 4 21 5 15 6 14 7 16 8 17 9 19 10 20 11 6 12
REMARK SMILES IDX 7 13 8 14 9 15 13 16 11 17 10 18 12 20 4 22 18 24
REMARK H PARENT 10 19 12 21 4 23 18 25
REMARK Flexibility Score: inf
ROOT
ATOM      1  C   UNL     1      45.105  40.081  10.232  1.00  0.00     0.180 A 
ATOM      2  C   UNL     1      45.016  41.009  11.291  1.00  0.00     0.208 A 
ATOM      3  C   UNL     1      45.682  40.727  12.494  1.00  0.00     0.235 A 
ATOM      4  O   UNL     1      45.609  41.537  13.459  1.00  0.00    -0.285 OA
ATOM      5  C   UNL     1      46.433  39.546  12.608  1.00  0.00     0.069 A 
ATOM      6  C   UNL     1      46.491  38.681  11.495  1.00  0.00     0.142 A 
ATOM      7  O   UNL     1      45.839  38.980  10.377  1.00  0.00    -0.452 OA
ATOM      8  C   UNL     1      47.237  37.499  11.566  1.00  0.00     0.094 A 
ATOM      9  C   UNL     1      47.925  37.168  12.738  1.00  0.00     0.119 A 
ATOM     10  C   UNL     1      47.868  38.025  13.846  1.00  0.00     0.047 A 
ATOM     11  C   UNL     1      47.127  39.209  13.784  1.00  0.00     0.020 A 
ENDROOT
BRANCH   1  12
ATOM     12  C   UNL     1      44.416  40.295   8.939  1.00  0.00     0.025 A 
ATOM     13  C   UNL     1      43.278  39.552   8.584  1.00  0.00     0.016 A 
ATOM     14  C   UNL     1      42.659  39.755   7.347  1.00  0.00     0.051 A 
ATOM     15  C   UNL     1      43.176  40.693   6.444  1.00  0.00     0.157 A 
ATOM     16  C   UNL     1      44.943  41.220   8.021  1.00  0.00     0.062 A 
ATOM     17  C   UNL     1      44.321  41.425   6.780  1.00  0.00     0.158 A 
BRANCH  15  18
ATOM     18  O   UNL     1      42.560  40.900   5.211  1.00  0.00    -0.504 OA
ATOM     19  H   UNL     1      42.255  41.822   4.919  1.00  0.00     0.293 HD
ENDBRANCH  15  18
BRANCH  17  20
ATOM     20  O   UNL     1      44.838  42.353   5.878  1.00  0.00    -0.504 OA
ATOM     21  H   UNL     1      44.750  43.350   6.034  1.00  0.00     0.293 HD
ENDBRANCH  17  20
ENDBRANCH   1  12
BRANCH   2  22
ATOM     22  O   UNL     1      44.302  42.199  11.131  1.00  0.00    -0.502 OA
ATOM     23  H   UNL     1      44.613  42.938  10.513  1.00  0.00     0.293 HD
ENDBRANCH   2  22
BRANCH   9  24
ATOM     24  O   UNL     1      48.663  35.988  12.791  1.00  0.00    -0.508 OA
ATOM     25  H   UNL     1      48.608  35.365  13.588  1.00  0.00     0.293 HD
ENDBRANCH   9  24
TORSDOF 5
ENDMDL
