MODEL 1
REMARK VINA RESULT:    -3.153      0.000      0.000
REMARK INTER + INTRA:          -3.434
REMARK INTER:                  -3.337
REMARK INTRA:                  -0.096
REMARK UNBOUND:                -0.096
REMARK SMILES C=C(C)[C@H]1CC=C(C)C(=O)C1
REMARK SMILES IDX 8 1 7 2 6 3 5 4 4 5 11 6 9 7 10 8 2 9 1 10 3 11
REMARK H PARENT
REMARK Flexibility Score: inf
ROOT
ATOM      1  C   UNL     1     -10.343 -21.691  19.922  1.00  0.00     0.048 C 
ATOM      2  C   UNL     1     -10.217 -21.863  21.410  1.00  0.00    -0.012 C 
ATOM      3  C   UNL     1     -11.123 -21.301  22.229  1.00  0.00    -0.019 C 
ATOM      4  C   UNL     1     -11.034 -21.427  23.726  1.00  0.00     0.036 C 
ATOM      5  C   UNL     1     -10.416 -22.778  24.134  1.00  0.00     0.025 C 
ATOM      6  C   UNL     1      -9.049 -22.967  23.450  1.00  0.00     0.089 C 
ATOM      7  C   UNL     1      -9.166 -22.753  21.966  1.00  0.00     0.158 C 
ATOM      8  O   UNL     1      -8.336 -23.309  21.198  1.00  0.00    -0.295 OA
ENDROOT
BRANCH   5   9
ATOM      9  C   UNL     1     -10.311 -22.915  25.647  1.00  0.00    -0.077 C 
ATOM     10  C   UNL     1     -10.790 -21.966  26.470  1.00  0.00     0.008 C 
ATOM     11  C   UNL     1      -9.660 -24.132  26.252  1.00  0.00     0.039 C 
ENDBRANCH   5   9
TORSDOF 1
ENDMDL
MODEL 2
REMARK VINA RESULT:    -3.001      1.808      4.282
REMARK INTER + INTRA:          -3.273
REMARK INTER:                  -3.177
REMARK INTRA:                  -0.096
REMARK UNBOUND:                -0.096
REMARK SMILES C=C(C)[C@H]1CC=C(C)C(=O)C1
REMARK SMILES IDX 8 1 7 2 6 3 5 4 4 5 11 6 9 7 10 8 2 9 1 10 3 11
REMARK H PARENT
REMARK Flexibility Score: inf
ROOT
ATOM      1  C   UNL     1     -10.954 -22.131  27.125  1.00  0.00     0.048 C 
ATOM      2  C   UNL     1     -10.619 -22.402  25.684  1.00  0.00    -0.012 C 
ATOM      3  C   UNL     1     -11.007 -21.535  24.732  1.00  0.00    -0.019 C 
ATOM      4  C   UNL     1     -10.714 -21.766  23.274  1.00  0.00     0.036 C 
ATOM      5  C   UNL     1      -9.379 -22.511  23.087  1.00  0.00     0.025 C 
ATOM      6  C   UNL     1      -9.381 -23.821  23.897  1.00  0.00     0.089 C 
ATOM      7  C   UNL     1      -9.758 -23.557  25.329  1.00  0.00     0.158 C 
ATOM      8  O   UNL     1      -9.363 -24.352  26.224  1.00  0.00    -0.295 OA
ENDROOT
BRANCH   5   9
ATOM      9  C   UNL     1      -9.074 -22.761  21.616  1.00  0.00    -0.077 C 
ATOM     10  C   UNL     1      -9.604 -21.987  20.652  1.00  0.00     0.008 C 
ATOM     11  C   UNL     1      -8.164 -23.892  21.214  1.00  0.00     0.039 C 
ENDBRANCH   5   9
TORSDOF 1
ENDMDL
MODEL 3
REMARK VINA RESULT:    -2.955     13.148     14.799
REMARK INTER + INTRA:          -3.224
REMARK INTER:                  -3.128
REMARK INTRA:                  -0.096
REMARK UNBOUND:                -0.096
REMARK SMILES C=C(C)[C@H]1CC=C(C)C(=O)C1
REMARK SMILES IDX 8 1 7 2 6 3 5 4 4 5 11 6 9 7 10 8 2 9 1 10 3 11
REMARK H PARENT
REMARK Flexibility Score: inf
ROOT
ATOM      1  C   UNL     1      -9.018 -18.451   8.329  1.00  0.00     0.048 C 
ATOM      2  C   UNL     1      -9.400 -19.893   8.518  1.00  0.00    -0.012 C 
ATOM      3  C   UNL     1      -8.795 -20.627   9.467  1.00  0.00    -0.019 C 
ATOM      4  C   UNL     1      -9.127 -22.079   9.687  1.00  0.00     0.036 C 
ATOM      5  C   UNL     1     -10.608 -22.364   9.372  1.00  0.00     0.025 C 
ATOM      6  C   UNL     1     -10.949 -21.896   7.945  1.00  0.00     0.089 C 
ATOM      7  C   UNL     1     -10.528 -20.467   7.741  1.00  0.00     0.158 C 
ATOM      8  O   UNL     1     -11.121 -19.770   6.875  1.00  0.00    -0.295 OA
ENDROOT
BRANCH   5   9
ATOM      9  C   UNL     1     -10.955 -23.832   9.581  1.00  0.00    -0.077 C 
ATOM     10  C   UNL     1     -11.125 -24.665   8.539  1.00  0.00     0.008 C 
ATOM     11  C   UNL     1     -11.116 -24.380  10.975  1.00  0.00     0.039 C 
ENDBRANCH   5   9
TORSDOF 1
ENDMDL
MODEL 4
REMARK VINA RESULT:    -2.732      1.540      2.609
REMARK INTER + INTRA:          -2.988
REMARK INTER:                  -2.891
REMARK INTRA:                  -0.097
REMARK UNBOUND:                -0.096
REMARK SMILES C=C(C)[C@H]1CC=C(C)C(=O)C1
REMARK SMILES IDX 8 1 7 2 6 3 5 4 4 5 11 6 9 7 10 8 2 9 1 10 3 11
REMARK H PARENT
REMARK Flexibility Score: inf
ROOT
ATOM      1  C   UNL     1      -7.243 -24.693  21.074  1.00  0.00     0.048 C 
ATOM      2  C   UNL     1      -8.152 -24.279  22.197  1.00  0.00    -0.012 C 
ATOM      3  C   UNL     1      -8.190 -25.003  23.329  1.00  0.00    -0.019 C 
ATOM      4  C   UNL     1      -9.096 -24.644  24.477  1.00  0.00     0.036 C 
ATOM      5  C   UNL     1      -9.290 -23.119  24.576  1.00  0.00     0.025 C 
ATOM      6  C   UNL     1      -9.798 -22.559  23.234  1.00  0.00     0.089 C 
ATOM      7  C   UNL     1      -8.913 -23.008  22.104  1.00  0.00     0.158 C 
ATOM      8  O   UNL     1      -8.852 -22.308  21.057  1.00  0.00    -0.295 OA
ENDROOT
BRANCH   5   9
ATOM      9  C   UNL     1     -10.212 -22.743  25.728  1.00  0.00    -0.077 C 
ATOM     10  C   UNL     1     -11.125 -21.764  25.601  1.00  0.00     0.008 C 
ATOM     11  C   UNL     1     -10.113 -23.470  27.044  1.00  0.00     0.039 C 
ENDBRANCH   5   9
TORSDOF 1
ENDMDL
MODEL 5
REMARK VINA RESULT:    -2.471      1.880      2.366
REMARK INTER + INTRA:          -2.712
REMARK INTER:                  -2.621
REMARK INTRA:                  -0.090
REMARK UNBOUND:                -0.096
REMARK SMILES C=C(C)[C@H]1CC=C(C)C(=O)C1
REMARK SMILES IDX 8 1 7 2 6 3 5 4 4 5 11 6 9 7 10 8 2 9 1 10 3 11
REMARK H PARENT
REMARK Flexibility Score: inf
ROOT
ATOM      1  C   UNL     1     -11.125 -24.448  19.711  1.00  0.00     0.048 C 
ATOM      2  C   UNL     1     -10.905 -23.802  21.050  1.00  0.00    -0.012 C 
ATOM      3  C   UNL     1     -10.914 -24.552  22.166  1.00  0.00    -0.019 C 
ATOM      4  C   UNL     1     -10.717 -23.953  23.533  1.00  0.00     0.036 C 
ATOM      5  C   UNL     1      -9.773 -22.737  23.476  1.00  0.00     0.025 C 
ATOM      6  C   UNL     1     -10.294 -21.706  22.457  1.00  0.00     0.089 C 
ATOM      7  C   UNL     1     -10.555 -22.361  21.128  1.00  0.00     0.158 C 
ATOM      8  O   UNL     1     -10.511 -21.662  20.080  1.00  0.00    -0.295 OA
ENDROOT
BRANCH   5   9
ATOM      9  C   UNL     1      -9.572 -22.116  24.852  1.00  0.00    -0.077 C 
ATOM     10  C   UNL     1      -8.361 -21.697  25.259  1.00  0.00     0.008 C 
ATOM     11  C   UNL     1     -10.742 -21.958  25.788  1.00  0.00     0.039 C 
ENDBRANCH   5   9
TORSDOF 1
ENDMDL
MODEL 6
REMARK VINA RESULT:    -2.434      1.473      2.075
REMARK INTER + INTRA:          -2.673
REMARK INTER:                  -2.576
REMARK INTRA:                  -0.097
REMARK UNBOUND:                -0.096
REMARK SMILES C=C(C)[C@H]1CC=C(C)C(=O)C1
REMARK SMILES IDX 8 1 7 2 6 3 5 4 4 5 11 6 9 7 10 8 2 9 1 10 3 11
REMARK H PARENT
REMARK Flexibility Score: inf
ROOT
ATOM      1  C   UNL     1      -9.539 -21.920  20.386  1.00  0.00     0.048 C 
ATOM      2  C   UNL     1      -9.806 -22.369  21.796  1.00  0.00    -0.012 C 
ATOM      3  C   UNL     1      -9.226 -23.488  22.264  1.00  0.00    -0.019 C 
ATOM      4  C   UNL     1      -9.472 -23.991  23.661  1.00  0.00     0.036 C 
ATOM      5  C   UNL     1      -9.708 -22.825  24.639  1.00  0.00     0.025 C 
ATOM      6  C   UNL     1     -10.853 -21.928  24.131  1.00  0.00     0.089 C 
ATOM      7  C   UNL     1     -10.608 -21.513  22.706  1.00  0.00     0.158 C 
ATOM      8  O   UNL     1     -11.125 -20.446  22.281  1.00  0.00    -0.295 OA
ENDROOT
BRANCH   5   9
ATOM      9  C   UNL     1      -9.969 -23.321  26.055  1.00  0.00    -0.077 C 
ATOM     10  C   UNL     1     -10.423 -22.494  27.013  1.00  0.00     0.008 C 
ATOM     11  C   UNL     1      -9.718 -24.765  26.408  1.00  0.00     0.039 C 
ENDBRANCH   5   9
TORSDOF 1
ENDMDL
MODEL 7
REMARK VINA RESULT:    -2.314      2.216      4.269
REMARK INTER + INTRA:          -2.546
REMARK INTER:                  -2.449
REMARK INTRA:                  -0.096
REMARK UNBOUND:                -0.096
REMARK SMILES C=C(C)[C@H]1CC=C(C)C(=O)C1
REMARK SMILES IDX 8 1 7 2 6 3 5 4 4 5 11 6 9 7 10 8 2 9 1 10 3 11
REMARK H PARENT
REMARK Flexibility Score: inf
ROOT
ATOM      1  C   UNL     1     -11.088 -21.371  24.682  1.00  0.00     0.048 C 
ATOM      2  C   UNL     1     -10.403 -22.335  23.753  1.00  0.00    -0.012 C 
ATOM      3  C   UNL     1     -10.796 -22.424  22.471  1.00  0.00    -0.019 C 
ATOM      4  C   UNL     1     -10.156 -23.384  21.504  1.00  0.00     0.036 C 
ATOM      5  C   UNL     1      -8.664 -23.588  21.829  1.00  0.00     0.025 C 
ATOM      6  C   UNL     1      -8.494 -24.034  23.293  1.00  0.00     0.089 C 
ATOM      7  C   UNL     1      -9.216 -23.095  24.220  1.00  0.00     0.158 C 
ATOM      8  O   UNL     1      -8.823 -22.987  25.412  1.00  0.00    -0.295 OA
ENDROOT
BRANCH   5   9
ATOM      9  C   UNL     1      -8.006 -24.565  20.864  1.00  0.00    -0.077 C 
ATOM     10  C   UNL     1      -8.698 -25.124  19.856  1.00  0.00     0.008 C 
ATOM     11  C   UNL     1      -6.551 -24.924  21.026  1.00  0.00     0.039 C 
ENDBRANCH   5   9
TORSDOF 1
ENDMDL
MODEL 8
REMARK VINA RESULT:    -2.212     20.270     21.326
REMARK INTER + INTRA:          -2.437
REMARK INTER:                  -2.342
REMARK INTRA:                  -0.095
REMARK UNBOUND:                -0.096
REMARK SMILES C=C(C)[C@H]1CC=C(C)C(=O)C1
REMARK SMILES IDX 8 1 7 2 6 3 5 4 4 5 11 6 9 7 10 8 2 9 1 10 3 11
REMARK H PARENT
REMARK Flexibility Score: inf
ROOT
ATOM      1  C   UNL     1       3.580 -23.637   6.967  1.00  0.00     0.048 C 
ATOM      2  C   UNL     1       4.659 -24.012   7.945  1.00  0.00    -0.012 C 
ATOM      3  C   UNL     1       5.935 -23.670   7.698  1.00  0.00    -0.019 C 
ATOM      4  C   UNL     1       7.055 -24.036   8.634  1.00  0.00     0.036 C 
ATOM      5  C   UNL     1       6.573 -24.058  10.097  1.00  0.00     0.025 C 
ATOM      6  C   UNL     1       5.359 -24.996  10.244  1.00  0.00     0.089 C 
ATOM      7  C   UNL     1       4.298 -24.648   9.237  1.00  0.00     0.158 C 
ATOM      8  O   UNL     1       3.097 -24.938   9.486  1.00  0.00    -0.295 OA
ENDROOT
BRANCH   5   9
ATOM      9  C   UNL     1       7.694 -24.436  11.055  1.00  0.00    -0.077 C 
ATOM     10  C   UNL     1       8.789 -25.089  10.626  1.00  0.00     0.008 C 
ATOM     11  C   UNL     1       7.593 -24.080  12.516  1.00  0.00     0.039 C 
ENDBRANCH   5   9
TORSDOF 1
ENDMDL
MODEL 9
REMARK VINA RESULT:    -2.207     20.461     21.488
REMARK INTER + INTRA:          -2.433
REMARK INTER:                  -2.337
REMARK INTRA:                  -0.095
REMARK UNBOUND:                -0.096
REMARK SMILES C=C(C)[C@H]1CC=C(C)C(=O)C1
REMARK SMILES IDX 8 1 7 2 6 3 5 4 4 5 11 6 9 7 10 8 2 9 1 10 3 11
REMARK H PARENT
REMARK Flexibility Score: inf
ROOT
ATOM      1  C   UNL     1       3.238 -23.879   7.052  1.00  0.00     0.048 C 
ATOM      2  C   UNL     1       4.303 -23.958   8.110  1.00  0.00    -0.012 C 
ATOM      3  C   UNL     1       4.117 -24.738   9.189  1.00  0.00    -0.019 C 
ATOM      4  C   UNL     1       5.143 -24.841  10.286  1.00  0.00     0.036 C 
ATOM      5  C   UNL     1       6.571 -24.689   9.728  1.00  0.00     0.025 C 
ATOM      6  C   UNL     1       6.695 -23.375   8.933  1.00  0.00     0.089 C 
ATOM      7  C   UNL     1       5.604 -23.275   7.903  1.00  0.00     0.158 C 
ATOM      8  O   UNL     1       5.794 -22.571   6.875  1.00  0.00    -0.295 OA
ENDROOT
BRANCH   5   9
ATOM      9  C   UNL     1       7.618 -24.781  10.829  1.00  0.00    -0.077 C 
ATOM     10  C   UNL     1       7.300 -24.561  12.117  1.00  0.00     0.008 C 
ATOM     11  C   UNL     1       9.046 -25.124  10.488  1.00  0.00     0.039 C 
ENDBRANCH   5   9
TORSDOF 1
ENDMDL
