MODEL 1
REMARK VINA RESULT:    13.479      0.000      0.000
REMARK INTER + INTRA:          22.269
REMARK INTER:                  20.571
REMARK INTRA:                   1.698
REMARK UNBOUND:                 1.698
REMARK SMILES CC1=CCC[C@H](C)C(=O)C[C@H](C(C)C)C(=O)C1
REMARK SMILES IDX 8 1 9 2 6 3 7 4 5 5 4 6 3 7 2 8 1 9 10 11 11 12 15 13 16 14
REMARK SMILES IDX 17 15 12 17 13 18 14 19
REMARK H PARENT
REMARK Flexibility Score: 70.00
ROOT
ATOM      1  C   UNL     1     146.242  54.788  17.759  1.00  0.00     0.136 C 
ATOM      2  O   UNL     1     145.891  54.125  18.726  1.00  0.00    -0.299 OA
ENDROOT
BRANCH   1   3
ATOM      3  C   UNL     1     146.647  54.094  16.468  1.00  0.00     0.053 C 
ATOM      4  C   UNL     1     147.175  52.671  16.714  1.00  0.00     0.016 C 
BRANCH   3   5
ATOM      5  C   UNL     1     145.501  54.089  15.433  1.00  0.00     0.015 C 
BRANCH   5   6
ATOM      6  C   UNL     1     145.467  55.337  14.519  1.00  0.00     0.028 C 
BRANCH   6   7
ATOM      7  C   UNL     1     144.046  55.710  14.172  1.00  0.00    -0.028 C 
ATOM      8  C   UNL     1     143.491  56.936  14.329  1.00  0.00    -0.070 CG0
ATOM      9  C   UNL     1     142.072  57.129  13.859  1.00  0.00     0.039 C 
ATOM     10  G   UNL     1     144.203  58.096  15.013  1.00  0.00     0.000 G0
ENDBRANCH   6   7
ENDBRANCH   5   6
ENDBRANCH   3   5
ENDBRANCH   1   3
BRANCH   1  11
ATOM     11  C   UNL     1     146.234  56.295  17.873  1.00  0.00     0.087 C 
BRANCH  11  12
ATOM     12  C   UNL     1     146.154  57.012  16.498  1.00  0.00     0.066 C 
BRANCH  12  13
ATOM     13  C   UNL     1     144.864  57.813  16.341  1.00  0.00     0.140 C 
ATOM     14  O   UNL     1     144.318  58.242  17.347  1.00  0.00    -0.299 OA
BRANCH  13  15
ATOM     15  C   UNL     1     144.189  58.096  15.010  1.00  0.00     0.106 CG0
ATOM     16  G   UNL     1     143.499  56.917  14.336  1.00  0.00     0.000 G0
ENDBRANCH  13  15
ENDBRANCH  12  13
BRANCH  12  17
ATOM     17  C   UNL     1     147.432  57.863  16.216  1.00  0.00    -0.006 C 
ATOM     18  C   UNL     1     147.432  58.587  14.856  1.00  0.00     0.008 C 
ATOM     19  C   UNL     1     148.705  57.015  16.348  1.00  0.00     0.008 C 
ENDBRANCH  12  17
ENDBRANCH  11  12
ENDBRANCH   1  11
TORSDOF 1
ENDMDL
MODEL 2
REMARK VINA RESULT:    13.829      1.889      4.429
REMARK INTER + INTRA:          22.803
REMARK INTER:                  21.560
REMARK INTRA:                   1.244
REMARK UNBOUND:                 1.698
REMARK SMILES CC1=CCC[C@H](C)C(=O)C[C@H](C(C)C)C(=O)C1
REMARK SMILES IDX 8 1 9 2 6 3 7 4 5 5 4 6 3 7 2 8 1 9 10 11 11 12 15 13 16 14
REMARK SMILES IDX 17 15 12 17 13 18 14 19
REMARK H PARENT
REMARK Flexibility Score: 70.00
ROOT
ATOM      1  C   UNL     1     145.127  55.722  14.363  1.00  0.00     0.136 C 
ATOM      2  O   UNL     1     145.930  55.647  13.442  1.00  0.00    -0.299 OA
ENDROOT
BRANCH   1   3
ATOM      3  C   UNL     1     144.143  56.880  14.419  1.00  0.00     0.053 C 
ATOM      4  C   UNL     1     142.789  56.524  13.782  1.00  0.00     0.016 C 
BRANCH   3   5
ATOM      5  C   UNL     1     143.957  57.410  15.857  1.00  0.00     0.015 C 
BRANCH   5   6
ATOM      6  C   UNL     1     144.785  58.678  16.178  1.00  0.00     0.028 C 
BRANCH   6   7
ATOM      7  C   UNL     1     146.183  58.561  15.619  1.00  0.00    -0.028 C 
ATOM      8  C   UNL     1     147.175  57.793  16.131  1.00  0.00    -0.070 CG0
ATOM      9  C   UNL     1     148.488  57.759  15.390  1.00  0.00     0.039 C 
ATOM     10  G   UNL     1     147.051  57.029  17.443  1.00  0.00     0.000 G0
ENDBRANCH   6   7
ENDBRANCH   5   6
ENDBRANCH   3   5
ENDBRANCH   1   3
BRANCH   1  11
ATOM     11  C   UNL     1     145.121  54.633  15.410  1.00  0.00     0.087 C 
BRANCH  11  12
ATOM     12  C   UNL     1     146.363  54.675  16.343  1.00  0.00     0.066 C 
BRANCH  12  13
ATOM     13  C   UNL     1     146.240  55.754  17.416  1.00  0.00     0.140 C 
ATOM     14  O   UNL     1     145.416  55.601  18.306  1.00  0.00    -0.299 OA
BRANCH  13  15
ATOM     15  C   UNL     1     147.061  57.032  17.442  1.00  0.00     0.106 CG0
ATOM     16  G   UNL     1     147.173  57.792  16.127  1.00  0.00     0.000 G0
ENDBRANCH  13  15
ENDBRANCH  12  13
BRANCH  12  17
ATOM     17  C   UNL     1     146.686  53.267  16.936  1.00  0.00    -0.006 C 
ATOM     18  C   UNL     1     146.188  53.050  18.377  1.00  0.00     0.008 C 
ATOM     19  C   UNL     1     148.190  52.965  16.861  1.00  0.00     0.008 C 
ENDBRANCH  12  17
ENDBRANCH  11  12
ENDBRANCH   1  11
TORSDOF 1
ENDMDL
MODEL 3
REMARK VINA RESULT:    14.019      1.746      4.201
REMARK INTER + INTRA:          23.093
REMARK INTER:                  20.701
REMARK INTRA:                   2.391
REMARK UNBOUND:                 1.698
REMARK SMILES CC1=CCC[C@H](C)C(=O)C[C@H](C(C)C)C(=O)C1
REMARK SMILES IDX 8 1 9 2 6 3 7 4 5 5 4 6 3 7 2 8 1 9 10 11 11 12 15 13 16 14
REMARK SMILES IDX 17 15 12 17 13 18 14 19
REMARK H PARENT
REMARK Flexibility Score: 70.00
ROOT
ATOM      1  C   UNL     1     146.355  57.460  16.715  1.00  0.00     0.136 C 
ATOM      2  O   UNL     1     147.188  57.643  15.838  1.00  0.00    -0.299 OA
ENDROOT
BRANCH   1   3
ATOM      3  C   UNL     1     145.056  58.251  16.707  1.00  0.00     0.053 C 
ATOM      4  C   UNL     1     145.028  59.312  15.594  1.00  0.00     0.016 C 
BRANCH   3   5
ATOM      5  C   UNL     1     143.820  57.329  16.626  1.00  0.00     0.015 C 
BRANCH   5   6
ATOM      6  C   UNL     1     143.324  57.058  15.185  1.00  0.00     0.028 C 
BRANCH   6   7
ATOM      7  C   UNL     1     144.489  56.830  14.251  1.00  0.00    -0.028 C 
ATOM      8  C   UNL     1     145.223  55.693  14.171  1.00  0.00    -0.070 CG0
ATOM      9  C   UNL     1     146.308  55.633  13.125  1.00  0.00     0.039 C 
ATOM     10  G   UNL     1     145.054  54.517  15.122  1.00  0.00     0.000 G0
ENDBRANCH   6   7
ENDBRANCH   5   6
ENDBRANCH   3   5
ENDBRANCH   1   3
BRANCH   1  11
ATOM     11  C   UNL     1     146.634  56.418  17.774  1.00  0.00     0.087 C 
BRANCH  11  12
ATOM     12  C   UNL     1     145.742  55.154  17.640  1.00  0.00     0.066 C 
BRANCH  12  13
ATOM     13  C   UNL     1     145.988  54.414  16.327  1.00  0.00     0.140 C 
ATOM     14  O   UNL     1     146.994  53.728  16.223  1.00  0.00    -0.299 OA
BRANCH  13  15
ATOM     15  C   UNL     1     145.072  54.491  15.117  1.00  0.00     0.106 CG0
ATOM     16  G   UNL     1     145.252  55.699  14.208  1.00  0.00     0.000 G0
ENDBRANCH  13  15
ENDBRANCH  12  13
BRANCH  12  17
ATOM     17  C   UNL     1     145.864  54.226  18.888  1.00  0.00    -0.006 C 
ATOM     18  C   UNL     1     146.774  52.999  18.687  1.00  0.00     0.008 C 
ATOM     19  C   UNL     1     144.483  53.767  19.377  1.00  0.00     0.008 C 
ENDBRANCH  12  17
ENDBRANCH  11  12
ENDBRANCH   1  11
TORSDOF 1
ENDMDL
MODEL 4
REMARK VINA RESULT:    14.276      1.525      3.665
REMARK INTER + INTRA:          23.485
REMARK INTER:                  22.990
REMARK INTRA:                   0.495
REMARK UNBOUND:                 1.698
REMARK SMILES CC1=CCC[C@H](C)C(=O)C[C@H](C(C)C)C(=O)C1
REMARK SMILES IDX 8 1 9 2 6 3 7 4 5 5 4 6 3 7 2 8 1 9 10 11 11 12 15 13 16 14
REMARK SMILES IDX 17 15 12 17 13 18 14 19
REMARK H PARENT
REMARK Flexibility Score: 70.00
ROOT
ATOM      1  C   UNL     1     146.838  57.215  17.076  1.00  0.00     0.136 C 
ATOM      2  O   UNL     1     146.698  57.476  18.263  1.00  0.00    -0.299 OA
ENDROOT
BRANCH   1   3
ATOM      3  C   UNL     1     146.735  58.321  16.038  1.00  0.00     0.053 C 
ATOM      4  C   UNL     1     147.368  57.920  14.695  1.00  0.00     0.016 C 
BRANCH   3   5
ATOM      5  C   UNL     1     145.278  58.795  15.844  1.00  0.00     0.015 C 
BRANCH   5   6
ATOM      6  C   UNL     1     144.211  57.754  16.260  1.00  0.00     0.028 C 
BRANCH   6   7
ATOM      7  C   UNL     1     143.412  57.297  15.063  1.00  0.00    -0.028 C 
ATOM      8  C   UNL     1     143.796  56.350  14.173  1.00  0.00    -0.070 CG0
ATOM      9  C   UNL     1     142.827  55.983  13.078  1.00  0.00     0.039 C 
ATOM     10  G   UNL     1     145.172  55.698  14.185  1.00  0.00     0.000 G0
ENDBRANCH   6   7
ENDBRANCH   5   6
ENDBRANCH   3   5
ENDBRANCH   1   3
BRANCH   1  11
ATOM     11  C   UNL     1     147.142  55.789  16.679  1.00  0.00     0.087 C 
BRANCH  11  12
ATOM     12  C   UNL     1     145.884  54.879  16.655  1.00  0.00     0.066 C 
BRANCH  12  13
ATOM     13  C   UNL     1     145.390  54.618  15.234  1.00  0.00     0.140 C 
ATOM     14  O   UNL     1     145.171  53.465  14.894  1.00  0.00    -0.299 OA
BRANCH  13  15
ATOM     15  C   UNL     1     145.174  55.702  14.191  1.00  0.00     0.106 CG0
ATOM     16  G   UNL     1     143.789  56.335  14.150  1.00  0.00     0.000 G0
ENDBRANCH  13  15
ENDBRANCH  12  13
BRANCH  12  17
ATOM     17  C   UNL     1     146.106  53.565  17.468  1.00  0.00    -0.006 C 
ATOM     18  C   UNL     1     145.892  53.707  18.987  1.00  0.00     0.008 C 
ATOM     19  C   UNL     1     147.498  52.974  17.197  1.00  0.00     0.008 C 
ENDBRANCH  12  17
ENDBRANCH  11  12
ENDBRANCH   1  11
TORSDOF 1
ENDMDL
MODEL 5
REMARK VINA RESULT:    14.622      2.024      4.031
REMARK INTER + INTRA:          24.014
REMARK INTER:                  20.153
REMARK INTRA:                   3.861
REMARK UNBOUND:                 1.698
REMARK SMILES CC1=CCC[C@H](C)C(=O)C[C@H](C(C)C)C(=O)C1
REMARK SMILES IDX 8 1 9 2 6 3 7 4 5 5 4 6 3 7 2 8 1 9 10 11 11 12 15 13 16 14
REMARK SMILES IDX 17 15 12 17 13 18 14 19
REMARK H PARENT
REMARK Flexibility Score: 70.00
ROOT
ATOM      1  C   UNL     1     146.212  54.100  16.634  1.00  0.00     0.136 C 
ATOM      2  O   UNL     1     147.215  53.442  16.392  1.00  0.00    -0.299 OA
ENDROOT
BRANCH   1   3
ATOM      3  C   UNL     1     145.776  54.319  18.074  1.00  0.00     0.053 C 
ATOM      4  C   UNL     1     146.208  53.166  18.995  1.00  0.00     0.016 C 
BRANCH   3   5
ATOM      5  C   UNL     1     146.262  55.679  18.622  1.00  0.00     0.015 C 
BRANCH   5   6
ATOM      6  C   UNL     1     146.361  56.794  17.554  1.00  0.00     0.028 C 
BRANCH   6   7
ATOM      7  C   UNL     1     147.804  57.133  17.265  1.00  0.00    -0.028 C 
ATOM      8  C   UNL     1     148.268  57.694  16.121  1.00  0.00    -0.070 CG0
ATOM      9  C   UNL     1     149.738  58.018  16.047  1.00  0.00     0.039 C 
ATOM     10  G   UNL     1     147.398  57.943  14.897  1.00  0.00     0.000 G0
ENDBRANCH   6   7
ENDBRANCH   5   6
ENDBRANCH   3   5
ENDBRANCH   1   3
BRANCH   1  11
ATOM     11  C   UNL     1     145.447  54.705  15.479  1.00  0.00     0.087 C 
BRANCH  11  12
ATOM     12  C   UNL     1     145.409  56.257  15.517  1.00  0.00     0.066 C 
BRANCH  12  13
ATOM     13  C   UNL     1     146.390  56.881  14.527  1.00  0.00     0.140 C 
ATOM     14  O   UNL     1     146.383  56.483  13.371  1.00  0.00    -0.299 OA
BRANCH  13  15
ATOM     15  C   UNL     1     147.403  57.954  14.887  1.00  0.00     0.106 CG0
ATOM     16  G   UNL     1     148.250  57.698  16.126  1.00  0.00     0.000 G0
ENDBRANCH  13  15
ENDBRANCH  12  13
BRANCH  12  17
ATOM     17  C   UNL     1     143.956  56.803  15.353  1.00  0.00    -0.006 C 
ATOM     18  C   UNL     1     143.404  56.733  13.916  1.00  0.00     0.008 C 
ATOM     19  C   UNL     1     143.840  58.241  15.879  1.00  0.00     0.008 C 
ENDBRANCH  12  17
ENDBRANCH  11  12
ENDBRANCH   1  11
TORSDOF 1
ENDMDL
MODEL 6
REMARK VINA RESULT:    14.756      1.737      2.642
REMARK INTER + INTRA:          24.218
REMARK INTER:                  22.942
REMARK INTRA:                   1.276
REMARK UNBOUND:                 1.698
REMARK SMILES CC1=CCC[C@H](C)C(=O)C[C@H](C(C)C)C(=O)C1
REMARK SMILES IDX 8 1 9 2 6 3 7 4 5 5 4 6 3 7 2 8 1 9 10 11 11 12 15 13 16 14
REMARK SMILES IDX 17 15 12 17 13 18 14 19
REMARK H PARENT
REMARK Flexibility Score: 70.00
ROOT
ATOM      1  C   UNL     1     146.119  55.206  18.386  1.00  0.00     0.136 C 
ATOM      2  O   UNL     1     146.446  55.753  19.431  1.00  0.00    -0.299 OA
ENDROOT
BRANCH   1   3
ATOM      3  C   UNL     1     146.612  53.801  18.078  1.00  0.00     0.053 C 
ATOM      4  C   UNL     1     146.379  52.833  19.249  1.00  0.00     0.016 C 
BRANCH   3   5
ATOM      5  C   UNL     1     145.999  53.249  16.772  1.00  0.00     0.015 C 
BRANCH   5   6
ATOM      6  C   UNL     1     146.554  53.904  15.484  1.00  0.00     0.028 C 
BRANCH   6   7
ATOM      7  C   UNL     1     145.448  54.571  14.702  1.00  0.00    -0.028 C 
ATOM      8  C   UNL     1     145.480  55.834  14.211  1.00  0.00    -0.070 CG0
ATOM      9  C   UNL     1     144.301  56.299  13.396  1.00  0.00     0.039 C 
ATOM     10  G   UNL     1     146.606  56.817  14.502  1.00  0.00     0.000 G0
ENDBRANCH   6   7
ENDBRANCH   5   6
ENDBRANCH   3   5
ENDBRANCH   1   3
BRANCH   1  11
ATOM     11  C   UNL     1     145.203  55.944  17.438  1.00  0.00     0.087 C 
BRANCH  11  12
ATOM     12  C   UNL     1     145.756  57.330  17.006  1.00  0.00     0.066 C 
BRANCH  12  13
ATOM     13  C   UNL     1     146.850  57.206  15.948  1.00  0.00     0.140 C 
ATOM     14  O   UNL     1     148.007  57.427  16.276  1.00  0.00    -0.299 OA
BRANCH  13  15
ATOM     15  C   UNL     1     146.597  56.849  14.493  1.00  0.00     0.106 CG0
ATOM     16  G   UNL     1     145.472  55.859  14.225  1.00  0.00     0.000 G0
ENDBRANCH  13  15
ENDBRANCH  12  13
BRANCH  12  17
ATOM     17  C   UNL     1     144.611  58.301  16.581  1.00  0.00    -0.006 C 
ATOM     18  C   UNL     1     144.386  59.484  17.542  1.00  0.00     0.008 C 
ATOM     19  C   UNL     1     143.290  57.547  16.375  1.00  0.00     0.008 C 
ENDBRANCH  12  17
ENDBRANCH  11  12
ENDBRANCH   1  11
TORSDOF 1
ENDMDL
MODEL 7
REMARK VINA RESULT:    15.415      1.801      3.849
REMARK INTER + INTRA:          25.224
REMARK INTER:                  21.435
REMARK INTRA:                   3.790
REMARK UNBOUND:                 1.698
REMARK SMILES CC1=CCC[C@H](C)C(=O)C[C@H](C(C)C)C(=O)C1
REMARK SMILES IDX 8 1 9 2 6 3 7 4 5 5 4 6 3 7 2 8 1 9 10 11 11 12 15 13 16 14
REMARK SMILES IDX 17 15 12 17 13 18 14 19
REMARK H PARENT
REMARK Flexibility Score: 70.00
ROOT
ATOM      1  C   UNL     1     144.807  57.623  15.529  1.00  0.00     0.136 C 
ATOM      2  O   UNL     1     144.386  58.613  16.113  1.00  0.00    -0.299 OA
ENDROOT
BRANCH   1   3
ATOM      3  C   UNL     1     143.836  56.553  15.053  1.00  0.00     0.053 C 
ATOM      4  C   UNL     1     142.751  57.123  14.125  1.00  0.00     0.016 C 
BRANCH   3   5
ATOM      5  C   UNL     1     144.568  55.368  14.387  1.00  0.00     0.015 C 
BRANCH   5   6
ATOM      6  C   UNL     1     146.063  55.250  14.769  1.00  0.00     0.028 C 
BRANCH   6   7
ATOM      7  C   UNL     1     146.249  54.293  15.922  1.00  0.00    -0.028 C 
ATOM      8  C   UNL     1     145.983  54.565  17.223  1.00  0.00    -0.070 CG0
ATOM      9  C   UNL     1     146.171  53.454  18.224  1.00  0.00     0.039 C 
ATOM     10  G   UNL     1     145.575  55.944  17.724  1.00  0.00     0.000 G0
ENDBRANCH   6   7
ENDBRANCH   5   6
ENDBRANCH   3   5
ENDBRANCH   1   3
BRANCH   1  11
ATOM     11  C   UNL     1     146.291  57.510  15.271  1.00  0.00     0.087 C 
BRANCH  11  12
ATOM     12  C   UNL     1     147.154  57.781  16.535  1.00  0.00     0.066 C 
BRANCH  12  13
ATOM     13  C   UNL     1     146.625  57.041  17.761  1.00  0.00     0.140 C 
ATOM     14  O   UNL     1     147.092  57.317  18.856  1.00  0.00    -0.299 OA
BRANCH  13  15
ATOM     15  C   UNL     1     145.565  55.954  17.713  1.00  0.00     0.106 CG0
ATOM     16  G   UNL     1     146.022  54.583  17.231  1.00  0.00     0.000 G0
ENDBRANCH  13  15
ENDBRANCH  12  13
BRANCH  12  17
ATOM     17  C   UNL     1     148.667  57.507  16.269  1.00  0.00    -0.006 C 
ATOM     18  C   UNL     1     149.587  57.772  17.477  1.00  0.00     0.008 C 
ATOM     19  C   UNL     1     149.171  58.301  15.055  1.00  0.00     0.008 C 
ENDBRANCH  12  17
ENDBRANCH  11  12
ENDBRANCH   1  11
TORSDOF 1
ENDMDL
MODEL 8
REMARK VINA RESULT:    15.589      1.742      2.699
REMARK INTER + INTRA:          25.489
REMARK INTER:                  24.637
REMARK INTRA:                   0.852
REMARK UNBOUND:                 1.698
REMARK SMILES CC1=CCC[C@H](C)C(=O)C[C@H](C(C)C)C(=O)C1
REMARK SMILES IDX 8 1 9 2 6 3 7 4 5 5 4 6 3 7 2 8 1 9 10 11 11 12 15 13 16 14
REMARK SMILES IDX 17 15 12 17 13 18 14 19
REMARK H PARENT
REMARK Flexibility Score: 70.00
ROOT
ATOM      1  C   UNL     1     146.683  56.946  16.625  1.00  0.00     0.136 C 
ATOM      2  O   UNL     1     147.458  57.440  15.817  1.00  0.00    -0.299 OA
ENDROOT
BRANCH   1   3
ATOM      3  C   UNL     1     146.470  55.440  16.652  1.00  0.00     0.053 C 
ATOM      4  C   UNL     1     145.979  54.946  18.022  1.00  0.00     0.016 C 
BRANCH   3   5
ATOM      5  C   UNL     1     145.528  54.972  15.522  1.00  0.00     0.015 C 
BRANCH   5   6
ATOM      6  C   UNL     1     145.381  55.982  14.359  1.00  0.00     0.028 C 
BRANCH   6   7
ATOM      7  C   UNL     1     143.952  56.036  13.873  1.00  0.00    -0.028 C 
ATOM      8  C   UNL     1     143.110  57.089  14.016  1.00  0.00    -0.070 CG0
ATOM      9  C   UNL     1     141.738  56.976  13.403  1.00  0.00     0.039 C 
ATOM     10  G   UNL     1     143.456  58.335  14.820  1.00  0.00     0.000 G0
ENDBRANCH   6   7
ENDBRANCH   5   6
ENDBRANCH   3   5
ENDBRANCH   1   3
BRANCH   1  11
ATOM     11  C   UNL     1     145.978  57.858  17.602  1.00  0.00     0.087 C 
BRANCH  11  12
ATOM     12  C   UNL     1     145.015  58.864  16.914  1.00  0.00     0.066 C 
BRANCH  12  13
ATOM     13  C   UNL     1     143.834  58.164  16.247  1.00  0.00     0.140 C 
ATOM     14  O   UNL     1     143.166  57.385  16.911  1.00  0.00    -0.299 OA
BRANCH  13  15
ATOM     15  C   UNL     1     143.440  58.350  14.791  1.00  0.00     0.106 CG0
ATOM     16  G   UNL     1     143.112  57.085  14.011  1.00  0.00     0.000 G0
ENDBRANCH  13  15
ENDBRANCH  12  13
BRANCH  12  17
ATOM     17  C   UNL     1     144.572  59.998  17.890  1.00  0.00    -0.006 C 
ATOM     18  C   UNL     1     143.232  59.741  18.605  1.00  0.00     0.008 C 
ATOM     19  C   UNL     1     144.522  61.357  17.177  1.00  0.00     0.008 C 
ENDBRANCH  12  17
ENDBRANCH  11  12
ENDBRANCH   1  11
TORSDOF 1
ENDMDL
MODEL 9
REMARK VINA RESULT:    15.828      1.681      3.743
REMARK INTER + INTRA:          25.854
REMARK INTER:                  24.715
REMARK INTRA:                   1.139
REMARK UNBOUND:                 1.698
REMARK SMILES CC1=CCC[C@H](C)C(=O)C[C@H](C(C)C)C(=O)C1
REMARK SMILES IDX 8 1 9 2 6 3 7 4 5 5 4 6 3 7 2 8 1 9 10 11 11 12 15 13 16 14
REMARK SMILES IDX 17 15 12 17 13 18 14 19
REMARK H PARENT
REMARK Flexibility Score: 70.00
ROOT
ATOM      1  C   UNL     1     147.492  57.188  17.362  1.00  0.00     0.136 C 
ATOM      2  O   UNL     1     147.008  57.870  18.256  1.00  0.00    -0.299 OA
ENDROOT
BRANCH   1   3
ATOM      3  C   UNL     1     148.246  57.854  16.222  1.00  0.00     0.053 C 
ATOM      4  C   UNL     1     149.753  57.551  16.265  1.00  0.00     0.016 C 
BRANCH   3   5
ATOM      5  C   UNL     1     147.646  57.492  14.846  1.00  0.00     0.015 C 
BRANCH   5   6
ATOM      6  C   UNL     1     146.548  58.466  14.356  1.00  0.00     0.028 C 
BRANCH   6   7
ATOM      7  C   UNL     1     145.536  58.726  15.446  1.00  0.00    -0.028 C 
ATOM      8  C   UNL     1     144.638  57.827  15.918  1.00  0.00    -0.070 CG0
ATOM      9  C   UNL     1     143.751  58.256  17.059  1.00  0.00     0.039 C 
ATOM     10  G   UNL     1     144.436  56.445  15.309  1.00  0.00     0.000 G0
ENDBRANCH   6   7
ENDBRANCH   5   6
ENDBRANCH   3   5
ENDBRANCH   1   3
BRANCH   1  11
ATOM     11  C   UNL     1     147.347  55.686  17.439  1.00  0.00     0.087 C 
BRANCH  11  12
ATOM     12  C   UNL     1     145.886  55.201  17.237  1.00  0.00     0.066 C 
BRANCH  12  13
ATOM     13  C   UNL     1     145.418  55.372  15.794  1.00  0.00     0.140 C 
ATOM     14  O   UNL     1     145.853  54.608  14.945  1.00  0.00    -0.299 OA
BRANCH  13  15
ATOM     15  C   UNL     1     144.458  56.453  15.328  1.00  0.00     0.106 CG0
ATOM     16  G   UNL     1     144.666  57.842  15.915  1.00  0.00     0.000 G0
ENDBRANCH  13  15
ENDBRANCH  12  13
BRANCH  12  17
ATOM     17  C   UNL     1     145.681  53.748  17.770  1.00  0.00    -0.006 C 
ATOM     18  C   UNL     1     145.374  53.657  19.277  1.00  0.00     0.008 C 
ATOM     19  C   UNL     1     146.888  52.859  17.437  1.00  0.00     0.008 C 
ENDBRANCH  12  17
ENDBRANCH  11  12
ENDBRANCH   1  11
TORSDOF 1
ENDMDL
