MODEL 1
REMARK VINA RESULT:    -5.159      0.000      0.000
REMARK INTER + INTRA:          -5.697
REMARK INTER:                  -5.611
REMARK INTRA:                  -0.086
REMARK UNBOUND:                -0.086
REMARK SMILES C[C@@H]1[C@H]2C3=CC[C@@H]4[C@@]5(C)CC[C@@H](O)C(C)(C)[C@@H]5CC[C@@]4(C)[C@]3(C)CC[C@@]2(C(=O)[O-])CC[C@@H]1C
REMARK SMILES IDX 26 1 30 2 25 3 3 4 31 5 24 6 4 7 2 8 32 9 22 10 5 11 1 12
REMARK SMILES IDX 33 13 23 14 20 15 6 16 7 17 19 18 21 19 8 20 18 21 17 22
REMARK SMILES IDX 10 23 9 24 14 25 11 26 12 27 15 28 16 29 27 30 28 31 29 32
REMARK SMILES IDX 13 33
REMARK H PARENT 13 34
REMARK Flexibility Score: inf
ROOT
ATOM      1  C   UNL     1     125.192   5.178 137.977  1.00  0.00     0.017 C 
ATOM      2  C   UNL     1     123.786   5.069 137.328  1.00  0.00     0.014 C 
ATOM      3  C   UNL     1     125.062   5.502 139.488  1.00  0.00     0.014 C 
ATOM      4  C   UNL     1     126.041   6.295 137.283  1.00  0.00     0.030 C 
ATOM      5  C   UNL     1     123.049   6.408 137.221  1.00  0.00     0.004 C 
ATOM      6  C   UNL     1     126.419   5.497 140.201  1.00  0.00     0.013 C 
ATOM      7  C   UNL     1     127.390   6.476 137.995  1.00  0.00    -0.063 C 
ATOM      8  C   UNL     1     125.262   7.649 137.138  1.00  0.00    -0.003 C 
ATOM      9  C   UNL     1     123.873   7.461 136.465  1.00  0.00    -0.011 C 
ATOM     10  C   UNL     1     127.532   6.383 139.528  1.00  0.00    -0.006 C 
ATOM     11  C   UNL     1     128.459   6.842 137.242  1.00  0.00    -0.027 C 
ATOM     12  C   UNL     1     126.077   8.740 136.418  1.00  0.00     0.008 C 
ATOM     13  C   UNL     1     123.942   7.147 134.956  1.00  0.00     0.008 C 
ATOM     14  C   UNL     1     127.308   7.840 140.056  1.00  0.00     0.017 C 
ATOM     15  C   UNL     1     129.001   5.801 139.853  1.00  0.00    -0.020 C 
ATOM     16  C   UNL     1     129.847   7.129 137.778  1.00  0.00     0.032 C 
ATOM     17  C   UNL     1     130.057   6.830 139.295  1.00  0.00     0.006 C 
ATOM     18  C   UNL     1     129.208   5.606 141.394  1.00  0.00     0.008 C 
ATOM     19  C   UNL     1     129.195   4.402 139.165  1.00  0.00     0.012 C 
ATOM     20  C   UNL     1     131.569   6.603 139.726  1.00  0.00    -0.025 C 
ATOM     21  C   UNL     1     130.669   5.387 141.823  1.00  0.00     0.005 C 
ATOM     22  C   UNL     1     131.587   6.523 141.302  1.00  0.00     0.003 C 
ATOM     23  C   UNL     1     132.393   7.859 139.296  1.00  0.00     0.010 C 
ATOM     24  C   UNL     1     132.190   5.339 139.037  1.00  0.00     0.012 C 
ATOM     25  C   UNL     1     133.012   6.603 141.983  1.00  0.00    -0.006 C 
ATOM     26  C   UNL     1     133.801   7.922 139.910  1.00  0.00     0.033 C 
ATOM     27  C   UNL     1     133.767   7.862 141.446  1.00  0.00     0.120 C 
ATOM     28  C   UNL     1     133.873   5.334 141.762  1.00  0.00     0.014 C 
ATOM     29  C   UNL     1     132.860   6.767 143.522  1.00  0.00     0.014 C 
ENDROOT
BRANCH   1  30
ATOM     30  C   UNL     1     125.841   3.806 137.809  1.00  0.00     0.048 C 
ATOM     31  O   UNL     1     126.624   3.568 136.849  1.00  0.00    -0.550 OA
ATOM     32  O   UNL     1     125.511   2.771 138.676  1.00  0.00    -0.550 OA
ENDBRANCH   1  30
BRANCH  27  33
ATOM     33  O   UNL     1     133.164   9.037 141.937  1.00  0.00    -0.393 OA
ATOM     34  H   UNL     1     133.793   9.433 142.595  1.00  0.00     0.210 HD
ENDBRANCH  27  33
TORSDOF 2
ENDMDL
MODEL 2
REMARK VINA RESULT:    -4.872     15.712     17.855
REMARK INTER + INTRA:          -5.385
REMARK INTER:                  -5.466
REMARK INTRA:                   0.081
REMARK UNBOUND:                -0.086
REMARK SMILES C[C@@H]1[C@H]2C3=CC[C@@H]4[C@@]5(C)CC[C@@H](O)C(C)(C)[C@@H]5CC[C@@]4(C)[C@]3(C)CC[C@@]2(C(=O)[O-])CC[C@@H]1C
REMARK SMILES IDX 26 1 30 2 25 3 3 4 31 5 24 6 4 7 2 8 32 9 22 10 5 11 1 12
REMARK SMILES IDX 33 13 23 14 20 15 6 16 7 17 19 18 21 19 8 20 18 21 17 22
REMARK SMILES IDX 10 23 9 24 14 25 11 26 12 27 15 28 16 29 27 30 28 31 29 32
REMARK SMILES IDX 13 33
REMARK H PARENT 13 34
REMARK Flexibility Score: inf
ROOT
ATOM      1  C   UNL     1     123.368  16.227 151.433  1.00  0.00     0.017 C 
ATOM      2  C   UNL     1     122.105  15.328 151.336  1.00  0.00     0.014 C 
ATOM      3  C   UNL     1     124.160  16.185 150.100  1.00  0.00     0.014 C 
ATOM      4  C   UNL     1     124.299  15.754 152.599  1.00  0.00     0.030 C 
ATOM      5  C   UNL     1     122.415  13.829 151.290  1.00  0.00     0.004 C 
ATOM      6  C   UNL     1     125.349  17.154 150.102  1.00  0.00     0.013 C 
ATOM      7  C   UNL     1     125.598  16.573 152.626  1.00  0.00    -0.063 C 
ATOM      8  C   UNL     1     124.575  14.209 152.569  1.00  0.00    -0.003 C 
ATOM      9  C   UNL     1     123.263  13.378 152.489  1.00  0.00    -0.011 C 
ATOM     10  C   UNL     1     126.316  17.023 151.337  1.00  0.00    -0.006 C 
ATOM     11  C   UNL     1     126.179  16.801 153.832  1.00  0.00    -0.027 C 
ATOM     12  C   UNL     1     125.456  13.731 153.738  1.00  0.00     0.008 C 
ATOM     13  C   UNL     1     122.439  13.374 153.793  1.00  0.00     0.008 C 
ATOM     14  C   UNL     1     127.312  15.866 150.989  1.00  0.00     0.017 C 
ATOM     15  C   UNL     1     127.045  18.429 151.643  1.00  0.00    -0.020 C 
ATOM     16  C   UNL     1     127.490  17.529 154.046  1.00  0.00     0.032 C 
ATOM     17  C   UNL     1     128.116  18.176 152.772  1.00  0.00     0.006 C 
ATOM     18  C   UNL     1     127.744  18.999 150.362  1.00  0.00     0.008 C 
ATOM     19  C   UNL     1     125.994  19.492 152.125  1.00  0.00     0.012 C 
ATOM     20  C   UNL     1     129.141  19.355 153.058  1.00  0.00    -0.025 C 
ATOM     21  C   UNL     1     128.741  20.141 150.628  1.00  0.00     0.005 C 
ATOM     22  C   UNL     1     129.805  19.728 151.676  1.00  0.00     0.003 C 
ATOM     23  C   UNL     1     130.261  18.811 154.003  1.00  0.00     0.010 C 
ATOM     24  C   UNL     1     128.448  20.574 153.758  1.00  0.00     0.012 C 
ATOM     25  C   UNL     1     131.077  20.665 151.750  1.00  0.00    -0.006 C 
ATOM     26  C   UNL     1     131.481  19.737 154.125  1.00  0.00     0.033 C 
ATOM     27  C   UNL     1     132.106  20.056 152.757  1.00  0.00     0.120 C 
ATOM     28  C   UNL     1     130.744  22.125 152.151  1.00  0.00     0.014 C 
ATOM     29  C   UNL     1     131.767  20.740 150.358  1.00  0.00     0.014 C 
ENDROOT
BRANCH   1  30
ATOM     30  C   UNL     1     122.859  17.645 151.675  1.00  0.00     0.048 C 
ATOM     31  O   UNL     1     122.827  18.495 150.744  1.00  0.00    -0.550 OA
ATOM     32  O   UNL     1     122.494  18.043 152.956  1.00  0.00    -0.550 OA
ENDBRANCH   1  30
BRANCH  27  33
ATOM     33  O   UNL     1     132.667  18.878 152.225  1.00  0.00    -0.393 OA
ATOM     34  H   UNL     1     133.419  19.154 151.636  1.00  0.00     0.210 HD
ENDBRANCH  27  33
TORSDOF 2
ENDMDL
MODEL 3
REMARK VINA RESULT:    -4.682      2.481      3.953
REMARK INTER + INTRA:          -5.178
REMARK INTER:                  -5.125
REMARK INTRA:                  -0.053
REMARK UNBOUND:                -0.086
REMARK SMILES C[C@@H]1[C@H]2C3=CC[C@@H]4[C@@]5(C)CC[C@@H](O)C(C)(C)[C@@H]5CC[C@@]4(C)[C@]3(C)CC[C@@]2(C(=O)[O-])CC[C@@H]1C
REMARK SMILES IDX 26 1 30 2 25 3 3 4 31 5 24 6 4 7 2 8 32 9 22 10 5 11 1 12
REMARK SMILES IDX 33 13 23 14 20 15 6 16 7 17 19 18 21 19 8 20 18 21 17 22
REMARK SMILES IDX 10 23 9 24 14 25 11 26 12 27 15 28 16 29 27 30 28 31 29 32
REMARK SMILES IDX 13 33
REMARK H PARENT 13 34
REMARK Flexibility Score: inf
ROOT
ATOM      1  C   UNL     1     122.772   6.082 135.239  1.00  0.00     0.017 C 
ATOM      2  C   UNL     1     121.564   6.477 134.346  1.00  0.00     0.014 C 
ATOM      3  C   UNL     1     122.299   5.192 136.418  1.00  0.00     0.014 C 
ATOM      4  C   UNL     1     123.483   7.354 135.808  1.00  0.00     0.030 C 
ATOM      5  C   UNL     1     120.597   7.460 135.014  1.00  0.00     0.004 C 
ATOM      6  C   UNL     1     123.472   4.672 137.258  1.00  0.00     0.013 C 
ATOM      7  C   UNL     1     124.609   6.963 136.776  1.00  0.00    -0.063 C 
ATOM      8  C   UNL     1     122.480   8.376 136.450  1.00  0.00    -0.003 C 
ATOM      9  C   UNL     1     121.310   8.735 135.491  1.00  0.00    -0.011 C 
ATOM     10  C   UNL     1     124.481   5.775 137.751  1.00  0.00    -0.006 C 
ATOM     11  C   UNL     1     125.699   7.769 136.840  1.00  0.00    -0.027 C 
ATOM     12  C   UNL     1     123.169   9.650 136.974  1.00  0.00     0.008 C 
ATOM     13  C   UNL     1     121.720   9.630 134.303  1.00  0.00     0.008 C 
ATOM     14  C   UNL     1     123.864   6.375 139.060  1.00  0.00     0.017 C 
ATOM     15  C   UNL     1     125.953   5.149 137.963  1.00  0.00    -0.020 C 
ATOM     16  C   UNL     1     126.873   7.578 137.779  1.00  0.00     0.032 C 
ATOM     17  C   UNL     1     126.856   6.263 138.618  1.00  0.00     0.006 C 
ATOM     18  C   UNL     1     125.907   3.887 138.890  1.00  0.00     0.008 C 
ATOM     19  C   UNL     1     126.558   4.705 136.583  1.00  0.00     0.012 C 
ATOM     20  C   UNL     1     128.275   5.801 139.161  1.00  0.00    -0.025 C 
ATOM     21  C   UNL     1     127.277   3.431 139.424  1.00  0.00     0.005 C 
ATOM     22  C   UNL     1     128.017   4.590 140.139  1.00  0.00     0.003 C 
ATOM     23  C   UNL     1     128.886   6.974 139.994  1.00  0.00     0.010 C 
ATOM     24  C   UNL     1     129.262   5.453 137.994  1.00  0.00     0.012 C 
ATOM     25  C   UNL     1     129.243   4.152 141.037  1.00  0.00    -0.006 C 
ATOM     26  C   UNL     1     130.110   6.575 140.831  1.00  0.00     0.033 C 
ATOM     27  C   UNL     1     129.806   5.406 141.783  1.00  0.00     0.120 C 
ATOM     28  C   UNL     1     130.375   3.457 140.239  1.00  0.00     0.014 C 
ATOM     29  C   UNL     1     128.778   3.133 142.116  1.00  0.00     0.014 C 
ENDROOT
BRANCH   1  30
ATOM     30  C   UNL     1     123.712   5.278 134.344  1.00  0.00     0.048 C 
ATOM     31  O   UNL     1     124.764   5.791 133.875  1.00  0.00    -0.550 OA
ATOM     32  O   UNL     1     123.374   3.983 133.967  1.00  0.00    -0.550 OA
ENDBRANCH   1  30
BRANCH  27  33
ATOM     33  O   UNL     1     128.892   5.839 142.763  1.00  0.00    -0.393 OA
ATOM     34  H   UNL     1     128.438   5.029 143.117  1.00  0.00     0.210 HD
ENDBRANCH  27  33
TORSDOF 2
ENDMDL
MODEL 4
REMARK VINA RESULT:    -4.673      2.584      7.586
REMARK INTER + INTRA:          -5.168
REMARK INTER:                  -5.120
REMARK INTRA:                  -0.048
REMARK UNBOUND:                -0.086
REMARK SMILES C[C@@H]1[C@H]2C3=CC[C@@H]4[C@@]5(C)CC[C@@H](O)C(C)(C)[C@@H]5CC[C@@]4(C)[C@]3(C)CC[C@@]2(C(=O)[O-])CC[C@@H]1C
REMARK SMILES IDX 26 1 30 2 25 3 3 4 31 5 24 6 4 7 2 8 32 9 22 10 5 11 1 12
REMARK SMILES IDX 33 13 23 14 20 15 6 16 7 17 19 18 21 19 8 20 18 21 17 22
REMARK SMILES IDX 10 23 9 24 14 25 11 26 12 27 15 28 16 29 27 30 28 31 29 32
REMARK SMILES IDX 13 33
REMARK H PARENT 13 34
REMARK Flexibility Score: inf
ROOT
ATOM      1  C   UNL     1     130.049   4.505 140.389  1.00  0.00     0.017 C 
ATOM      2  C   UNL     1     131.190   3.646 140.999  1.00  0.00     0.014 C 
ATOM      3  C   UNL     1     128.727   3.694 140.354  1.00  0.00     0.014 C 
ATOM      4  C   UNL     1     130.411   4.960 138.936  1.00  0.00     0.030 C 
ATOM      5  C   UNL     1     131.642   2.490 140.100  1.00  0.00     0.004 C 
ATOM      6  C   UNL     1     127.541   4.540 139.876  1.00  0.00     0.013 C 
ATOM      7  C   UNL     1     129.239   5.717 138.294  1.00  0.00    -0.063 C 
ATOM      8  C   UNL     1     130.916   3.778 138.036  1.00  0.00    -0.003 C 
ATOM      9  C   UNL     1     132.068   2.977 138.706  1.00  0.00    -0.011 C 
ATOM     10  C   UNL     1     127.770   5.306 138.520  1.00  0.00    -0.006 C 
ATOM     11  C   UNL     1     129.531   6.706 137.411  1.00  0.00    -0.027 C 
ATOM     12  C   UNL     1     131.313   4.227 136.617  1.00  0.00     0.008 C 
ATOM     13  C   UNL     1     133.412   3.732 138.758  1.00  0.00     0.008 C 
ATOM     14  C   UNL     1     127.444   4.281 137.381  1.00  0.00     0.017 C 
ATOM     15  C   UNL     1     126.868   6.642 138.459  1.00  0.00    -0.020 C 
ATOM     16  C   UNL     1     128.510   7.513 136.635  1.00  0.00     0.032 C 
ATOM     17  C   UNL     1     127.019   7.254 137.014  1.00  0.00     0.006 C 
ATOM     18  C   UNL     1     125.361   6.326 138.750  1.00  0.00     0.008 C 
ATOM     19  C   UNL     1     127.355   7.675 139.537  1.00  0.00     0.012 C 
ATOM     20  C   UNL     1     126.021   8.429 136.631  1.00  0.00    -0.025 C 
ATOM     21  C   UNL     1     124.385   7.457 138.380  1.00  0.00     0.005 C 
ATOM     22  C   UNL     1     124.561   7.895 136.904  1.00  0.00     0.003 C 
ATOM     23  C   UNL     1     126.156   8.705 135.099  1.00  0.00     0.010 C 
ATOM     24  C   UNL     1     126.349   9.751 137.406  1.00  0.00     0.012 C 
ATOM     25  C   UNL     1     123.382   8.770 136.316  1.00  0.00    -0.006 C 
ATOM     26  C   UNL     1     125.045   9.598 134.524  1.00  0.00     0.033 C 
ATOM     27  C   UNL     1     123.644   9.028 134.796  1.00  0.00     0.120 C 
ATOM     28  C   UNL     1     123.187  10.117 137.057  1.00  0.00     0.014 C 
ATOM     29  C   UNL     1     122.035   8.003 136.438  1.00  0.00     0.014 C 
ENDROOT
BRANCH   1  30
ATOM     30  C   UNL     1     129.882   5.705 141.318  1.00  0.00     0.048 C 
ATOM     31  O   UNL     1     130.580   6.745 141.172  1.00  0.00    -0.550 OA
ATOM     32  O   UNL     1     129.006   5.633 142.394  1.00  0.00    -0.550 OA
ENDBRANCH   1  30
BRANCH  27  33
ATOM     33  O   UNL     1     123.486   7.833 134.067  1.00  0.00    -0.393 OA
ATOM     34  H   UNL     1     122.529   7.775 133.807  1.00  0.00     0.210 HD
ENDBRANCH  27  33
TORSDOF 2
ENDMDL
MODEL 5
REMARK VINA RESULT:    -4.646      2.606      5.066
REMARK INTER + INTRA:          -5.139
REMARK INTER:                  -5.077
REMARK INTRA:                  -0.061
REMARK UNBOUND:                -0.086
REMARK SMILES C[C@@H]1[C@H]2C3=CC[C@@H]4[C@@]5(C)CC[C@@H](O)C(C)(C)[C@@H]5CC[C@@]4(C)[C@]3(C)CC[C@@]2(C(=O)[O-])CC[C@@H]1C
REMARK SMILES IDX 26 1 30 2 25 3 3 4 31 5 24 6 4 7 2 8 32 9 22 10 5 11 1 12
REMARK SMILES IDX 33 13 23 14 20 15 6 16 7 17 19 18 21 19 8 20 18 21 17 22
REMARK SMILES IDX 10 23 9 24 14 25 11 26 12 27 15 28 16 29 27 30 28 31 29 32
REMARK SMILES IDX 13 33
REMARK H PARENT 13 34
REMARK Flexibility Score: inf
ROOT
ATOM      1  C   UNL     1     123.780   9.168 135.419  1.00  0.00     0.017 C 
ATOM      2  C   UNL     1     122.595   9.746 134.597  1.00  0.00     0.014 C 
ATOM      3  C   UNL     1     124.805   8.487 134.476  1.00  0.00     0.014 C 
ATOM      4  C   UNL     1     123.272   8.123 136.467  1.00  0.00     0.030 C 
ATOM      5  C   UNL     1     121.685   8.675 133.988  1.00  0.00     0.004 C 
ATOM      6  C   UNL     1     126.055   8.010 135.227  1.00  0.00     0.013 C 
ATOM      7  C   UNL     1     124.452   7.473 137.205  1.00  0.00    -0.063 C 
ATOM      8  C   UNL     1     122.304   7.057 135.843  1.00  0.00    -0.003 C 
ATOM      9  C   UNL     1     121.137   7.711 135.052  1.00  0.00    -0.011 C 
ATOM     10  C   UNL     1     125.774   7.119 136.493  1.00  0.00    -0.006 C 
ATOM     11  C   UNL     1     124.264   7.101 138.497  1.00  0.00    -0.027 C 
ATOM     12  C   UNL     1     121.768   6.050 136.879  1.00  0.00     0.008 C 
ATOM     13  C   UNL     1     120.078   8.395 135.941  1.00  0.00     0.008 C 
ATOM     14  C   UNL     1     125.585   5.658 135.965  1.00  0.00     0.017 C 
ATOM     15  C   UNL     1     126.968   7.264 137.569  1.00  0.00    -0.020 C 
ATOM     16  C   UNL     1     125.288   6.390 139.358  1.00  0.00     0.032 C 
ATOM     17  C   UNL     1     126.702   6.219 138.720  1.00  0.00     0.006 C 
ATOM     18  C   UNL     1     128.363   6.990 136.912  1.00  0.00     0.008 C 
ATOM     19  C   UNL     1     126.994   8.721 138.158  1.00  0.00     0.012 C 
ATOM     20  C   UNL     1     127.880   5.993 139.762  1.00  0.00    -0.025 C 
ATOM     21  C   UNL     1     129.511   6.768 137.912  1.00  0.00     0.005 C 
ATOM     22  C   UNL     1     129.169   5.643 138.923  1.00  0.00     0.003 C 
ATOM     23  C   UNL     1     127.523   4.752 140.641  1.00  0.00     0.010 C 
ATOM     24  C   UNL     1     128.073   7.232 140.703  1.00  0.00     0.012 C 
ATOM     25  C   UNL     1     130.398   5.080 139.744  1.00  0.00    -0.006 C 
ATOM     26  C   UNL     1     128.694   4.226 141.485  1.00  0.00     0.033 C 
ATOM     27  C   UNL     1     129.919   3.879 140.624  1.00  0.00     0.120 C 
ATOM     28  C   UNL     1     131.086   6.147 140.633  1.00  0.00     0.014 C 
ATOM     29  C   UNL     1     131.490   4.546 138.774  1.00  0.00     0.014 C 
ENDROOT
BRANCH   1  30
ATOM     30  C   UNL     1     124.438  10.362 136.105  1.00  0.00     0.048 C 
ATOM     31  O   UNL     1     124.056  10.756 137.240  1.00  0.00    -0.550 OA
ATOM     32  O   UNL     1     125.425  11.086 135.444  1.00  0.00    -0.550 OA
ENDBRANCH   1  30
BRANCH  27  33
ATOM     33  O   UNL     1     129.607   2.773 139.808  1.00  0.00    -0.393 OA
ATOM     34  H   UNL     1     129.138   3.126 139.007  1.00  0.00     0.210 HD
ENDBRANCH  27  33
TORSDOF 2
ENDMDL
MODEL 6
REMARK VINA RESULT:    -4.622      2.386      3.203
REMARK INTER + INTRA:          -5.112
REMARK INTER:                  -5.027
REMARK INTRA:                  -0.086
REMARK UNBOUND:                -0.086
REMARK SMILES C[C@@H]1[C@H]2C3=CC[C@@H]4[C@@]5(C)CC[C@@H](O)C(C)(C)[C@@H]5CC[C@@]4(C)[C@]3(C)CC[C@@]2(C(=O)[O-])CC[C@@H]1C
REMARK SMILES IDX 26 1 30 2 25 3 3 4 31 5 24 6 4 7 2 8 32 9 22 10 5 11 1 12
REMARK SMILES IDX 33 13 23 14 20 15 6 16 7 17 19 18 21 19 8 20 18 21 17 22
REMARK SMILES IDX 10 23 9 24 14 25 11 26 12 27 15 28 16 29 27 30 28 31 29 32
REMARK SMILES IDX 13 33
REMARK H PARENT 13 34
REMARK Flexibility Score: inf
ROOT
ATOM      1  C   UNL     1     124.417   7.943 136.705  1.00  0.00     0.017 C 
ATOM      2  C   UNL     1     123.166   8.794 136.354  1.00  0.00     0.014 C 
ATOM      3  C   UNL     1     124.321   7.426 138.164  1.00  0.00     0.014 C 
ATOM      4  C   UNL     1     125.726   8.786 136.543  1.00  0.00     0.030 C 
ATOM      5  C   UNL     1     123.110  10.141 137.081  1.00  0.00     0.004 C 
ATOM      6  C   UNL     1     125.472   6.478 138.519  1.00  0.00     0.013 C 
ATOM      7  C   UNL     1     126.952   7.979 136.994  1.00  0.00    -0.063 C 
ATOM      8  C   UNL     1     125.642  10.182 137.253  1.00  0.00    -0.003 C 
ATOM      9  C   UNL     1     124.374  10.980 136.838  1.00  0.00    -0.011 C 
ATOM     10  C   UNL     1     126.913   7.030 138.209  1.00  0.00    -0.006 C 
ATOM     11  C   UNL     1     128.130   8.208 136.359  1.00  0.00    -0.027 C 
ATOM     12  C   UNL     1     126.912  11.033 137.062  1.00  0.00     0.008 C 
ATOM     13  C   UNL     1     124.419  11.530 135.398  1.00  0.00     0.008 C 
ATOM     14  C   UNL     1     127.316   7.911 139.439  1.00  0.00     0.017 C 
ATOM     15  C   UNL     1     127.940   5.819 137.923  1.00  0.00    -0.020 C 
ATOM     16  C   UNL     1     129.452   7.557 136.710  1.00  0.00     0.032 C 
ATOM     17  C   UNL     1     129.384   6.438 137.794  1.00  0.00     0.006 C 
ATOM     18  C   UNL     1     127.913   4.764 139.081  1.00  0.00     0.008 C 
ATOM     19  C   UNL     1     127.549   5.078 136.594  1.00  0.00     0.012 C 
ATOM     20  C   UNL     1     130.598   5.413 137.771  1.00  0.00    -0.025 C 
ATOM     21  C   UNL     1     129.085   3.767 139.070  1.00  0.00     0.005 C 
ATOM     22  C   UNL     1     130.450   4.502 139.051  1.00  0.00     0.003 C 
ATOM     23  C   UNL     1     131.926   6.226 137.907  1.00  0.00     0.010 C 
ATOM     24  C   UNL     1     130.648   4.596 136.434  1.00  0.00     0.012 C 
ATOM     25  C   UNL     1     131.702   3.606 139.411  1.00  0.00    -0.006 C 
ATOM     26  C   UNL     1     133.161   5.361 138.205  1.00  0.00     0.033 C 
ATOM     27  C   UNL     1     132.979   4.507 139.470  1.00  0.00     0.120 C 
ATOM     28  C   UNL     1     131.926   2.434 138.422  1.00  0.00     0.014 C 
ATOM     29  C   UNL     1     131.514   2.964 140.815  1.00  0.00     0.014 C 
ENDROOT
BRANCH   1  30
ATOM     30  C   UNL     1     124.402   6.756 135.746  1.00  0.00     0.048 C 
ATOM     31  O   UNL     1     125.071   6.772 134.677  1.00  0.00    -0.550 OA
ATOM     32  O   UNL     1     123.580   5.665 136.003  1.00  0.00    -0.550 OA
ENDBRANCH   1  30
BRANCH  27  33
ATOM     33  O   UNL     1     132.921   5.357 140.592  1.00  0.00    -0.393 OA
ATOM     34  H   UNL     1     132.945   4.778 141.398  1.00  0.00     0.210 HD
ENDBRANCH  27  33
TORSDOF 2
ENDMDL
MODEL 7
REMARK VINA RESULT:    -4.559      2.531      7.721
REMARK INTER + INTRA:          -5.045
REMARK INTER:                  -4.962
REMARK INTRA:                  -0.083
REMARK UNBOUND:                -0.086
REMARK SMILES C[C@@H]1[C@H]2C3=CC[C@@H]4[C@@]5(C)CC[C@@H](O)C(C)(C)[C@@H]5CC[C@@]4(C)[C@]3(C)CC[C@@]2(C(=O)[O-])CC[C@@H]1C
REMARK SMILES IDX 26 1 30 2 25 3 3 4 31 5 24 6 4 7 2 8 32 9 22 10 5 11 1 12
REMARK SMILES IDX 33 13 23 14 20 15 6 16 7 17 19 18 21 19 8 20 18 21 17 22
REMARK SMILES IDX 10 23 9 24 14 25 11 26 12 27 15 28 16 29 27 30 28 31 29 32
REMARK SMILES IDX 13 33
REMARK H PARENT 13 34
REMARK Flexibility Score: inf
ROOT
ATOM      1  C   UNL     1     129.332   5.630 140.158  1.00  0.00     0.017 C 
ATOM      2  C   UNL     1     130.107   4.711 141.141  1.00  0.00     0.014 C 
ATOM      3  C   UNL     1     128.687   6.813 140.925  1.00  0.00     0.014 C 
ATOM      4  C   UNL     1     128.212   4.829 139.413  1.00  0.00     0.030 C 
ATOM      5  C   UNL     1     129.202   3.916 142.088  1.00  0.00     0.004 C 
ATOM      6  C   UNL     1     128.015   7.818 139.982  1.00  0.00     0.013 C 
ATOM      7  C   UNL     1     127.376   5.761 138.523  1.00  0.00    -0.063 C 
ATOM      8  C   UNL     1     127.319   3.983 140.387  1.00  0.00    -0.003 C 
ATOM      9  C   UNL     1     128.165   3.077 141.326  1.00  0.00    -0.011 C 
ATOM     10  C   UNL     1     127.001   7.194 138.952  1.00  0.00    -0.006 C 
ATOM     11  C   UNL     1     126.865   5.249 137.374  1.00  0.00    -0.027 C 
ATOM     12  C   UNL     1     126.242   3.160 139.656  1.00  0.00     0.008 C 
ATOM     13  C   UNL     1     128.822   1.875 140.617  1.00  0.00     0.008 C 
ATOM     14  C   UNL     1     125.638   7.058 139.711  1.00  0.00     0.017 C 
ATOM     15  C   UNL     1     126.908   8.100 137.621  1.00  0.00    -0.020 C 
ATOM     16  C   UNL     1     125.967   5.996 136.409  1.00  0.00     0.032 C 
ATOM     17  C   UNL     1     125.755   7.509 136.721  1.00  0.00     0.006 C 
ATOM     18  C   UNL     1     126.599   9.595 137.971  1.00  0.00     0.008 C 
ATOM     19  C   UNL     1     128.272   8.064 136.843  1.00  0.00     0.012 C 
ATOM     20  C   UNL     1     125.301   8.389 135.479  1.00  0.00    -0.025 C 
ATOM     21  C   UNL     1     126.155  10.456 136.775  1.00  0.00     0.005 C 
ATOM     22  C   UNL     1     124.948   9.821 136.039  1.00  0.00     0.003 C 
ATOM     23  C   UNL     1     123.996   7.764 134.889  1.00  0.00     0.010 C 
ATOM     24  C   UNL     1     126.392   8.418 134.353  1.00  0.00     0.012 C 
ATOM     25  C   UNL     1     124.183  10.784 135.044  1.00  0.00    -0.006 C 
ATOM     26  C   UNL     1     123.270   8.668 133.881  1.00  0.00     0.033 C 
ATOM     27  C   UNL     1     122.928  10.044 134.477  1.00  0.00     0.120 C 
ATOM     28  C   UNL     1     125.068  11.296 133.880  1.00  0.00     0.014 C 
ATOM     29  C   UNL     1     123.682  12.046 135.802  1.00  0.00     0.014 C 
ENDROOT
BRANCH   1  30
ATOM     30  C   UNL     1     130.370   6.169 139.178  1.00  0.00     0.048 C 
ATOM     31  O   UNL     1     130.532   5.643 138.043  1.00  0.00    -0.550 OA
ATOM     32  O   UNL     1     131.213   7.207 139.559  1.00  0.00    -0.550 OA
ENDBRANCH   1  30
BRANCH  27  33
ATOM     33  O   UNL     1     121.963   9.877 135.490  1.00  0.00    -0.393 OA
ATOM     34  H   UNL     1     121.760  10.780 135.850  1.00  0.00     0.210 HD
ENDBRANCH  27  33
TORSDOF 2
ENDMDL
MODEL 8
REMARK VINA RESULT:    -4.444      2.063      7.663
REMARK INTER + INTRA:          -4.919
REMARK INTER:                  -4.911
REMARK INTRA:                  -0.008
REMARK UNBOUND:                -0.086
REMARK SMILES C[C@@H]1[C@H]2C3=CC[C@@H]4[C@@]5(C)CC[C@@H](O)C(C)(C)[C@@H]5CC[C@@]4(C)[C@]3(C)CC[C@@]2(C(=O)[O-])CC[C@@H]1C
REMARK SMILES IDX 26 1 30 2 25 3 3 4 31 5 24 6 4 7 2 8 32 9 22 10 5 11 1 12
REMARK SMILES IDX 33 13 23 14 20 15 6 16 7 17 19 18 21 19 8 20 18 21 17 22
REMARK SMILES IDX 10 23 9 24 14 25 11 26 12 27 15 28 16 29 27 30 28 31 29 32
REMARK SMILES IDX 13 33
REMARK H PARENT 13 34
REMARK Flexibility Score: inf
ROOT
ATOM      1  C   UNL     1     130.751   3.676 140.291  1.00  0.00     0.017 C 
ATOM      2  C   UNL     1     132.038   3.169 140.998  1.00  0.00     0.014 C 
ATOM      3  C   UNL     1     130.757   3.252 138.799  1.00  0.00     0.014 C 
ATOM      4  C   UNL     1     130.643   5.235 140.381  1.00  0.00     0.030 C 
ATOM      5  C   UNL     1     133.314   3.890 140.550  1.00  0.00     0.004 C 
ATOM      6  C   UNL     1     129.450   3.620 138.087  1.00  0.00     0.013 C 
ATOM      7  C   UNL     1     129.430   5.744 139.590  1.00  0.00    -0.063 C 
ATOM      8  C   UNL     1     131.970   5.962 139.964  1.00  0.00    -0.003 C 
ATOM      9  C   UNL     1     133.209   5.413 140.726  1.00  0.00    -0.011 C 
ATOM     10  C   UNL     1     129.002   5.121 138.246  1.00  0.00    -0.006 C 
ATOM     11  C   UNL     1     128.794   6.852 140.049  1.00  0.00    -0.027 C 
ATOM     12  C   UNL     1     131.883   7.495 140.091  1.00  0.00     0.008 C 
ATOM     13  C   UNL     1     133.261   5.814 142.214  1.00  0.00     0.008 C 
ATOM     14  C   UNL     1     129.777   5.925 137.148  1.00  0.00     0.017 C 
ATOM     15  C   UNL     1     127.399   5.254 138.127  1.00  0.00    -0.020 C 
ATOM     16  C   UNL     1     127.625   7.533 139.367  1.00  0.00     0.032 C 
ATOM     17  C   UNL     1     127.046   6.791 138.122  1.00  0.00     0.006 C 
ATOM     18  C   UNL     1     126.866   4.580 136.817  1.00  0.00     0.008 C 
ATOM     19  C   UNL     1     126.704   4.544 139.345  1.00  0.00     0.012 C 
ATOM     20  C   UNL     1     125.551   7.177 137.752  1.00  0.00    -0.025 C 
ATOM     21  C   UNL     1     125.419   4.949 136.448  1.00  0.00     0.005 C 
ATOM     22  C   UNL     1     125.230   6.486 136.371  1.00  0.00     0.003 C 
ATOM     23  C   UNL     1     125.482   8.724 137.547  1.00  0.00     0.010 C 
ATOM     24  C   UNL     1     124.546   6.780 138.889  1.00  0.00     0.012 C 
ATOM     25  C   UNL     1     123.909   6.966 135.646  1.00  0.00    -0.006 C 
ATOM     26  C   UNL     1     124.180   9.211 136.891  1.00  0.00     0.033 C 
ATOM     27  C   UNL     1     123.920   8.526 135.540  1.00  0.00     0.120 C 
ATOM     28  C   UNL     1     122.612   6.493 136.352  1.00  0.00     0.014 C 
ATOM     29  C   UNL     1     123.854   6.396 134.200  1.00  0.00     0.014 C 
ENDROOT
BRANCH   1  30
ATOM     30  C   UNL     1     129.585   2.999 141.004  1.00  0.00     0.048 C 
ATOM     31  O   UNL     1     129.146   1.880 140.622  1.00  0.00    -0.550 OA
ATOM     32  O   UNL     1     128.935   3.652 142.046  1.00  0.00    -0.550 OA
ENDBRANCH   1  30
BRANCH  27  33
ATOM     33  O   UNL     1     124.902   8.942 134.619  1.00  0.00    -0.393 OA
ATOM     34  H   UNL     1     124.424   9.297 133.824  1.00  0.00     0.210 HD
ENDBRANCH  27  33
TORSDOF 2
ENDMDL
