MODEL 1
REMARK VINA RESULT:    -4.278      0.000      0.000
REMARK INTER + INTRA:          -5.969
REMARK INTER:                  -5.778
REMARK INTRA:                  -0.191
REMARK UNBOUND:                -0.191
REMARK SMILES C=C1C(=O)O[C@@H]2[C@@H]1CCC(C)=CCC[C@]1(C)O[C@H]21
REMARK SMILES IDX 6 1 7 2 2 3 1 4 3 5 4 6 5 7 8 8 9 9 10 10 11 11 12 12 18 14
REMARK SMILES IDX 15 15 17 16 16 17 14 18 13 19
REMARK H PARENT
REMARK Flexibility Score: 70.00
ROOT
ATOM      1  C   UNL     1     -30.041  17.878  56.318  1.00  0.00     0.216 C 
ATOM      2  C   UNL     1     -31.202  18.092  57.365  1.00  0.00     0.070 C 
ATOM      3  C   UNL     1     -31.844  16.738  57.454  1.00  0.00     0.037 C 
ATOM      4  C   UNL     1     -32.930  16.433  58.164  1.00  0.00     0.021 C 
ATOM      5  C   UNL     1     -31.145  15.849  56.567  1.00  0.00     0.334 C 
ATOM      6  O   UNL     1     -31.416  14.634  56.382  1.00  0.00    -0.247 OA
ATOM      7  O   UNL     1     -30.132  16.512  55.916  1.00  0.00    -0.455 OA
ENDROOT
BRANCH   2   8
ATOM      8  C   UNL     1     -30.689  18.566  58.767  1.00  0.00     0.017 C 
BRANCH   8   9
ATOM      9  C   UNL     1     -29.780  19.815  58.695  1.00  0.00     0.031 C 
BRANCH   9  10
ATOM     10  C   UNL     1     -28.280  19.530  58.735  1.00  0.00    -0.077 C 
ATOM     11  C   UNL     1     -27.737  18.750  59.910  1.00  0.00     0.039 C 
ATOM     12  C   UNL     1     -27.370  19.996  57.838  1.00  0.00    -0.028 CG0
ATOM     13  G   UNL     1     -27.651  20.655  56.508  1.00  0.00     0.000 G0
ENDBRANCH   9  10
ENDBRANCH   8   9
ENDBRANCH   2   8
BRANCH   1  14
ATOM     14  C   UNL     1     -30.033  18.749  55.033  1.00  0.00     0.192 C 
ATOM     15  C   UNL     1     -28.847  19.534  54.555  1.00  0.00     0.096 C 
ATOM     16  O   UNL     1     -29.913  20.134  55.266  1.00  0.00    -0.362 OA
ATOM     17  C   UNL     1     -28.853  19.965  53.085  1.00  0.00     0.045 C 
BRANCH  15  18
ATOM     18  C   UNL     1     -27.516  19.688  55.320  1.00  0.00     0.042 C 
BRANCH  18  19
ATOM     19  C   UNL     1     -27.648  20.648  56.505  1.00  0.00     0.030 CG0
ATOM     20  G   UNL     1     -27.363  20.010  57.844  1.00  0.00     0.000 G0
ENDBRANCH  18  19
ENDBRANCH  15  18
ENDBRANCH   1  14
TORSDOF 0
ENDMDL
MODEL 2
REMARK VINA RESULT:    -4.213      1.796      3.213
REMARK INTER + INTRA:          -5.882
REMARK INTER:                  -5.848
REMARK INTRA:                  -0.033
REMARK UNBOUND:                -0.191
REMARK SMILES C=C1C(=O)O[C@@H]2[C@@H]1CCC(C)=CCC[C@]1(C)O[C@H]21
REMARK SMILES IDX 6 1 7 2 2 3 1 4 3 5 4 6 5 7 8 8 9 9 10 10 11 11 12 12 18 14
REMARK SMILES IDX 15 15 17 16 16 17 14 18 13 19
REMARK H PARENT
REMARK Flexibility Score: 70.00
ROOT
ATOM      1  C   UNL     1     -30.444  18.342  57.367  1.00  0.00     0.216 C 
ATOM      2  C   UNL     1     -29.931  16.875  57.637  1.00  0.00     0.070 C 
ATOM      3  C   UNL     1     -31.056  16.015  57.138  1.00  0.00     0.037 C 
ATOM      4  C   UNL     1     -31.121  14.686  57.221  1.00  0.00     0.021 C 
ATOM      5  C   UNL     1     -32.094  16.876  56.641  1.00  0.00     0.334 C 
ATOM      6  O   UNL     1     -33.190  16.498  56.151  1.00  0.00    -0.247 OA
ATOM      7  O   UNL     1     -31.741  18.196  56.789  1.00  0.00    -0.455 OA
ENDROOT
BRANCH   2   8
ATOM      8  C   UNL     1     -28.593  16.541  56.893  1.00  0.00     0.017 C 
BRANCH   8   9
ATOM      9  C   UNL     1     -27.526  17.652  57.029  1.00  0.00     0.031 C 
BRANCH   9  10
ATOM     10  C   UNL     1     -27.516  18.684  55.903  1.00  0.00    -0.077 C 
ATOM     11  C   UNL     1     -27.386  18.184  54.483  1.00  0.00     0.039 C 
ATOM     12  C   UNL     1     -27.529  20.033  56.078  1.00  0.00    -0.028 CG0
ATOM     13  G   UNL     1     -27.808  20.787  57.357  1.00  0.00     0.000 G0
ENDBRANCH   9  10
ENDBRANCH   8   9
ENDBRANCH   2   8
BRANCH   1  14
ATOM     14  C   UNL     1     -30.568  19.316  58.568  1.00  0.00     0.192 C 
ATOM     15  C   UNL     1     -30.056  20.727  58.565  1.00  0.00     0.096 C 
ATOM     16  O   UNL     1     -29.340  19.666  59.167  1.00  0.00    -0.362 OA
ATOM     17  C   UNL     1     -30.634  21.672  59.623  1.00  0.00     0.045 C 
BRANCH  15  18
ATOM     18  C   UNL     1     -29.236  21.373  57.429  1.00  0.00     0.042 C 
BRANCH  18  19
ATOM     19  C   UNL     1     -27.820  20.798  57.351  1.00  0.00     0.030 CG0
ATOM     20  G   UNL     1     -27.537  20.036  56.078  1.00  0.00     0.000 G0
ENDBRANCH  18  19
ENDBRANCH  15  18
ENDBRANCH   1  14
TORSDOF 0
ENDMDL
MODEL 3
REMARK VINA RESULT:    -4.149      1.820      3.127
REMARK INTER + INTRA:          -5.795
REMARK INTER:                  -5.690
REMARK INTRA:                  -0.105
REMARK UNBOUND:                -0.191
REMARK SMILES C=C1C(=O)O[C@@H]2[C@@H]1CCC(C)=CCC[C@]1(C)O[C@H]21
REMARK SMILES IDX 6 1 7 2 2 3 1 4 3 5 4 6 5 7 8 8 9 9 10 10 11 11 12 12 18 14
REMARK SMILES IDX 15 15 17 16 16 17 14 18 13 19
REMARK H PARENT
REMARK Flexibility Score: 70.00
ROOT
ATOM      1  C   UNL     1     -29.588  17.442  57.364  1.00  0.00     0.216 C 
ATOM      2  C   UNL     1     -30.370  17.312  56.000  1.00  0.00     0.070 C 
ATOM      3  C   UNL     1     -31.585  16.511  56.369  1.00  0.00     0.037 C 
ATOM      4  C   UNL     1     -32.521  16.076  55.526  1.00  0.00     0.021 C 
ATOM      5  C   UNL     1     -31.516  16.210  57.773  1.00  0.00     0.334 C 
ATOM      6  O   UNL     1     -32.365  15.548  58.425  1.00  0.00    -0.247 OA
ATOM      7  O   UNL     1     -30.370  16.733  58.325  1.00  0.00    -0.455 OA
ENDROOT
BRANCH   2   8
ATOM      8  C   UNL     1     -30.773  18.696  55.385  1.00  0.00     0.017 C 
BRANCH   8   9
ATOM      9  C   UNL     1     -29.600  19.702  55.325  1.00  0.00     0.031 C 
BRANCH   9  10
ATOM     10  C   UNL     1     -29.516  20.671  56.502  1.00  0.00    -0.077 C 
ATOM     11  C   UNL     1     -30.729  21.515  56.815  1.00  0.00     0.039 C 
ATOM     12  C   UNL     1     -28.401  20.903  57.246  1.00  0.00    -0.028 CG0
ATOM     13  G   UNL     1     -27.120  20.102  57.250  1.00  0.00     0.000 G0
ENDBRANCH   9  10
ENDBRANCH   8   9
ENDBRANCH   2   8
BRANCH   1  14
ATOM     14  C   UNL     1     -28.138  16.897  57.441  1.00  0.00     0.192 C 
ATOM     15  C   UNL     1     -26.975  17.671  57.993  1.00  0.00     0.096 C 
ATOM     16  O   UNL     1     -27.218  17.562  56.604  1.00  0.00    -0.362 OA
ATOM     17  C   UNL     1     -25.741  16.861  58.403  1.00  0.00     0.045 C 
BRANCH  15  18
ATOM     18  C   UNL     1     -27.024  19.144  58.450  1.00  0.00     0.042 C 
BRANCH  18  19
ATOM     19  C   UNL     1     -27.124  20.104  57.263  1.00  0.00     0.030 CG0
ATOM     20  G   UNL     1     -28.400  20.913  57.235  1.00  0.00     0.000 G0
ENDBRANCH  18  19
ENDBRANCH  15  18
ENDBRANCH   1  14
TORSDOF 0
ENDMDL
MODEL 4
REMARK VINA RESULT:    -4.056      5.843      9.291
REMARK INTER + INTRA:          -5.669
REMARK INTER:                  -6.253
REMARK INTRA:                   0.583
REMARK UNBOUND:                -0.191
REMARK SMILES C=C1C(=O)O[C@@H]2[C@@H]1CCC(C)=CCC[C@]1(C)O[C@H]21
REMARK SMILES IDX 6 1 7 2 2 3 1 4 3 5 4 6 5 7 8 8 9 9 10 10 11 11 12 12 18 14
REMARK SMILES IDX 15 15 17 16 16 17 14 18 13 19
REMARK H PARENT
REMARK Flexibility Score: 70.00
ROOT
ATOM      1  C   UNL     1     -33.591  13.677  57.859  1.00  0.00     0.216 C 
ATOM      2  C   UNL     1     -34.125  14.596  56.693  1.00  0.00     0.070 C 
ATOM      3  C   UNL     1     -33.003  15.567  56.473  1.00  0.00     0.037 C 
ATOM      4  C   UNL     1     -33.015  16.599  55.628  1.00  0.00     0.021 C 
ATOM      5  C   UNL     1     -31.948  15.255  57.398  1.00  0.00     0.334 C 
ATOM      6  O   UNL     1     -30.855  15.869  57.500  1.00  0.00    -0.247 OA
ATOM      7  O   UNL     1     -32.300  14.188  58.191  1.00  0.00    -0.455 OA
ENDROOT
BRANCH   2   8
ATOM      8  C   UNL     1     -34.448  13.802  55.381  1.00  0.00     0.017 C 
BRANCH   8   9
ATOM      9  C   UNL     1     -35.942  13.862  54.984  1.00  0.00     0.031 C 
BRANCH   9  10
ATOM     10  C   UNL     1     -36.624  12.506  54.818  1.00  0.00    -0.077 C 
ATOM     11  C   UNL     1     -37.123  12.125  53.443  1.00  0.00     0.039 C 
ATOM     12  C   UNL     1     -36.901  11.640  55.830  1.00  0.00    -0.028 CG0
ATOM     13  G   UNL     1     -36.386  11.696  57.250  1.00  0.00     0.000 G0
ENDBRANCH   9  10
ENDBRANCH   8   9
ENDBRANCH   2   8
BRANCH   1  14
ATOM     14  C   UNL     1     -34.416  13.592  59.171  1.00  0.00     0.192 C 
ATOM     15  C   UNL     1     -35.866  13.208  59.230  1.00  0.00     0.096 C 
ATOM     16  O   UNL     1     -35.439  14.556  59.283  1.00  0.00    -0.362 OA
ATOM     17  C   UNL     1     -36.402  12.746  60.589  1.00  0.00     0.045 C 
BRANCH  15  18
ATOM     18  C   UNL     1     -36.772  12.963  58.005  1.00  0.00     0.042 C 
BRANCH  18  19
ATOM     19  C   UNL     1     -36.377  11.691  57.252  1.00  0.00     0.030 CG0
ATOM     20  G   UNL     1     -36.882  11.641  55.828  1.00  0.00     0.000 G0
ENDBRANCH  18  19
ENDBRANCH  15  18
ENDBRANCH   1  14
TORSDOF 0
ENDMDL
MODEL 5
REMARK VINA RESULT:    -4.009      4.755      8.023
REMARK INTER + INTRA:          -5.606
REMARK INTER:                  -5.285
REMARK INTRA:                  -0.320
REMARK UNBOUND:                -0.191
REMARK SMILES C=C1C(=O)O[C@@H]2[C@@H]1CCC(C)=CCC[C@]1(C)O[C@H]21
REMARK SMILES IDX 6 1 7 2 2 3 1 4 3 5 4 6 5 7 8 8 9 9 10 10 11 11 12 12 18 14
REMARK SMILES IDX 15 15 17 16 16 17 14 18 13 19
REMARK H PARENT
REMARK Flexibility Score: 70.00
ROOT
ATOM      1  C   UNL     1     -33.016  14.858  57.739  1.00  0.00     0.216 C 
ATOM      2  C   UNL     1     -32.674  15.358  56.282  1.00  0.00     0.070 C 
ATOM      3  C   UNL     1     -31.867  16.601  56.521  1.00  0.00     0.037 C 
ATOM      4  C   UNL     1     -31.408  17.428  55.581  1.00  0.00     0.021 C 
ATOM      5  C   UNL     1     -31.756  16.801  57.940  1.00  0.00     0.334 C 
ATOM      6  O   UNL     1     -31.152  17.750  58.503  1.00  0.00    -0.247 OA
ATOM      7  O   UNL     1     -32.425  15.812  58.622  1.00  0.00    -0.455 OA
ENDROOT
BRANCH   2   8
ATOM      8  C   UNL     1     -31.862  14.311  55.445  1.00  0.00     0.017 C 
BRANCH   8   9
ATOM      9  C   UNL     1     -32.636  12.996  55.196  1.00  0.00     0.031 C 
BRANCH   9  10
ATOM     10  C   UNL     1     -32.175  11.803  56.029  1.00  0.00    -0.077 C 
ATOM     11  C   UNL     1     -30.742  11.345  55.882  1.00  0.00     0.039 C 
ATOM     12  C   UNL     1     -32.975  11.055  56.836  1.00  0.00    -0.028 CG0
ATOM     13  G   UNL     1     -34.383  11.376  57.280  1.00  0.00     0.000 G0
ENDBRANCH   9  10
ENDBRANCH   8   9
ENDBRANCH   2   8
BRANCH   1  14
ATOM     14  C   UNL     1     -34.507  14.705  58.138  1.00  0.00     0.192 C 
ATOM     15  C   UNL     1     -35.126  13.422  58.611  1.00  0.00     0.096 C 
ATOM     16  O   UNL     1     -35.261  13.879  57.279  1.00  0.00    -0.362 OA
ATOM     17  C   UNL     1     -36.451  13.535  59.371  1.00  0.00     0.045 C 
BRANCH  15  18
ATOM     18  C   UNL     1     -34.412  12.055  58.656  1.00  0.00     0.042 C 
BRANCH  18  19
ATOM     19  C   UNL     1     -34.375  11.387  57.280  1.00  0.00     0.030 CG0
ATOM     20  G   UNL     1     -32.982  11.047  56.801  1.00  0.00     0.000 G0
ENDBRANCH  18  19
ENDBRANCH  15  18
ENDBRANCH   1  14
TORSDOF 0
ENDMDL
MODEL 6
REMARK VINA RESULT:    -3.793      2.785      4.645
REMARK INTER + INTRA:          -5.315
REMARK INTER:                  -5.706
REMARK INTRA:                   0.391
REMARK UNBOUND:                -0.191
REMARK SMILES C=C1C(=O)O[C@@H]2[C@@H]1CCC(C)=CCC[C@]1(C)O[C@H]21
REMARK SMILES IDX 6 1 7 2 2 3 1 4 3 5 4 6 5 7 8 8 9 9 10 10 11 11 12 12 18 14
REMARK SMILES IDX 15 15 17 16 16 17 14 18 13 19
REMARK H PARENT
REMARK Flexibility Score: 70.00
ROOT
ATOM      1  C   UNL     1     -28.739  19.106  58.901  1.00  0.00     0.216 C 
ATOM      2  C   UNL     1     -28.253  18.475  57.538  1.00  0.00     0.070 C 
ATOM      3  C   UNL     1     -26.964  17.801  57.907  1.00  0.00     0.037 C 
ATOM      4  C   UNL     1     -26.134  17.186  57.064  1.00  0.00     0.021 C 
ATOM      5  C   UNL     1     -26.727  18.016  59.308  1.00  0.00     0.334 C 
ATOM      6  O   UNL     1     -25.734  17.597  59.958  1.00  0.00    -0.247 OA
ATOM      7  O   UNL     1     -27.736  18.770  59.859  1.00  0.00    -0.455 OA
ENDROOT
BRANCH   2   8
ATOM      8  C   UNL     1     -29.272  17.449  56.935  1.00  0.00     0.017 C 
BRANCH   8   9
ATOM      9  C   UNL     1     -30.212  18.073  55.877  1.00  0.00     0.031 C 
BRANCH   9  10
ATOM     10  C   UNL     1     -29.575  19.144  54.994  1.00  0.00    -0.077 C 
ATOM     11  C   UNL     1     -28.524  18.711  53.998  1.00  0.00     0.039 C 
ATOM     12  C   UNL     1     -29.814  20.480  55.088  1.00  0.00    -0.028 CG0
ATOM     13  G   UNL     1     -30.909  21.161  55.875  1.00  0.00     0.000 G0
ENDBRANCH   9  10
ENDBRANCH   8   9
ENDBRANCH   2   8
BRANCH   1  14
ATOM     14  C   UNL     1     -28.963  20.640  58.968  1.00  0.00     0.192 C 
ATOM     15  C   UNL     1     -30.083  21.359  58.274  1.00  0.00     0.096 C 
ATOM     16  O   UNL     1     -28.772  21.313  57.744  1.00  0.00    -0.362 OA
ATOM     17  C   UNL     1     -30.422  22.762  58.786  1.00  0.00     0.045 C 
BRANCH  15  18
ATOM     18  C   UNL     1     -31.093  20.707  57.307  1.00  0.00     0.042 C 
BRANCH  18  19
ATOM     19  C   UNL     1     -30.907  21.202  55.871  1.00  0.00     0.030 CG0
ATOM     20  G   UNL     1     -29.832  20.467  55.104  1.00  0.00     0.000 G0
ENDBRANCH  18  19
ENDBRANCH  15  18
ENDBRANCH   1  14
TORSDOF 0
ENDMDL
MODEL 7
REMARK VINA RESULT:    -3.417      5.447      7.951
REMARK INTER + INTRA:          -4.806
REMARK INTER:                  -5.961
REMARK INTRA:                   1.155
REMARK UNBOUND:                -0.191
REMARK SMILES C=C1C(=O)O[C@@H]2[C@@H]1CCC(C)=CCC[C@]1(C)O[C@H]21
REMARK SMILES IDX 6 1 7 2 2 3 1 4 3 5 4 6 5 7 8 8 9 9 10 10 11 11 12 12 18 14
REMARK SMILES IDX 15 15 17 16 16 17 14 18 13 19
REMARK H PARENT
REMARK Flexibility Score: 70.00
ROOT
ATOM      1  C   UNL     1     -36.506  13.995  56.717  1.00  0.00     0.216 C 
ATOM      2  C   UNL     1     -34.982  14.318  56.464  1.00  0.00     0.070 C 
ATOM      3  C   UNL     1     -34.644  13.483  55.264  1.00  0.00     0.037 C 
ATOM      4  C   UNL     1     -33.437  13.361  54.711  1.00  0.00     0.021 C 
ATOM      5  C   UNL     1     -35.823  12.761  54.870  1.00  0.00     0.334 C 
ATOM      6  O   UNL     1     -35.904  11.959  53.904  1.00  0.00    -0.247 OA
ATOM      7  O   UNL     1     -36.871  13.050  55.712  1.00  0.00    -0.455 OA
ENDROOT
BRANCH   2   8
ATOM      8  C   UNL     1     -34.711  15.837  56.188  1.00  0.00     0.017 C 
BRANCH   8   9
ATOM      9  C   UNL     1     -33.675  16.457  57.155  1.00  0.00     0.031 C 
BRANCH   9  10
ATOM     10  C   UNL     1     -32.507  15.546  57.526  1.00  0.00    -0.077 C 
ATOM     11  C   UNL     1     -31.181  15.776  56.837  1.00  0.00     0.039 C 
ATOM     12  C   UNL     1     -32.581  14.481  58.369  1.00  0.00    -0.028 CG0
ATOM     13  G   UNL     1     -33.720  14.124  59.294  1.00  0.00     0.000 G0
ENDBRANCH   9  10
ENDBRANCH   8   9
ENDBRANCH   2   8
BRANCH   1  14
ATOM     14  C   UNL     1     -36.919  13.406  58.092  1.00  0.00     0.192 C 
ATOM     15  C   UNL     1     -35.947  12.916  59.125  1.00  0.00     0.096 C 
ATOM     16  O   UNL     1     -36.628  12.036  58.252  1.00  0.00    -0.362 OA
ATOM     17  C   UNL     1     -36.471  12.787  60.558  1.00  0.00     0.045 C 
BRANCH  15  18
ATOM     18  C   UNL     1     -34.420  12.814  58.931  1.00  0.00     0.042 C 
BRANCH  18  19
ATOM     19  C   UNL     1     -33.711  14.121  59.295  1.00  0.00     0.030 CG0
ATOM     20  G   UNL     1     -32.569  14.477  58.372  1.00  0.00     0.000 G0
ENDBRANCH  18  19
ENDBRANCH  15  18
ENDBRANCH   1  14
TORSDOF 0
ENDMDL
MODEL 8
REMARK VINA RESULT:    -3.269      2.089      2.744
REMARK INTER + INTRA:          -4.607
REMARK INTER:                  -4.585
REMARK INTRA:                  -0.021
REMARK UNBOUND:                -0.191
REMARK SMILES C=C1C(=O)O[C@@H]2[C@@H]1CCC(C)=CCC[C@]1(C)O[C@H]21
REMARK SMILES IDX 6 1 7 2 2 3 1 4 3 5 4 6 5 7 8 8 9 9 10 10 11 11 12 12 18 14
REMARK SMILES IDX 15 15 17 16 16 17 14 18 13 19
REMARK H PARENT
REMARK Flexibility Score: 70.00
ROOT
ATOM      1  C   UNL     1     -30.708  18.302  56.741  1.00  0.00     0.216 C 
ATOM      2  C   UNL     1     -30.531  17.080  57.724  1.00  0.00     0.070 C 
ATOM      3  C   UNL     1     -31.581  16.110  57.266  1.00  0.00     0.037 C 
ATOM      4  C   UNL     1     -31.874  14.944  57.842  1.00  0.00     0.021 C 
ATOM      5  C   UNL     1     -32.283  16.696  56.157  1.00  0.00     0.334 C 
ATOM      6  O   UNL     1     -33.234  16.165  55.526  1.00  0.00    -0.247 OA
ATOM      7  O   UNL     1     -31.787  17.948  55.877  1.00  0.00    -0.455 OA
ENDROOT
BRANCH   2   8
ATOM      8  C   UNL     1     -29.104  16.437  57.659  1.00  0.00     0.017 C 
BRANCH   8   9
ATOM      9  C   UNL     1     -28.016  17.415  57.155  1.00  0.00     0.031 C 
BRANCH   9  10
ATOM     10  C   UNL     1     -26.924  17.749  58.169  1.00  0.00    -0.077 C 
ATOM     11  C   UNL     1     -25.682  16.887  58.184  1.00  0.00     0.039 C 
ATOM     12  C   UNL     1     -27.012  18.712  59.125  1.00  0.00    -0.028 CG0
ATOM     13  G   UNL     1     -28.054  19.800  59.236  1.00  0.00     0.000 G0
ENDBRANCH   9  10
ENDBRANCH   8   9
ENDBRANCH   2   8
BRANCH   1  14
ATOM     14  C   UNL     1     -31.023  19.696  57.344  1.00  0.00     0.192 C 
ATOM     15  C   UNL     1     -29.979  20.667  57.814  1.00  0.00     0.096 C 
ATOM     16  O   UNL     1     -30.691  19.833  58.708  1.00  0.00    -0.362 OA
ATOM     17  C   UNL     1     -30.412  22.129  57.959  1.00  0.00     0.045 C 
BRANCH  15  18
ATOM     18  C   UNL     1     -28.464  20.380  57.878  1.00  0.00     0.042 C 
BRANCH  18  19
ATOM     19  C   UNL     1     -28.052  19.798  59.232  1.00  0.00     0.030 CG0
ATOM     20  G   UNL     1     -27.007  18.710  59.139  1.00  0.00     0.000 G0
ENDBRANCH  18  19
ENDBRANCH  15  18
ENDBRANCH   1  14
TORSDOF 0
ENDMDL
MODEL 9
REMARK VINA RESULT:    -3.266      1.888      3.639
REMARK INTER + INTRA:          -4.603
REMARK INTER:                  -4.678
REMARK INTRA:                   0.075
REMARK UNBOUND:                -0.191
REMARK SMILES C=C1C(=O)O[C@@H]2[C@@H]1CCC(C)=CCC[C@]1(C)O[C@H]21
REMARK SMILES IDX 6 1 7 2 2 3 1 4 3 5 4 6 5 7 8 8 9 9 10 10 11 11 12 12 18 14
REMARK SMILES IDX 15 15 17 16 16 17 14 18 13 19
REMARK H PARENT
REMARK Flexibility Score: 70.00
ROOT
ATOM      1  C   UNL     1     -30.227  17.584  57.676  1.00  0.00     0.216 C 
ATOM      2  C   UNL     1     -30.506  16.917  56.274  1.00  0.00     0.070 C 
ATOM      3  C   UNL     1     -31.736  16.092  56.519  1.00  0.00     0.037 C 
ATOM      4  C   UNL     1     -32.319  15.277  55.639  1.00  0.00     0.021 C 
ATOM      5  C   UNL     1     -32.122  16.257  57.893  1.00  0.00     0.334 C 
ATOM      6  O   UNL     1     -33.107  15.706  58.450  1.00  0.00    -0.247 OA
ATOM      7  O   UNL     1     -31.249  17.095  58.544  1.00  0.00    -0.455 OA
ENDROOT
BRANCH   2   8
ATOM      8  C   UNL     1     -30.747  17.961  55.130  1.00  0.00     0.017 C 
BRANCH   8   9
ATOM      9  C   UNL     1     -29.972  19.284  55.339  1.00  0.00     0.031 C 
BRANCH   9  10
ATOM     10  C   UNL     1     -28.862  19.553  54.326  1.00  0.00    -0.077 C 
ATOM     11  C   UNL     1     -29.240  20.202  53.014  1.00  0.00     0.039 C 
ATOM     12  C   UNL     1     -27.563  19.177  54.470  1.00  0.00    -0.028 CG0
ATOM     13  G   UNL     1     -26.892  18.662  55.722  1.00  0.00     0.000 G0
ENDBRANCH   9  10
ENDBRANCH   8   9
ENDBRANCH   2   8
BRANCH   1  14
ATOM     14  C   UNL     1     -28.859  17.322  58.361  1.00  0.00     0.192 C 
ATOM     15  C   UNL     1     -27.614  18.115  58.088  1.00  0.00     0.096 C 
ATOM     16  O   UNL     1     -27.851  16.853  57.494  1.00  0.00    -0.362 OA
ATOM     17  C   UNL     1     -26.500  18.031  59.136  1.00  0.00     0.045 C 
BRANCH  15  18
ATOM     18  C   UNL     1     -27.479  19.215  57.014  1.00  0.00     0.042 C 
BRANCH  18  19
ATOM     19  C   UNL     1     -26.896  18.667  55.710  1.00  0.00     0.030 CG0
ATOM     20  G   UNL     1     -27.582  19.186  54.467  1.00  0.00     0.000 G0
ENDBRANCH  18  19
ENDBRANCH  15  18
ENDBRANCH   1  14
TORSDOF 0
ENDMDL
