MODEL 1
REMARK VINA RESULT:    -3.534      0.000      0.000
REMARK INTER + INTRA:         -10.824
REMARK INTER:                  -7.666
REMARK INTRA:                  -3.157
REMARK UNBOUND:                -3.157
REMARK SMILES CCCCCCCCCCCCCCCCCCCCCC(=O)[O-]
REMARK SMILES IDX 12 1 11 2 10 3 9 4 8 5 7 6 6 7 5 8 4 9 3 10 2 11 1 12 13 13
REMARK SMILES IDX 14 14 15 15 16 16 17 17 18 18 19 19 20 20 21 21 22 22 23 23
REMARK SMILES IDX 24 24
REMARK H PARENT
REMARK Flexibility Score: inf
ROOT
ATOM      1  C   UNL     1      83.783  23.156  28.927  1.00  0.00     0.000 C 
ENDROOT
BRANCH   1   2
ATOM      2  C   UNL     1      85.052  23.141  28.059  1.00  0.00     0.000 C 
BRANCH   2   3
ATOM      3  C   UNL     1      85.916  24.397  28.259  1.00  0.00     0.000 C 
BRANCH   3   4
ATOM      4  C   UNL     1      85.705  25.396  27.111  1.00  0.00    -0.000 C 
BRANCH   4   5
ATOM      5  C   UNL     1      85.942  26.853  27.540  1.00  0.00    -0.000 C 
BRANCH   5   6
ATOM      6  C   UNL     1      86.346  26.973  29.020  1.00  0.00    -0.000 C 
BRANCH   6   7
ATOM      7  C   UNL     1      87.686  27.705  29.219  1.00  0.00    -0.000 C 
BRANCH   7   8
ATOM      8  C   UNL     1      87.604  29.242  29.185  1.00  0.00    -0.000 C 
BRANCH   8   9
ATOM      9  C   UNL     1      88.787  29.890  28.451  1.00  0.00    -0.000 C 
BRANCH   9  10
ATOM     10  C   UNL     1      89.702  28.822  27.834  1.00  0.00    -0.000 C 
BRANCH  10  11
ATOM     11  C   UNL     1      89.861  28.984  26.314  1.00  0.00    -0.003 C 
ATOM     12  C   UNL     1      88.641  28.493  25.535  1.00  0.00     0.004 C 
ENDBRANCH  10  11
ENDBRANCH   9  10
ENDBRANCH   8   9
ENDBRANCH   7   8
ENDBRANCH   6   7
ENDBRANCH   5   6
ENDBRANCH   4   5
ENDBRANCH   3   4
ENDBRANCH   2   3
ENDBRANCH   1   2
BRANCH   1  13
ATOM     13  C   UNL     1      83.627  24.465  29.721  1.00  0.00     0.000 C 
BRANCH  13  14
ATOM     14  C   UNL     1      82.366  25.259  29.331  1.00  0.00     0.000 C 
BRANCH  14  15
ATOM     15  C   UNL     1      82.559  26.780  29.200  1.00  0.00     0.000 C 
BRANCH  15  16
ATOM     16  C   UNL     1      82.906  27.460  30.536  1.00  0.00     0.000 C 
BRANCH  16  17
ATOM     17  C   UNL     1      83.352  28.924  30.366  1.00  0.00     0.000 C 
BRANCH  17  18
ATOM     18  C   UNL     1      83.507  29.402  28.909  1.00  0.00     0.000 C 
BRANCH  18  19
ATOM     19  C   UNL     1      84.287  30.723  28.791  1.00  0.00     0.000 C 
BRANCH  19  20
ATOM     20  C   UNL     1      84.285  31.532  30.098  1.00  0.00     0.006 C 
BRANCH  20  21
ATOM     21  C   UNL     1      85.669  32.088  30.460  1.00  0.00     0.053 C 
BRANCH  21  22
ATOM     22  C   UNL     1      85.577  32.978  31.658  1.00  0.00     0.041 C 
ATOM     23  O   UNL     1      85.696  32.497  32.817  1.00  0.00    -0.550 OA
ATOM     24  O   UNL     1      85.323  34.335  31.497  1.00  0.00    -0.550 OA
ENDBRANCH  21  22
ENDBRANCH  20  21
ENDBRANCH  19  20
ENDBRANCH  18  19
ENDBRANCH  17  18
ENDBRANCH  16  17
ENDBRANCH  15  16
ENDBRANCH  14  15
ENDBRANCH  13  14
ENDBRANCH   1  13
TORSDOF 20
ENDMDL
MODEL 2
REMARK VINA RESULT:    -3.512      1.966      4.573
REMARK INTER + INTRA:         -10.776
REMARK INTER:                  -6.641
REMARK INTRA:                  -4.134
REMARK UNBOUND:                -3.157
REMARK SMILES CCCCCCCCCCCCCCCCCCCCCC(=O)[O-]
REMARK SMILES IDX 12 1 11 2 10 3 9 4 8 5 7 6 6 7 5 8 4 9 3 10 2 11 1 12 13 13
REMARK SMILES IDX 14 14 15 15 16 16 17 17 18 18 19 19 20 20 21 21 22 22 23 23
REMARK SMILES IDX 24 24
REMARK H PARENT
REMARK Flexibility Score: inf
ROOT
ATOM      1  C   UNL     1      85.161  28.986  26.582  1.00  0.00     0.000 C 
ENDROOT
BRANCH   1   2
ATOM      2  C   UNL     1      85.724  30.204  25.830  1.00  0.00     0.000 C 
BRANCH   2   3
ATOM      3  C   UNL     1      86.106  31.354  26.776  1.00  0.00     0.000 C 
BRANCH   3   4
ATOM      4  C   UNL     1      85.540  31.117  28.184  1.00  0.00    -0.000 C 
BRANCH   4   5
ATOM      5  C   UNL     1      86.627  31.125  29.271  1.00  0.00    -0.000 C 
BRANCH   5   6
ATOM      6  C   UNL     1      87.438  29.817  29.302  1.00  0.00    -0.000 C 
BRANCH   6   7
ATOM      7  C   UNL     1      88.866  29.983  28.750  1.00  0.00    -0.000 C 
BRANCH   7   8
ATOM      8  C   UNL     1      89.538  28.684  28.271  1.00  0.00    -0.000 C 
BRANCH   8   9
ATOM      9  C   UNL     1      89.835  28.681  26.765  1.00  0.00    -0.000 C 
BRANCH   9  10
ATOM     10  C   UNL     1      89.588  30.068  26.154  1.00  0.00    -0.000 C 
BRANCH  10  11
ATOM     11  C   UNL     1      89.172  29.999  24.676  1.00  0.00    -0.003 C 
ATOM     12  C   UNL     1      88.841  28.579  24.218  1.00  0.00     0.004 C 
ENDBRANCH  10  11
ENDBRANCH   9  10
ENDBRANCH   8   9
ENDBRANCH   7   8
ENDBRANCH   6   7
ENDBRANCH   5   6
ENDBRANCH   4   5
ENDBRANCH   3   4
ENDBRANCH   2   3
ENDBRANCH   1   2
BRANCH   1  13
ATOM     13  C   UNL     1      85.556  27.653  25.921  1.00  0.00     0.000 C 
BRANCH  13  14
ATOM     14  C   UNL     1      86.646  26.895  26.700  1.00  0.00     0.000 C 
BRANCH  14  15
ATOM     15  C   UNL     1      86.302  26.562  28.163  1.00  0.00     0.000 C 
BRANCH  15  16
ATOM     16  C   UNL     1      85.890  25.093  28.364  1.00  0.00     0.000 C 
BRANCH  16  17
ATOM     17  C   UNL     1      84.499  24.943  29.011  1.00  0.00     0.000 C 
BRANCH  17  18
ATOM     18  C   UNL     1      83.312  25.377  28.129  1.00  0.00     0.000 C 
BRANCH  18  19
ATOM     19  C   UNL     1      82.534  26.569  28.714  1.00  0.00     0.000 C 
BRANCH  19  20
ATOM     20  C   UNL     1      83.184  27.133  29.988  1.00  0.00     0.006 C 
BRANCH  20  21
ATOM     21  C   UNL     1      83.465  28.639  29.901  1.00  0.00     0.053 C 
BRANCH  21  22
ATOM     22  C   UNL     1      82.775  29.364  31.012  1.00  0.00     0.041 C 
ATOM     23  O   UNL     1      83.186  30.496  31.382  1.00  0.00    -0.550 OA
ATOM     24  O   UNL     1      81.701  28.772  31.666  1.00  0.00    -0.550 OA
ENDBRANCH  21  22
ENDBRANCH  20  21
ENDBRANCH  19  20
ENDBRANCH  18  19
ENDBRANCH  17  18
ENDBRANCH  16  17
ENDBRANCH  15  16
ENDBRANCH  14  15
ENDBRANCH  13  14
ENDBRANCH   1  13
TORSDOF 20
ENDMDL
MODEL 3
REMARK VINA RESULT:    -3.415      1.919      5.028
REMARK INTER + INTRA:         -10.566
REMARK INTER:                  -7.493
REMARK INTRA:                  -3.073
REMARK UNBOUND:                -3.157
REMARK SMILES CCCCCCCCCCCCCCCCCCCCCC(=O)[O-]
REMARK SMILES IDX 12 1 11 2 10 3 9 4 8 5 7 6 6 7 5 8 4 9 3 10 2 11 1 12 13 13
REMARK SMILES IDX 14 14 15 15 16 16 17 17 18 18 19 19 20 20 21 21 22 22 23 23
REMARK SMILES IDX 24 24
REMARK H PARENT
REMARK Flexibility Score: inf
ROOT
ATOM      1  C   UNL     1      87.403  30.620  29.034  1.00  0.00     0.000 C 
ENDROOT
BRANCH   1   2
ATOM      2  C   UNL     1      88.899  30.427  28.738  1.00  0.00     0.000 C 
BRANCH   2   3
ATOM      3  C   UNL     1      89.277  28.950  28.550  1.00  0.00     0.000 C 
BRANCH   3   4
ATOM      4  C   UNL     1      89.822  28.698  27.136  1.00  0.00    -0.000 C 
BRANCH   4   5
ATOM      5  C   UNL     1      89.728  29.938  26.233  1.00  0.00    -0.000 C 
BRANCH   5   6
ATOM      6  C   UNL     1      88.652  29.794  25.143  1.00  0.00    -0.000 C 
BRANCH   6   7
ATOM      7  C   UNL     1      88.092  28.363  25.037  1.00  0.00    -0.000 C 
BRANCH   7   8
ATOM      8  C   UNL     1      86.639  28.192  25.514  1.00  0.00    -0.000 C 
BRANCH   8   9
ATOM      9  C   UNL     1      86.409  26.882  26.282  1.00  0.00    -0.000 C 
BRANCH   9  10
ATOM     10  C   UNL     1      86.463  27.118  27.798  1.00  0.00    -0.000 C 
BRANCH  10  11
ATOM     11  C   UNL     1      85.494  26.212  28.574  1.00  0.00    -0.003 C 
ATOM     12  C   UNL     1      85.764  24.724  28.348  1.00  0.00     0.004 C 
ENDBRANCH  10  11
ENDBRANCH   9  10
ENDBRANCH   8   9
ENDBRANCH   7   8
ENDBRANCH   6   7
ENDBRANCH   5   6
ENDBRANCH   4   5
ENDBRANCH   3   4
ENDBRANCH   2   3
ENDBRANCH   1   2
BRANCH   1  13
ATOM     13  C   UNL     1      86.601  31.014  27.781  1.00  0.00     0.000 C 
BRANCH  13  14
ATOM     14  C   UNL     1      85.123  30.587  27.852  1.00  0.00     0.000 C 
BRANCH  14  15
ATOM     15  C   UNL     1      84.631  30.144  29.241  1.00  0.00     0.000 C 
BRANCH  15  16
ATOM     16  C   UNL     1      83.557  31.079  29.825  1.00  0.00     0.000 C 
BRANCH  16  17
ATOM     17  C   UNL     1      83.866  32.569  29.587  1.00  0.00     0.000 C 
BRANCH  17  18
ATOM     18  C   UNL     1      84.340  33.350  30.828  1.00  0.00     0.000 C 
BRANCH  18  19
ATOM     19  C   UNL     1      85.655  32.806  31.414  1.00  0.00     0.000 C 
BRANCH  19  20
ATOM     20  C   UNL     1      85.630  32.723  32.949  1.00  0.00     0.006 C 
BRANCH  20  21
ATOM     21  C   UNL     1      84.510  33.563  33.576  1.00  0.00     0.053 C 
BRANCH  21  22
ATOM     22  C   UNL     1      85.073  34.797  34.206  1.00  0.00     0.041 C 
ATOM     23  O   UNL     1      86.317  34.918  34.365  1.00  0.00    -0.550 OA
ATOM     24  O   UNL     1      84.219  35.798  34.655  1.00  0.00    -0.550 OA
ENDBRANCH  21  22
ENDBRANCH  20  21
ENDBRANCH  19  20
ENDBRANCH  18  19
ENDBRANCH  17  18
ENDBRANCH  16  17
ENDBRANCH  15  16
ENDBRANCH  14  15
ENDBRANCH  13  14
ENDBRANCH   1  13
TORSDOF 20
ENDMDL
MODEL 4
REMARK VINA RESULT:    -3.383      1.833      5.866
REMARK INTER + INTRA:         -10.495
REMARK INTER:                  -6.491
REMARK INTRA:                  -4.004
REMARK UNBOUND:                -3.157
REMARK SMILES CCCCCCCCCCCCCCCCCCCCCC(=O)[O-]
REMARK SMILES IDX 12 1 11 2 10 3 9 4 8 5 7 6 6 7 5 8 4 9 3 10 2 11 1 12 13 13
REMARK SMILES IDX 14 14 15 15 16 16 17 17 18 18 19 19 20 20 21 21 22 22 23 23
REMARK SMILES IDX 24 24
REMARK H PARENT
REMARK Flexibility Score: inf
ROOT
ATOM      1  C   UNL     1      87.767  29.288  29.354  1.00  0.00     0.000 C 
ENDROOT
BRANCH   1   2
ATOM      2  C   UNL     1      87.665  27.758  29.238  1.00  0.00     0.000 C 
BRANCH   2   3
ATOM      3  C   UNL     1      86.339  27.302  28.610  1.00  0.00     0.000 C 
BRANCH   3   4
ATOM      4  C   UNL     1      86.214  25.771  28.642  1.00  0.00    -0.000 C 
BRANCH   4   5
ATOM      5  C   UNL     1      85.815  25.178  27.281  1.00  0.00    -0.000 C 
BRANCH   5   6
ATOM      6  C   UNL     1      84.604  24.234  27.382  1.00  0.00    -0.000 C 
BRANCH   6   7
ATOM      7  C   UNL     1      84.621  23.370  28.657  1.00  0.00    -0.000 C 
BRANCH   7   8
ATOM      8  C   UNL     1      83.501  23.673  29.668  1.00  0.00    -0.000 C 
BRANCH   8   9
ATOM      9  C   UNL     1      82.620  24.859  29.250  1.00  0.00    -0.000 C 
BRANCH   9  10
ATOM     10  C   UNL     1      82.810  26.047  30.204  1.00  0.00    -0.000 C 
BRANCH  10  11
ATOM     11  C   UNL     1      82.720  27.403  29.488  1.00  0.00    -0.003 C 
ATOM     12  C   UNL     1      82.618  27.267  27.969  1.00  0.00     0.004 C 
ENDBRANCH  10  11
ENDBRANCH   9  10
ENDBRANCH   8   9
ENDBRANCH   7   8
ENDBRANCH   6   7
ENDBRANCH   5   6
ENDBRANCH   4   5
ENDBRANCH   3   4
ENDBRANCH   2   3
ENDBRANCH   1   2
BRANCH   1  13
ATOM     13  C   UNL     1      89.056  29.842  28.721  1.00  0.00     0.000 C 
BRANCH  13  14
ATOM     14  C   UNL     1      89.689  28.877  27.700  1.00  0.00     0.000 C 
BRANCH  14  15
ATOM     15  C   UNL     1      89.447  29.229  26.222  1.00  0.00     0.000 C 
BRANCH  15  16
ATOM     16  C   UNL     1      88.285  28.436  25.598  1.00  0.00     0.000 C 
BRANCH  16  17
ATOM     17  C   UNL     1      86.993  29.265  25.469  1.00  0.00     0.000 C 
BRANCH  17  18
ATOM     18  C   UNL     1      87.158  30.781  25.696  1.00  0.00     0.000 C 
BRANCH  18  19
ATOM     19  C   UNL     1      86.172  31.342  26.736  1.00  0.00     0.000 C 
BRANCH  19  20
ATOM     20  C   UNL     1      85.024  30.369  27.050  1.00  0.00     0.006 C 
BRANCH  20  21
ATOM     21  C   UNL     1      84.454  30.551  28.463  1.00  0.00     0.053 C 
BRANCH  21  22
ATOM     22  C   UNL     1      83.255  31.444  28.431  1.00  0.00     0.041 C 
ATOM     23  O   UNL     1      82.343  31.253  27.584  1.00  0.00    -0.550 OA
ATOM     24  O   UNL     1      83.163  32.513  29.315  1.00  0.00    -0.550 OA
ENDBRANCH  21  22
ENDBRANCH  20  21
ENDBRANCH  19  20
ENDBRANCH  18  19
ENDBRANCH  17  18
ENDBRANCH  16  17
ENDBRANCH  15  16
ENDBRANCH  14  15
ENDBRANCH  13  14
ENDBRANCH   1  13
TORSDOF 20
ENDMDL
MODEL 5
REMARK VINA RESULT:    -3.336      1.133      5.445
REMARK INTER + INTRA:         -10.393
REMARK INTER:                  -7.253
REMARK INTRA:                  -3.139
REMARK UNBOUND:                -3.157
REMARK SMILES CCCCCCCCCCCCCCCCCCCCCC(=O)[O-]
REMARK SMILES IDX 12 1 11 2 10 3 9 4 8 5 7 6 6 7 5 8 4 9 3 10 2 11 1 12 13 13
REMARK SMILES IDX 14 14 15 15 16 16 17 17 18 18 19 19 20 20 21 21 22 22 23 23
REMARK SMILES IDX 24 24
REMARK H PARENT
REMARK Flexibility Score: inf
ROOT
ATOM      1  C   UNL     1      85.838  28.178  25.762  1.00  0.00     0.000 C 
ENDROOT
BRANCH   1   2
ATOM      2  C   UNL     1      86.199  26.861  26.469  1.00  0.00     0.000 C 
BRANCH   2   3
ATOM      3  C   UNL     1      85.332  26.602  27.711  1.00  0.00     0.000 C 
BRANCH   3   4
ATOM      4  C   UNL     1      86.005  25.588  28.649  1.00  0.00    -0.000 C 
BRANCH   4   5
ATOM      5  C   UNL     1      85.868  24.138  28.154  1.00  0.00    -0.000 C 
BRANCH   5   6
ATOM      6  C   UNL     1      84.399  23.708  27.992  1.00  0.00    -0.000 C 
BRANCH   6   7
ATOM      7  C   UNL     1      83.789  23.152  29.292  1.00  0.00    -0.000 C 
BRANCH   7   8
ATOM      8  C   UNL     1      82.431  23.759  29.690  1.00  0.00    -0.000 C 
BRANCH   8   9
ATOM      9  C   UNL     1      82.552  24.847  30.766  1.00  0.00    -0.000 C 
BRANCH   9  10
ATOM     10  C   UNL     1      82.049  26.199  30.240  1.00  0.00    -0.000 C 
BRANCH  10  11
ATOM     11  C   UNL     1      83.038  27.345  30.508  1.00  0.00    -0.003 C 
ATOM     12  C   UNL     1      82.374  28.721  30.474  1.00  0.00     0.004 C 
ENDBRANCH  10  11
ENDBRANCH   9  10
ENDBRANCH   8   9
ENDBRANCH   7   8
ENDBRANCH   6   7
ENDBRANCH   5   6
ENDBRANCH   4   5
ENDBRANCH   3   4
ENDBRANCH   2   3
ENDBRANCH   1   2
BRANCH   1  13
ATOM     13  C   UNL     1      87.066  29.073  25.522  1.00  0.00     0.000 C 
BRANCH  13  14
ATOM     14  C   UNL     1      88.377  28.445  26.029  1.00  0.00     0.000 C 
BRANCH  14  15
ATOM     15  C   UNL     1      89.219  29.336  26.960  1.00  0.00     0.000 C 
BRANCH  15  16
ATOM     16  C   UNL     1      89.284  28.806  28.403  1.00  0.00     0.000 C 
BRANCH  16  17
ATOM     17  C   UNL     1      87.931  28.895  29.136  1.00  0.00     0.000 C 
BRANCH  17  18
ATOM     18  C   UNL     1      87.256  30.280  29.106  1.00  0.00     0.000 C 
BRANCH  18  19
ATOM     19  C   UNL     1      85.749  30.207  28.803  1.00  0.00     0.000 C 
BRANCH  19  20
ATOM     20  C   UNL     1      84.923  31.174  29.667  1.00  0.00     0.006 C 
BRANCH  20  21
ATOM     21  C   UNL     1      85.785  32.001  30.630  1.00  0.00     0.053 C 
BRANCH  21  22
ATOM     22  C   UNL     1      85.059  32.226  31.918  1.00  0.00     0.041 C 
ATOM     23  O   UNL     1      84.136  31.444  32.272  1.00  0.00    -0.550 OA
ATOM     24  O   UNL     1      85.376  33.323  32.711  1.00  0.00    -0.550 OA
ENDBRANCH  21  22
ENDBRANCH  20  21
ENDBRANCH  19  20
ENDBRANCH  18  19
ENDBRANCH  17  18
ENDBRANCH  16  17
ENDBRANCH  15  16
ENDBRANCH  14  15
ENDBRANCH  13  14
ENDBRANCH   1  13
TORSDOF 20
ENDMDL
MODEL 6
REMARK VINA RESULT:    -3.262      2.802      6.007
REMARK INTER + INTRA:         -10.232
REMARK INTER:                  -6.476
REMARK INTRA:                  -3.756
REMARK UNBOUND:                -3.157
REMARK SMILES CCCCCCCCCCCCCCCCCCCCCC(=O)[O-]
REMARK SMILES IDX 12 1 11 2 10 3 9 4 8 5 7 6 6 7 5 8 4 9 3 10 2 11 1 12 13 13
REMARK SMILES IDX 14 14 15 15 16 16 17 17 18 18 19 19 20 20 21 21 22 22 23 23
REMARK SMILES IDX 24 24
REMARK H PARENT
REMARK Flexibility Score: inf
ROOT
ATOM      1  C   UNL     1      85.385  29.265  27.967  1.00  0.00     0.000 C 
ENDROOT
BRANCH   1   2
ATOM      2  C   UNL     1      86.009  30.383  28.820  1.00  0.00     0.000 C 
BRANCH   2   3
ATOM      3  C   UNL     1      87.532  30.481  28.640  1.00  0.00     0.000 C 
BRANCH   3   4
ATOM      4  C   UNL     1      88.231  29.226  29.186  1.00  0.00    -0.000 C 
BRANCH   4   5
ATOM      5  C   UNL     1      89.478  28.840  28.375  1.00  0.00    -0.000 C 
BRANCH   5   6
ATOM      6  C   UNL     1      89.588  29.622  27.054  1.00  0.00    -0.000 C 
BRANCH   6   7
ATOM      7  C   UNL     1      89.472  28.720  25.811  1.00  0.00    -0.000 C 
BRANCH   7   8
ATOM      8  C   UNL     1      88.034  28.414  25.355  1.00  0.00    -0.000 C 
BRANCH   8   9
ATOM      9  C   UNL     1      87.268  29.666  24.905  1.00  0.00    -0.000 C 
BRANCH   9  10
ATOM     10  C   UNL     1      86.003  29.283  24.123  1.00  0.00    -0.000 C 
BRANCH  10  11
ATOM     11  C   UNL     1      85.404  27.944  24.581  1.00  0.00    -0.003 C 
ATOM     12  C   UNL     1      83.878  27.973  24.662  1.00  0.00     0.004 C 
ENDBRANCH  10  11
ENDBRANCH   9  10
ENDBRANCH   8   9
ENDBRANCH   7   8
ENDBRANCH   6   7
ENDBRANCH   5   6
ENDBRANCH   4   5
ENDBRANCH   3   4
ENDBRANCH   2   3
ENDBRANCH   1   2
BRANCH   1  13
ATOM     13  C   UNL     1      84.523  28.301  28.800  1.00  0.00     0.000 C 
BRANCH  13  14
ATOM     14  C   UNL     1      85.184  26.925  29.005  1.00  0.00     0.000 C 
BRANCH  14  15
ATOM     15  C   UNL     1      86.214  26.522  27.935  1.00  0.00     0.000 C 
BRANCH  15  16
ATOM     16  C   UNL     1      86.009  25.089  27.414  1.00  0.00     0.000 C 
BRANCH  16  17
ATOM     17  C   UNL     1      84.684  24.913  26.648  1.00  0.00     0.000 C 
BRANCH  17  18
ATOM     18  C   UNL     1      83.730  23.845  27.218  1.00  0.00     0.000 C 
BRANCH  18  19
ATOM     19  C   UNL     1      84.326  23.088  28.417  1.00  0.00     0.000 C 
BRANCH  19  20
ATOM     20  C   UNL     1      83.517  23.292  29.708  1.00  0.00     0.006 C 
BRANCH  20  21
ATOM     21  C   UNL     1      82.545  24.476  29.625  1.00  0.00     0.053 C 
BRANCH  21  22
ATOM     22  C   UNL     1      82.426  25.150  30.954  1.00  0.00     0.041 C 
ATOM     23  O   UNL     1      82.397  24.467  32.012  1.00  0.00    -0.550 OA
ATOM     24  O   UNL     1      82.309  26.534  31.023  1.00  0.00    -0.550 OA
ENDBRANCH  21  22
ENDBRANCH  20  21
ENDBRANCH  19  20
ENDBRANCH  18  19
ENDBRANCH  17  18
ENDBRANCH  16  17
ENDBRANCH  15  16
ENDBRANCH  14  15
ENDBRANCH  13  14
ENDBRANCH   1  13
TORSDOF 20
ENDMDL
MODEL 7
REMARK VINA RESULT:    -3.249      3.140      6.628
REMARK INTER + INTRA:         -10.204
REMARK INTER:                  -6.596
REMARK INTRA:                  -3.608
REMARK UNBOUND:                -3.157
REMARK SMILES CCCCCCCCCCCCCCCCCCCCCC(=O)[O-]
REMARK SMILES IDX 12 1 11 2 10 3 9 4 8 5 7 6 6 7 5 8 4 9 3 10 2 11 1 12 13 13
REMARK SMILES IDX 14 14 15 15 16 16 17 17 18 18 19 19 20 20 21 21 22 22 23 23
REMARK SMILES IDX 24 24
REMARK H PARENT
REMARK Flexibility Score: inf
ROOT
ATOM      1  C   UNL     1      85.508  30.838  28.027  1.00  0.00     0.000 C 
ENDROOT
BRANCH   1   2
ATOM      2  C   UNL     1      84.688  30.036  29.051  1.00  0.00     0.000 C 
BRANCH   2   3
ATOM      3  C   UNL     1      83.976  28.829  28.420  1.00  0.00     0.000 C 
BRANCH   3   4
ATOM      4  C   UNL     1      84.535  28.533  27.020  1.00  0.00    -0.000 C 
BRANCH   4   5
ATOM      5  C   UNL     1      84.938  27.060  26.840  1.00  0.00    -0.000 C 
BRANCH   5   6
ATOM      6  C   UNL     1      86.238  26.709  27.585  1.00  0.00    -0.000 C 
BRANCH   6   7
ATOM      7  C   UNL     1      86.032  25.651  28.686  1.00  0.00    -0.000 C 
BRANCH   7   8
ATOM      8  C   UNL     1      84.866  24.676  28.447  1.00  0.00    -0.000 C 
BRANCH   8   9
ATOM      9  C   UNL     1      85.315  23.209  28.379  1.00  0.00    -0.000 C 
BRANCH   9  10
ATOM     10  C   UNL     1      85.895  22.875  26.997  1.00  0.00    -0.000 C 
BRANCH  10  11
ATOM     11  C   UNL     1      84.915  23.176  25.853  1.00  0.00    -0.003 C 
ATOM     12  C   UNL     1      85.517  24.080  24.777  1.00  0.00     0.004 C 
ENDBRANCH  10  11
ENDBRANCH   9  10
ENDBRANCH   8   9
ENDBRANCH   7   8
ENDBRANCH   6   7
ENDBRANCH   5   6
ENDBRANCH   4   5
ENDBRANCH   3   4
ENDBRANCH   2   3
ENDBRANCH   1   2
BRANCH   1  13
ATOM     13  C   UNL     1      86.987  30.971  28.431  1.00  0.00     0.000 C 
BRANCH  13  14
ATOM     14  C   UNL     1      87.550  29.693  29.081  1.00  0.00     0.000 C 
BRANCH  14  15
ATOM     15  C   UNL     1      89.019  29.376  28.749  1.00  0.00     0.000 C 
BRANCH  15  16
ATOM     16  C   UNL     1      89.416  29.794  27.322  1.00  0.00     0.000 C 
BRANCH  16  17
ATOM     17  C   UNL     1      89.744  28.594  26.414  1.00  0.00     0.000 C 
BRANCH  17  18
ATOM     18  C   UNL     1      88.936  28.518  25.104  1.00  0.00     0.000 C 
BRANCH  18  19
ATOM     19  C   UNL     1      87.544  29.163  25.220  1.00  0.00     0.000 C 
BRANCH  19  20
ATOM     20  C   UNL     1      87.318  30.276  24.185  1.00  0.00     0.006 C 
BRANCH  20  21
ATOM     21  C   UNL     1      87.590  31.679  24.745  1.00  0.00     0.053 C 
BRANCH  21  22
ATOM     22  C   UNL     1      88.570  32.406  23.880  1.00  0.00     0.041 C 
ATOM     23  O   UNL     1      88.594  33.666  23.869  1.00  0.00    -0.550 OA
ATOM     24  O   UNL     1      89.431  31.692  23.055  1.00  0.00    -0.550 OA
ENDBRANCH  21  22
ENDBRANCH  20  21
ENDBRANCH  19  20
ENDBRANCH  18  19
ENDBRANCH  17  18
ENDBRANCH  16  17
ENDBRANCH  15  16
ENDBRANCH  14  15
ENDBRANCH  13  14
ENDBRANCH   1  13
TORSDOF 20
ENDMDL
MODEL 8
REMARK VINA RESULT:    -3.239      2.634      6.569
REMARK INTER + INTRA:         -10.183
REMARK INTER:                  -6.572
REMARK INTRA:                  -3.611
REMARK UNBOUND:                -3.157
REMARK SMILES CCCCCCCCCCCCCCCCCCCCCC(=O)[O-]
REMARK SMILES IDX 12 1 11 2 10 3 9 4 8 5 7 6 6 7 5 8 4 9 3 10 2 11 1 12 13 13
REMARK SMILES IDX 14 14 15 15 16 16 17 17 18 18 19 19 20 20 21 21 22 22 23 23
REMARK SMILES IDX 24 24
REMARK H PARENT
REMARK Flexibility Score: inf
ROOT
ATOM      1  C   UNL     1      85.141  29.722  28.220  1.00  0.00     0.000 C 
ENDROOT
BRANCH   1   2
ATOM      2  C   UNL     1      84.976  28.242  27.834  1.00  0.00     0.000 C 
BRANCH   2   3
ATOM      3  C   UNL     1      85.840  27.308  28.695  1.00  0.00     0.000 C 
BRANCH   3   4
ATOM      4  C   UNL     1      86.347  26.114  27.871  1.00  0.00    -0.000 C 
BRANCH   4   5
ATOM      5  C   UNL     1      85.881  24.762  28.436  1.00  0.00    -0.000 C 
BRANCH   5   6
ATOM      6  C   UNL     1      85.151  23.906  27.386  1.00  0.00    -0.000 C 
BRANCH   6   7
ATOM      7  C   UNL     1      83.636  23.799  27.646  1.00  0.00    -0.000 C 
BRANCH   7   8
ATOM      8  C   UNL     1      82.853  25.116  27.500  1.00  0.00    -0.000 C 
BRANCH   8   9
ATOM      9  C   UNL     1      81.941  25.408  28.700  1.00  0.00    -0.000 C 
BRANCH   9  10
ATOM     10  C   UNL     1      82.767  25.778  29.941  1.00  0.00    -0.000 C 
BRANCH  10  11
ATOM     11  C   UNL     1      82.354  24.981  31.188  1.00  0.00    -0.003 C 
ATOM     12  C   UNL     1      83.088  23.646  31.309  1.00  0.00     0.004 C 
ENDBRANCH  10  11
ENDBRANCH   9  10
ENDBRANCH   8   9
ENDBRANCH   7   8
ENDBRANCH   6   7
ENDBRANCH   5   6
ENDBRANCH   4   5
ENDBRANCH   3   4
ENDBRANCH   2   3
ENDBRANCH   1   2
BRANCH   1  13
ATOM     13  C   UNL     1      86.345  29.956  29.150  1.00  0.00     0.000 C 
BRANCH  13  14
ATOM     14  C   UNL     1      87.426  30.854  28.521  1.00  0.00     0.000 C 
BRANCH  14  15
ATOM     15  C   UNL     1      88.877  30.383  28.726  1.00  0.00     0.000 C 
BRANCH  15  16
ATOM     16  C   UNL     1      89.055  28.871  28.505  1.00  0.00     0.000 C 
BRANCH  16  17
ATOM     17  C   UNL     1      89.967  28.542  27.308  1.00  0.00     0.000 C 
BRANCH  17  18
ATOM     18  C   UNL     1      89.439  28.997  25.933  1.00  0.00     0.000 C 
BRANCH  18  19
ATOM     19  C   UNL     1      87.984  28.566  25.677  1.00  0.00     0.000 C 
BRANCH  19  20
ATOM     20  C   UNL     1      87.209  29.577  24.816  1.00  0.00     0.006 C 
BRANCH  20  21
ATOM     21  C   UNL     1      87.829  30.980  24.837  1.00  0.00     0.053 C 
BRANCH  21  22
ATOM     22  C   UNL     1      86.771  32.016  25.048  1.00  0.00     0.041 C 
ATOM     23  O   UNL     1      85.600  31.673  25.360  1.00  0.00    -0.550 OA
ATOM     24  O   UNL     1      87.070  33.361  24.862  1.00  0.00    -0.550 OA
ENDBRANCH  21  22
ENDBRANCH  20  21
ENDBRANCH  19  20
ENDBRANCH  18  19
ENDBRANCH  17  18
ENDBRANCH  16  17
ENDBRANCH  15  16
ENDBRANCH  14  15
ENDBRANCH  13  14
ENDBRANCH   1  13
TORSDOF 20
ENDMDL
MODEL 9
REMARK VINA RESULT:    -3.235      1.323      5.510
REMARK INTER + INTRA:         -10.174
REMARK INTER:                  -7.098
REMARK INTRA:                  -3.076
REMARK UNBOUND:                -3.157
REMARK SMILES CCCCCCCCCCCCCCCCCCCCCC(=O)[O-]
REMARK SMILES IDX 12 1 11 2 10 3 9 4 8 5 7 6 6 7 5 8 4 9 3 10 2 11 1 12 13 13
REMARK SMILES IDX 14 14 15 15 16 16 17 17 18 18 19 19 20 20 21 21 22 22 23 23
REMARK SMILES IDX 24 24
REMARK H PARENT
REMARK Flexibility Score: inf
ROOT
ATOM      1  C   UNL     1      88.560  28.417  25.913  1.00  0.00     0.000 C 
ENDROOT
BRANCH   1   2
ATOM      2  C   UNL     1      87.348  29.169  25.338  1.00  0.00     0.000 C 
BRANCH   2   3
ATOM      3  C   UNL     1      86.036  28.389  25.510  1.00  0.00     0.000 C 
BRANCH   3   4
ATOM      4  C   UNL     1      86.300  26.991  26.091  1.00  0.00    -0.000 C 
BRANCH   4   5
ATOM      5  C   UNL     1      85.496  26.718  27.373  1.00  0.00    -0.000 C 
BRANCH   5   6
ATOM      6  C   UNL     1      86.282  25.878  28.394  1.00  0.00    -0.000 C 
BRANCH   6   7
ATOM      7  C   UNL     1      85.892  24.388  28.373  1.00  0.00    -0.000 C 
BRANCH   7   8
ATOM      8  C   UNL     1      84.707  24.034  27.457  1.00  0.00    -0.000 C 
BRANCH   8   9
ATOM      9  C   UNL     1      83.454  23.606  28.234  1.00  0.00    -0.000 C 
BRANCH   9  10
ATOM     10  C   UNL     1      83.718  23.612  29.747  1.00  0.00    -0.000 C 
BRANCH  10  11
ATOM     11  C   UNL     1      82.756  24.533  30.513  1.00  0.00    -0.003 C 
ATOM     12  C   UNL     1      82.853  25.993  30.068  1.00  0.00     0.004 C 
ENDBRANCH  10  11
ENDBRANCH   9  10
ENDBRANCH   8   9
ENDBRANCH   7   8
ENDBRANCH   6   7
ENDBRANCH   5   6
ENDBRANCH   4   5
ENDBRANCH   3   4
ENDBRANCH   2   3
ENDBRANCH   1   2
BRANCH   1  13
ATOM     13  C   UNL     1      89.645  29.370  26.445  1.00  0.00     0.000 C 
BRANCH  13  14
ATOM     14  C   UNL     1      89.322  29.932  27.842  1.00  0.00     0.000 C 
BRANCH  14  15
ATOM     15  C   UNL     1      88.733  28.920  28.841  1.00  0.00     0.000 C 
BRANCH  15  16
ATOM     16  C   UNL     1      87.354  29.338  29.378  1.00  0.00     0.000 C 
BRANCH  16  17
ATOM     17  C   UNL     1      86.890  30.705  28.840  1.00  0.00     0.000 C 
BRANCH  17  18
ATOM     18  C   UNL     1      85.507  30.711  28.161  1.00  0.00     0.000 C 
BRANCH  18  19
ATOM     19  C   UNL     1      84.438  31.453  28.982  1.00  0.00     0.000 C 
BRANCH  19  20
ATOM     20  C   UNL     1      85.019  32.622  29.793  1.00  0.00     0.006 C 
BRANCH  20  21
ATOM     21  C   UNL     1      84.178  32.972  31.027  1.00  0.00     0.053 C 
BRANCH  21  22
ATOM     22  C   UNL     1      84.556  32.100  32.182  1.00  0.00     0.041 C 
ATOM     23  O   UNL     1      83.825  31.127  32.509  1.00  0.00    -0.550 OA
ATOM     24  O   UNL     1      85.697  32.385  32.923  1.00  0.00    -0.550 OA
ENDBRANCH  21  22
ENDBRANCH  20  21
ENDBRANCH  19  20
ENDBRANCH  18  19
ENDBRANCH  17  18
ENDBRANCH  16  17
ENDBRANCH  15  16
ENDBRANCH  14  15
ENDBRANCH  13  14
ENDBRANCH   1  13
TORSDOF 20
ENDMDL
