MODEL 1
REMARK VINA RESULT:    29.764      0.000      0.000
REMARK INTER + INTRA:          36.370
REMARK INTER:                  36.725
REMARK INTRA:                  -0.355
REMARK UNBOUND:                -0.355
REMARK SMILES Oc1cc(O)c2cc(O)c(-c3cc(O)c(O)c(O)c3)[o+]c2c1
REMARK SMILES IDX 10 1 20 2 21 3 22 4 2 5 3 6 4 7 6 8 7 9 8 10 11 11 12 12
REMARK SMILES IDX 13 13 19 14 15 15 17 16 14 17 16 19 18 21 9 23 1 25 5 27
REMARK H PARENT 14 18 16 20 18 22 9 24 1 26 5 28
REMARK Flexibility Score: inf
ROOT
ATOM      1  C   UNL     1      20.069 -12.681 -16.365  1.00  0.00     0.402 A 
ATOM      2  O   UNL     1      21.236 -12.218 -15.916  1.00  0.00    -0.202 OA
ATOM      3  C   UNL     1      22.235 -11.866 -16.718  1.00  0.00     0.368 A 
ATOM      4  C   UNL     1      23.427 -11.384 -16.168  1.00  0.00     0.162 A 
ATOM      5  C   UNL     1      24.486 -11.008 -16.999  1.00  0.00     0.128 A 
ATOM      6  C   UNL     1      24.354 -11.114 -18.390  1.00  0.00     0.093 A 
ATOM      7  C   UNL     1      23.166 -11.598 -18.957  1.00  0.00     0.136 A 
ATOM      8  C   UNL     1      22.100 -11.976 -18.119  1.00  0.00     0.125 A 
ATOM      9  C   UNL     1      20.894 -12.471 -18.628  1.00  0.00     0.078 A 
ATOM     10  C   UNL     1      19.869 -12.840 -17.752  1.00  0.00     0.223 A 
ENDROOT
BRANCH   1  11
ATOM     11  C   UNL     1      19.027 -13.031 -15.375  1.00  0.00     0.091 A 
ATOM     12  C   UNL     1      18.192 -12.024 -14.867  1.00  0.00     0.068 A 
ATOM     13  C   UNL     1      17.184 -12.332 -13.943  1.00  0.00     0.162 A 
ATOM     14  C   UNL     1      18.815 -14.362 -14.973  1.00  0.00     0.068 A 
ATOM     15  C   UNL     1      16.993 -13.657 -13.530  1.00  0.00     0.200 A 
ATOM     16  C   UNL     1      17.807 -14.677 -14.051  1.00  0.00     0.162 A 
BRANCH  13  17
ATOM     17  O   UNL     1      16.367 -11.325 -13.430  1.00  0.00    -0.504 OA
ATOM     18  H   UNL     1      16.706 -10.669 -12.737  1.00  0.00     0.293 HD
ENDBRANCH  13  17
BRANCH  15  19
ATOM     19  O   UNL     1      15.986 -13.944 -12.608  1.00  0.00    -0.502 OA
ATOM     20  H   UNL     1      15.010 -14.000 -12.876  1.00  0.00     0.293 HD
ENDBRANCH  15  19
BRANCH  16  21
ATOM     21  O   UNL     1      17.611 -15.998 -13.653  1.00  0.00    -0.504 OA
ATOM     22  H   UNL     1      18.047 -16.770 -14.142  1.00  0.00     0.293 HD
ENDBRANCH  16  21
ENDBRANCH   1  11
BRANCH  10  23
ATOM     23  O   UNL     1      18.684 -13.382 -18.250  1.00  0.00    -0.500 OA
ATOM     24  H   UNL     1      17.797 -13.239 -17.783  1.00  0.00     0.294 HD
ENDBRANCH  10  23
BRANCH   5  25
ATOM     25  O   UNL     1      25.665 -10.529 -16.433  1.00  0.00    -0.507 OA
ATOM     26  H   UNL     1      26.320 -11.148 -15.970  1.00  0.00     0.293 HD
ENDBRANCH   5  25
BRANCH   7  27
ATOM     27  O   UNL     1      23.047 -11.700 -20.344  1.00  0.00    -0.507 OA
ATOM     28  H   UNL     1      23.722 -11.276 -20.968  1.00  0.00     0.293 HD
ENDBRANCH   7  27
TORSDOF 7
ENDMDL
MODEL 2
REMARK VINA RESULT:    29.995      1.087      2.573
REMARK INTER + INTRA:          36.654
REMARK INTER:                  37.027
REMARK INTRA:                  -0.373
REMARK UNBOUND:                -0.355
REMARK SMILES Oc1cc(O)c2cc(O)c(-c3cc(O)c(O)c(O)c3)[o+]c2c1
REMARK SMILES IDX 10 1 20 2 21 3 22 4 2 5 3 6 4 7 6 8 7 9 8 10 11 11 12 12
REMARK SMILES IDX 13 13 19 14 15 15 17 16 14 17 16 19 18 21 9 23 1 25 5 27
REMARK H PARENT 14 18 16 20 18 22 9 24 1 26 5 28
REMARK Flexibility Score: inf
ROOT
ATOM      1  C   UNL     1      20.123 -12.621 -15.484  1.00  0.00     0.402 A 
ATOM      2  O   UNL     1      20.173 -12.707 -16.813  1.00  0.00    -0.202 OA
ATOM      3  C   UNL     1      21.256 -12.404 -17.521  1.00  0.00     0.368 A 
ATOM      4  C   UNL     1      21.230 -12.525 -18.914  1.00  0.00     0.162 A 
ATOM      5  C   UNL     1      22.362 -12.211 -19.670  1.00  0.00     0.128 A 
ATOM      6  C   UNL     1      23.530 -11.773 -19.032  1.00  0.00     0.093 A 
ATOM      7  C   UNL     1      23.572 -11.644 -17.636  1.00  0.00     0.136 A 
ATOM      8  C   UNL     1      22.431 -11.961 -16.874  1.00  0.00     0.125 A 
ATOM      9  C   UNL     1      22.412 -11.844 -15.480  1.00  0.00     0.078 A 
ATOM     10  C   UNL     1      21.251 -12.164 -14.771  1.00  0.00     0.223 A 
ENDROOT
BRANCH   1  11
ATOM     11  C   UNL     1      18.863 -12.997 -14.805  1.00  0.00     0.091 A 
ATOM     12  C   UNL     1      17.909 -12.005 -14.523  1.00  0.00     0.068 A 
ATOM     13  C   UNL     1      16.699 -12.338 -13.899  1.00  0.00     0.162 A 
ATOM     14  C   UNL     1      18.572 -14.335 -14.488  1.00  0.00     0.068 A 
ATOM     15  C   UNL     1      16.425 -13.670 -13.565  1.00  0.00     0.200 A 
ATOM     16  C   UNL     1      17.362 -14.673 -13.865  1.00  0.00     0.162 A 
BRANCH  13  17
ATOM     17  O   UNL     1      15.763 -11.347 -13.607  1.00  0.00    -0.504 OA
ATOM     18  H   UNL     1      15.975 -10.364 -13.726  1.00  0.00     0.293 HD
ENDBRANCH  13  17
BRANCH  15  19
ATOM     19  O   UNL     1      15.216 -13.981 -12.942  1.00  0.00    -0.502 OA
ATOM     20  H   UNL     1      15.088 -14.834 -12.409  1.00  0.00     0.293 HD
ENDBRANCH  15  19
BRANCH  16  21
ATOM     21  O   UNL     1      17.087 -16.003 -13.547  1.00  0.00    -0.504 OA
ATOM     22  H   UNL     1      17.799 -16.721 -13.607  1.00  0.00     0.293 HD
ENDBRANCH  16  21
ENDBRANCH   1  11
BRANCH  10  23
ATOM     23  O   UNL     1      21.209 -12.002 -13.386  1.00  0.00    -0.500 OA
ATOM     24  H   UNL     1      20.375 -11.675 -12.914  1.00  0.00     0.294 HD
ENDBRANCH  10  23
BRANCH   5  25
ATOM     25  O   UNL     1      22.318 -12.340 -21.056  1.00  0.00    -0.507 OA
ATOM     26  H   UNL     1      22.031 -13.204 -21.500  1.00  0.00     0.293 HD
ENDBRANCH   5  25
BRANCH   7  27
ATOM     27  O   UNL     1      24.740 -11.205 -17.011  1.00  0.00    -0.507 OA
ATOM     28  H   UNL     1      25.121 -10.283 -17.184  1.00  0.00     0.293 HD
ENDBRANCH   7  27
TORSDOF 7
ENDMDL
MODEL 3
REMARK VINA RESULT:    30.246      1.075      3.122
REMARK INTER + INTRA:          36.964
REMARK INTER:                  37.336
REMARK INTRA:                  -0.372
REMARK UNBOUND:                -0.355
REMARK SMILES Oc1cc(O)c2cc(O)c(-c3cc(O)c(O)c(O)c3)[o+]c2c1
REMARK SMILES IDX 10 1 20 2 21 3 22 4 2 5 3 6 4 7 6 8 7 9 8 10 11 11 12 12
REMARK SMILES IDX 13 13 19 14 15 15 17 16 14 17 16 19 18 21 9 23 1 25 5 27
REMARK H PARENT 14 18 16 20 18 22 9 24 1 26 5 28
REMARK Flexibility Score: inf
ROOT
ATOM      1  C   UNL     1      20.098 -12.620 -15.525  1.00  0.00     0.402 A 
ATOM      2  O   UNL     1      20.172 -12.695 -16.854  1.00  0.00    -0.202 OA
ATOM      3  C   UNL     1      21.272 -12.401 -17.539  1.00  0.00     0.368 A 
ATOM      4  C   UNL     1      21.270 -12.510 -18.933  1.00  0.00     0.162 A 
ATOM      5  C   UNL     1      22.420 -12.206 -19.666  1.00  0.00     0.128 A 
ATOM      6  C   UNL     1      23.582 -11.790 -19.003  1.00  0.00     0.093 A 
ATOM      7  C   UNL     1      23.600 -11.674 -17.605  1.00  0.00     0.136 A 
ATOM      8  C   UNL     1      22.440 -11.980 -16.867  1.00  0.00     0.125 A 
ATOM      9  C   UNL     1      22.398 -11.876 -15.473  1.00  0.00     0.078 A 
ATOM     10  C   UNL     1      21.219 -12.186 -14.788  1.00  0.00     0.223 A 
ENDROOT
BRANCH   1  11
ATOM     11  C   UNL     1      18.821 -12.983 -14.873  1.00  0.00     0.091 A 
ATOM     12  C   UNL     1      18.578 -14.322 -14.530  1.00  0.00     0.068 A 
ATOM     13  C   UNL     1      17.384 -14.690 -13.893  1.00  0.00     0.162 A 
ATOM     14  C   UNL     1      17.867 -12.007 -14.535  1.00  0.00     0.068 A 
ATOM     15  C   UNL     1      16.428 -13.715 -13.580  1.00  0.00     0.200 A 
ATOM     16  C   UNL     1      16.672 -12.368 -13.897  1.00  0.00     0.162 A 
BRANCH  13  17
ATOM     17  O   UNL     1      17.141 -16.024 -13.569  1.00  0.00    -0.504 OA
ATOM     18  H   UNL     1      16.351 -16.294 -12.995  1.00  0.00     0.293 HD
ENDBRANCH  13  17
BRANCH  15  19
ATOM     19  O   UNL     1      15.245 -14.100 -12.949  1.00  0.00    -0.502 OA
ATOM     20  H   UNL     1      14.620 -14.790 -13.350  1.00  0.00     0.293 HD
ENDBRANCH  15  19
BRANCH  16  21
ATOM     21  O   UNL     1      15.729 -11.394 -13.574  1.00  0.00    -0.504 OA
ATOM     22  H   UNL     1      15.928 -10.668 -12.896  1.00  0.00     0.293 HD
ENDBRANCH  16  21
ENDBRANCH   1  11
BRANCH  10  23
ATOM     23  O   UNL     1      21.155 -12.035 -13.402  1.00  0.00    -0.500 OA
ATOM     24  H   UNL     1      21.953 -12.228 -12.809  1.00  0.00     0.294 HD
ENDBRANCH  10  23
BRANCH   5  25
ATOM     25  O   UNL     1      22.398 -12.322 -21.054  1.00  0.00    -0.507 OA
ATOM     26  H   UNL     1      21.548 -12.175 -21.585  1.00  0.00     0.293 HD
ENDBRANCH   5  25
BRANCH   7  27
ATOM     27  O   UNL     1      24.763 -11.257 -16.955  1.00  0.00    -0.507 OA
ATOM     28  H   UNL     1      25.512 -11.904 -16.739  1.00  0.00     0.293 HD
ENDBRANCH   7  27
TORSDOF 7
ENDMDL
MODEL 4
REMARK VINA RESULT:    31.029      4.815      7.965
REMARK INTER + INTRA:          37.930
REMARK INTER:                  38.306
REMARK INTRA:                  -0.376
REMARK UNBOUND:                -0.355
REMARK SMILES Oc1cc(O)c2cc(O)c(-c3cc(O)c(O)c(O)c3)[o+]c2c1
REMARK SMILES IDX 10 1 20 2 21 3 22 4 2 5 3 6 4 7 6 8 7 9 8 10 11 11 12 12
REMARK SMILES IDX 13 13 19 14 15 15 17 16 14 17 16 19 18 21 9 23 1 25 5 27
REMARK H PARENT 14 18 16 20 18 22 9 24 1 26 5 28
REMARK Flexibility Score: inf
ROOT
ATOM      1  C   UNL     1      22.499  -8.270 -18.369  1.00  0.00     0.402 A 
ATOM      2  O   UNL     1      22.194  -9.276 -19.189  1.00  0.00    -0.202 OA
ATOM      3  C   UNL     1      22.410 -10.552 -18.886  1.00  0.00     0.368 A 
ATOM      4  C   UNL     1      22.057 -11.550 -19.799  1.00  0.00     0.162 A 
ATOM      5  C   UNL     1      22.276 -12.896 -19.493  1.00  0.00     0.128 A 
ATOM      6  C   UNL     1      22.852 -13.248 -18.265  1.00  0.00     0.093 A 
ATOM      7  C   UNL     1      23.213 -12.259 -17.339  1.00  0.00     0.136 A 
ATOM      8  C   UNL     1      22.992 -10.903 -17.648  1.00  0.00     0.125 A 
ATOM      9  C   UNL     1      23.338  -9.874 -16.767  1.00  0.00     0.078 A 
ATOM     10  C   UNL     1      23.104  -8.543 -17.125  1.00  0.00     0.223 A 
ENDROOT
BRANCH   1  11
ATOM     11  C   UNL     1      22.202  -6.890 -18.814  1.00  0.00     0.091 A 
ATOM     12  C   UNL     1      20.946  -6.330 -18.533  1.00  0.00     0.068 A 
ATOM     13  C   UNL     1      20.646  -5.019 -18.926  1.00  0.00     0.162 A 
ATOM     14  C   UNL     1      23.172  -6.104 -19.461  1.00  0.00     0.068 A 
ATOM     15  C   UNL     1      21.610  -4.248 -19.590  1.00  0.00     0.200 A 
ATOM     16  C   UNL     1      22.879  -4.791 -19.854  1.00  0.00     0.162 A 
BRANCH  13  17
ATOM     17  O   UNL     1      19.392  -4.473 -18.659  1.00  0.00    -0.504 OA
ATOM     18  H   UNL     1      18.947  -3.826 -19.300  1.00  0.00     0.293 HD
ENDBRANCH  13  17
BRANCH  15  19
ATOM     19  O   UNL     1      21.292  -2.945 -19.975  1.00  0.00    -0.502 OA
ATOM     20  H   UNL     1      20.377  -2.698 -20.334  1.00  0.00     0.293 HD
ENDBRANCH  15  19
BRANCH  16  21
ATOM     21  O   UNL     1      23.845  -4.023 -20.502  1.00  0.00    -0.504 OA
ATOM     22  H   UNL     1      24.017  -4.116 -21.496  1.00  0.00     0.293 HD
ENDBRANCH  16  21
ENDBRANCH   1  11
BRANCH  10  23
ATOM     23  O   UNL     1      23.493  -7.510 -16.272  1.00  0.00    -0.500 OA
ATOM     24  H   UNL     1      22.820  -6.863 -15.879  1.00  0.00     0.294 HD
ENDBRANCH  10  23
BRANCH   5  25
ATOM     25  O   UNL     1      21.918 -13.876 -20.415  1.00  0.00    -0.507 OA
ATOM     26  H   UNL     1      21.130 -14.493 -20.254  1.00  0.00     0.293 HD
ENDBRANCH   5  25
BRANCH   7  27
ATOM     27  O   UNL     1      23.787 -12.622 -16.119  1.00  0.00    -0.507 OA
ATOM     28  H   UNL     1      23.252 -13.094 -15.400  1.00  0.00     0.293 HD
ENDBRANCH   7  27
TORSDOF 7
ENDMDL
