MODEL 1
REMARK VINA RESULT:    -3.935      0.000      0.000
REMARK INTER + INTRA:          -5.505
REMARK INTER:                  -5.200
REMARK INTRA:                  -0.305
REMARK UNBOUND:                -0.305
REMARK SMILES C=CCC[C@H](O)CCC
REMARK SMILES IDX 4 1 5 2 7 3 8 4 9 5 6 6 3 8 2 9 1 10
REMARK H PARENT 6 7
REMARK Flexibility Score: inf
ROOT
ATOM      1  C   UNL     1     114.123 127.395 126.889  1.00  0.00     0.036 C 
ENDROOT
BRANCH   1   2
ATOM      2  C   UNL     1     115.087 126.291 126.397  1.00  0.00     0.114 C 
BRANCH   2   3
ATOM      3  C   UNL     1     115.779 126.681 125.075  1.00  0.00     0.031 C 
BRANCH   3   4
ATOM      4  C   UNL     1     115.378 125.791 123.885  1.00  0.00    -0.001 C 
ATOM      5  C   UNL     1     114.609 124.541 124.312  1.00  0.00     0.004 C 
ENDBRANCH   3   4
ENDBRANCH   2   3
BRANCH   2   6
ATOM      6  O   UNL     1     116.065 126.073 127.383  1.00  0.00    -0.393 OA
ATOM      7  H   UNL     1     116.824 125.611 126.941  1.00  0.00     0.210 HD
ENDBRANCH   2   6
ENDBRANCH   1   2
BRANCH   1   8
ATOM      8  C   UNL     1     112.729 127.364 126.235  1.00  0.00     0.029 C 
BRANCH   8   9
ATOM      9  C   UNL     1     111.671 128.015 127.086  1.00  0.00    -0.035 C 
ATOM     10  C   UNL     1     111.928 128.435 128.329  1.00  0.00     0.004 C 
ENDBRANCH   8   9
ENDBRANCH   1   8
TORSDOF 6
ENDMDL
MODEL 2
REMARK VINA RESULT:    -3.891      6.942      8.416
REMARK INTER + INTRA:          -5.447
REMARK INTER:                  -4.801
REMARK INTRA:                  -0.646
REMARK UNBOUND:                -0.305
REMARK SMILES C=CCC[C@H](O)CCC
REMARK SMILES IDX 4 1 5 2 7 3 8 4 9 5 6 6 3 8 2 9 1 10
REMARK H PARENT 6 7
REMARK Flexibility Score: inf
ROOT
ATOM      1  C   UNL     1     112.454 120.085 124.862  1.00  0.00     0.036 C 
ENDROOT
BRANCH   1   2
ATOM      2  C   UNL     1     112.668 118.800 125.695  1.00  0.00     0.114 C 
BRANCH   2   3
ATOM      3  C   UNL     1     112.568 119.076 127.210  1.00  0.00     0.031 C 
BRANCH   3   4
ATOM      4  C   UNL     1     113.866 118.768 127.978  1.00  0.00    -0.001 C 
ATOM      5  C   UNL     1     114.647 117.599 127.378  1.00  0.00     0.004 C 
ENDBRANCH   3   4
ENDBRANCH   2   3
BRANCH   2   6
ATOM      6  O   UNL     1     111.691 117.858 125.332  1.00  0.00    -0.393 OA
ATOM      7  H   UNL     1     110.858 118.106 125.812  1.00  0.00     0.210 HD
ENDBRANCH   2   6
ENDBRANCH   1   2
BRANCH   1   8
ATOM      8  C   UNL     1     113.739 120.887 124.582  1.00  0.00     0.029 C 
BRANCH   8   9
ATOM      9  C   UNL     1     114.930 120.005 124.316  1.00  0.00    -0.035 C 
ATOM     10  C   UNL     1     116.076 120.147 124.988  1.00  0.00     0.004 C 
ENDBRANCH   8   9
ENDBRANCH   1   8
TORSDOF 6
ENDMDL
MODEL 3
REMARK VINA RESULT:    -3.845      6.411      8.291
REMARK INTER + INTRA:          -5.386
REMARK INTER:                  -5.054
REMARK INTRA:                  -0.332
REMARK UNBOUND:                -0.305
REMARK SMILES C=CCC[C@H](O)CCC
REMARK SMILES IDX 4 1 5 2 7 3 8 4 9 5 6 6 3 8 2 9 1 10
REMARK H PARENT 6 7
REMARK Flexibility Score: inf
ROOT
ATOM      1  C   UNL     1     113.485 118.417 126.415  1.00  0.00     0.036 C 
ENDROOT
BRANCH   1   2
ATOM      2  C   UNL     1     112.144 118.786 125.740  1.00  0.00     0.114 C 
BRANCH   2   3
ATOM      3  C   UNL     1     112.273 120.046 124.858  1.00  0.00     0.031 C 
BRANCH   3   4
ATOM      4  C   UNL     1     113.725 120.519 124.671  1.00  0.00    -0.001 C 
ATOM      5  C   UNL     1     113.831 122.024 124.423  1.00  0.00     0.004 C 
ENDBRANCH   3   4
ENDBRANCH   2   3
BRANCH   2   6
ATOM      6  O   UNL     1     111.725 117.707 124.944  1.00  0.00    -0.393 OA
ATOM      7  H   UNL     1     112.460 117.040 124.952  1.00  0.00     0.210 HD
ENDBRANCH   2   6
ENDBRANCH   1   2
BRANCH   1   8
ATOM      8  C   UNL     1     113.588 118.822 127.897  1.00  0.00     0.029 C 
BRANCH   8   9
ATOM      9  C   UNL     1     115.010 118.862 128.392  1.00  0.00    -0.035 C 
ATOM     10  C   UNL     1     116.049 118.838 127.552  1.00  0.00     0.004 C 
ENDBRANCH   8   9
ENDBRANCH   1   8
TORSDOF 6
ENDMDL
MODEL 4
REMARK VINA RESULT:    -3.843     15.644     17.600
REMARK INTER + INTRA:          -5.384
REMARK INTER:                  -4.874
REMARK INTRA:                  -0.510
REMARK UNBOUND:                -0.305
REMARK SMILES C=CCC[C@H](O)CCC
REMARK SMILES IDX 4 1 5 2 7 3 8 4 9 5 6 6 3 8 2 9 1 10
REMARK H PARENT 6 7
REMARK Flexibility Score: inf
ROOT
ATOM      1  C   UNL     1     123.933 120.094 112.189  1.00  0.00     0.036 C 
ENDROOT
BRANCH   1   2
ATOM      2  C   UNL     1     122.478 119.655 111.905  1.00  0.00     0.114 C 
BRANCH   2   3
ATOM      3  C   UNL     1     121.763 119.178 113.186  1.00  0.00     0.031 C 
BRANCH   3   4
ATOM      4  C   UNL     1     122.716 118.933 114.368  1.00  0.00    -0.001 C 
ATOM      5  C   UNL     1     122.383 119.793 115.588  1.00  0.00     0.004 C 
ENDBRANCH   3   4
ENDBRANCH   2   3
BRANCH   2   6
ATOM      6  O   UNL     1     121.775 120.743 111.361  1.00  0.00    -0.393 OA
ATOM      7  H   UNL     1     122.453 121.401 111.054  1.00  0.00     0.210 HD
ENDBRANCH   2   6
ENDBRANCH   1   2
BRANCH   1   8
ATOM      8  C   UNL     1     124.158 121.618 112.161  1.00  0.00     0.029 C 
BRANCH   8   9
ATOM      9  C   UNL     1     125.324 122.050 113.011  1.00  0.00    -0.035 C 
ATOM     10  C   UNL     1     125.513 121.569 114.244  1.00  0.00     0.004 C 
ENDBRANCH   8   9
ENDBRANCH   1   8
TORSDOF 6
ENDMDL
MODEL 5
REMARK VINA RESULT:    -3.812      7.798      8.709
REMARK INTER + INTRA:          -5.342
REMARK INTER:                  -5.148
REMARK INTRA:                  -0.194
REMARK UNBOUND:                -0.305
REMARK SMILES C=CCC[C@H](O)CCC
REMARK SMILES IDX 4 1 5 2 7 3 8 4 9 5 6 6 3 8 2 9 1 10
REMARK H PARENT 6 7
REMARK Flexibility Score: inf
ROOT
ATOM      1  C   UNL     1     113.064 119.776 124.723  1.00  0.00     0.036 C 
ENDROOT
BRANCH   1   2
ATOM      2  C   UNL     1     112.849 118.588 125.689  1.00  0.00     0.114 C 
BRANCH   2   3
ATOM      3  C   UNL     1     112.729 119.054 127.155  1.00  0.00     0.031 C 
BRANCH   3   4
ATOM      4  C   UNL     1     113.992 118.784 127.991  1.00  0.00    -0.001 C 
ATOM      5  C   UNL     1     114.705 117.493 127.589  1.00  0.00     0.004 C 
ENDBRANCH   3   4
ENDBRANCH   2   3
BRANCH   2   6
ATOM      6  O   UNL     1     111.672 117.913 125.322  1.00  0.00    -0.393 OA
ATOM      7  H   UNL     1     111.833 116.946 125.477  1.00  0.00     0.210 HD
ENDBRANCH   2   6
ENDBRANCH   1   2
BRANCH   1   8
ATOM      8  C   UNL     1     111.844 120.115 123.845  1.00  0.00     0.029 C 
BRANCH   8   9
ATOM      9  C   UNL     1     112.079 119.827 122.386  1.00  0.00    -0.035 C 
ATOM     10  C   UNL     1     111.216 120.219 121.444  1.00  0.00     0.004 C 
ENDBRANCH   8   9
ENDBRANCH   1   8
TORSDOF 6
ENDMDL
MODEL 6
REMARK VINA RESULT:    -3.766     17.168     18.430
REMARK INTER + INTRA:          -5.282
REMARK INTER:                  -4.725
REMARK INTRA:                  -0.556
REMARK UNBOUND:                -0.305
REMARK SMILES C=CCC[C@H](O)CCC
REMARK SMILES IDX 4 1 5 2 7 3 8 4 9 5 6 6 3 8 2 9 1 10
REMARK H PARENT 6 7
REMARK Flexibility Score: inf
ROOT
ATOM      1  C   UNL     1     125.780 120.660 111.998  1.00  0.00     0.036 C 
ENDROOT
BRANCH   1   2
ATOM      2  C   UNL     1     124.741 119.516 112.001  1.00  0.00     0.114 C 
BRANCH   2   3
ATOM      3  C   UNL     1     123.322 120.028 111.675  1.00  0.00     0.031 C 
BRANCH   3   4
ATOM      4  C   UNL     1     122.279 119.675 112.749  1.00  0.00    -0.001 C 
ATOM      5  C   UNL     1     122.891 119.508 114.139  1.00  0.00     0.004 C 
ENDBRANCH   3   4
ENDBRANCH   2   3
BRANCH   2   6
ATOM      6  O   UNL     1     125.118 118.560 111.044  1.00  0.00    -0.393 OA
ATOM      7  H   UNL     1     124.549 118.711 110.244  1.00  0.00     0.210 HD
ENDBRANCH   2   6
ENDBRANCH   1   2
BRANCH   1   8
ATOM      8  C   UNL     1     125.241 122.017 112.489  1.00  0.00     0.029 C 
BRANCH   8   9
ATOM      9  C   UNL     1     125.442 122.223 113.967  1.00  0.00    -0.035 C 
ATOM     10  C   UNL     1     126.505 121.728 114.608  1.00  0.00     0.004 C 
ENDBRANCH   8   9
ENDBRANCH   1   8
TORSDOF 6
ENDMDL
MODEL 7
REMARK VINA RESULT:    -3.748      8.039      8.533
REMARK INTER + INTRA:          -5.258
REMARK INTER:                  -5.150
REMARK INTRA:                  -0.108
REMARK UNBOUND:                -0.305
REMARK SMILES C=CCC[C@H](O)CCC
REMARK SMILES IDX 4 1 5 2 7 3 8 4 9 5 6 6 3 8 2 9 1 10
REMARK H PARENT 6 7
REMARK Flexibility Score: inf
ROOT
ATOM      1  C   UNL     1     112.051 119.797 124.004  1.00  0.00     0.036 C 
ENDROOT
BRANCH   1   2
ATOM      2  C   UNL     1     111.950 119.301 122.543  1.00  0.00     0.114 C 
BRANCH   2   3
ATOM      3  C   UNL     1     111.151 120.282 121.659  1.00  0.00     0.031 C 
BRANCH   3   4
ATOM      4  C   UNL     1     112.013 121.002 120.607  1.00  0.00    -0.001 C 
ATOM      5  C   UNL     1     111.263 121.256 119.299  1.00  0.00     0.004 C 
ENDBRANCH   3   4
ENDBRANCH   2   3
BRANCH   2   6
ATOM      6  O   UNL     1     113.247 119.161 122.022  1.00  0.00    -0.393 OA
ATOM      7  H   UNL     1     113.380 118.196 121.832  1.00  0.00     0.210 HD
ENDBRANCH   2   6
ENDBRANCH   1   2
BRANCH   1   8
ATOM      8  C   UNL     1     112.005 118.679 125.063  1.00  0.00     0.029 C 
BRANCH   8   9
ATOM      9  C   UNL     1     113.197 118.700 125.984  1.00  0.00    -0.035 C 
ATOM     10  C   UNL     1     113.068 118.903 127.298  1.00  0.00     0.004 C 
ENDBRANCH   8   9
ENDBRANCH   1   8
TORSDOF 6
ENDMDL
MODEL 8
REMARK VINA RESULT:    -3.711     18.014     18.829
REMARK INTER + INTRA:          -5.210
REMARK INTER:                  -4.789
REMARK INTRA:                  -0.421
REMARK UNBOUND:                -0.305
REMARK SMILES C=CCC[C@H](O)CCC
REMARK SMILES IDX 4 1 5 2 7 3 8 4 9 5 6 6 3 8 2 9 1 10
REMARK H PARENT 6 7
REMARK Flexibility Score: inf
ROOT
ATOM      1  C   UNL     1     126.349 120.065 112.345  1.00  0.00     0.036 C 
ENDROOT
BRANCH   1   2
ATOM      2  C   UNL     1     127.471 120.209 113.399  1.00  0.00     0.114 C 
BRANCH   2   3
ATOM      3  C   UNL     1     127.019 119.714 114.789  1.00  0.00     0.031 C 
BRANCH   3   4
ATOM      4  C   UNL     1     126.957 120.827 115.849  1.00  0.00    -0.001 C 
ATOM      5  C   UNL     1     127.513 122.159 115.343  1.00  0.00     0.004 C 
ENDBRANCH   3   4
ENDBRANCH   2   3
BRANCH   2   6
ATOM      6  O   UNL     1     128.583 119.460 112.981  1.00  0.00    -0.393 OA
ATOM      7  H   UNL     1     128.995 119.952 112.224  1.00  0.00     0.210 HD
ENDBRANCH   2   6
ENDBRANCH   1   2
BRANCH   1   8
ATOM      8  C   UNL     1     125.347 121.235 112.313  1.00  0.00     0.029 C 
BRANCH   8   9
ATOM      9  C   UNL     1     123.963 120.828 112.744  1.00  0.00    -0.035 C 
ATOM     10  C   UNL     1     122.970 120.668 111.864  1.00  0.00     0.004 C 
ENDBRANCH   8   9
ENDBRANCH   1   8
TORSDOF 6
ENDMDL
MODEL 9
REMARK VINA RESULT:    -3.704     17.866     18.494
REMARK INTER + INTRA:          -5.201
REMARK INTER:                  -4.864
REMARK INTRA:                  -0.337
REMARK UNBOUND:                -0.305
REMARK SMILES C=CCC[C@H](O)CCC
REMARK SMILES IDX 4 1 5 2 7 3 8 4 9 5 6 6 3 8 2 9 1 10
REMARK H PARENT 6 7
REMARK Flexibility Score: inf
ROOT
ATOM      1  C   UNL     1     125.855 121.632 112.643  1.00  0.00     0.036 C 
ENDROOT
BRANCH   1   2
ATOM      2  C   UNL     1     126.209 121.564 114.147  1.00  0.00     0.114 C 
BRANCH   2   3
ATOM      3  C   UNL     1     127.346 120.559 114.424  1.00  0.00     0.031 C 
BRANCH   3   4
ATOM      4  C   UNL     1     127.562 119.546 113.287  1.00  0.00    -0.001 C 
ATOM      5  C   UNL     1     126.851 118.215 113.536  1.00  0.00     0.004 C 
ENDBRANCH   3   4
ENDBRANCH   2   3
BRANCH   2   6
ATOM      6  O   UNL     1     126.606 122.842 114.576  1.00  0.00    -0.393 OA
ATOM      7  H   UNL     1     127.535 122.979 114.254  1.00  0.00     0.210 HD
ENDBRANCH   2   6
ENDBRANCH   1   2
BRANCH   1   8
ATOM      8  C   UNL     1     124.355 121.814 112.346  1.00  0.00     0.029 C 
BRANCH   8   9
ATOM      9  C   UNL     1     123.610 120.506 112.292  1.00  0.00    -0.035 C 
ATOM     10  C   UNL     1     122.467 120.375 111.611  1.00  0.00     0.004 C 
ENDBRANCH   8   9
ENDBRANCH   1   8
TORSDOF 6
ENDMDL
