MODEL 1
REMARK VINA RESULT:    -5.492      0.000      0.000
REMARK INTER + INTRA:         -14.086
REMARK INTER:                 -11.913
REMARK INTRA:                  -2.173
REMARK UNBOUND:                -2.173
REMARK SMILES CCCCCCCCCCCCCCCCCCCCCC(=O)[O-]
REMARK SMILES IDX 12 1 11 2 10 3 9 4 8 5 7 6 6 7 5 8 4 9 3 10 2 11 1 12 13 13
REMARK SMILES IDX 14 14 15 15 16 16 17 17 18 18 19 19 20 20 21 21 22 22 23 23
REMARK SMILES IDX 24 24
REMARK H PARENT
REMARK Flexibility Score: inf
ROOT
ATOM      1  C   UNL     1      46.868  -7.246  24.024  1.00  0.00     0.000 C 
ENDROOT
BRANCH   1   2
ATOM      2  C   UNL     1      45.652  -7.706  24.845  1.00  0.00     0.000 C 
BRANCH   2   3
ATOM      3  C   UNL     1      45.920  -7.700  26.361  1.00  0.00     0.000 C 
BRANCH   3   4
ATOM      4  C   UNL     1      44.906  -6.840  27.131  1.00  0.00    -0.000 C 
BRANCH   4   5
ATOM      5  C   UNL     1      44.122  -5.884  26.213  1.00  0.00    -0.000 C 
BRANCH   5   6
ATOM      6  C   UNL     1      43.176  -4.956  27.006  1.00  0.00    -0.000 C 
BRANCH   6   7
ATOM      7  C   UNL     1      41.869  -5.639  27.453  1.00  0.00    -0.000 C 
BRANCH   7   8
ATOM      8  C   UNL     1      40.594  -5.101  26.779  1.00  0.00    -0.000 C 
BRANCH   8   9
ATOM      9  C   UNL     1      39.375  -6.008  27.007  1.00  0.00    -0.000 C 
BRANCH   9  10
ATOM     10  C   UNL     1      38.362  -5.861  25.863  1.00  0.00    -0.000 C 
BRANCH  10  11
ATOM     11  C   UNL     1      37.445  -7.087  25.724  1.00  0.00    -0.003 C 
ATOM     12  C   UNL     1      36.586  -7.042  24.459  1.00  0.00     0.004 C 
ENDBRANCH  10  11
ENDBRANCH   9  10
ENDBRANCH   8   9
ENDBRANCH   7   8
ENDBRANCH   6   7
ENDBRANCH   5   6
ENDBRANCH   4   5
ENDBRANCH   3   4
ENDBRANCH   2   3
ENDBRANCH   1   2
BRANCH   1  13
ATOM     13  C   UNL     1      48.135  -7.074  24.879  1.00  0.00     0.000 C 
BRANCH  13  14
ATOM     14  C   UNL     1      48.620  -5.616  24.927  1.00  0.00     0.000 C 
BRANCH  14  15
ATOM     15  C   UNL     1      48.192  -4.890  26.213  1.00  0.00     0.000 C 
BRANCH  15  16
ATOM     16  C   UNL     1      47.119  -3.832  25.914  1.00  0.00     0.000 C 
BRANCH  16  17
ATOM     17  C   UNL     1      46.543  -3.184  27.187  1.00  0.00     0.000 C 
BRANCH  17  18
ATOM     18  C   UNL     1      46.153  -1.700  27.043  1.00  0.00     0.000 C 
BRANCH  18  19
ATOM     19  C   UNL     1      45.513  -1.125  28.315  1.00  0.00     0.000 C 
BRANCH  19  20
ATOM     20  C   UNL     1      44.342  -1.998  28.786  1.00  0.00     0.006 C 
BRANCH  20  21
ATOM     21  C   UNL     1      43.515  -1.319  29.887  1.00  0.00     0.053 C 
BRANCH  21  22
ATOM     22  C   UNL     1      42.089  -1.779  29.877  1.00  0.00     0.041 C 
ATOM     23  O   UNL     1      41.816  -2.995  29.698  1.00  0.00    -0.550 OA
ATOM     24  O   UNL     1      41.063  -0.869  30.101  1.00  0.00    -0.550 OA
ENDBRANCH  21  22
ENDBRANCH  20  21
ENDBRANCH  19  20
ENDBRANCH  18  19
ENDBRANCH  17  18
ENDBRANCH  16  17
ENDBRANCH  15  16
ENDBRANCH  14  15
ENDBRANCH  13  14
ENDBRANCH   1  13
TORSDOF 20
ENDMDL
MODEL 2
REMARK VINA RESULT:    -5.247      2.112      6.898
REMARK INTER + INTRA:         -13.554
REMARK INTER:                 -11.018
REMARK INTRA:                  -2.536
REMARK UNBOUND:                -2.173
REMARK SMILES CCCCCCCCCCCCCCCCCCCCCC(=O)[O-]
REMARK SMILES IDX 12 1 11 2 10 3 9 4 8 5 7 6 6 7 5 8 4 9 3 10 2 11 1 12 13 13
REMARK SMILES IDX 14 14 15 15 16 16 17 17 18 18 19 19 20 20 21 21 22 22 23 23
REMARK SMILES IDX 24 24
REMARK H PARENT
REMARK Flexibility Score: inf
ROOT
ATOM      1  C   UNL     1      43.401  -1.781  29.403  1.00  0.00     0.000 C 
ENDROOT
BRANCH   1   2
ATOM      2  C   UNL     1      44.448  -0.667  29.242  1.00  0.00     0.000 C 
BRANCH   2   3
ATOM      3  C   UNL     1      45.537  -1.017  28.212  1.00  0.00     0.000 C 
BRANCH   3   4
ATOM      4  C   UNL     1      45.543  -2.510  27.850  1.00  0.00    -0.000 C 
BRANCH   4   5
ATOM      5  C   UNL     1      46.654  -2.872  26.847  1.00  0.00    -0.000 C 
BRANCH   5   6
ATOM      6  C   UNL     1      46.747  -4.394  26.601  1.00  0.00    -0.000 C 
BRANCH   6   7
ATOM      7  C   UNL     1      45.844  -5.228  27.530  1.00  0.00    -0.000 C 
BRANCH   7   8
ATOM      8  C   UNL     1      45.409  -6.589  26.960  1.00  0.00    -0.000 C 
BRANCH   8   9
ATOM      9  C   UNL     1      44.852  -6.484  25.532  1.00  0.00    -0.000 C 
BRANCH   9  10
ATOM     10  C   UNL     1      45.536  -7.495  24.601  1.00  0.00    -0.000 C 
BRANCH  10  11
ATOM     11  C   UNL     1      47.067  -7.486  24.740  1.00  0.00    -0.003 C 
ATOM     12  C   UNL     1      47.773  -7.029  23.463  1.00  0.00     0.004 C 
ENDBRANCH  10  11
ENDBRANCH   9  10
ENDBRANCH   8   9
ENDBRANCH   7   8
ENDBRANCH   6   7
ENDBRANCH   5   6
ENDBRANCH   4   5
ENDBRANCH   3   4
ENDBRANCH   2   3
ENDBRANCH   1   2
BRANCH   1  13
ATOM     13  C   UNL     1      43.207  -2.211  30.867  1.00  0.00     0.000 C 
BRANCH  13  14
ATOM     14  C   UNL     1      41.725  -2.391  31.237  1.00  0.00     0.000 C 
BRANCH  14  15
ATOM     15  C   UNL     1      41.307  -3.868  31.311  1.00  0.00     0.000 C 
BRANCH  15  16
ATOM     16  C   UNL     1      42.539  -4.784  31.367  1.00  0.00     0.000 C 
BRANCH  16  17
ATOM     17  C   UNL     1      42.393  -6.044  30.493  1.00  0.00     0.000 C 
BRANCH  17  18
ATOM     18  C   UNL     1      41.593  -5.845  29.191  1.00  0.00     0.000 C 
BRANCH  18  19
ATOM     19  C   UNL     1      42.299  -4.916  28.193  1.00  0.00     0.000 C 
BRANCH  19  20
ATOM     20  C   UNL     1      41.700  -5.062  26.786  1.00  0.00     0.006 C 
BRANCH  20  21
ATOM     21  C   UNL     1      40.439  -4.208  26.599  1.00  0.00     0.053 C 
BRANCH  21  22
ATOM     22  C   UNL     1      39.206  -5.053  26.486  1.00  0.00     0.041 C 
ATOM     23  O   UNL     1      39.270  -6.203  25.977  1.00  0.00    -0.550 OA
ATOM     24  O   UNL     1      37.993  -4.584  26.975  1.00  0.00    -0.550 OA
ENDBRANCH  21  22
ENDBRANCH  20  21
ENDBRANCH  19  20
ENDBRANCH  18  19
ENDBRANCH  17  18
ENDBRANCH  16  17
ENDBRANCH  15  16
ENDBRANCH  14  15
ENDBRANCH  13  14
ENDBRANCH   1  13
TORSDOF 20
ENDMDL
MODEL 3
REMARK VINA RESULT:    -5.207      3.525      9.132
REMARK INTER + INTRA:         -13.468
REMARK INTER:                 -11.991
REMARK INTRA:                  -1.477
REMARK UNBOUND:                -2.173
REMARK SMILES CCCCCCCCCCCCCCCCCCCCCC(=O)[O-]
REMARK SMILES IDX 12 1 11 2 10 3 9 4 8 5 7 6 6 7 5 8 4 9 3 10 2 11 1 12 13 13
REMARK SMILES IDX 14 14 15 15 16 16 17 17 18 18 19 19 20 20 21 21 22 22 23 23
REMARK SMILES IDX 24 24
REMARK H PARENT
REMARK Flexibility Score: inf
ROOT
ATOM      1  C   UNL     1      41.695  -3.831  28.968  1.00  0.00     0.000 C 
ENDROOT
BRANCH   1   2
ATOM      2  C   UNL     1      41.762  -5.242  28.360  1.00  0.00     0.000 C 
BRANCH   2   3
ATOM      3  C   UNL     1      43.200  -5.788  28.280  1.00  0.00     0.000 C 
BRANCH   3   4
ATOM      4  C   UNL     1      44.238  -4.675  28.078  1.00  0.00    -0.000 C 
BRANCH   4   5
ATOM      5  C   UNL     1      45.550  -5.194  27.459  1.00  0.00    -0.000 C 
BRANCH   5   6
ATOM      6  C   UNL     1      45.431  -6.656  26.978  1.00  0.00    -0.000 C 
BRANCH   6   7
ATOM      7  C   UNL     1      45.145  -6.791  25.470  1.00  0.00    -0.000 C 
BRANCH   7   8
ATOM      8  C   UNL     1      46.389  -7.016  24.592  1.00  0.00    -0.000 C 
BRANCH   8   9
ATOM      9  C   UNL     1      47.605  -7.496  25.397  1.00  0.00    -0.000 C 
BRANCH   9  10
ATOM     10  C   UNL     1      48.864  -7.533  24.518  1.00  0.00    -0.000 C 
BRANCH  10  11
ATOM     11  C   UNL     1      50.074  -6.864  25.189  1.00  0.00    -0.003 C 
ATOM     12  C   UNL     1      49.767  -5.449  25.683  1.00  0.00     0.004 C 
ENDBRANCH  10  11
ENDBRANCH   9  10
ENDBRANCH   8   9
ENDBRANCH   7   8
ENDBRANCH   6   7
ENDBRANCH   5   6
ENDBRANCH   4   5
ENDBRANCH   3   4
ENDBRANCH   2   3
ENDBRANCH   1   2
BRANCH   1  13
ATOM     13  C   UNL     1      40.293  -3.205  28.867  1.00  0.00     0.000 C 
BRANCH  13  14
ATOM     14  C   UNL     1      39.539  -3.650  27.603  1.00  0.00     0.000 C 
BRANCH  14  15
ATOM     15  C   UNL     1      38.101  -4.105  27.899  1.00  0.00     0.000 C 
BRANCH  15  16
ATOM     16  C   UNL     1      37.759  -5.384  27.122  1.00  0.00     0.000 C 
BRANCH  16  17
ATOM     17  C   UNL     1      38.729  -5.658  25.956  1.00  0.00     0.000 C 
BRANCH  17  18
ATOM     18  C   UNL     1      38.224  -6.670  24.911  1.00  0.00     0.000 C 
BRANCH  18  19
ATOM     19  C   UNL     1      36.851  -7.261  25.266  1.00  0.00     0.000 C 
BRANCH  19  20
ATOM     20  C   UNL     1      35.844  -7.036  24.129  1.00  0.00     0.006 C 
BRANCH  20  21
ATOM     21  C   UNL     1      34.474  -7.657  24.435  1.00  0.00     0.053 C 
BRANCH  21  22
ATOM     22  C   UNL     1      33.468  -6.619  24.831  1.00  0.00     0.041 C 
ATOM     23  O   UNL     1      33.096  -6.523  26.030  1.00  0.00    -0.550 OA
ATOM     24  O   UNL     1      32.969  -5.736  23.882  1.00  0.00    -0.550 OA
ENDBRANCH  21  22
ENDBRANCH  20  21
ENDBRANCH  19  20
ENDBRANCH  18  19
ENDBRANCH  17  18
ENDBRANCH  16  17
ENDBRANCH  15  16
ENDBRANCH  14  15
ENDBRANCH  13  14
ENDBRANCH   1  13
TORSDOF 20
ENDMDL
MODEL 4
REMARK VINA RESULT:    -5.188      3.844      9.348
REMARK INTER + INTRA:         -13.428
REMARK INTER:                 -12.069
REMARK INTRA:                  -1.359
REMARK UNBOUND:                -2.173
REMARK SMILES CCCCCCCCCCCCCCCCCCCCCC(=O)[O-]
REMARK SMILES IDX 12 1 11 2 10 3 9 4 8 5 7 6 6 7 5 8 4 9 3 10 2 11 1 12 13 13
REMARK SMILES IDX 14 14 15 15 16 16 17 17 18 18 19 19 20 20 21 21 22 22 23 23
REMARK SMILES IDX 24 24
REMARK H PARENT
REMARK Flexibility Score: inf
ROOT
ATOM      1  C   UNL     1      42.186  -4.751  27.197  1.00  0.00     0.000 C 
ENDROOT
BRANCH   1   2
ATOM      2  C   UNL     1      43.474  -5.421  27.702  1.00  0.00     0.000 C 
BRANCH   2   3
ATOM      3  C   UNL     1      44.236  -6.162  26.588  1.00  0.00     0.000 C 
BRANCH   3   4
ATOM      4  C   UNL     1      45.618  -6.649  27.049  1.00  0.00    -0.000 C 
BRANCH   4   5
ATOM      5  C   UNL     1      46.191  -7.753  26.140  1.00  0.00    -0.000 C 
BRANCH   5   6
ATOM      6  C   UNL     1      45.497  -7.794  24.761  1.00  0.00    -0.000 C 
BRANCH   6   7
ATOM      7  C   UNL     1      46.207  -6.950  23.685  1.00  0.00    -0.000 C 
BRANCH   7   8
ATOM      8  C   UNL     1      46.981  -7.761  22.631  1.00  0.00    -0.000 C 
BRANCH   8   9
ATOM      9  C   UNL     1      48.498  -7.748  22.868  1.00  0.00    -0.000 C 
BRANCH   9  10
ATOM     10  C   UNL     1      48.903  -6.565  23.759  1.00  0.00    -0.000 C 
BRANCH  10  11
ATOM     11  C   UNL     1      49.752  -6.996  24.965  1.00  0.00    -0.003 C 
ATOM     12  C   UNL     1      50.337  -5.807  25.731  1.00  0.00     0.004 C 
ENDBRANCH  10  11
ENDBRANCH   9  10
ENDBRANCH   8   9
ENDBRANCH   7   8
ENDBRANCH   6   7
ENDBRANCH   5   6
ENDBRANCH   4   5
ENDBRANCH   3   4
ENDBRANCH   2   3
ENDBRANCH   1   2
BRANCH   1  13
ATOM     13  C   UNL     1      40.918  -5.538  27.571  1.00  0.00     0.000 C 
BRANCH  13  14
ATOM     14  C   UNL     1      39.632  -4.725  27.344  1.00  0.00     0.000 C 
BRANCH  14  15
ATOM     15  C   UNL     1      38.958  -5.045  26.001  1.00  0.00     0.000 C 
BRANCH  15  16
ATOM     16  C   UNL     1      39.185  -6.513  25.609  1.00  0.00     0.000 C 
BRANCH  16  17
ATOM     17  C   UNL     1      37.924  -7.382  25.776  1.00  0.00     0.000 C 
BRANCH  17  18
ATOM     18  C   UNL     1      36.743  -7.000  24.863  1.00  0.00     0.000 C 
BRANCH  18  19
ATOM     19  C   UNL     1      35.395  -6.999  25.598  1.00  0.00     0.000 C 
BRANCH  19  20
ATOM     20  C   UNL     1      34.246  -7.348  24.641  1.00  0.00     0.006 C 
BRANCH  20  21
ATOM     21  C   UNL     1      33.008  -6.472  24.875  1.00  0.00     0.053 C 
BRANCH  21  22
ATOM     22  C   UNL     1      32.392  -6.724  26.218  1.00  0.00     0.041 C 
ATOM     23  O   UNL     1      32.091  -7.896  26.567  1.00  0.00    -0.550 OA
ATOM     24  O   UNL     1      32.183  -5.669  27.097  1.00  0.00    -0.550 OA
ENDBRANCH  21  22
ENDBRANCH  20  21
ENDBRANCH  19  20
ENDBRANCH  18  19
ENDBRANCH  17  18
ENDBRANCH  16  17
ENDBRANCH  15  16
ENDBRANCH  14  15
ENDBRANCH  13  14
ENDBRANCH   1  13
TORSDOF 20
ENDMDL
MODEL 5
REMARK VINA RESULT:    -5.182      2.852      8.335
REMARK INTER + INTRA:         -13.414
REMARK INTER:                 -11.836
REMARK INTRA:                  -1.578
REMARK UNBOUND:                -2.173
REMARK SMILES CCCCCCCCCCCCCCCCCCCCCC(=O)[O-]
REMARK SMILES IDX 12 1 11 2 10 3 9 4 8 5 7 6 6 7 5 8 4 9 3 10 2 11 1 12 13 13
REMARK SMILES IDX 14 14 15 15 16 16 17 17 18 18 19 19 20 20 21 21 22 22 23 23
REMARK SMILES IDX 24 24
REMARK H PARENT
REMARK Flexibility Score: inf
ROOT
ATOM      1  C   UNL     1      42.225  -3.487  28.602  1.00  0.00     0.000 C 
ENDROOT
BRANCH   1   2
ATOM      2  C   UNL     1      43.514  -3.064  29.326  1.00  0.00     0.000 C 
BRANCH   2   3
ATOM      3  C   UNL     1      44.040  -1.696  28.855  1.00  0.00     0.000 C 
BRANCH   3   4
ATOM      4  C   UNL     1      45.383  -1.808  28.117  1.00  0.00    -0.000 C 
BRANCH   4   5
ATOM      5  C   UNL     1      45.746  -3.263  27.766  1.00  0.00    -0.000 C 
BRANCH   5   6
ATOM      6  C   UNL     1      46.731  -3.351  26.580  1.00  0.00    -0.000 C 
BRANCH   6   7
ATOM      7  C   UNL     1      47.143  -4.792  26.222  1.00  0.00    -0.000 C 
BRANCH   7   8
ATOM      8  C   UNL     1      45.975  -5.782  26.072  1.00  0.00    -0.000 C 
BRANCH   8   9
ATOM      9  C   UNL     1      46.443  -7.210  25.756  1.00  0.00    -0.000 C 
BRANCH   9  10
ATOM     10  C   UNL     1      47.649  -7.193  24.804  1.00  0.00    -0.000 C 
BRANCH  10  11
ATOM     11  C   UNL     1      47.247  -7.418  23.338  1.00  0.00    -0.003 C 
ATOM     12  C   UNL     1      48.448  -7.702  22.434  1.00  0.00     0.004 C 
ENDBRANCH  10  11
ENDBRANCH   9  10
ENDBRANCH   8   9
ENDBRANCH   7   8
ENDBRANCH   6   7
ENDBRANCH   5   6
ENDBRANCH   4   5
ENDBRANCH   3   4
ENDBRANCH   2   3
ENDBRANCH   1   2
BRANCH   1  13
ATOM     13  C   UNL     1      42.491  -4.419  27.408  1.00  0.00     0.000 C 
BRANCH  13  14
ATOM     14  C   UNL     1      41.206  -5.071  26.871  1.00  0.00     0.000 C 
BRANCH  14  15
ATOM     15  C   UNL     1      39.935  -4.491  27.513  1.00  0.00     0.000 C 
BRANCH  15  16
ATOM     16  C   UNL     1      38.712  -5.363  27.190  1.00  0.00     0.000 C 
BRANCH  16  17
ATOM     17  C   UNL     1      39.054  -6.860  27.073  1.00  0.00     0.000 C 
BRANCH  17  18
ATOM     18  C   UNL     1      38.264  -7.627  25.996  1.00  0.00     0.000 C 
BRANCH  18  19
ATOM     19  C   UNL     1      37.789  -6.724  24.847  1.00  0.00     0.000 C 
BRANCH  19  20
ATOM     20  C   UNL     1      36.349  -7.065  24.437  1.00  0.00     0.006 C 
BRANCH  20  21
ATOM     21  C   UNL     1      35.587  -7.800  25.548  1.00  0.00     0.053 C 
BRANCH  21  22
ATOM     22  C   UNL     1      34.660  -6.884  26.289  1.00  0.00     0.041 C 
ATOM     23  O   UNL     1      33.470  -6.741  25.904  1.00  0.00    -0.550 OA
ATOM     24  O   UNL     1      35.101  -6.218  27.425  1.00  0.00    -0.550 OA
ENDBRANCH  21  22
ENDBRANCH  20  21
ENDBRANCH  19  20
ENDBRANCH  18  19
ENDBRANCH  17  18
ENDBRANCH  16  17
ENDBRANCH  15  16
ENDBRANCH  14  15
ENDBRANCH  13  14
ENDBRANCH   1  13
TORSDOF 20
ENDMDL
MODEL 6
REMARK VINA RESULT:    -5.173      3.294      6.572
REMARK INTER + INTRA:         -13.394
REMARK INTER:                 -11.363
REMARK INTRA:                  -2.031
REMARK UNBOUND:                -2.173
REMARK SMILES CCCCCCCCCCCCCCCCCCCCCC(=O)[O-]
REMARK SMILES IDX 12 1 11 2 10 3 9 4 8 5 7 6 6 7 5 8 4 9 3 10 2 11 1 12 13 13
REMARK SMILES IDX 14 14 15 15 16 16 17 17 18 18 19 19 20 20 21 21 22 22 23 23
REMARK SMILES IDX 24 24
REMARK H PARENT
REMARK Flexibility Score: inf
ROOT
ATOM      1  C   UNL     1      43.720  -5.508  26.738  1.00  0.00     0.000 C 
ENDROOT
BRANCH   1   2
ATOM      2  C   UNL     1      44.798  -6.590  26.564  1.00  0.00     0.000 C 
BRANCH   2   3
ATOM      3  C   UNL     1      46.224  -6.011  26.532  1.00  0.00     0.000 C 
BRANCH   3   4
ATOM      4  C   UNL     1      46.247  -4.533  26.112  1.00  0.00    -0.000 C 
BRANCH   4   5
ATOM      5  C   UNL     1      47.670  -4.021  25.824  1.00  0.00    -0.000 C 
BRANCH   5   6
ATOM      6  C   UNL     1      48.756  -4.948  26.413  1.00  0.00    -0.000 C 
BRANCH   6   7
ATOM      7  C   UNL     1      49.710  -5.534  25.354  1.00  0.00    -0.000 C 
BRANCH   7   8
ATOM      8  C   UNL     1      49.797  -7.071  25.341  1.00  0.00    -0.000 C 
BRANCH   8   9
ATOM      9  C   UNL     1      48.683  -7.721  24.508  1.00  0.00    -0.000 C 
BRANCH   9  10
ATOM     10  C   UNL     1      48.817  -7.346  23.025  1.00  0.00    -0.000 C 
BRANCH  10  11
ATOM     11  C   UNL     1      47.470  -6.975  22.384  1.00  0.00    -0.003 C 
ATOM     12  C   UNL     1      46.276  -7.567  23.136  1.00  0.00     0.004 C 
ENDBRANCH  10  11
ENDBRANCH   9  10
ENDBRANCH   8   9
ENDBRANCH   7   8
ENDBRANCH   6   7
ENDBRANCH   5   6
ENDBRANCH   4   5
ENDBRANCH   3   4
ENDBRANCH   2   3
ENDBRANCH   1   2
BRANCH   1  13
ATOM     13  C   UNL     1      43.227  -5.386  28.190  1.00  0.00     0.000 C 
BRANCH  13  14
ATOM     14  C   UNL     1      42.975  -3.927  28.606  1.00  0.00     0.000 C 
BRANCH  14  15
ATOM     15  C   UNL     1      44.253  -3.074  28.579  1.00  0.00     0.000 C 
BRANCH  15  16
ATOM     16  C   UNL     1      44.013  -1.705  29.233  1.00  0.00     0.000 C 
BRANCH  16  17
ATOM     17  C   UNL     1      43.192  -1.796  30.534  1.00  0.00     0.000 C 
BRANCH  17  18
ATOM     18  C   UNL     1      42.481  -0.494  30.948  1.00  0.00     0.000 C 
BRANCH  18  19
ATOM     19  C   UNL     1      43.208   0.251  32.077  1.00  0.00     0.000 C 
BRANCH  19  20
ATOM     20  C   UNL     1      42.562   1.618  32.340  1.00  0.00     0.006 C 
BRANCH  20  21
ATOM     21  C   UNL     1      42.102   2.303  31.046  1.00  0.00     0.053 C 
BRANCH  21  22
ATOM     22  C   UNL     1      42.936   3.507  30.725  1.00  0.00     0.041 C 
ATOM     23  O   UNL     1      43.087   4.419  31.581  1.00  0.00    -0.550 OA
ATOM     24  O   UNL     1      43.576   3.603  29.496  1.00  0.00    -0.550 OA
ENDBRANCH  21  22
ENDBRANCH  20  21
ENDBRANCH  19  20
ENDBRANCH  18  19
ENDBRANCH  17  18
ENDBRANCH  16  17
ENDBRANCH  15  16
ENDBRANCH  14  15
ENDBRANCH  13  14
ENDBRANCH   1  13
TORSDOF 20
ENDMDL
MODEL 7
REMARK VINA RESULT:    -5.156      2.515      7.582
REMARK INTER + INTRA:         -13.356
REMARK INTER:                 -11.525
REMARK INTRA:                  -1.832
REMARK UNBOUND:                -2.173
REMARK SMILES CCCCCCCCCCCCCCCCCCCCCC(=O)[O-]
REMARK SMILES IDX 12 1 11 2 10 3 9 4 8 5 7 6 6 7 5 8 4 9 3 10 2 11 1 12 13 13
REMARK SMILES IDX 14 14 15 15 16 16 17 17 18 18 19 19 20 20 21 21 22 22 23 23
REMARK SMILES IDX 24 24
REMARK H PARENT
REMARK Flexibility Score: inf
ROOT
ATOM      1  C   UNL     1      44.768  -2.169  28.465  1.00  0.00     0.000 C 
ENDROOT
BRANCH   1   2
ATOM      2  C   UNL     1      44.790  -3.691  28.247  1.00  0.00     0.000 C 
BRANCH   2   3
ATOM      3  C   UNL     1      45.930  -4.142  27.315  1.00  0.00     0.000 C 
BRANCH   3   4
ATOM      4  C   UNL     1      45.477  -5.215  26.314  1.00  0.00    -0.000 C 
BRANCH   4   5
ATOM      5  C   UNL     1      45.369  -6.613  26.952  1.00  0.00    -0.000 C 
BRANCH   5   6
ATOM      6  C   UNL     1      45.599  -7.744  25.926  1.00  0.00    -0.000 C 
BRANCH   6   7
ATOM      7  C   UNL     1      45.194  -7.367  24.487  1.00  0.00    -0.000 C 
BRANCH   7   8
ATOM      8  C   UNL     1      45.985  -8.088  23.382  1.00  0.00    -0.000 C 
BRANCH   8   9
ATOM      9  C   UNL     1      46.950  -7.153  22.636  1.00  0.00    -0.000 C 
BRANCH   9  10
ATOM     10  C   UNL     1      48.409  -7.570  22.872  1.00  0.00    -0.000 C 
BRANCH  10  11
ATOM     11  C   UNL     1      49.094  -6.731  23.963  1.00  0.00    -0.003 C 
ATOM     12  C   UNL     1      49.222  -7.480  25.291  1.00  0.00     0.004 C 
ENDBRANCH  10  11
ENDBRANCH   9  10
ENDBRANCH   8   9
ENDBRANCH   7   8
ENDBRANCH   6   7
ENDBRANCH   5   6
ENDBRANCH   4   5
ENDBRANCH   3   4
ENDBRANCH   2   3
ENDBRANCH   1   2
BRANCH   1  13
ATOM     13  C   UNL     1      43.697  -1.727  29.478  1.00  0.00     0.000 C 
BRANCH  13  14
ATOM     14  C   UNL     1      42.786  -2.887  29.914  1.00  0.00     0.000 C 
BRANCH  14  15
ATOM     15  C   UNL     1      41.321  -2.677  29.500  1.00  0.00     0.000 C 
BRANCH  15  16
ATOM     16  C   UNL     1      40.767  -3.924  28.794  1.00  0.00     0.000 C 
BRANCH  16  17
ATOM     17  C   UNL     1      41.558  -4.297  27.525  1.00  0.00     0.000 C 
BRANCH  17  18
ATOM     18  C   UNL     1      40.709  -4.857  26.369  1.00  0.00     0.000 C 
BRANCH  18  19
ATOM     19  C   UNL     1      39.200  -4.676  26.593  1.00  0.00     0.000 C 
BRANCH  19  20
ATOM     20  C   UNL     1      38.392  -5.633  25.705  1.00  0.00     0.006 C 
BRANCH  20  21
ATOM     21  C   UNL     1      37.247  -6.310  26.470  1.00  0.00     0.053 C 
BRANCH  21  22
ATOM     22  C   UNL     1      37.536  -7.754  26.745  1.00  0.00     0.041 C 
ATOM     23  O   UNL     1      36.632  -8.619  26.606  1.00  0.00    -0.550 OA
ATOM     24  O   UNL     1      38.814  -8.149  27.121  1.00  0.00    -0.550 OA
ENDBRANCH  21  22
ENDBRANCH  20  21
ENDBRANCH  19  20
ENDBRANCH  18  19
ENDBRANCH  17  18
ENDBRANCH  16  17
ENDBRANCH  15  16
ENDBRANCH  14  15
ENDBRANCH  13  14
ENDBRANCH   1  13
TORSDOF 20
ENDMDL
MODEL 8
REMARK VINA RESULT:    -5.132      3.149      8.675
REMARK INTER + INTRA:         -13.305
REMARK INTER:                 -11.882
REMARK INTRA:                  -1.423
REMARK UNBOUND:                -2.173
REMARK SMILES CCCCCCCCCCCCCCCCCCCCCC(=O)[O-]
REMARK SMILES IDX 12 1 11 2 10 3 9 4 8 5 7 6 6 7 5 8 4 9 3 10 2 11 1 12 13 13
REMARK SMILES IDX 14 14 15 15 16 16 17 17 18 18 19 19 20 20 21 21 22 22 23 23
REMARK SMILES IDX 24 24
REMARK H PARENT
REMARK Flexibility Score: inf
ROOT
ATOM      1  C   UNL     1      41.948  -1.643  29.857  1.00  0.00     0.000 C 
ENDROOT
BRANCH   1   2
ATOM      2  C   UNL     1      43.035  -2.364  29.043  1.00  0.00     0.000 C 
BRANCH   2   3
ATOM      3  C   UNL     1      42.499  -3.595  28.290  1.00  0.00     0.000 C 
BRANCH   3   4
ATOM      4  C   UNL     1      43.553  -4.704  28.154  1.00  0.00    -0.000 C 
BRANCH   4   5
ATOM      5  C   UNL     1      43.432  -5.476  26.827  1.00  0.00    -0.000 C 
BRANCH   5   6
ATOM      6  C   UNL     1      44.810  -5.803  26.212  1.00  0.00    -0.000 C 
BRANCH   6   7
ATOM      7  C   UNL     1      45.501  -7.022  26.853  1.00  0.00    -0.000 C 
BRANCH   7   8
ATOM      8  C   UNL     1      46.470  -7.779  25.928  1.00  0.00    -0.000 C 
BRANCH   8   9
ATOM      9  C   UNL     1      46.908  -6.943  24.716  1.00  0.00    -0.000 C 
BRANCH   9  10
ATOM     10  C   UNL     1      48.287  -7.392  24.211  1.00  0.00    -0.000 C 
BRANCH  10  11
ATOM     11  C   UNL     1      49.313  -7.543  25.346  1.00  0.00    -0.003 C 
ATOM     12  C   UNL     1      50.179  -6.295  25.529  1.00  0.00     0.004 C 
ENDBRANCH  10  11
ENDBRANCH   9  10
ENDBRANCH   8   9
ENDBRANCH   7   8
ENDBRANCH   6   7
ENDBRANCH   5   6
ENDBRANCH   4   5
ENDBRANCH   3   4
ENDBRANCH   2   3
ENDBRANCH   1   2
BRANCH   1  13
ATOM     13  C   UNL     1      40.660  -2.473  29.996  1.00  0.00     0.000 C 
BRANCH  13  14
ATOM     14  C   UNL     1      39.442  -1.780  29.363  1.00  0.00     0.000 C 
BRANCH  14  15
ATOM     15  C   UNL     1      38.331  -2.770  28.977  1.00  0.00     0.000 C 
BRANCH  15  16
ATOM     16  C   UNL     1      38.322  -3.021  27.462  1.00  0.00     0.000 C 
BRANCH  16  17
ATOM     17  C   UNL     1      39.287  -4.142  27.032  1.00  0.00     0.000 C 
BRANCH  17  18
ATOM     18  C   UNL     1      38.725  -5.119  25.982  1.00  0.00     0.000 C 
BRANCH  18  19
ATOM     19  C   UNL     1      39.207  -6.562  26.190  1.00  0.00     0.000 C 
BRANCH  19  20
ATOM     20  C   UNL     1      38.262  -7.562  25.508  1.00  0.00     0.006 C 
BRANCH  20  21
ATOM     21  C   UNL     1      37.149  -6.863  24.716  1.00  0.00     0.053 C 
BRANCH  21  22
ATOM     22  C   UNL     1      35.789  -7.343  25.124  1.00  0.00     0.041 C 
ATOM     23  O   UNL     1      34.812  -7.220  24.339  1.00  0.00    -0.550 OA
ATOM     24  O   UNL     1      35.609  -7.960  26.355  1.00  0.00    -0.550 OA
ENDBRANCH  21  22
ENDBRANCH  20  21
ENDBRANCH  19  20
ENDBRANCH  18  19
ENDBRANCH  17  18
ENDBRANCH  16  17
ENDBRANCH  15  16
ENDBRANCH  14  15
ENDBRANCH  13  14
ENDBRANCH   1  13
TORSDOF 20
ENDMDL
MODEL 9
REMARK VINA RESULT:    -5.081      3.004      7.829
REMARK INTER + INTRA:         -13.196
REMARK INTER:                 -11.314
REMARK INTRA:                  -1.881
REMARK UNBOUND:                -2.173
REMARK SMILES CCCCCCCCCCCCCCCCCCCCCC(=O)[O-]
REMARK SMILES IDX 12 1 11 2 10 3 9 4 8 5 7 6 6 7 5 8 4 9 3 10 2 11 1 12 13 13
REMARK SMILES IDX 14 14 15 15 16 16 17 17 18 18 19 19 20 20 21 21 22 22 23 23
REMARK SMILES IDX 24 24
REMARK H PARENT
REMARK Flexibility Score: inf
ROOT
ATOM      1  C   UNL     1      42.187  -2.872  30.183  1.00  0.00     0.000 C 
ENDROOT
BRANCH   1   2
ATOM      2  C   UNL     1      43.424  -2.398  29.403  1.00  0.00     0.000 C 
BRANCH   2   3
ATOM      3  C   UNL     1      44.050  -3.512  28.545  1.00  0.00     0.000 C 
BRANCH   3   4
ATOM      4  C   UNL     1      43.132  -4.737  28.415  1.00  0.00    -0.000 C 
BRANCH   4   5
ATOM      5  C   UNL     1      43.024  -5.246  26.966  1.00  0.00    -0.000 C 
BRANCH   5   6
ATOM      6  C   UNL     1      44.406  -5.554  26.349  1.00  0.00    -0.000 C 
BRANCH   6   7
ATOM      7  C   UNL     1      45.164  -6.689  27.065  1.00  0.00    -0.000 C 
BRANCH   7   8
ATOM      8  C   UNL     1      45.433  -7.934  26.201  1.00  0.00    -0.000 C 
BRANCH   8   9
ATOM      9  C   UNL     1      45.344  -7.643  24.696  1.00  0.00    -0.000 C 
BRANCH   9  10
ATOM     10  C   UNL     1      46.740  -7.420  24.097  1.00  0.00    -0.000 C 
BRANCH  10  11
ATOM     11  C   UNL     1      46.761  -7.584  22.568  1.00  0.00    -0.003 C 
ATOM     12  C   UNL     1      48.165  -7.442  21.979  1.00  0.00     0.004 C 
ENDBRANCH  10  11
ENDBRANCH   9  10
ENDBRANCH   8   9
ENDBRANCH   7   8
ENDBRANCH   6   7
ENDBRANCH   5   6
ENDBRANCH   4   5
ENDBRANCH   3   4
ENDBRANCH   2   3
ENDBRANCH   1   2
BRANCH   1  13
ATOM     13  C   UNL     1      40.899  -2.147  29.755  1.00  0.00     0.000 C 
BRANCH  13  14
ATOM     14  C   UNL     1      39.752  -3.122  29.438  1.00  0.00     0.000 C 
BRANCH  14  15
ATOM     15  C   UNL     1      38.521  -2.417  28.846  1.00  0.00     0.000 C 
BRANCH  15  16
ATOM     16  C   UNL     1      38.340  -2.782  27.365  1.00  0.00     0.000 C 
BRANCH  16  17
ATOM     17  C   UNL     1      39.310  -3.882  26.893  1.00  0.00     0.000 C 
BRANCH  17  18
ATOM     18  C   UNL     1      38.655  -5.035  26.109  1.00  0.00     0.000 C 
BRANCH  18  19
ATOM     19  C   UNL     1      39.303  -6.397  26.397  1.00  0.00     0.000 C 
BRANCH  19  20
ATOM     20  C   UNL     1      39.710  -6.513  27.873  1.00  0.00     0.006 C 
BRANCH  20  21
ATOM     21  C   UNL     1      38.870  -7.551  28.628  1.00  0.00     0.053 C 
BRANCH  21  22
ATOM     22  C   UNL     1      38.031  -8.373  27.697  1.00  0.00     0.041 C 
ATOM     23  O   UNL     1      36.854  -8.019  27.426  1.00  0.00    -0.550 OA
ATOM     24  O   UNL     1      38.562  -9.511  27.103  1.00  0.00    -0.550 OA
ENDBRANCH  21  22
ENDBRANCH  20  21
ENDBRANCH  19  20
ENDBRANCH  18  19
ENDBRANCH  17  18
ENDBRANCH  16  17
ENDBRANCH  15  16
ENDBRANCH  14  15
ENDBRANCH  13  14
ENDBRANCH   1  13
TORSDOF 20
ENDMDL
