MODEL 1
REMARK VINA RESULT:    -3.904      0.000      0.000
REMARK INTER + INTRA:          -6.069
REMARK INTER:                  -5.502
REMARK INTRA:                  -0.567
REMARK UNBOUND:                -0.567
REMARK SMILES CCCCCCCCC(=O)[O-]
REMARK SMILES IDX 6 1 7 2 8 3 9 4 10 5 11 6 5 7 4 8 3 9 2 10 1 11
REMARK H PARENT
REMARK Flexibility Score: inf
ROOT
ATOM      1  C   UNL     1      19.232  28.046  31.356  1.00  0.00     0.000 C 
ENDROOT
BRANCH   1   2
ATOM      2  C   UNL     1      17.980  28.727  30.783  1.00  0.00     0.006 C 
BRANCH   2   3
ATOM      3  C   UNL     1      18.321  30.108  30.215  1.00  0.00     0.053 C 
BRANCH   3   4
ATOM      4  C   UNL     1      18.398  30.057  28.722  1.00  0.00     0.041 C 
ATOM      5  O   UNL     1      18.139  28.988  28.111  1.00  0.00    -0.550 OA
ATOM      6  O   UNL     1      18.708  31.204  28.002  1.00  0.00    -0.550 OA
ENDBRANCH   3   4
ENDBRANCH   2   3
ENDBRANCH   1   2
BRANCH   1   7
ATOM      7  C   UNL     1      19.135  27.801  32.870  1.00  0.00     0.000 C 
BRANCH   7   8
ATOM      8  C   UNL     1      18.853  29.091  33.660  1.00  0.00    -0.000 C 
BRANCH   8   9
ATOM      9  C   UNL     1      17.855  28.874  34.808  1.00  0.00    -0.000 C 
BRANCH   9  10
ATOM     10  C   UNL     1      16.695  29.882  34.785  1.00  0.00    -0.003 C 
ATOM     11  C   UNL     1      16.825  30.841  33.605  1.00  0.00     0.004 C 
ENDBRANCH   9  10
ENDBRANCH   8   9
ENDBRANCH   7   8
ENDBRANCH   1   7
TORSDOF 7
ENDMDL
MODEL 2
REMARK VINA RESULT:    -3.864      3.253      5.859
REMARK INTER + INTRA:          -6.012
REMARK INTER:                  -5.348
REMARK INTRA:                  -0.664
REMARK UNBOUND:                -0.567
REMARK SMILES CCCCCCCCC(=O)[O-]
REMARK SMILES IDX 6 1 7 2 8 3 9 4 10 5 11 6 5 7 4 8 3 9 2 10 1 11
REMARK H PARENT
REMARK Flexibility Score: inf
ROOT
ATOM      1  C   UNL     1      18.363  29.615  29.414  1.00  0.00     0.000 C 
ENDROOT
BRANCH   1   2
ATOM      2  C   UNL     1      17.997  28.460  30.359  1.00  0.00     0.006 C 
BRANCH   2   3
ATOM      3  C   UNL     1      19.252  27.865  31.005  1.00  0.00     0.053 C 
BRANCH   3   4
ATOM      4  C   UNL     1      19.127  27.869  32.496  1.00  0.00     0.041 C 
ATOM      5  O   UNL     1      18.515  28.802  33.077  1.00  0.00    -0.550 OA
ATOM      6  O   UNL     1      19.644  26.816  33.240  1.00  0.00    -0.550 OA
ENDBRANCH   3   4
ENDBRANCH   2   3
ENDBRANCH   1   2
BRANCH   1   7
ATOM      7  C   UNL     1      18.622  29.145  27.974  1.00  0.00     0.000 C 
BRANCH   7   8
ATOM      8  C   UNL     1      17.625  28.066  27.515  1.00  0.00    -0.000 C 
BRANCH   8   9
ATOM      9  C   UNL     1      18.315  26.882  26.821  1.00  0.00    -0.000 C 
BRANCH   9  10
ATOM     10  C   UNL     1      19.362  26.198  27.714  1.00  0.00    -0.003 C 
ATOM     11  C   UNL     1      18.808  24.915  28.326  1.00  0.00     0.004 C 
ENDBRANCH   9  10
ENDBRANCH   8   9
ENDBRANCH   7   8
ENDBRANCH   1   7
TORSDOF 7
ENDMDL
MODEL 3
REMARK VINA RESULT:    -3.849      1.104      1.770
REMARK INTER + INTRA:          -5.991
REMARK INTER:                  -5.526
REMARK INTRA:                  -0.465
REMARK UNBOUND:                -0.567
REMARK SMILES CCCCCCCCC(=O)[O-]
REMARK SMILES IDX 6 1 7 2 8 3 9 4 10 5 11 6 5 7 4 8 3 9 2 10 1 11
REMARK H PARENT
REMARK Flexibility Score: inf
ROOT
ATOM      1  C   UNL     1      19.125  28.707  31.612  1.00  0.00     0.000 C 
ENDROOT
BRANCH   1   2
ATOM      2  C   UNL     1      17.957  28.573  30.624  1.00  0.00     0.006 C 
BRANCH   2   3
ATOM      3  C   UNL     1      18.338  27.670  29.447  1.00  0.00     0.053 C 
BRANCH   3   4
ATOM      4  C   UNL     1      17.987  28.325  28.148  1.00  0.00     0.041 C 
ATOM      5  O   UNL     1      18.365  29.501  27.909  1.00  0.00    -0.550 OA
ATOM      6  O   UNL     1      17.284  27.618  27.180  1.00  0.00    -0.550 OA
ENDBRANCH   3   4
ENDBRANCH   2   3
ENDBRANCH   1   2
BRANCH   1   7
ATOM      7  C   UNL     1      19.460  27.384  32.319  1.00  0.00     0.000 C 
BRANCH   7   8
ATOM      8  C   UNL     1      19.399  27.501  33.852  1.00  0.00    -0.000 C 
BRANCH   8   9
ATOM      9  C   UNL     1      18.983  28.905  34.320  1.00  0.00    -0.000 C 
BRANCH   9  10
ATOM     10  C   UNL     1      17.575  28.932  34.936  1.00  0.00    -0.003 C 
ATOM     11  C   UNL     1      16.836  30.213  34.558  1.00  0.00     0.004 C 
ENDBRANCH   9  10
ENDBRANCH   8   9
ENDBRANCH   7   8
ENDBRANCH   1   7
TORSDOF 7
ENDMDL
MODEL 4
REMARK VINA RESULT:    -3.848      1.713      2.735
REMARK INTER + INTRA:          -5.990
REMARK INTER:                  -5.747
REMARK INTRA:                  -0.243
REMARK UNBOUND:                -0.567
REMARK SMILES CCCCCCCCC(=O)[O-]
REMARK SMILES IDX 6 1 7 2 8 3 9 4 10 5 11 6 5 7 4 8 3 9 2 10 1 11
REMARK H PARENT
REMARK Flexibility Score: inf
ROOT
ATOM      1  C   UNL     1      18.350  30.139  29.784  1.00  0.00     0.000 C 
ENDROOT
BRANCH   1   2
ATOM      2  C   UNL     1      18.547  29.614  28.354  1.00  0.00     0.006 C 
BRANCH   2   3
ATOM      3  C   UNL     1      18.144  28.140  28.254  1.00  0.00     0.053 C 
BRANCH   3   4
ATOM      4  C   UNL     1      18.435  27.608  26.886  1.00  0.00     0.041 C 
ATOM      5  O   UNL     1      19.263  28.195  26.141  1.00  0.00    -0.550 OA
ATOM      6  O   UNL     1      17.829  26.436  26.452  1.00  0.00    -0.550 OA
ENDBRANCH   3   4
ENDBRANCH   2   3
ENDBRANCH   1   2
BRANCH   1   7
ATOM      7  C   UNL     1      17.975  29.029  30.779  1.00  0.00     0.000 C 
BRANCH   7   8
ATOM      8  C   UNL     1      17.783  29.559  32.211  1.00  0.00    -0.000 C 
BRANCH   8   9
ATOM      9  C   UNL     1      18.619  28.786  33.243  1.00  0.00    -0.000 C 
BRANCH   9  10
ATOM     10  C   UNL     1      18.007  28.826  34.652  1.00  0.00    -0.003 C 
ATOM     11  C   UNL     1      16.916  29.888  34.747  1.00  0.00     0.004 C 
ENDBRANCH   9  10
ENDBRANCH   8   9
ENDBRANCH   7   8
ENDBRANCH   1   7
TORSDOF 7
ENDMDL
MODEL 5
REMARK VINA RESULT:    -3.826      1.508      2.662
REMARK INTER + INTRA:          -5.959
REMARK INTER:                  -5.501
REMARK INTRA:                  -0.457
REMARK UNBOUND:                -0.567
REMARK SMILES CCCCCCCCC(=O)[O-]
REMARK SMILES IDX 6 1 7 2 8 3 9 4 10 5 11 6 5 7 4 8 3 9 2 10 1 11
REMARK H PARENT
REMARK Flexibility Score: inf
ROOT
ATOM      1  C   UNL     1      18.116  30.220  31.530  1.00  0.00     0.000 C 
ENDROOT
BRANCH   1   2
ATOM      2  C   UNL     1      17.995  28.929  30.706  1.00  0.00     0.006 C 
BRANCH   2   3
ATOM      3  C   UNL     1      18.358  29.182  29.240  1.00  0.00     0.053 C 
BRANCH   3   4
ATOM      4  C   UNL     1      18.068  27.970  28.412  1.00  0.00     0.041 C 
ATOM      5  O   UNL     1      17.832  28.085  27.181  1.00  0.00    -0.550 OA
ATOM      6  O   UNL     1      18.106  26.707  28.990  1.00  0.00    -0.550 OA
ENDBRANCH   3   4
ENDBRANCH   2   3
ENDBRANCH   1   2
BRANCH   1   7
ATOM      7  C   UNL     1      17.262  30.191  32.808  1.00  0.00     0.000 C 
BRANCH   7   8
ATOM      8  C   UNL     1      18.115  30.105  34.087  1.00  0.00    -0.000 C 
BRANCH   8   9
ATOM      9  C   UNL     1      17.997  28.740  34.784  1.00  0.00    -0.000 C 
BRANCH   9  10
ATOM     10  C   UNL     1      19.332  27.981  34.833  1.00  0.00    -0.003 C 
ATOM     11  C   UNL     1      19.595  27.249  33.521  1.00  0.00     0.004 C 
ENDBRANCH   9  10
ENDBRANCH   8   9
ENDBRANCH   7   8
ENDBRANCH   1   7
TORSDOF 7
ENDMDL
MODEL 6
REMARK VINA RESULT:    -3.811      1.740      2.686
REMARK INTER + INTRA:          -5.937
REMARK INTER:                  -5.677
REMARK INTRA:                  -0.261
REMARK UNBOUND:                -0.567
REMARK SMILES CCCCCCCCC(=O)[O-]
REMARK SMILES IDX 6 1 7 2 8 3 9 4 10 5 11 6 5 7 4 8 3 9 2 10 1 11
REMARK H PARENT
REMARK Flexibility Score: inf
ROOT
ATOM      1  C   UNL     1      18.397  30.217  29.669  1.00  0.00     0.000 C 
ENDROOT
BRANCH   1   2
ATOM      2  C   UNL     1      18.378  29.697  28.223  1.00  0.00     0.006 C 
BRANCH   2   3
ATOM      3  C   UNL     1      18.012  28.211  28.182  1.00  0.00     0.053 C 
BRANCH   3   4
ATOM      4  C   UNL     1      18.426  27.604  26.879  1.00  0.00     0.041 C 
ATOM      5  O   UNL     1      17.930  26.510  26.503  1.00  0.00    -0.550 OA
ATOM      6  O   UNL     1      19.324  28.272  26.056  1.00  0.00    -0.550 OA
ENDBRANCH   3   4
ENDBRANCH   2   3
ENDBRANCH   1   2
BRANCH   1   7
ATOM      7  C   UNL     1      17.950  29.156  30.688  1.00  0.00     0.000 C 
BRANCH   7   8
ATOM      8  C   UNL     1      18.355  29.513  32.129  1.00  0.00    -0.000 C 
BRANCH   8   9
ATOM      9  C   UNL     1      17.213  30.175  32.916  1.00  0.00    -0.000 C 
BRANCH   9  10
ATOM     10  C   UNL     1      17.267  29.858  34.419  1.00  0.00    -0.003 C 
ATOM     11  C   UNL     1      18.193  28.678  34.698  1.00  0.00     0.004 C 
ENDBRANCH   9  10
ENDBRANCH   8   9
ENDBRANCH   7   8
ENDBRANCH   1   7
TORSDOF 7
ENDMDL
MODEL 7
REMARK VINA RESULT:    -3.781      1.594      2.629
REMARK INTER + INTRA:          -5.896
REMARK INTER:                  -5.547
REMARK INTRA:                  -0.349
REMARK UNBOUND:                -0.567
REMARK SMILES CCCCCCCCC(=O)[O-]
REMARK SMILES IDX 6 1 7 2 8 3 9 4 10 5 11 6 5 7 4 8 3 9 2 10 1 11
REMARK H PARENT
REMARK Flexibility Score: inf
ROOT
ATOM      1  C   UNL     1      18.340  30.358  31.041  1.00  0.00     0.000 C 
ENDROOT
BRANCH   1   2
ATOM      2  C   UNL     1      18.375  29.618  29.696  1.00  0.00     0.006 C 
BRANCH   2   3
ATOM      3  C   UNL     1      18.014  28.141  29.875  1.00  0.00     0.053 C 
BRANCH   3   4
ATOM      4  C   UNL     1      18.082  27.421  28.565  1.00  0.00     0.041 C 
ATOM      5  O   UNL     1      17.664  27.975  27.516  1.00  0.00    -0.550 OA
ATOM      6  O   UNL     1      18.654  26.157  28.496  1.00  0.00    -0.550 OA
ENDBRANCH   3   4
ENDBRANCH   2   3
ENDBRANCH   1   2
BRANCH   1   7
ATOM      7  C   UNL     1      17.642  29.549  32.146  1.00  0.00     0.000 C 
BRANCH   7   8
ATOM      8  C   UNL     1      16.911  30.445  33.163  1.00  0.00    -0.000 C 
BRANCH   8   9
ATOM      9  C   UNL     1      17.039  29.927  34.604  1.00  0.00    -0.000 C 
BRANCH   9  10
ATOM     10  C   UNL     1      18.031  28.761  34.730  1.00  0.00    -0.003 C 
ATOM     11  C   UNL     1      19.211  29.139  35.621  1.00  0.00     0.004 C 
ENDBRANCH   9  10
ENDBRANCH   8   9
ENDBRANCH   7   8
ENDBRANCH   1   7
TORSDOF 7
ENDMDL
MODEL 8
REMARK VINA RESULT:    -3.753      3.404      5.832
REMARK INTER + INTRA:          -5.857
REMARK INTER:                  -5.493
REMARK INTRA:                  -0.364
REMARK UNBOUND:                -0.567
REMARK SMILES CCCCCCCCC(=O)[O-]
REMARK SMILES IDX 6 1 7 2 8 3 9 4 10 5 11 6 5 7 4 8 3 9 2 10 1 11
REMARK H PARENT
REMARK Flexibility Score: inf
ROOT
ATOM      1  C   UNL     1      18.634  28.953  30.145  1.00  0.00     0.000 C 
ENDROOT
BRANCH   1   2
ATOM      2  C   UNL     1      17.686  29.211  31.327  1.00  0.00     0.006 C 
BRANCH   2   3
ATOM      3  C   UNL     1      18.392  28.950  32.660  1.00  0.00     0.053 C 
BRANCH   3   4
ATOM      4  C   UNL     1      17.645  29.595  33.785  1.00  0.00     0.041 C 
ATOM      5  O   UNL     1      16.955  30.626  33.578  1.00  0.00    -0.550 OA
ATOM      6  O   UNL     1      17.670  29.027  35.052  1.00  0.00    -0.550 OA
ENDBRANCH   3   4
ENDBRANCH   2   3
ENDBRANCH   1   2
BRANCH   1   7
ATOM      7  C   UNL     1      18.378  29.900  28.961  1.00  0.00     0.000 C 
BRANCH   7   8
ATOM      8  C   UNL     1      18.439  29.177  27.604  1.00  0.00    -0.000 C 
BRANCH   8   9
ATOM      9  C   UNL     1      17.621  27.876  27.591  1.00  0.00    -0.000 C 
BRANCH   9  10
ATOM     10  C   UNL     1      18.369  26.711  26.924  1.00  0.00    -0.003 C 
ATOM     11  C   UNL     1      18.760  25.651  27.950  1.00  0.00     0.004 C 
ENDBRANCH   9  10
ENDBRANCH   8   9
ENDBRANCH   7   8
ENDBRANCH   1   7
TORSDOF 7
ENDMDL
MODEL 9
REMARK VINA RESULT:    -3.711      2.533      4.106
REMARK INTER + INTRA:          -5.797
REMARK INTER:                  -5.090
REMARK INTRA:                  -0.707
REMARK UNBOUND:                -0.567
REMARK SMILES CCCCCCCCC(=O)[O-]
REMARK SMILES IDX 6 1 7 2 8 3 9 4 10 5 11 6 5 7 4 8 3 9 2 10 1 11
REMARK H PARENT
REMARK Flexibility Score: inf
ROOT
ATOM      1  C   UNL     1      19.075  29.149  27.957  1.00  0.00     0.000 C 
ENDROOT
BRANCH   1   2
ATOM      2  C   UNL     1      17.902  28.256  27.526  1.00  0.00     0.006 C 
BRANCH   2   3
ATOM      3  C   UNL     1      17.633  27.168  28.570  1.00  0.00     0.053 C 
BRANCH   3   4
ATOM      4  C   UNL     1      18.860  26.341  28.794  1.00  0.00     0.041 C 
ATOM      5  O   UNL     1      19.312  25.615  27.871  1.00  0.00    -0.550 OA
ATOM      6  O   UNL     1      19.534  26.412  30.007  1.00  0.00    -0.550 OA
ENDBRANCH   3   4
ENDBRANCH   2   3
ENDBRANCH   1   2
BRANCH   1   7
ATOM      7  C   UNL     1      18.685  30.633  28.061  1.00  0.00     0.000 C 
BRANCH   7   8
ATOM      8  C   UNL     1      18.355  31.057  29.503  1.00  0.00    -0.000 C 
BRANCH   8   9
ATOM      9  C   UNL     1      18.978  30.121  30.551  1.00  0.00    -0.000 C 
BRANCH   9  10
ATOM     10  C   UNL     1      17.928  29.471  31.465  1.00  0.00    -0.003 C 
ATOM     11  C   UNL     1      18.591  28.631  32.552  1.00  0.00     0.004 C 
ENDBRANCH   9  10
ENDBRANCH   8   9
ENDBRANCH   7   8
ENDBRANCH   1   7
TORSDOF 7
ENDMDL
