MODEL 1
REMARK VINA RESULT:    -4.343      0.000      0.000
REMARK INTER + INTRA:          -4.775
REMARK INTER:                  -4.724
REMARK INTRA:                  -0.051
REMARK UNBOUND:                -0.051
REMARK SMILES COc1cc2ccc(=O)oc2cc1O
REMARK SMILES IDX 3 1 13 2 12 3 11 4 5 5 4 6 6 7 7 8 8 9 9 10 10 11 2 12 1 13
REMARK SMILES IDX 14 14
REMARK H PARENT 14 15
REMARK Flexibility Score: inf
ROOT
ATOM      1  C   UNL     1      57.652  39.644 123.419  1.00  0.00     0.161 A 
ATOM      2  C   UNL     1      56.728  38.650 123.058  1.00  0.00     0.161 A 
ATOM      3  C   UNL     1      55.374  38.973 122.882  1.00  0.00     0.098 A 
ATOM      4  C   UNL     1      54.934  40.286 123.062  1.00  0.00     0.142 A 
ATOM      5  C   UNL     1      55.856  41.290 123.424  1.00  0.00     0.022 A 
ATOM      6  C   UNL     1      57.208  40.970 123.601  1.00  0.00     0.062 A 
ATOM      7  C   UNL     1      55.384  42.596 123.597  1.00  0.00     0.019 A 
ATOM      8  C   UNL     1      54.029  42.865 123.409  1.00  0.00     0.094 A 
ATOM      9  C   UNL     1      53.174  41.819 123.050  1.00  0.00     0.336 A 
ATOM     10  O   UNL     1      51.947  42.041 122.875  1.00  0.00    -0.246 OA
ATOM     11  O   UNL     1      53.648  40.586 122.892  1.00  0.00    -0.423 OA
ENDROOT
BRANCH   1  12
ATOM     12  O   UNL     1      58.996  39.277 123.586  1.00  0.00    -0.493 OA
ATOM     13  C   UNL     1      60.105  40.046 123.131  1.00  0.00     0.278 C 
ENDBRANCH   1  12
BRANCH   2  14
ATOM     14  O   UNL     1      57.165  37.339 122.878  1.00  0.00    -0.504 OA
ATOM     15  H   UNL     1      56.849  36.777 122.096  1.00  0.00     0.293 HD
ENDBRANCH   2  14
TORSDOF 2
ENDMDL
MODEL 2
REMARK VINA RESULT:    -4.046      2.354      5.503
REMARK INTER + INTRA:          -4.452
REMARK INTER:                  -4.401
REMARK INTRA:                  -0.051
REMARK UNBOUND:                -0.051
REMARK SMILES COc1cc2ccc(=O)oc2cc1O
REMARK SMILES IDX 3 1 13 2 12 3 11 4 5 5 4 6 6 7 7 8 8 9 9 10 10 11 2 12 1 13
REMARK SMILES IDX 14 14
REMARK H PARENT 14 15
REMARK Flexibility Score: inf
ROOT
ATOM      1  C   UNL     1      51.728  39.387 123.094  1.00  0.00     0.161 A 
ATOM      2  C   UNL     1      51.863  37.997 122.952  1.00  0.00     0.161 A 
ATOM      3  C   UNL     1      53.137  37.413 122.887  1.00  0.00     0.098 A 
ATOM      4  C   UNL     1      54.282  38.209 122.965  1.00  0.00     0.142 A 
ATOM      5  C   UNL     1      54.154  39.607 123.107  1.00  0.00     0.022 A 
ATOM      6  C   UNL     1      52.882  40.192 123.173  1.00  0.00     0.062 A 
ATOM      7  C   UNL     1      55.320  40.378 123.183  1.00  0.00     0.019 A 
ATOM      8  C   UNL     1      56.562  39.749 123.113  1.00  0.00     0.094 A 
ATOM      9  C   UNL     1      56.611  38.359 122.971  1.00  0.00     0.336 A 
ATOM     10  O   UNL     1      57.723  37.772 122.908  1.00  0.00    -0.246 OA
ATOM     11  O   UNL     1      55.488  37.649 122.903  1.00  0.00    -0.423 OA
ENDROOT
BRANCH   1  12
ATOM     12  O   UNL     1      50.435  39.929 123.155  1.00  0.00    -0.493 OA
ATOM     13  C   UNL     1      50.039  40.978 124.034  1.00  0.00     0.278 C 
ENDBRANCH   1  12
BRANCH   2  14
ATOM     14  O   UNL     1      50.722  37.200 122.875  1.00  0.00    -0.504 OA
ATOM     15  H   UNL     1      50.292  36.808 123.704  1.00  0.00     0.293 HD
ENDBRANCH   2  14
TORSDOF 2
ENDMDL
MODEL 3
REMARK VINA RESULT:    -3.985     14.476     15.718
REMARK INTER + INTRA:          -4.386
REMARK INTER:                  -4.330
REMARK INTRA:                  -0.056
REMARK UNBOUND:                -0.051
REMARK SMILES COc1cc2ccc(=O)oc2cc1O
REMARK SMILES IDX 3 1 13 2 12 3 11 4 5 5 4 6 6 7 7 8 8 9 9 10 10 11 2 12 1 13
REMARK SMILES IDX 14 14
REMARK H PARENT 14 15
REMARK Flexibility Score: inf
ROOT
ATOM      1  C   UNL     1      47.378  37.517 134.570  1.00  0.00     0.161 A 
ATOM      2  C   UNL     1      47.189  38.431 135.619  1.00  0.00     0.161 A 
ATOM      3  C   UNL     1      48.103  38.488 136.681  1.00  0.00     0.098 A 
ATOM      4  C   UNL     1      49.210  37.636 136.704  1.00  0.00     0.142 A 
ATOM      5  C   UNL     1      49.407  36.715 135.654  1.00  0.00     0.022 A 
ATOM      6  C   UNL     1      48.495  36.657 134.592  1.00  0.00     0.062 A 
ATOM      7  C   UNL     1      50.526  35.876 135.706  1.00  0.00     0.019 A 
ATOM      8  C   UNL     1      51.404  35.972 136.784  1.00  0.00     0.094 A 
ATOM      9  C   UNL     1      51.145  36.909 137.789  1.00  0.00     0.336 A 
ATOM     10  O   UNL     1      51.926  37.012 138.770  1.00  0.00    -0.246 OA
ATOM     11  O   UNL     1      50.074  37.696 137.716  1.00  0.00    -0.423 OA
ENDROOT
BRANCH   1  12
ATOM     12  O   UNL     1      46.439  37.495 133.527  1.00  0.00    -0.493 OA
ATOM     13  C   UNL     1      45.778  36.322 133.061  1.00  0.00     0.278 C 
ENDBRANCH   1  12
BRANCH   2  14
ATOM     14  O   UNL     1      46.085  39.282 135.598  1.00  0.00    -0.504 OA
ATOM     15  H   UNL     1      45.603  39.546 136.449  1.00  0.00     0.293 HD
ENDBRANCH   2  14
TORSDOF 2
ENDMDL
MODEL 4
REMARK VINA RESULT:    -3.962      1.183      4.950
REMARK INTER + INTRA:          -4.360
REMARK INTER:                  -4.297
REMARK INTRA:                  -0.063
REMARK UNBOUND:                -0.051
REMARK SMILES COc1cc2ccc(=O)oc2cc1O
REMARK SMILES IDX 3 1 13 2 12 3 11 4 5 5 4 6 6 7 7 8 8 9 9 10 10 11 2 12 1 13
REMARK SMILES IDX 14 14
REMARK H PARENT 14 15
REMARK Flexibility Score: inf
ROOT
ATOM      1  C   UNL     1      53.883  42.785 123.374  1.00  0.00     0.161 A 
ATOM      2  C   UNL     1      53.108  41.660 123.053  1.00  0.00     0.161 A 
ATOM      3  C   UNL     1      53.712  40.402 122.909  1.00  0.00     0.098 A 
ATOM      4  C   UNL     1      55.090  40.258 123.085  1.00  0.00     0.142 A 
ATOM      5  C   UNL     1      55.876  41.384 123.408  1.00  0.00     0.022 A 
ATOM      6  C   UNL     1      55.274  42.641 123.552  1.00  0.00     0.062 A 
ATOM      7  C   UNL     1      57.253  41.207 123.579  1.00  0.00     0.019 A 
ATOM      8  C   UNL     1      57.805  39.936 123.425  1.00  0.00     0.094 A 
ATOM      9  C   UNL     1      56.963  38.867 123.104  1.00  0.00     0.336 A 
ATOM     10  O   UNL     1      57.442  37.711 122.962  1.00  0.00    -0.246 OA
ATOM     11  O   UNL     1      55.657  39.061 122.948  1.00  0.00    -0.423 OA
ENDROOT
BRANCH   1  12
ATOM     12  O   UNL     1      53.237  44.024 123.508  1.00  0.00    -0.493 OA
ATOM     13  C   UNL     1      53.098  44.733 124.735  1.00  0.00     0.278 C 
ENDBRANCH   1  12
BRANCH   2  14
ATOM     14  O   UNL     1      51.732  41.801 122.876  1.00  0.00    -0.504 OA
ATOM     15  H   UNL     1      51.069  41.330 123.481  1.00  0.00     0.293 HD
ENDBRANCH   2  14
TORSDOF 2
ENDMDL
MODEL 5
REMARK VINA RESULT:    -3.960      1.745      5.578
REMARK INTER + INTRA:          -4.358
REMARK INTER:                  -4.313
REMARK INTRA:                  -0.045
REMARK UNBOUND:                -0.051
REMARK SMILES COc1cc2ccc(=O)oc2cc1O
REMARK SMILES IDX 3 1 13 2 12 3 11 4 5 5 4 6 6 7 7 8 8 9 9 10 10 11 2 12 1 13
REMARK SMILES IDX 14 14
REMARK H PARENT 14 15
REMARK Flexibility Score: inf
ROOT
ATOM      1  C   UNL     1      52.699  41.715 123.211  1.00  0.00     0.161 A 
ATOM      2  C   UNL     1      53.901  42.421 123.037  1.00  0.00     0.161 A 
ATOM      3  C   UNL     1      55.121  41.733 122.965  1.00  0.00     0.098 A 
ATOM      4  C   UNL     1      55.152  40.340 123.064  1.00  0.00     0.142 A 
ATOM      5  C   UNL     1      53.950  39.624 123.238  1.00  0.00     0.022 A 
ATOM      6  C   UNL     1      52.729  40.309 123.310  1.00  0.00     0.062 A 
ATOM      7  C   UNL     1      54.014  38.229 123.333  1.00  0.00     0.019 A 
ATOM      8  C   UNL     1      55.252  37.593 123.255  1.00  0.00     0.094 A 
ATOM      9  C   UNL     1      56.402  38.370 123.081  1.00  0.00     0.336 A 
ATOM     10  O   UNL     1      57.529  37.814 123.008  1.00  0.00    -0.246 OA
ATOM     11  O   UNL     1      56.314  39.694 122.993  1.00  0.00    -0.423 OA
ENDROOT
BRANCH   1  12
ATOM     12  O   UNL     1      51.502  42.443 123.278  1.00  0.00    -0.493 OA
ATOM     13  C   UNL     1      50.224  41.872 123.543  1.00  0.00     0.278 C 
ENDBRANCH   1  12
BRANCH   2  14
ATOM     14  O   UNL     1      53.873  43.811 122.938  1.00  0.00    -0.504 OA
ATOM     15  H   UNL     1      54.725  44.358 122.916  1.00  0.00     0.293 HD
ENDBRANCH   2  14
TORSDOF 2
ENDMDL
MODEL 6
REMARK VINA RESULT:    -3.891      2.023      4.878
REMARK INTER + INTRA:          -4.283
REMARK INTER:                  -4.220
REMARK INTRA:                  -0.063
REMARK UNBOUND:                -0.051
REMARK SMILES COc1cc2ccc(=O)oc2cc1O
REMARK SMILES IDX 3 1 13 2 12 3 11 4 5 5 4 6 6 7 7 8 8 9 9 10 10 11 2 12 1 13
REMARK SMILES IDX 14 14
REMARK H PARENT 14 15
REMARK Flexibility Score: inf
ROOT
ATOM      1  C   UNL     1      53.662  38.290 123.840  1.00  0.00     0.161 A 
ATOM      2  C   UNL     1      54.421  37.112 123.751  1.00  0.00     0.161 A 
ATOM      3  C   UNL     1      55.816  37.177 123.619  1.00  0.00     0.098 A 
ATOM      4  C   UNL     1      56.463  38.414 123.576  1.00  0.00     0.142 A 
ATOM      5  C   UNL     1      55.707  39.602 123.665  1.00  0.00     0.022 A 
ATOM      6  C   UNL     1      54.313  39.539 123.796  1.00  0.00     0.062 A 
ATOM      7  C   UNL     1      56.384  40.826 123.619  1.00  0.00     0.019 A 
ATOM      8  C   UNL     1      57.771  40.837 123.488  1.00  0.00     0.094 A 
ATOM      9  C   UNL     1      58.454  39.619 123.406  1.00  0.00     0.336 A 
ATOM     10  O   UNL     1      59.707  39.608 123.287  1.00  0.00    -0.246 OA
ATOM     11  O   UNL     1      57.787  38.469 123.452  1.00  0.00    -0.423 OA
ENDROOT
BRANCH   1  12
ATOM     12  O   UNL     1      52.269  38.177 123.970  1.00  0.00    -0.493 OA
ATOM     13  C   UNL     1      51.331  38.561 122.969  1.00  0.00     0.278 C 
ENDBRANCH   1  12
BRANCH   2  14
ATOM     14  O   UNL     1      53.779  35.875 123.794  1.00  0.00    -0.504 OA
ATOM     15  H   UNL     1      53.983  35.148 123.118  1.00  0.00     0.293 HD
ENDBRANCH   2  14
TORSDOF 2
ENDMDL
MODEL 7
REMARK VINA RESULT:    -3.882      3.760      6.315
REMARK INTER + INTRA:          -4.273
REMARK INTER:                  -4.211
REMARK INTRA:                  -0.062
REMARK UNBOUND:                -0.051
REMARK SMILES COc1cc2ccc(=O)oc2cc1O
REMARK SMILES IDX 3 1 13 2 12 3 11 4 5 5 4 6 6 7 7 8 8 9 9 10 10 11 2 12 1 13
REMARK SMILES IDX 14 14
REMARK H PARENT 14 15
REMARK Flexibility Score: inf
ROOT
ATOM      1  C   UNL     1      52.041  36.536 124.923  1.00  0.00     0.161 A 
ATOM      2  C   UNL     1      52.007  36.875 123.561  1.00  0.00     0.161 A 
ATOM      3  C   UNL     1      53.187  37.237 122.893  1.00  0.00     0.098 A 
ATOM      4  C   UNL     1      54.404  37.262 123.576  1.00  0.00     0.142 A 
ATOM      5  C   UNL     1      54.446  36.922 124.944  1.00  0.00     0.022 A 
ATOM      6  C   UNL     1      53.269  36.561 125.614  1.00  0.00     0.062 A 
ATOM      7  C   UNL     1      55.681  36.956 125.601  1.00  0.00     0.019 A 
ATOM      8  C   UNL     1      56.824  37.322 124.892  1.00  0.00     0.094 A 
ATOM      9  C   UNL     1      56.706  37.646 123.537  1.00  0.00     0.336 A 
ATOM     10  O   UNL     1      57.726  37.978 122.879  1.00  0.00    -0.246 OA
ATOM     11  O   UNL     1      55.520  37.606 122.936  1.00  0.00    -0.423 OA
ENDROOT
BRANCH   1  12
ATOM     12  O   UNL     1      50.838  36.181 125.552  1.00  0.00    -0.493 OA
ATOM     13  C   UNL     1      50.223  36.925 126.600  1.00  0.00     0.278 C 
ENDBRANCH   1  12
BRANCH   2  14
ATOM     14  O   UNL     1      50.793  36.852 122.876  1.00  0.00    -0.504 OA
ATOM     15  H   UNL     1      50.004  37.411 123.178  1.00  0.00     0.293 HD
ENDBRANCH   2  14
TORSDOF 2
ENDMDL
MODEL 8
REMARK VINA RESULT:    -3.829      1.609      2.024
REMARK INTER + INTRA:          -4.216
REMARK INTER:                  -4.157
REMARK INTRA:                  -0.058
REMARK UNBOUND:                -0.051
REMARK SMILES COc1cc2ccc(=O)oc2cc1O
REMARK SMILES IDX 3 1 13 2 12 3 11 4 5 5 4 6 6 7 7 8 8 9 9 10 10 11 2 12 1 13
REMARK SMILES IDX 14 14
REMARK H PARENT 14 15
REMARK Flexibility Score: inf
ROOT
ATOM      1  C   UNL     1      56.500  39.524 123.167  1.00  0.00     0.161 A 
ATOM      2  C   UNL     1      56.059  38.202 122.993  1.00  0.00     0.161 A 
ATOM      3  C   UNL     1      54.688  37.920 122.902  1.00  0.00     0.098 A 
ATOM      4  C   UNL     1      53.749  38.950 122.983  1.00  0.00     0.142 A 
ATOM      5  C   UNL     1      54.184  40.281 123.158  1.00  0.00     0.022 A 
ATOM      6  C   UNL     1      55.553  40.566 123.249  1.00  0.00     0.062 A 
ATOM      7  C   UNL     1      53.219  41.291 123.234  1.00  0.00     0.019 A 
ATOM      8  C   UNL     1      51.869  40.958 123.138  1.00  0.00     0.094 A 
ATOM      9  C   UNL     1      51.513  39.617 122.965  1.00  0.00     0.336 A 
ATOM     10  O   UNL     1      50.299  39.295 122.875  1.00  0.00    -0.246 OA
ATOM     11  O   UNL     1      52.450  38.675 122.895  1.00  0.00    -0.423 OA
ENDROOT
BRANCH   1  12
ATOM     12  O   UNL     1      57.880  39.761 123.254  1.00  0.00    -0.493 OA
ATOM     13  C   UNL     1      58.604  39.881 124.475  1.00  0.00     0.278 C 
ENDBRANCH   1  12
BRANCH   2  14
ATOM     14  O   UNL     1      56.994  37.171 122.912  1.00  0.00    -0.504 OA
ATOM     15  H   UNL     1      57.935  37.334 122.571  1.00  0.00     0.293 HD
ENDBRANCH   2  14
TORSDOF 2
ENDMDL
MODEL 9
REMARK VINA RESULT:    -3.761      3.451      5.285
REMARK INTER + INTRA:          -4.142
REMARK INTER:                  -4.078
REMARK INTRA:                  -0.063
REMARK UNBOUND:                -0.051
REMARK SMILES COc1cc2ccc(=O)oc2cc1O
REMARK SMILES IDX 3 1 13 2 12 3 11 4 5 5 4 6 6 7 7 8 8 9 9 10 10 11 2 12 1 13
REMARK SMILES IDX 14 14
REMARK H PARENT 14 15
REMARK Flexibility Score: inf
ROOT
ATOM      1  C   UNL     1      55.609  37.006 124.171  1.00  0.00     0.161 A 
ATOM      2  C   UNL     1      55.949  36.805 125.519  1.00  0.00     0.161 A 
ATOM      3  C   UNL     1      56.997  37.534 126.100  1.00  0.00     0.098 A 
ATOM      4  C   UNL     1      57.711  38.466 125.344  1.00  0.00     0.142 A 
ATOM      5  C   UNL     1      57.376  38.674 123.990  1.00  0.00     0.022 A 
ATOM      6  C   UNL     1      56.328  37.947 123.407  1.00  0.00     0.062 A 
ATOM      7  C   UNL     1      58.109  39.615 123.259  1.00  0.00     0.019 A 
ATOM      8  C   UNL     1      59.141  40.313 123.883  1.00  0.00     0.094 A 
ATOM      9  C   UNL     1      59.417  40.054 125.230  1.00  0.00     0.336 A 
ATOM     10  O   UNL     1      60.345  40.675 125.812  1.00  0.00    -0.246 OA
ATOM     11  O   UNL     1      58.704  39.155 125.903  1.00  0.00    -0.423 OA
ENDROOT
BRANCH   1  12
ATOM     12  O   UNL     1      54.553  36.255 123.631  1.00  0.00    -0.493 OA
ATOM     13  C   UNL     1      53.220  36.732 123.477  1.00  0.00     0.278 C 
ENDBRANCH   1  12
BRANCH   2  14
ATOM     14  O   UNL     1      55.238  35.875 126.276  1.00  0.00    -0.504 OA
ATOM     15  H   UNL     1      54.535  35.277 125.858  1.00  0.00     0.293 HD
ENDBRANCH   2  14
TORSDOF 2
ENDMDL
