MODEL 1
REMARK VINA RESULT:    -4.250      0.000      0.000
REMARK INTER + INTRA:          -6.904
REMARK INTER:                  -6.486
REMARK INTRA:                  -0.418
REMARK UNBOUND:                -0.418
REMARK SMILES CC1=CCC[C@@H](C)C(=O)C[C@@H](C(C)C)C(=O)C1
REMARK SMILES IDX 8 1 9 2 6 3 7 4 5 5 4 6 3 7 2 8 1 9 10 11 11 12 15 13 16 14
REMARK SMILES IDX 17 15 12 17 13 18 14 19
REMARK H PARENT
REMARK Flexibility Score: 70.00
ROOT
ATOM      1  C   UNL     1     -13.089  11.703 -30.258  1.00  0.00     0.136 C 
ATOM      2  O   UNL     1     -12.209  11.001 -30.734  1.00  0.00    -0.299 OA
ENDROOT
BRANCH   1   3
ATOM      3  C   UNL     1     -13.252  11.715 -28.744  1.00  0.00     0.053 C 
ATOM      4  C   UNL     1     -11.989  11.152 -28.080  1.00  0.00     0.016 C 
BRANCH   3   5
ATOM      5  C   UNL     1     -14.495  10.916 -28.295  1.00  0.00     0.015 C 
BRANCH   5   6
ATOM      6  C   UNL     1     -15.567  11.756 -27.568  1.00  0.00     0.028 C 
BRANCH   6   7
ATOM      7  C   UNL     1     -16.959  11.629 -28.145  1.00  0.00    -0.028 C 
ATOM      8  C   UNL     1     -17.558  12.421 -29.073  1.00  0.00    -0.070 CG0
ATOM      9  C   UNL     1     -18.921  11.986 -29.556  1.00  0.00     0.039 C 
ATOM     10  G   UNL     1     -17.019  13.750 -29.588  1.00  0.00     0.000 G0
ENDBRANCH   6   7
ENDBRANCH   5   6
ENDBRANCH   3   5
ENDBRANCH   1   3
BRANCH   1  11
ATOM     11  C   UNL     1     -13.948  12.493 -31.232  1.00  0.00     0.087 C 
BRANCH  11  12
ATOM     12  C   UNL     1     -14.642  13.776 -30.701  1.00  0.00     0.066 C 
BRANCH  12  13
ATOM     13  C   UNL     1     -16.159  13.686 -30.820  1.00  0.00     0.140 C 
ATOM     14  O   UNL     1     -16.684  13.624 -31.923  1.00  0.00    -0.299 OA
BRANCH  13  15
ATOM     15  C   UNL     1     -17.032  13.761 -29.593  1.00  0.00     0.106 CG0
ATOM     16  G   UNL     1     -17.551  12.425 -29.075  1.00  0.00     0.000 G0
ENDBRANCH  13  15
ENDBRANCH  12  13
BRANCH  12  17
ATOM     17  C   UNL     1     -14.068  15.066 -31.370  1.00  0.00    -0.006 C 
ATOM     18  C   UNL     1     -14.000  16.292 -30.442  1.00  0.00     0.008 C 
ATOM     19  C   UNL     1     -12.690  14.807 -31.999  1.00  0.00     0.008 C 
ENDBRANCH  12  17
ENDBRANCH  11  12
ENDBRANCH   1  11
TORSDOF 1
ENDMDL
MODEL 2
REMARK VINA RESULT:    -4.108      1.484      3.842
REMARK INTER + INTRA:          -6.688
REMARK INTER:                  -6.893
REMARK INTRA:                   0.205
REMARK UNBOUND:                -0.418
REMARK SMILES CC1=CCC[C@@H](C)C(=O)C[C@@H](C(C)C)C(=O)C1
REMARK SMILES IDX 8 1 9 2 6 3 7 4 5 5 4 6 3 7 2 8 1 9 10 11 11 12 15 13 16 14
REMARK SMILES IDX 17 15 12 17 13 18 14 19
REMARK H PARENT
REMARK Flexibility Score: 70.00
ROOT
ATOM      1  C   UNL     1     -17.132  13.403 -31.219  1.00  0.00     0.136 C 
ATOM      2  O   UNL     1     -17.532  13.953 -32.235  1.00  0.00    -0.299 OA
ENDROOT
BRANCH   1   3
ATOM      3  C   UNL     1     -17.988  12.292 -30.625  1.00  0.00     0.053 C 
ATOM      4  C   UNL     1     -19.031  12.891 -29.673  1.00  0.00     0.016 C 
BRANCH   3   5
ATOM      5  C   UNL     1     -17.130  11.242 -29.887  1.00  0.00     0.015 C 
BRANCH   5   6
ATOM      6  C   UNL     1     -16.768  11.618 -28.434  1.00  0.00     0.028 C 
BRANCH   6   7
ATOM      7  C   UNL     1     -15.495  10.983 -27.921  1.00  0.00    -0.028 C 
ATOM      8  C   UNL     1     -14.224  11.450 -28.025  1.00  0.00    -0.070 CG0
ATOM      9  C   UNL     1     -13.151  10.662 -27.311  1.00  0.00     0.039 C 
ATOM     10  G   UNL     1     -13.779  12.635 -28.875  1.00  0.00     0.000 G0
ENDBRANCH   6   7
ENDBRANCH   5   6
ENDBRANCH   3   5
ENDBRANCH   1   3
BRANCH   1  11
ATOM     11  C   UNL     1     -15.814  13.892 -30.639  1.00  0.00     0.087 C 
BRANCH  11  12
ATOM     12  C   UNL     1     -14.505  13.378 -31.295  1.00  0.00     0.066 C 
BRANCH  12  13
ATOM     13  C   UNL     1     -13.740  12.441 -30.368  1.00  0.00     0.140 C 
ATOM     14  O   UNL     1     -13.163  11.464 -30.824  1.00  0.00    -0.299 OA
BRANCH  13  15
ATOM     15  C   UNL     1     -13.759  12.653 -28.875  1.00  0.00     0.106 CG0
ATOM     16  G   UNL     1     -14.226  11.460 -28.049  1.00  0.00     0.000 G0
ENDBRANCH  13  15
ENDBRANCH  12  13
BRANCH  12  17
ATOM     17  C   UNL     1     -13.618  14.552 -31.818  1.00  0.00    -0.006 C 
ATOM     18  C   UNL     1     -13.810  15.883 -31.069  1.00  0.00     0.008 C 
ATOM     19  C   UNL     1     -12.130  14.169 -31.832  1.00  0.00     0.008 C 
ENDBRANCH  12  17
ENDBRANCH  11  12
ENDBRANCH   1  11
TORSDOF 1
ENDMDL
MODEL 3
REMARK VINA RESULT:    -3.783      1.698      1.843
REMARK INTER + INTRA:          -6.191
REMARK INTER:                  -6.079
REMARK INTRA:                  -0.112
REMARK UNBOUND:                -0.418
REMARK SMILES CC1=CCC[C@@H](C)C(=O)C[C@@H](C(C)C)C(=O)C1
REMARK SMILES IDX 8 1 9 2 6 3 7 4 5 5 4 6 3 7 2 8 1 9 10 11 11 12 15 13 16 14
REMARK SMILES IDX 17 15 12 17 13 18 14 19
REMARK H PARENT
REMARK Flexibility Score: 70.00
ROOT
ATOM      1  C   UNL     1     -13.686  12.155 -28.127  1.00  0.00     0.136 C 
ATOM      2  O   UNL     1     -13.478  12.873 -27.160  1.00  0.00    -0.299 OA
ENDROOT
BRANCH   1   3
ATOM      3  C   UNL     1     -13.840  10.659 -27.886  1.00  0.00     0.053 C 
ATOM      4  C   UNL     1     -13.151   9.876 -29.011  1.00  0.00     0.016 C 
BRANCH   3   5
ATOM      5  C   UNL     1     -15.325  10.247 -27.778  1.00  0.00     0.015 C 
BRANCH   5   6
ATOM      6  C   UNL     1     -16.046  10.096 -29.135  1.00  0.00     0.028 C 
BRANCH   6   7
ATOM      7  C   UNL     1     -17.435  10.694 -29.175  1.00  0.00    -0.028 C 
ATOM      8  C   UNL     1     -17.838  11.837 -29.789  1.00  0.00    -0.070 CG0
ATOM      9  C   UNL     1     -19.320  12.133 -29.765  1.00  0.00     0.039 C 
ATOM     10  G   UNL     1     -16.921  12.886 -30.407  1.00  0.00     0.000 G0
ENDBRANCH   6   7
ENDBRANCH   5   6
ENDBRANCH   3   5
ENDBRANCH   1   3
BRANCH   1  11
ATOM     11  C   UNL     1     -13.760  12.829 -29.488  1.00  0.00     0.087 C 
BRANCH  11  12
ATOM     12  C   UNL     1     -14.683  14.070 -29.625  1.00  0.00     0.066 C 
BRANCH  12  13
ATOM     13  C   UNL     1     -16.145  13.714 -29.378  1.00  0.00     0.140 C 
ATOM     14  O   UNL     1     -16.680  14.024 -28.323  1.00  0.00    -0.299 OA
BRANCH  13  15
ATOM     15  C   UNL     1     -16.920  12.903 -30.386  1.00  0.00     0.106 CG0
ATOM     16  G   UNL     1     -17.832  11.831 -29.802  1.00  0.00     0.000 G0
ENDBRANCH  13  15
ENDBRANCH  12  13
BRANCH  12  17
ATOM     17  C   UNL     1     -14.471  14.803 -30.988  1.00  0.00    -0.006 C 
ATOM     18  C   UNL     1     -13.954  16.247 -30.864  1.00  0.00     0.008 C 
ATOM     19  C   UNL     1     -13.557  13.997 -31.924  1.00  0.00     0.008 C 
ENDBRANCH  12  17
ENDBRANCH  11  12
ENDBRANCH   1  11
TORSDOF 1
ENDMDL
MODEL 4
REMARK VINA RESULT:    -3.704      2.229      4.070
REMARK INTER + INTRA:          -6.071
REMARK INTER:                  -5.978
REMARK INTRA:                  -0.093
REMARK UNBOUND:                -0.418
REMARK SMILES CC1=CCC[C@@H](C)C(=O)C[C@@H](C(C)C)C(=O)C1
REMARK SMILES IDX 8 1 9 2 6 3 7 4 5 5 4 6 3 7 2 8 1 9 10 11 11 12 15 13 16 14
REMARK SMILES IDX 17 15 12 17 13 18 14 19
REMARK H PARENT
REMARK Flexibility Score: 70.00
ROOT
ATOM      1  C   UNL     1     -15.351  10.829 -26.923  1.00  0.00     0.136 C 
ATOM      2  O   UNL     1     -15.842   9.895 -26.306  1.00  0.00    -0.299 OA
ENDROOT
BRANCH   1   3
ATOM      3  C   UNL     1     -13.866  10.764 -27.254  1.00  0.00     0.053 C 
ATOM      4  C   UNL     1     -13.213  12.126 -26.986  1.00  0.00     0.016 C 
BRANCH   3   5
ATOM      5  C   UNL     1     -13.624  10.333 -28.717  1.00  0.00     0.015 C 
BRANCH   5   6
ATOM      6  C   UNL     1     -12.841  11.359 -29.565  1.00  0.00     0.028 C 
BRANCH   6   7
ATOM      7  C   UNL     1     -13.589  11.871 -30.776  1.00  0.00    -0.028 C 
ATOM      8  C   UNL     1     -14.272  13.039 -30.908  1.00  0.00    -0.070 CG0
ATOM      9  C   UNL     1     -14.827  13.348 -32.278  1.00  0.00     0.039 C 
ATOM     10  G   UNL     1     -14.608  14.005 -29.778  1.00  0.00     0.000 G0
ENDBRANCH   6   7
ENDBRANCH   5   6
ENDBRANCH   3   5
ENDBRANCH   1   3
BRANCH   1  11
ATOM     11  C   UNL     1     -16.277  11.977 -27.296  1.00  0.00     0.087 C 
BRANCH  11  12
ATOM     12  C   UNL     1     -16.396  12.345 -28.799  1.00  0.00     0.066 C 
BRANCH  12  13
ATOM     13  C   UNL     1     -15.919  13.768 -29.069  1.00  0.00     0.140 C 
ATOM     14  O   UNL     1     -16.626  14.718 -28.765  1.00  0.00    -0.299 OA
BRANCH  13  15
ATOM     15  C   UNL     1     -14.619  14.019 -29.791  1.00  0.00     0.106 CG0
ATOM     16  G   UNL     1     -14.289  13.037 -30.909  1.00  0.00     0.000 G0
ENDBRANCH  13  15
ENDBRANCH  12  13
BRANCH  12  17
ATOM     17  C   UNL     1     -17.835  12.085 -29.348  1.00  0.00    -0.006 C 
ATOM     18  C   UNL     1     -18.049  12.516 -30.811  1.00  0.00     0.008 C 
ATOM     19  C   UNL     1     -18.248  10.616 -29.169  1.00  0.00     0.008 C 
ENDBRANCH  12  17
ENDBRANCH  11  12
ENDBRANCH   1  11
TORSDOF 1
ENDMDL
MODEL 5
REMARK VINA RESULT:    -3.624      1.749      3.971
REMARK INTER + INTRA:          -5.949
REMARK INTER:                  -5.767
REMARK INTRA:                  -0.182
REMARK UNBOUND:                -0.418
REMARK SMILES CC1=CCC[C@@H](C)C(=O)C[C@@H](C(C)C)C(=O)C1
REMARK SMILES IDX 8 1 9 2 6 3 7 4 5 5 4 6 3 7 2 8 1 9 10 11 11 12 15 13 16 14
REMARK SMILES IDX 17 15 12 17 13 18 14 19
REMARK H PARENT
REMARK Flexibility Score: 70.00
ROOT
ATOM      1  C   UNL     1     -13.861  13.298 -30.234  1.00  0.00     0.136 C 
ATOM      2  O   UNL     1     -12.873  12.691 -30.620  1.00  0.00    -0.299 OA
ENDROOT
BRANCH   1   3
ATOM      3  C   UNL     1     -14.348  14.474 -31.070  1.00  0.00     0.053 C 
ATOM      4  C   UNL     1     -13.782  15.783 -30.507  1.00  0.00     0.016 C 
BRANCH   3   5
ATOM      5  C   UNL     1     -15.890  14.537 -31.125  1.00  0.00     0.015 C 
BRANCH   5   6
ATOM      6  C   UNL     1     -16.568  13.231 -31.593  1.00  0.00     0.028 C 
BRANCH   6   7
ATOM      7  C   UNL     1     -17.878  12.924 -30.905  1.00  0.00    -0.028 C 
ATOM      8  C   UNL     1     -18.147  11.929 -30.019  1.00  0.00    -0.070 CG0
ATOM      9  C   UNL     1     -19.523  11.931 -29.394  1.00  0.00     0.039 C 
ATOM     10  G   UNL     1     -17.223  10.766 -29.680  1.00  0.00     0.000 G0
ENDBRANCH   6   7
ENDBRANCH   5   6
ENDBRANCH   3   5
ENDBRANCH   1   3
BRANCH   1  11
ATOM     11  C   UNL     1     -14.507  12.822 -28.942  1.00  0.00     0.087 C 
BRANCH  11  12
ATOM     12  C   UNL     1     -14.778  11.301 -28.792  1.00  0.00     0.066 C 
BRANCH  12  13
ATOM     13  C   UNL     1     -16.252  11.016 -28.527  1.00  0.00     0.140 C 
ATOM     14  O   UNL     1     -16.660  10.924 -27.378  1.00  0.00    -0.299 OA
BRANCH  13  15
ATOM     15  C   UNL     1     -17.203  10.758 -29.668  1.00  0.00     0.106 CG0
ATOM     16  G   UNL     1     -18.138  11.911 -30.016  1.00  0.00     0.000 G0
ENDBRANCH  13  15
ENDBRANCH  12  13
BRANCH  12  17
ATOM     17  C   UNL     1     -13.844  10.647 -27.725  1.00  0.00    -0.006 C 
ATOM     18  C   UNL     1     -12.516  10.105 -28.283  1.00  0.00     0.008 C 
ATOM     19  C   UNL     1     -13.569  11.605 -26.556  1.00  0.00     0.008 C 
ENDBRANCH  12  17
ENDBRANCH  11  12
ENDBRANCH   1  11
TORSDOF 1
ENDMDL
MODEL 6
REMARK VINA RESULT:    -3.574      1.707      2.122
REMARK INTER + INTRA:          -5.872
REMARK INTER:                  -5.704
REMARK INTRA:                  -0.168
REMARK UNBOUND:                -0.418
REMARK SMILES CC1=CCC[C@@H](C)C(=O)C[C@@H](C(C)C)C(=O)C1
REMARK SMILES IDX 8 1 9 2 6 3 7 4 5 5 4 6 3 7 2 8 1 9 10 11 11 12 15 13 16 14
REMARK SMILES IDX 17 15 12 17 13 18 14 19
REMARK H PARENT
REMARK Flexibility Score: 70.00
ROOT
ATOM      1  C   UNL     1     -12.497  11.235 -28.556  1.00  0.00     0.136 C 
ATOM      2  O   UNL     1     -11.637  10.371 -28.457  1.00  0.00    -0.299 OA
ENDROOT
BRANCH   1   3
ATOM      3  C   UNL     1     -13.201  11.689 -27.285  1.00  0.00     0.053 C 
ATOM      4  C   UNL     1     -12.188  12.329 -26.328  1.00  0.00     0.016 C 
BRANCH   3   5
ATOM      5  C   UNL     1     -13.932  10.521 -26.587  1.00  0.00     0.015 C 
BRANCH   5   6
ATOM      6  C   UNL     1     -15.471  10.562 -26.716  1.00  0.00     0.028 C 
BRANCH   6   7
ATOM      7  C   UNL     1     -16.030  11.909 -27.113  1.00  0.00    -0.028 C 
ATOM      8  C   UNL     1     -16.595  12.266 -28.296  1.00  0.00    -0.070 CG0
ATOM      9  C   UNL     1     -17.180  13.657 -28.375  1.00  0.00     0.039 C 
ATOM     10  G   UNL     1     -16.600  11.427 -29.569  1.00  0.00     0.000 G0
ENDBRANCH   6   7
ENDBRANCH   5   6
ENDBRANCH   3   5
ENDBRANCH   1   3
BRANCH   1  11
ATOM     11  C   UNL     1     -12.787  11.769 -29.950  1.00  0.00     0.087 C 
BRANCH  11  12
ATOM     12  C   UNL     1     -14.208  12.330 -30.223  1.00  0.00     0.066 C 
BRANCH  12  13
ATOM     13  C   UNL     1     -15.259  11.227 -30.218  1.00  0.00     0.140 C 
ATOM     14  O   UNL     1     -15.044  10.173 -30.799  1.00  0.00    -0.299 OA
BRANCH  13  15
ATOM     15  C   UNL     1     -16.606  11.451 -29.577  1.00  0.00     0.106 CG0
ATOM     16  G   UNL     1     -16.590  12.262 -28.286  1.00  0.00     0.000 G0
ENDBRANCH  13  15
ENDBRANCH  12  13
BRANCH  12  17
ATOM     17  C   UNL     1     -14.252  13.188 -31.528  1.00  0.00    -0.006 C 
ATOM     18  C   UNL     1     -15.293  14.322 -31.514  1.00  0.00     0.008 C 
ATOM     19  C   UNL     1     -12.866  13.752 -31.877  1.00  0.00     0.008 C 
ENDBRANCH  12  17
ENDBRANCH  11  12
ENDBRANCH   1  11
TORSDOF 1
ENDMDL
MODEL 7
REMARK VINA RESULT:    -3.402      1.736      2.771
REMARK INTER + INTRA:          -5.610
REMARK INTER:                  -5.679
REMARK INTRA:                   0.069
REMARK UNBOUND:                -0.418
REMARK SMILES CC1=CCC[C@@H](C)C(=O)C[C@@H](C(C)C)C(=O)C1
REMARK SMILES IDX 8 1 9 2 6 3 7 4 5 5 4 6 3 7 2 8 1 9 10 11 11 12 15 13 16 14
REMARK SMILES IDX 17 15 12 17 13 18 14 19
REMARK H PARENT
REMARK Flexibility Score: 70.00
ROOT
ATOM      1  C   UNL     1     -14.815  11.265 -29.655  1.00  0.00     0.136 C 
ATOM      2  O   UNL     1     -15.509  10.347 -30.070  1.00  0.00    -0.299 OA
ENDROOT
BRANCH   1   3
ATOM      3  C   UNL     1     -15.196  11.904 -28.327  1.00  0.00     0.053 C 
ATOM      4  C   UNL     1     -14.609  11.087 -27.169  1.00  0.00     0.016 C 
BRANCH   3   5
ATOM      5  C   UNL     1     -16.728  12.029 -28.171  1.00  0.00     0.015 C 
BRANCH   5   6
ATOM      6  C   UNL     1     -17.334  13.297 -28.811  1.00  0.00     0.028 C 
BRANCH   6   7
ATOM      7  C   UNL     1     -16.339  14.406 -29.065  1.00  0.00    -0.028 C 
ATOM      8  C   UNL     1     -15.872  14.857 -30.259  1.00  0.00    -0.070 CG0
ATOM      9  C   UNL     1     -14.968  16.067 -30.220  1.00  0.00     0.039 C 
ATOM     10  G   UNL     1     -16.100  14.191 -31.611  1.00  0.00     0.000 G0
ENDBRANCH   6   7
ENDBRANCH   5   6
ENDBRANCH   3   5
ENDBRANCH   1   3
BRANCH   1  11
ATOM     11  C   UNL     1     -13.636  11.687 -30.518  1.00  0.00     0.087 C 
BRANCH  11  12
ATOM     12  C   UNL     1     -13.732  13.053 -31.247  1.00  0.00     0.066 C 
BRANCH  12  13
ATOM     13  C   UNL     1     -15.033  13.182 -32.031  1.00  0.00     0.140 C 
ATOM     14  O   UNL     1     -15.205  12.518 -33.044  1.00  0.00    -0.299 OA
BRANCH  13  15
ATOM     15  C   UNL     1     -16.081  14.187 -31.624  1.00  0.00     0.106 CG0
ATOM     16  G   UNL     1     -15.865  14.844 -30.265  1.00  0.00     0.000 G0
ENDBRANCH  13  15
ENDBRANCH  12  13
BRANCH  12  17
ATOM     17  C   UNL     1     -12.475  13.329 -32.132  1.00  0.00    -0.006 C 
ATOM     18  C   UNL     1     -12.070  14.811 -32.225  1.00  0.00     0.008 C 
ATOM     19  C   UNL     1     -11.273  12.485 -31.679  1.00  0.00     0.008 C 
ENDBRANCH  12  17
ENDBRANCH  11  12
ENDBRANCH   1  11
TORSDOF 1
ENDMDL
MODEL 8
REMARK VINA RESULT:    -3.353      9.128     11.161
REMARK INTER + INTRA:          -5.535
REMARK INTER:                  -5.234
REMARK INTRA:                  -0.301
REMARK UNBOUND:                -0.418
REMARK SMILES CC1=CCC[C@@H](C)C(=O)C[C@@H](C(C)C)C(=O)C1
REMARK SMILES IDX 8 1 9 2 6 3 7 4 5 5 4 6 3 7 2 8 1 9 10 11 11 12 15 13 16 14
REMARK SMILES IDX 17 15 12 17 13 18 14 19
REMARK H PARENT
REMARK Flexibility Score: 70.00
ROOT
ATOM      1  C   UNL     1     -24.044  10.838 -29.095  1.00  0.00     0.136 C 
ATOM      2  O   UNL     1     -22.974  10.259 -29.217  1.00  0.00    -0.299 OA
ENDROOT
BRANCH   1   3
ATOM      3  C   UNL     1     -24.817  10.643 -27.798  1.00  0.00     0.053 C 
ATOM      4  C   UNL     1     -23.955   9.875 -26.788  1.00  0.00     0.016 C 
BRANCH   3   5
ATOM      5  C   UNL     1     -26.152   9.904 -28.034  1.00  0.00     0.015 C 
BRANCH   5   6
ATOM      6  C   UNL     1     -27.364  10.524 -27.305  1.00  0.00     0.028 C 
BRANCH   6   7
ATOM      7  C   UNL     1     -28.581  10.731 -28.179  1.00  0.00    -0.028 C 
ATOM      8  C   UNL     1     -28.793  11.702 -29.105  1.00  0.00    -0.070 CG0
ATOM      9  C   UNL     1     -30.059  11.596 -29.922  1.00  0.00     0.039 C 
ATOM     10  G   UNL     1     -27.919  12.932 -29.319  1.00  0.00     0.000 G0
ENDBRANCH   6   7
ENDBRANCH   5   6
ENDBRANCH   3   5
ENDBRANCH   1   3
BRANCH   1  11
ATOM     11  C   UNL     1     -24.505  11.694 -30.264  1.00  0.00     0.087 C 
BRANCH  11  12
ATOM     12  C   UNL     1     -25.355  12.952 -29.941  1.00  0.00     0.066 C 
BRANCH  12  13
ATOM     13  C   UNL     1     -26.812  12.766 -30.347  1.00  0.00     0.140 C 
ATOM     14  O   UNL     1     -27.099  12.550 -31.516  1.00  0.00    -0.299 OA
BRANCH  13  15
ATOM     15  C   UNL     1     -27.919  12.933 -29.337  1.00  0.00     0.106 CG0
ATOM     16  G   UNL     1     -28.778  11.697 -29.096  1.00  0.00     0.000 G0
ENDBRANCH  13  15
ENDBRANCH  12  13
BRANCH  12  17
ATOM     17  C   UNL     1     -24.728  14.248 -30.549  1.00  0.00    -0.006 C 
ATOM     18  C   UNL     1     -25.420  15.555 -30.121  1.00  0.00     0.008 C 
ATOM     19  C   UNL     1     -23.221  14.332 -30.260  1.00  0.00     0.008 C 
ENDBRANCH  12  17
ENDBRANCH  11  12
ENDBRANCH   1  11
TORSDOF 1
ENDMDL
MODEL 9
REMARK VINA RESULT:    -3.241      9.176     11.863
REMARK INTER + INTRA:          -5.364
REMARK INTER:                  -5.025
REMARK INTRA:                  -0.339
REMARK UNBOUND:                -0.418
REMARK SMILES CC1=CCC[C@@H](C)C(=O)C[C@@H](C(C)C)C(=O)C1
REMARK SMILES IDX 8 1 9 2 6 3 7 4 5 5 4 6 3 7 2 8 1 9 10 11 11 12 15 13 16 14
REMARK SMILES IDX 17 15 12 17 13 18 14 19
REMARK H PARENT
REMARK Flexibility Score: 70.00
ROOT
ATOM      1  C   UNL     1     -26.242  13.114 -30.967  1.00  0.00     0.136 C 
ATOM      2  O   UNL     1     -26.096  13.284 -32.169  1.00  0.00    -0.299 OA
ENDROOT
BRANCH   1   3
ATOM      3  C   UNL     1     -25.601  14.119 -30.020  1.00  0.00     0.053 C 
ATOM      4  C   UNL     1     -25.889  15.546 -30.504  1.00  0.00     0.016 C 
BRANCH   3   5
ATOM      5  C   UNL     1     -24.079  13.894 -29.892  1.00  0.00     0.015 C 
BRANCH   5   6
ATOM      6  C   UNL     1     -23.627  12.435 -30.120  1.00  0.00     0.028 C 
BRANCH   6   7
ATOM      7  C   UNL     1     -23.414  11.640 -28.852  1.00  0.00    -0.028 C 
ATOM      8  C   UNL     1     -24.109  10.558 -28.414  1.00  0.00    -0.070 CG0
ATOM      9  C   UNL     1     -23.599   9.886 -27.161  1.00  0.00     0.039 C 
ATOM     10  G   UNL     1     -25.406  10.030 -29.018  1.00  0.00     0.000 G0
ENDBRANCH   6   7
ENDBRANCH   5   6
ENDBRANCH   3   5
ENDBRANCH   1   3
BRANCH   1  11
ATOM     11  C   UNL     1     -27.049  11.900 -30.532  1.00  0.00     0.087 C 
BRANCH  11  12
ATOM     12  C   UNL     1     -27.389  11.767 -29.024  1.00  0.00     0.066 C 
BRANCH  12  13
ATOM     13  C   UNL     1     -26.666  10.587 -28.386  1.00  0.00     0.140 C 
ATOM     14  O   UNL     1     -27.061  10.128 -27.323  1.00  0.00    -0.299 OA
BRANCH  13  15
ATOM     15  C   UNL     1     -25.408  10.029 -29.005  1.00  0.00     0.106 CG0
ATOM     16  G   UNL     1     -24.102  10.547 -28.414  1.00  0.00     0.000 G0
ENDBRANCH  13  15
ENDBRANCH  12  13
BRANCH  12  17
ATOM     17  C   UNL     1     -28.931  11.722 -28.778  1.00  0.00    -0.006 C 
ATOM     18  C   UNL     1     -29.431  12.668 -27.672  1.00  0.00     0.008 C 
ATOM     19  C   UNL     1     -29.714  11.973 -30.076  1.00  0.00     0.008 C 
ENDBRANCH  12  17
ENDBRANCH  11  12
ENDBRANCH   1  11
TORSDOF 1
ENDMDL
