MODEL 1
REMARK VINA RESULT:    -3.817      0.000      0.000
REMARK INTER + INTRA:          -4.863
REMARK INTER:                  -4.709
REMARK INTRA:                  -0.154
REMARK UNBOUND:                -0.154
REMARK SMILES CCCCCC(=O)[O-]
REMARK SMILES IDX 4 1 5 2 6 3 7 4 8 5 3 6 2 7 1 8
REMARK H PARENT
REMARK Flexibility Score: inf
ROOT
ATOM      1  C   UNL     1     -21.950 -60.803   0.597  1.00  0.00     0.006 C 
ENDROOT
BRANCH   1   2
ATOM      2  C   UNL     1     -21.912 -60.560  -0.914  1.00  0.00     0.053 C 
BRANCH   2   3
ATOM      3  C   UNL     1     -22.927 -59.535  -1.306  1.00  0.00     0.041 C 
ATOM      4  O   UNL     1     -24.058 -59.891  -1.731  1.00  0.00    -0.550 OA
ATOM      5  O   UNL     1     -22.643 -58.183  -1.156  1.00  0.00    -0.550 OA
ENDBRANCH   2   3
ENDBRANCH   1   2
BRANCH   1   6
ATOM      6  C   UNL     1     -22.072 -62.299   0.913  1.00  0.00     0.000 C 
BRANCH   6   7
ATOM      7  C   UNL     1     -23.158 -62.553   1.964  1.00  0.00    -0.003 C 
ATOM      8  C   UNL     1     -24.189 -61.428   1.975  1.00  0.00     0.004 C 
ENDBRANCH   6   7
ENDBRANCH   1   6
TORSDOF 4
ENDMDL
MODEL 2
REMARK VINA RESULT:    -3.810      0.777      1.505
REMARK INTER + INTRA:          -4.855
REMARK INTER:                  -4.740
REMARK INTRA:                  -0.114
REMARK UNBOUND:                -0.154
REMARK SMILES CCCCCC(=O)[O-]
REMARK SMILES IDX 4 1 5 2 6 3 7 4 8 5 3 6 2 7 1 8
REMARK H PARENT
REMARK Flexibility Score: inf
ROOT
ATOM      1  C   UNL     1     -21.905 -61.179  -0.151  1.00  0.00     0.006 C 
ENDROOT
BRANCH   1   2
ATOM      2  C   UNL     1     -23.100 -60.250   0.077  1.00  0.00     0.053 C 
BRANCH   2   3
ATOM      3  C   UNL     1     -23.319 -59.376  -1.117  1.00  0.00     0.041 C 
ATOM      4  O   UNL     1     -22.530 -58.425  -1.360  1.00  0.00    -0.550 OA
ATOM      5  O   UNL     1     -24.366 -59.642  -1.990  1.00  0.00    -0.550 OA
ENDBRANCH   2   3
ENDBRANCH   1   2
BRANCH   1   6
ATOM      6  C   UNL     1     -21.979 -62.407   0.766  1.00  0.00     0.000 C 
BRANCH   6   7
ATOM      7  C   UNL     1     -22.847 -62.122   1.997  1.00  0.00    -0.003 C 
ATOM      8  C   UNL     1     -23.716 -63.326   2.349  1.00  0.00     0.004 C 
ENDBRANCH   6   7
ENDBRANCH   1   6
TORSDOF 4
ENDMDL
MODEL 3
REMARK VINA RESULT:    -3.652      1.118      1.573
REMARK INTER + INTRA:          -4.660
REMARK INTER:                  -4.643
REMARK INTRA:                  -0.017
REMARK UNBOUND:                -0.154
REMARK SMILES CCCCCC(=O)[O-]
REMARK SMILES IDX 4 1 5 2 6 3 7 4 8 5 3 6 2 7 1 8
REMARK H PARENT
REMARK Flexibility Score: inf
ROOT
ATOM      1  C   UNL     1     -22.473 -61.499   0.596  1.00  0.00     0.006 C 
ENDROOT
BRANCH   1   2
ATOM      2  C   UNL     1     -21.881 -60.093   0.465  1.00  0.00     0.053 C 
BRANCH   2   3
ATOM      3  C   UNL     1     -22.052 -59.580  -0.929  1.00  0.00     0.041 C 
ATOM      4  O   UNL     1     -22.305 -58.362  -1.130  1.00  0.00    -0.550 OA
ATOM      5  O   UNL     1     -21.882 -60.435  -2.010  1.00  0.00    -0.550 OA
ENDBRANCH   2   3
ENDBRANCH   1   2
BRANCH   1   6
ATOM      6  C   UNL     1     -22.597 -61.910   2.068  1.00  0.00     0.000 C 
BRANCH   6   7
ATOM      7  C   UNL     1     -24.066 -62.088   2.468  1.00  0.00    -0.003 C 
ATOM      8  C   UNL     1     -24.908 -60.898   2.016  1.00  0.00     0.004 C 
ENDBRANCH   6   7
ENDBRANCH   1   6
TORSDOF 4
ENDMDL
MODEL 4
REMARK VINA RESULT:    -3.591      1.795      2.532
REMARK INTER + INTRA:          -4.585
REMARK INTER:                  -4.481
REMARK INTRA:                  -0.104
REMARK UNBOUND:                -0.154
REMARK SMILES CCCCCC(=O)[O-]
REMARK SMILES IDX 4 1 5 2 6 3 7 4 8 5 3 6 2 7 1 8
REMARK H PARENT
REMARK Flexibility Score: inf
ROOT
ATOM      1  C   UNL     1     -22.875 -60.080  -1.287  1.00  0.00     0.006 C 
ENDROOT
BRANCH   1   2
ATOM      2  C   UNL     1     -23.873 -58.922  -1.367  1.00  0.00     0.053 C 
BRANCH   2   3
ATOM      3  C   UNL     1     -25.222 -59.421  -1.777  1.00  0.00     0.041 C 
ATOM      4  O   UNL     1     -26.090 -59.692  -0.905  1.00  0.00    -0.550 OA
ATOM      5  O   UNL     1     -25.539 -59.540  -3.124  1.00  0.00    -0.550 OA
ENDBRANCH   2   3
ENDBRANCH   1   2
BRANCH   1   6
ATOM      6  C   UNL     1     -22.112 -60.059   0.044  1.00  0.00     0.000 C 
BRANCH   6   7
ATOM      7  C   UNL     1     -22.763 -60.998   1.066  1.00  0.00    -0.003 C 
ATOM      8  C   UNL     1     -22.166 -62.400   0.984  1.00  0.00     0.004 C 
ENDBRANCH   6   7
ENDBRANCH   1   6
TORSDOF 4
ENDMDL
MODEL 5
REMARK VINA RESULT:    -3.519      2.984      4.449
REMARK INTER + INTRA:          -4.496
REMARK INTER:                  -4.359
REMARK INTRA:                  -0.137
REMARK UNBOUND:                -0.154
REMARK SMILES CCCCCC(=O)[O-]
REMARK SMILES IDX 4 1 5 2 6 3 7 4 8 5 3 6 2 7 1 8
REMARK H PARENT
REMARK Flexibility Score: inf
ROOT
ATOM      1  C   UNL     1     -23.017 -60.848   1.169  1.00  0.00     0.006 C 
ENDROOT
BRANCH   1   2
ATOM      2  C   UNL     1     -23.735 -61.892   2.027  1.00  0.00     0.053 C 
BRANCH   2   3
ATOM      3  C   UNL     1     -23.036 -63.211   1.942  1.00  0.00     0.041 C 
ATOM      4  O   UNL     1     -22.188 -63.422   1.034  1.00  0.00    -0.550 OA
ATOM      5  O   UNL     1     -23.282 -64.192   2.894  1.00  0.00    -0.550 OA
ENDBRANCH   2   3
ENDBRANCH   1   2
BRANCH   1   6
ATOM      6  C   UNL     1     -24.014 -60.064   0.306  1.00  0.00     0.000 C 
BRANCH   6   7
ATOM      7  C   UNL     1     -23.473 -59.865  -1.115  1.00  0.00    -0.003 C 
ATOM      8  C   UNL     1     -21.966 -60.099  -1.169  1.00  0.00     0.004 C 
ENDBRANCH   6   7
ENDBRANCH   1   6
TORSDOF 4
ENDMDL
MODEL 6
REMARK VINA RESULT:    -3.499      3.218      4.432
REMARK INTER + INTRA:          -4.471
REMARK INTER:                  -4.372
REMARK INTRA:                  -0.099
REMARK UNBOUND:                -0.154
REMARK SMILES CCCCCC(=O)[O-]
REMARK SMILES IDX 4 1 5 2 6 3 7 4 8 5 3 6 2 7 1 8
REMARK H PARENT
REMARK Flexibility Score: inf
ROOT
ATOM      1  C   UNL     1     -22.344 -61.717   0.654  1.00  0.00     0.006 C 
ENDROOT
BRANCH   1   2
ATOM      2  C   UNL     1     -23.064 -61.595   2.000  1.00  0.00     0.053 C 
BRANCH   2   3
ATOM      3  C   UNL     1     -22.941 -62.866   2.777  1.00  0.00     0.041 C 
ATOM      4  O   UNL     1     -23.310 -63.959   2.270  1.00  0.00    -0.550 OA
ATOM      5  O   UNL     1     -22.373 -62.854   4.045  1.00  0.00    -0.550 OA
ENDBRANCH   2   3
ENDBRANCH   1   2
BRANCH   1   6
ATOM      6  C   UNL     1     -21.886 -60.344   0.148  1.00  0.00     0.000 C 
BRANCH   6   7
ATOM      7  C   UNL     1     -22.355 -60.104  -1.291  1.00  0.00    -0.003 C 
ATOM      8  C   UNL     1     -23.853 -59.813  -1.342  1.00  0.00     0.004 C 
ENDBRANCH   6   7
ENDBRANCH   1   6
TORSDOF 4
ENDMDL
MODEL 7
REMARK VINA RESULT:    -3.409     12.732     14.024
REMARK INTER + INTRA:          -4.360
REMARK INTER:                  -4.305
REMARK INTRA:                  -0.055
REMARK UNBOUND:                -0.154
REMARK SMILES CCCCCC(=O)[O-]
REMARK SMILES IDX 4 1 5 2 6 3 7 4 8 5 3 6 2 7 1 8
REMARK H PARENT
REMARK Flexibility Score: inf
ROOT
ATOM      1  C   UNL     1     -36.636 -59.462   1.814  1.00  0.00     0.006 C 
ENDROOT
BRANCH   1   2
ATOM      2  C   UNL     1     -35.529 -60.388   1.301  1.00  0.00     0.053 C 
BRANCH   2   3
ATOM      3  C   UNL     1     -34.594 -59.640   0.406  1.00  0.00     0.041 C 
ATOM      4  O   UNL     1     -33.949 -60.250  -0.489  1.00  0.00    -0.550 OA
ATOM      5  O   UNL     1     -34.470 -58.262   0.525  1.00  0.00    -0.550 OA
ENDBRANCH   2   3
ENDBRANCH   1   2
BRANCH   1   6
ATOM      6  C   UNL     1     -37.916 -60.250   2.118  1.00  0.00     0.000 C 
BRANCH   6   7
ATOM      7  C   UNL     1     -39.156 -59.495   1.626  1.00  0.00    -0.003 C 
ATOM      8  C   UNL     1     -40.289 -60.459   1.284  1.00  0.00     0.004 C 
ENDBRANCH   6   7
ENDBRANCH   1   6
TORSDOF 4
ENDMDL
MODEL 8
REMARK VINA RESULT:    -3.106      2.085      2.569
REMARK INTER + INTRA:          -3.986
REMARK INTER:                  -4.047
REMARK INTRA:                   0.062
REMARK UNBOUND:                -0.154
REMARK SMILES CCCCCC(=O)[O-]
REMARK SMILES IDX 4 1 5 2 6 3 7 4 8 5 3 6 2 7 1 8
REMARK H PARENT
REMARK Flexibility Score: inf
ROOT
ATOM      1  C   UNL     1     -24.075 -60.332   0.748  1.00  0.00     0.006 C 
ENDROOT
BRANCH   1   2
ATOM      2  C   UNL     1     -24.095 -59.854  -0.706  1.00  0.00     0.053 C 
BRANCH   2   3
ATOM      3  C   UNL     1     -22.702 -59.626  -1.201  1.00  0.00     0.041 C 
ATOM      4  O   UNL     1     -21.956 -60.605  -1.469  1.00  0.00    -0.550 OA
ATOM      5  O   UNL     1     -22.243 -58.333  -1.415  1.00  0.00    -0.550 OA
ENDBRANCH   2   3
ENDBRANCH   1   2
BRANCH   1   6
ATOM      6  C   UNL     1     -22.819 -59.833   1.475  1.00  0.00     0.000 C 
BRANCH   6   7
ATOM      7  C   UNL     1     -23.191 -59.010   2.713  1.00  0.00    -0.003 C 
ATOM      8  C   UNL     1     -22.778 -57.550   2.548  1.00  0.00     0.004 C 
ENDBRANCH   6   7
ENDBRANCH   1   6
TORSDOF 4
ENDMDL
