MODEL 1
REMARK VINA RESULT:    -3.179      0.000      0.000
REMARK INTER + INTRA:          -3.915
REMARK INTER:                  -3.736
REMARK INTRA:                  -0.179
REMARK UNBOUND:                -0.179
REMARK SMILES O=C([O-])CCC(=O)[O-]
REMARK SMILES IDX 4 1 2 2 1 3 3 4 5 5 6 6 7 7 8 8
REMARK H PARENT
REMARK Flexibility Score: inf
ROOT
ATOM      1  C   UNL     1      -7.497   8.327  -8.876  1.00  0.00     0.059 C 
ENDROOT
BRANCH   1   2
ATOM      2  C   UNL     1      -7.231   9.181  -7.678  1.00  0.00     0.042 C 
ATOM      3  O   UNL     1      -6.058   9.556  -7.414  1.00  0.00    -0.550 OA
ATOM      4  O   UNL     1      -8.284   9.604  -6.877  1.00  0.00    -0.550 OA
ENDBRANCH   1   2
BRANCH   1   5
ATOM      5  C   UNL     1      -8.324   7.101  -8.487  1.00  0.00     0.059 C 
BRANCH   5   6
ATOM      6  C   UNL     1      -7.530   6.193  -7.602  1.00  0.00     0.042 C 
ATOM      7  O   UNL     1      -7.907   5.969  -6.421  1.00  0.00    -0.550 OA
ATOM      8  O   UNL     1      -6.347   5.631  -8.064  1.00  0.00    -0.550 OA
ENDBRANCH   5   6
ENDBRANCH   1   5
TORSDOF 3
ENDMDL
MODEL 2
REMARK VINA RESULT:    -3.177      0.041      3.516
REMARK INTER + INTRA:          -3.913
REMARK INTER:                  -3.731
REMARK INTRA:                  -0.183
REMARK UNBOUND:                -0.179
REMARK SMILES O=C([O-])CCC(=O)[O-]
REMARK SMILES IDX 4 1 2 2 1 3 3 4 5 5 6 6 7 7 8 8
REMARK H PARENT
REMARK Flexibility Score: inf
ROOT
ATOM      1  C   UNL     1      -8.338   7.105  -8.470  1.00  0.00     0.059 C 
ENDROOT
BRANCH   1   2
ATOM      2  C   UNL     1      -7.518   6.215  -7.592  1.00  0.00     0.042 C 
ATOM      3  O   UNL     1      -7.896   5.958  -6.418  1.00  0.00    -0.550 OA
ATOM      4  O   UNL     1      -6.359   5.628  -8.085  1.00  0.00    -0.550 OA
ENDBRANCH   1   2
BRANCH   1   5
ATOM      5  C   UNL     1      -7.542   8.349  -8.865  1.00  0.00     0.059 C 
BRANCH   5   6
ATOM      6  C   UNL     1      -7.269   9.199  -7.665  1.00  0.00     0.042 C 
ATOM      7  O   UNL     1      -6.086   9.511  -7.365  1.00  0.00    -0.550 OA
ATOM      8  O   UNL     1      -8.315   9.607  -6.848  1.00  0.00    -0.550 OA
ENDBRANCH   5   6
ENDBRANCH   1   5
TORSDOF 3
ENDMDL
MODEL 3
REMARK VINA RESULT:    -3.074     22.463     23.904
REMARK INTER + INTRA:          -3.792
REMARK INTER:                  -3.651
REMARK INTRA:                  -0.141
REMARK UNBOUND:                -0.179
REMARK SMILES O=C([O-])CCC(=O)[O-]
REMARK SMILES IDX 4 1 2 2 1 3 3 4 5 5 6 6 7 7 8 8
REMARK H PARENT
REMARK Flexibility Score: inf
ROOT
ATOM      1  C   UNL     1       2.308  -6.879   9.946  1.00  0.00     0.059 C 
ENDROOT
BRANCH   1   2
ATOM      2  C   UNL     1       2.578  -7.849   8.841  1.00  0.00     0.042 C 
ATOM      3  O   UNL     1       1.704  -8.695   8.512  1.00  0.00    -0.550 OA
ATOM      4  O   UNL     1       3.775  -7.791   8.140  1.00  0.00    -0.550 OA
ENDBRANCH   1   2
BRANCH   1   5
ATOM      5  C   UNL     1       0.893  -6.310   9.826  1.00  0.00     0.059 C 
BRANCH   5   6
ATOM      6  C   UNL     1       0.869  -5.163   8.867  1.00  0.00     0.042 C 
ATOM      7  O   UNL     1       1.271  -4.025   9.229  1.00  0.00    -0.550 OA
ATOM      8  O   UNL     1       0.358  -5.336   7.588  1.00  0.00    -0.550 OA
ENDBRANCH   5   6
ENDBRANCH   1   5
TORSDOF 3
ENDMDL
MODEL 4
REMARK VINA RESULT:    -3.070     22.431     23.674
REMARK INTER + INTRA:          -3.788
REMARK INTER:                  -3.644
REMARK INTRA:                  -0.144
REMARK UNBOUND:                -0.179
REMARK SMILES O=C([O-])CCC(=O)[O-]
REMARK SMILES IDX 4 1 2 2 1 3 3 4 5 5 6 6 7 7 8 8
REMARK H PARENT
REMARK Flexibility Score: inf
ROOT
ATOM      1  C   UNL     1       0.841  -6.298   9.818  1.00  0.00     0.059 C 
ENDROOT
BRANCH   1   2
ATOM      2  C   UNL     1       0.805  -5.149   8.862  1.00  0.00     0.042 C 
ATOM      3  O   UNL     1       1.280  -4.031   9.197  1.00  0.00    -0.550 OA
ATOM      4  O   UNL     1       0.292  -5.322   7.583  1.00  0.00    -0.550 OA
ENDBRANCH   1   2
BRANCH   1   5
ATOM      5  C   UNL     1       2.264  -6.841   9.951  1.00  0.00     0.059 C 
BRANCH   5   6
ATOM      6  C   UNL     1       2.577  -7.772   8.824  1.00  0.00     0.042 C 
ATOM      7  O   UNL     1       1.730  -8.629   8.455  1.00  0.00    -0.550 OA
ATOM      8  O   UNL     1       3.821  -7.729   8.210  1.00  0.00    -0.550 OA
ENDBRANCH   5   6
ENDBRANCH   1   5
TORSDOF 3
ENDMDL
MODEL 5
REMARK VINA RESULT:    -3.067      1.049      1.366
REMARK INTER + INTRA:          -3.784
REMARK INTER:                  -3.639
REMARK INTRA:                  -0.145
REMARK UNBOUND:                -0.179
REMARK SMILES O=C([O-])CCC(=O)[O-]
REMARK SMILES IDX 4 1 2 2 1 3 3 4 5 5 6 6 7 7 8 8
REMARK H PARENT
REMARK Flexibility Score: inf
ROOT
ATOM      1  C   UNL     1      -8.052   8.572  -8.254  1.00  0.00     0.059 C 
ENDROOT
BRANCH   1   2
ATOM      2  C   UNL     1      -6.647   8.939  -8.612  1.00  0.00     0.042 C 
ATOM      3  O   UNL     1      -6.175   8.620  -9.736  1.00  0.00    -0.550 OA
ATOM      4  O   UNL     1      -5.872   9.676  -7.726  1.00  0.00    -0.550 OA
ENDBRANCH   1   2
BRANCH   1   5
ATOM      5  C   UNL     1      -8.301   7.087  -8.517  1.00  0.00     0.059 C 
BRANCH   5   6
ATOM      6  C   UNL     1      -7.501   6.246  -7.574  1.00  0.00     0.042 C 
ATOM      7  O   UNL     1      -7.804   6.200  -6.352  1.00  0.00    -0.550 OA
ATOM      8  O   UNL     1      -6.391   5.549  -8.033  1.00  0.00    -0.550 OA
ENDBRANCH   5   6
ENDBRANCH   1   5
TORSDOF 3
ENDMDL
MODEL 6
REMARK VINA RESULT:    -3.019      8.846     10.284
REMARK INTER + INTRA:          -3.727
REMARK INTER:                  -3.684
REMARK INTRA:                  -0.043
REMARK UNBOUND:                -0.179
REMARK SMILES O=C([O-])CCC(=O)[O-]
REMARK SMILES IDX 4 1 2 2 1 3 3 4 5 5 6 6 7 7 8 8
REMARK H PARENT
REMARK Flexibility Score: inf
ROOT
ATOM      1  C   UNL     1      -2.879   2.705  -0.381  1.00  0.00     0.059 C 
ENDROOT
BRANCH   1   2
ATOM      2  C   UNL     1      -3.704   1.528   0.031  1.00  0.00     0.042 C 
ATOM      3  O   UNL     1      -4.515   1.626   0.990  1.00  0.00    -0.550 OA
ATOM      4  O   UNL     1      -3.614   0.334  -0.673  1.00  0.00    -0.550 OA
ENDBRANCH   1   2
BRANCH   1   5
ATOM      5  C   UNL     1      -3.348   3.968   0.342  1.00  0.00     0.059 C 
BRANCH   5   6
ATOM      6  C   UNL     1      -2.949   5.189  -0.423  1.00  0.00     0.042 C 
ATOM      7  O   UNL     1      -2.593   6.232   0.187  1.00  0.00    -0.550 OA
ATOM      8  O   UNL     1      -3.017   5.194  -1.810  1.00  0.00    -0.550 OA
ENDBRANCH   5   6
ENDBRANCH   1   5
TORSDOF 3
ENDMDL
MODEL 7
REMARK VINA RESULT:    -3.017      8.842      9.657
REMARK INTER + INTRA:          -3.725
REMARK INTER:                  -3.681
REMARK INTRA:                  -0.044
REMARK UNBOUND:                -0.179
REMARK SMILES O=C([O-])CCC(=O)[O-]
REMARK SMILES IDX 4 1 2 2 1 3 3 4 5 5 6 6 7 7 8 8
REMARK H PARENT
REMARK Flexibility Score: inf
ROOT
ATOM      1  C   UNL     1      -3.360   3.961   0.339  1.00  0.00     0.059 C 
ENDROOT
BRANCH   1   2
ATOM      2  C   UNL     1      -2.977   5.186  -0.428  1.00  0.00     0.042 C 
ATOM      3  O   UNL     1      -2.593   6.220   0.180  1.00  0.00    -0.550 OA
ATOM      4  O   UNL     1      -2.998   5.173  -1.816  1.00  0.00    -0.550 OA
ENDBRANCH   1   2
BRANCH   1   5
ATOM      5  C   UNL     1      -2.846   2.705  -0.366  1.00  0.00     0.059 C 
BRANCH   5   6
ATOM      6  C   UNL     1      -3.692   1.523  -0.014  1.00  0.00     0.042 C 
ATOM      7  O   UNL     1      -4.519   1.595   0.933  1.00  0.00    -0.550 OA
ATOM      8  O   UNL     1      -3.534   0.326  -0.700  1.00  0.00    -0.550 OA
ENDBRANCH   5   6
ENDBRANCH   1   5
TORSDOF 3
ENDMDL
MODEL 8
REMARK VINA RESULT:    -2.977      1.614      3.525
REMARK INTER + INTRA:          -3.678
REMARK INTER:                  -3.494
REMARK INTRA:                  -0.184
REMARK UNBOUND:                -0.179
REMARK SMILES O=C([O-])CCC(=O)[O-]
REMARK SMILES IDX 4 1 2 2 1 3 3 4 5 5 6 6 7 7 8 8
REMARK H PARENT
REMARK Flexibility Score: inf
ROOT
ATOM      1  C   UNL     1      -6.821   7.972  -7.216  1.00  0.00     0.059 C 
ENDROOT
BRANCH   1   2
ATOM      2  C   UNL     1      -7.090   6.501  -7.226  1.00  0.00     0.042 C 
ATOM      3  O   UNL     1      -7.921   6.003  -6.421  1.00  0.00    -0.550 OA
ATOM      4  O   UNL     1      -6.460   5.684  -8.157  1.00  0.00    -0.550 OA
ENDBRANCH   1   2
BRANCH   1   5
ATOM      5  C   UNL     1      -7.002   8.559  -8.616  1.00  0.00     0.059 C 
BRANCH   5   6
ATOM      6  C   UNL     1      -8.432   8.464  -9.043  1.00  0.00     0.042 C 
ATOM      7  O   UNL     1      -8.735   7.894 -10.125  1.00  0.00    -0.550 OA
ATOM      8  O   UNL     1      -9.429   9.046  -8.271  1.00  0.00    -0.550 OA
ENDBRANCH   5   6
ENDBRANCH   1   5
TORSDOF 3
ENDMDL
MODEL 9
REMARK VINA RESULT:    -2.844     24.422     25.394
REMARK INTER + INTRA:          -3.521
REMARK INTER:                  -3.351
REMARK INTRA:                  -0.170
REMARK UNBOUND:                -0.179
REMARK SMILES O=C([O-])CCC(=O)[O-]
REMARK SMILES IDX 4 1 2 2 1 3 3 4 5 5 6 6 7 7 8 8
REMARK H PARENT
REMARK Flexibility Score: inf
ROOT
ATOM      1  C   UNL     1       3.445  -8.237   9.867  1.00  0.00     0.059 C 
ENDROOT
BRANCH   1   2
ATOM      2  C   UNL     1       2.301  -8.116   8.912  1.00  0.00     0.042 C 
ATOM      3  O   UNL     1       1.853  -6.980   8.599  1.00  0.00    -0.550 OA
ATOM      4  O   UNL     1       1.757  -9.253   8.329  1.00  0.00    -0.550 OA
ENDBRANCH   1   2
BRANCH   1   5
ATOM      5  C   UNL     1       4.697  -7.575   9.290  1.00  0.00     0.059 C 
BRANCH   5   6
ATOM      6  C   UNL     1       5.115  -8.258   8.027  1.00  0.00     0.042 C 
ATOM      7  O   UNL     1       5.631  -9.407   8.068  1.00  0.00    -0.550 OA
ATOM      8  O   UNL     1       4.982  -7.608   6.807  1.00  0.00    -0.550 OA
ENDBRANCH   5   6
ENDBRANCH   1   5
TORSDOF 3
ENDMDL
