MODEL 1
REMARK VINA RESULT:    -5.213      0.000      0.000
REMARK INTER + INTRA:          -5.213
REMARK INTER:                  -5.213
REMARK INTRA:                   0.000
REMARK UNBOUND:                 0.000
REMARK SMILES C=C1CCC[C@@]2(C)CC(=O)C(=C(C)C)C[C@@H]12
REMARK SMILES IDX 13 1 12 2 11 3 15 4 16 5 2 6 1 7 3 8 4 9 5 10 6 11 8 12 9 13
REMARK SMILES IDX 10 14 7 15 14 16
REMARK H PARENT
REMARK Flexibility Score: inf
ROOT
ATOM      1  C   UNL     1      -0.605  26.276  56.993  1.00  0.00     0.039 C 
ATOM      2  C   UNL     1       0.133  26.779  55.774  1.00  0.00    -0.070 C 
ATOM      3  C   UNL     1      -0.484  27.572  54.852  1.00  0.00    -0.006 C 
ATOM      4  C   UNL     1      -1.942  27.972  54.947  1.00  0.00     0.047 C 
ATOM      5  C   UNL     1      -2.746  27.575  53.677  1.00  0.00     0.025 C 
ATOM      6  C   UNL     1      -3.985  28.454  53.593  1.00  0.00    -0.073 C 
ATOM      7  C   UNL     1      -5.074  28.168  54.327  1.00  0.00     0.008 C 
ATOM      8  C   UNL     1      -3.928  29.718  52.770  1.00  0.00     0.031 C 
ATOM      9  C   UNL     1      -3.404  29.467  51.343  1.00  0.00     0.005 C 
ATOM     10  C   UNL     1      -2.777  28.076  51.139  1.00  0.00     0.008 C 
ATOM     11  C   UNL     1      -1.903  27.599  52.336  1.00  0.00    -0.018 C 
ATOM     12  C   UNL     1      -0.649  28.513  52.469  1.00  0.00     0.088 C 
ATOM     13  C   UNL     1       0.196  28.106  53.642  1.00  0.00     0.159 C 
ATOM     14  O   UNL     1       1.440  28.300  53.604  1.00  0.00    -0.295 OA
ATOM     15  C   UNL     1      -1.430  26.159  51.998  1.00  0.00     0.012 C 
ATOM     16  C   UNL     1       1.564  26.328  55.597  1.00  0.00     0.039 C 
ENDROOT
TORSDOF 0
ENDMDL
MODEL 2
REMARK VINA RESULT:    -5.057      2.618      4.233
REMARK INTER + INTRA:          -5.057
REMARK INTER:                  -5.057
REMARK INTRA:                   0.000
REMARK UNBOUND:                 0.000
REMARK SMILES C=C1CCC[C@@]2(C)CC(=O)C(=C(C)C)C[C@@H]12
REMARK SMILES IDX 13 1 12 2 11 3 15 4 16 5 2 6 1 7 3 8 4 9 5 10 6 11 8 12 9 13
REMARK SMILES IDX 10 14 7 15 14 16
REMARK H PARENT
REMARK Flexibility Score: inf
ROOT
ATOM      1  C   UNL     1      -2.648  29.540  57.014  1.00  0.00     0.039 C 
ATOM      2  C   UNL     1      -3.156  30.392  55.874  1.00  0.00    -0.070 C 
ATOM      3  C   UNL     1      -3.074  29.965  54.581  1.00  0.00    -0.006 C 
ATOM      4  C   UNL     1      -2.441  28.647  54.184  1.00  0.00     0.047 C 
ATOM      5  C   UNL     1      -1.296  28.833  53.149  1.00  0.00     0.025 C 
ATOM      6  C   UNL     1      -1.097  27.521  52.404  1.00  0.00    -0.073 C 
ATOM      7  C   UNL     1      -0.386  26.525  52.958  1.00  0.00     0.008 C 
ATOM      8  C   UNL     1      -1.813  27.311  51.093  1.00  0.00     0.031 C 
ATOM      9  C   UNL     1      -1.589  28.475  50.109  1.00  0.00     0.005 C 
ATOM     10  C   UNL     1      -0.949  29.723  50.744  1.00  0.00     0.008 C 
ATOM     11  C   UNL     1      -1.497  30.056  52.163  1.00  0.00    -0.018 C 
ATOM     12  C   UNL     1      -2.996  30.466  52.064  1.00  0.00     0.088 C 
ATOM     13  C   UNL     1      -3.569  30.754  53.422  1.00  0.00     0.159 C 
ATOM     14  O   UNL     1      -4.503  31.592  53.534  1.00  0.00    -0.295 OA
ATOM     15  C   UNL     1      -0.685  31.275  52.680  1.00  0.00     0.012 C 
ATOM     16  C   UNL     1      -3.715  31.752  56.222  1.00  0.00     0.039 C 
ENDROOT
TORSDOF 0
ENDMDL
MODEL 3
REMARK VINA RESULT:    -4.960      2.149      3.700
REMARK INTER + INTRA:          -4.960
REMARK INTER:                  -4.960
REMARK INTRA:                   0.000
REMARK UNBOUND:                 0.000
REMARK SMILES C=C1CCC[C@@]2(C)CC(=O)C(=C(C)C)C[C@@H]12
REMARK SMILES IDX 13 1 12 2 11 3 15 4 16 5 2 6 1 7 3 8 4 9 5 10 6 11 8 12 9 13
REMARK SMILES IDX 10 14 7 15 14 16
REMARK H PARENT
REMARK Flexibility Score: inf
ROOT
ATOM      1  C   UNL     1       0.787  26.544  53.606  1.00  0.00     0.039 C 
ATOM      2  C   UNL     1      -0.484  27.147  54.157  1.00  0.00    -0.070 C 
ATOM      3  C   UNL     1      -1.360  27.811  53.349  1.00  0.00    -0.006 C 
ATOM      4  C   UNL     1      -1.115  28.033  51.870  1.00  0.00     0.047 C 
ATOM      5  C   UNL     1      -1.163  29.538  51.485  1.00  0.00     0.025 C 
ATOM      6  C   UNL     1      -1.464  29.649  49.997  1.00  0.00    -0.073 C 
ATOM      7  C   UNL     1      -0.486  29.485  49.091  1.00  0.00     0.008 C 
ATOM      8  C   UNL     1      -2.896  29.820  49.554  1.00  0.00     0.031 C 
ATOM      9  C   UNL     1      -3.603  30.976  50.287  1.00  0.00     0.005 C 
ATOM     10  C   UNL     1      -2.830  31.516  51.504  1.00  0.00     0.008 C 
ATOM     11  C   UNL     1      -2.156  30.407  52.363  1.00  0.00    -0.018 C 
ATOM     12  C   UNL     1      -3.248  29.520  53.030  1.00  0.00     0.088 C 
ATOM     13  C   UNL     1      -2.631  28.412  53.833  1.00  0.00     0.159 C 
ATOM     14  O   UNL     1      -3.239  27.967  54.843  1.00  0.00    -0.295 OA
ATOM     15  C   UNL     1      -1.357  31.130  53.480  1.00  0.00     0.012 C 
ATOM     16  C   UNL     1      -0.720  27.024  55.644  1.00  0.00     0.039 C 
ENDROOT
TORSDOF 0
ENDMDL
MODEL 4
REMARK VINA RESULT:    -4.926      2.076      3.262
REMARK INTER + INTRA:          -4.926
REMARK INTER:                  -4.926
REMARK INTRA:                   0.000
REMARK UNBOUND:                 0.000
REMARK SMILES C=C1CCC[C@@]2(C)CC(=O)C(=C(C)C)C[C@@H]12
REMARK SMILES IDX 13 1 12 2 11 3 15 4 16 5 2 6 1 7 3 8 4 9 5 10 6 11 8 12 9 13
REMARK SMILES IDX 10 14 7 15 14 16
REMARK H PARENT
REMARK Flexibility Score: inf
ROOT
ATOM      1  C   UNL     1       2.009  27.742  54.259  1.00  0.00     0.039 C 
ATOM      2  C   UNL     1       0.692  27.098  53.893  1.00  0.00    -0.070 C 
ATOM      3  C   UNL     1      -0.293  27.807  53.271  1.00  0.00    -0.006 C 
ATOM      4  C   UNL     1      -0.170  29.281  52.942  1.00  0.00     0.047 C 
ATOM      5  C   UNL     1      -1.326  30.119  53.557  1.00  0.00     0.025 C 
ATOM      6  C   UNL     1      -1.460  31.414  52.768  1.00  0.00    -0.073 C 
ATOM      7  C   UNL     1      -0.632  32.445  53.006  1.00  0.00     0.008 C 
ATOM      8  C   UNL     1      -2.449  31.475  51.630  1.00  0.00     0.031 C 
ATOM      9  C   UNL     1      -3.856  31.008  52.050  1.00  0.00     0.005 C 
ATOM     10  C   UNL     1      -3.903  30.305  53.419  1.00  0.00     0.008 C 
ATOM     11  C   UNL     1      -2.704  29.346  53.675  1.00  0.00    -0.018 C 
ATOM     12  C   UNL     1      -2.770  28.146  52.685  1.00  0.00     0.088 C 
ATOM     13  C   UNL     1      -1.602  27.222  52.876  1.00  0.00     0.159 C 
ATOM     14  O   UNL     1      -1.737  25.996  52.622  1.00  0.00    -0.295 OA
ATOM     15  C   UNL     1      -2.868  28.803  55.120  1.00  0.00     0.012 C 
ATOM     16  C   UNL     1       0.497  25.651  54.284  1.00  0.00     0.039 C 
ENDROOT
TORSDOF 0
ENDMDL
MODEL 5
REMARK VINA RESULT:    -4.658      1.532      4.633
REMARK INTER + INTRA:          -4.658
REMARK INTER:                  -4.658
REMARK INTRA:                   0.000
REMARK UNBOUND:                 0.000
REMARK SMILES C=C1CCC[C@@]2(C)CC(=O)C(=C(C)C)C[C@@H]12
REMARK SMILES IDX 13 1 12 2 11 3 15 4 16 5 2 6 1 7 3 8 4 9 5 10 6 11 8 12 9 13
REMARK SMILES IDX 10 14 7 15 14 16
REMARK H PARENT
REMARK Flexibility Score: inf
ROOT
ATOM      1  C   UNL     1      -4.279  29.626  52.190  1.00  0.00     0.039 C 
ATOM      2  C   UNL     1      -3.282  28.587  51.732  1.00  0.00    -0.070 C 
ATOM      3  C   UNL     1      -2.613  27.806  52.628  1.00  0.00    -0.006 C 
ATOM      4  C   UNL     1      -2.777  27.942  54.129  1.00  0.00     0.047 C 
ATOM      5  C   UNL     1      -1.423  28.196  54.848  1.00  0.00     0.025 C 
ATOM      6  C   UNL     1      -1.561  27.778  56.305  1.00  0.00    -0.073 C 
ATOM      7  C   UNL     1      -2.147  28.596  57.195  1.00  0.00     0.008 C 
ATOM      8  C   UNL     1      -1.146  26.384  56.705  1.00  0.00     0.031 C 
ATOM      9  C   UNL     1       0.276  26.035  56.226  1.00  0.00     0.005 C 
ATOM     10  C   UNL     1       0.858  27.030  55.205  1.00  0.00     0.008 C 
ATOM     11  C   UNL     1      -0.173  27.521  54.148  1.00  0.00    -0.018 C 
ATOM     12  C   UNL     1      -0.604  26.330  53.241  1.00  0.00     0.088 C 
ATOM     13  C   UNL     1      -1.633  26.760  52.235  1.00  0.00     0.159 C 
ATOM     14  O   UNL     1      -1.691  26.174  51.122  1.00  0.00    -0.295 OA
ATOM     15  C   UNL     1       0.555  28.572  53.268  1.00  0.00     0.012 C 
ATOM     16  C   UNL     1      -3.025  28.482  50.247  1.00  0.00     0.039 C 
ENDROOT
TORSDOF 0
ENDMDL
MODEL 6
REMARK VINA RESULT:    -4.555      2.462      5.225
REMARK INTER + INTRA:          -4.555
REMARK INTER:                  -4.555
REMARK INTRA:                   0.000
REMARK UNBOUND:                 0.000
REMARK SMILES C=C1CCC[C@@]2(C)CC(=O)C(=C(C)C)C[C@@H]12
REMARK SMILES IDX 13 1 12 2 11 3 15 4 16 5 2 6 1 7 3 8 4 9 5 10 6 11 8 12 9 13
REMARK SMILES IDX 10 14 7 15 14 16
REMARK H PARENT
REMARK Flexibility Score: inf
ROOT
ATOM      1  C   UNL     1      -0.367  29.361  48.495  1.00  0.00     0.039 C 
ATOM      2  C   UNL     1      -1.576  30.018  49.119  1.00  0.00    -0.070 C 
ATOM      3  C   UNL     1      -1.876  29.839  50.437  1.00  0.00    -0.006 C 
ATOM      4  C   UNL     1      -1.064  28.949  51.357  1.00  0.00     0.047 C 
ATOM      5  C   UNL     1      -1.933  27.854  52.036  1.00  0.00     0.025 C 
ATOM      6  C   UNL     1      -1.227  27.388  53.301  1.00  0.00    -0.073 C 
ATOM      7  C   UNL     1      -0.223  26.498  53.231  1.00  0.00     0.008 C 
ATOM      8  C   UNL     1      -1.585  28.035  54.616  1.00  0.00     0.031 C 
ATOM      9  C   UNL     1      -3.104  28.038  54.874  1.00  0.00     0.005 C 
ATOM     10  C   UNL     1      -3.952  27.668  53.643  1.00  0.00     0.008 C 
ATOM     11  C   UNL     1      -3.432  28.287  52.313  1.00  0.00    -0.018 C 
ATOM     12  C   UNL     1      -3.576  29.837  52.361  1.00  0.00     0.088 C 
ATOM     13  C   UNL     1      -3.044  30.469  51.108  1.00  0.00     0.159 C 
ATOM     14  O   UNL     1      -3.542  31.553  50.703  1.00  0.00    -0.295 OA
ATOM     15  C   UNL     1      -4.343  27.741  51.180  1.00  0.00     0.012 C 
ATOM     16  C   UNL     1      -2.462  30.841  48.213  1.00  0.00     0.039 C 
ENDROOT
TORSDOF 0
ENDMDL
MODEL 7
REMARK VINA RESULT:    -4.553      7.552      9.388
REMARK INTER + INTRA:          -4.553
REMARK INTER:                  -4.553
REMARK INTRA:                   0.000
REMARK UNBOUND:                 0.000
REMARK SMILES C=C1CCC[C@@]2(C)CC(=O)C(=C(C)C)C[C@@H]12
REMARK SMILES IDX 13 1 12 2 11 3 15 4 16 5 2 6 1 7 3 8 4 9 5 10 6 11 8 12 9 13
REMARK SMILES IDX 10 14 7 15 14 16
REMARK H PARENT
REMARK Flexibility Score: inf
ROOT
ATOM      1  C   UNL     1      -4.483  32.331  57.258  1.00  0.00     0.039 C 
ATOM      2  C   UNL     1      -4.309  31.622  58.581  1.00  0.00    -0.070 C 
ATOM      3  C   UNL     1      -3.560  32.167  59.582  1.00  0.00    -0.006 C 
ATOM      4  C   UNL     1      -2.818  33.481  59.439  1.00  0.00     0.047 C 
ATOM      5  C   UNL     1      -1.299  33.334  59.732  1.00  0.00     0.025 C 
ATOM      6  C   UNL     1      -0.744  34.700  60.111  1.00  0.00    -0.073 C 
ATOM      7  C   UNL     1      -0.438  35.598  59.160  1.00  0.00     0.008 C 
ATOM      8  C   UNL     1      -0.662  35.073  61.571  1.00  0.00     0.031 C 
ATOM      9  C   UNL     1       0.054  34.000  62.412  1.00  0.00     0.005 C 
ATOM     10  C   UNL     1       0.269  32.664  61.678  1.00  0.00     0.008 C 
ATOM     11  C   UNL     1      -0.943  32.225  60.805  1.00  0.00    -0.018 C 
ATOM     12  C   UNL     1      -2.163  31.908  61.720  1.00  0.00     0.088 C 
ATOM     13  C   UNL     1      -3.364  31.521  60.907  1.00  0.00     0.159 C 
ATOM     14  O   UNL     1      -4.212  30.727  61.395  1.00  0.00    -0.295 OA
ATOM     15  C   UNL     1      -0.520  30.920  60.077  1.00  0.00     0.012 C 
ATOM     16  C   UNL     1      -4.960  30.266  58.730  1.00  0.00     0.039 C 
ENDROOT
TORSDOF 0
ENDMDL
MODEL 8
REMARK VINA RESULT:    -4.517      2.157      3.615
REMARK INTER + INTRA:          -4.517
REMARK INTER:                  -4.517
REMARK INTRA:                   0.000
REMARK UNBOUND:                 0.000
REMARK SMILES C=C1CCC[C@@]2(C)CC(=O)C(=C(C)C)C[C@@H]12
REMARK SMILES IDX 13 1 12 2 11 3 15 4 16 5 2 6 1 7 3 8 4 9 5 10 6 11 8 12 9 13
REMARK SMILES IDX 10 14 7 15 14 16
REMARK H PARENT
REMARK Flexibility Score: inf
ROOT
ATOM      1  C   UNL     1      -3.179  31.804  56.396  1.00  0.00     0.039 C 
ATOM      2  C   UNL     1      -2.741  30.359  56.356  1.00  0.00    -0.070 C 
ATOM      3  C   UNL     1      -2.290  29.788  55.203  1.00  0.00    -0.006 C 
ATOM      4  C   UNL     1      -2.233  30.527  53.881  1.00  0.00     0.047 C 
ATOM      5  C   UNL     1      -3.026  29.794  52.762  1.00  0.00     0.025 C 
ATOM      6  C   UNL     1      -2.491  30.249  51.412  1.00  0.00    -0.073 C 
ATOM      7  C   UNL     1      -2.890  31.417  50.880  1.00  0.00     0.008 C 
ATOM      8  C   UNL     1      -1.415  29.431  50.741  1.00  0.00     0.031 C 
ATOM      9  C   UNL     1      -1.785  27.939  50.647  1.00  0.00     0.005 C 
ATOM     10  C   UNL     1      -3.003  27.537  51.498  1.00  0.00     0.008 C 
ATOM     11  C   UNL     1      -3.043  28.216  52.898  1.00  0.00    -0.018 C 
ATOM     12  C   UNL     1      -1.851  27.708  53.763  1.00  0.00     0.088 C 
ATOM     13  C   UNL     1      -1.835  28.376  55.108  1.00  0.00     0.159 C 
ATOM     14  O   UNL     1      -1.364  27.757  56.099  1.00  0.00    -0.295 OA
ATOM     15  C   UNL     1      -4.368  27.771  53.574  1.00  0.00     0.012 C 
ATOM     16  C   UNL     1      -2.867  29.563  57.634  1.00  0.00     0.039 C 
ENDROOT
TORSDOF 0
ENDMDL
MODEL 9
REMARK VINA RESULT:    -4.414      2.577      4.006
REMARK INTER + INTRA:          -4.414
REMARK INTER:                  -4.414
REMARK INTRA:                   0.000
REMARK UNBOUND:                 0.000
REMARK SMILES C=C1CCC[C@@]2(C)CC(=O)C(=C(C)C)C[C@@H]12
REMARK SMILES IDX 13 1 12 2 11 3 15 4 16 5 2 6 1 7 3 8 4 9 5 10 6 11 8 12 9 13
REMARK SMILES IDX 10 14 7 15 14 16
REMARK H PARENT
REMARK Flexibility Score: inf
ROOT
ATOM      1  C   UNL     1      -1.784  27.756  56.164  1.00  0.00     0.039 C 
ATOM      2  C   UNL     1      -2.578  29.028  55.975  1.00  0.00    -0.070 C 
ATOM      3  C   UNL     1      -3.088  29.368  54.757  1.00  0.00    -0.006 C 
ATOM      4  C   UNL     1      -2.868  28.540  53.507  1.00  0.00     0.047 C 
ATOM      5  C   UNL     1      -2.223  29.367  52.359  1.00  0.00     0.025 C 
ATOM      6  C   UNL     1      -2.535  28.684  51.035  1.00  0.00    -0.073 C 
ATOM      7  C   UNL     1      -1.815  27.625  50.629  1.00  0.00     0.008 C 
ATOM      8  C   UNL     1      -3.742  29.135  50.250  1.00  0.00     0.031 C 
ATOM      9  C   UNL     1      -3.766  30.660  50.035  1.00  0.00     0.005 C 
ATOM     10  C   UNL     1      -2.750  31.433  50.895  1.00  0.00     0.008 C 
ATOM     11  C   UNL     1      -2.624  30.899  52.351  1.00  0.00    -0.018 C 
ATOM     12  C   UNL     1      -3.959  31.141  53.117  1.00  0.00     0.088 C 
ATOM     13  C   UNL     1      -3.887  30.599  54.516  1.00  0.00     0.159 C 
ATOM     14  O   UNL     1      -4.563  31.146  55.426  1.00  0.00    -0.295 OA
ATOM     15  C   UNL     1      -1.505  31.729  53.037  1.00  0.00     0.012 C 
ATOM     16  C   UNL     1      -2.744  29.925  57.179  1.00  0.00     0.039 C 
ENDROOT
TORSDOF 0
ENDMDL
