MODEL 1
REMARK VINA RESULT:    -2.449      0.000      0.000
REMARK INTER + INTRA:          -4.159
REMARK INTER:                  -3.452
REMARK INTRA:                  -0.707
REMARK UNBOUND:                -0.707
REMARK SMILES CCCCCCCCC=O
REMARK SMILES IDX 5 1 4 2 3 3 2 4 1 5 6 6 7 7 8 8 9 9 10 10
REMARK H PARENT
REMARK Flexibility Score: inf
ROOT
ATOM      1  C   UNL     1     138.500 145.104 139.226  1.00  0.00     0.000 C 
ENDROOT
BRANCH   1   2
ATOM      2  C   UNL     1     139.053 144.687 137.854  1.00  0.00    -0.000 C 
BRANCH   2   3
ATOM      3  C   UNL     1     139.496 145.889 137.002  1.00  0.00    -0.000 C 
BRANCH   3   4
ATOM      4  C   UNL     1     139.996 147.063 137.858  1.00  0.00    -0.003 C 
ATOM      5  C   UNL     1     140.020 148.384 137.091  1.00  0.00     0.004 C 
ENDBRANCH   3   4
ENDBRANCH   2   3
ENDBRANCH   1   2
BRANCH   1   6
ATOM      6  C   UNL     1     137.020 144.724 139.407  1.00  0.00     0.000 C 
BRANCH   6   7
ATOM      7  C   UNL     1     136.066 145.868 139.030  1.00  0.00     0.008 C 
BRANCH   7   8
ATOM      8  C   UNL     1     136.616 147.248 139.415  1.00  0.00     0.072 C 
BRANCH   8   9
ATOM      9  C   UNL     1     136.411 148.234 138.304  1.00  0.00     0.224 C 
ATOM     10  O   UNL     1     136.910 149.347 138.364  1.00  0.00    -0.303 OA
ENDBRANCH   8   9
ENDBRANCH   7   8
ENDBRANCH   6   7
ENDBRANCH   1   6
TORSDOF 7
ENDMDL
MODEL 2
REMARK VINA RESULT:    -2.437      8.110      9.665
REMARK INTER + INTRA:          -4.141
REMARK INTER:                  -3.478
REMARK INTRA:                  -0.664
REMARK UNBOUND:                -0.707
REMARK SMILES CCCCCCCCC=O
REMARK SMILES IDX 5 1 4 2 3 3 2 4 1 5 6 6 7 7 8 8 9 9 10 10
REMARK H PARENT
REMARK Flexibility Score: inf
ROOT
ATOM      1  C   UNL     1     143.892 142.691 138.774  1.00  0.00     0.000 C 
ENDROOT
BRANCH   1   2
ATOM      2  C   UNL     1     143.829 144.226 138.841  1.00  0.00    -0.000 C 
BRANCH   2   3
ATOM      3  C   UNL     1     144.856 144.819 139.823  1.00  0.00    -0.000 C 
BRANCH   3   4
ATOM      4  C   UNL     1     146.007 145.540 139.104  1.00  0.00    -0.003 C 
ATOM      5  C   UNL     1     147.362 144.879 139.350  1.00  0.00     0.004 C 
ENDBRANCH   3   4
ENDBRANCH   2   3
ENDBRANCH   1   2
BRANCH   1   6
ATOM      6  C   UNL     1     144.659 142.186 137.539  1.00  0.00     0.000 C 
BRANCH   6   7
ATOM      7  C   UNL     1     146.066 141.677 137.887  1.00  0.00     0.008 C 
BRANCH   7   8
ATOM      8  C   UNL     1     147.129 142.139 136.880  1.00  0.00     0.072 C 
BRANCH   8   9
ATOM      9  C   UNL     1     148.477 141.590 137.237  1.00  0.00     0.224 C 
ATOM     10  O   UNL     1     149.361 142.331 137.638  1.00  0.00    -0.303 OA
ENDBRANCH   8   9
ENDBRANCH   7   8
ENDBRANCH   6   7
ENDBRANCH   1   6
TORSDOF 7
ENDMDL
MODEL 3
REMARK VINA RESULT:    -2.428      8.626     10.281
REMARK INTER + INTRA:          -4.130
REMARK INTER:                  -3.297
REMARK INTRA:                  -0.833
REMARK UNBOUND:                -0.707
REMARK SMILES CCCCCCCCC=O
REMARK SMILES IDX 5 1 4 2 3 3 2 4 1 5 6 6 7 7 8 8 9 9 10 10
REMARK H PARENT
REMARK Flexibility Score: inf
ROOT
ATOM      1  C   UNL     1     135.887 137.531 138.802  1.00  0.00     0.000 C 
ENDROOT
BRANCH   1   2
ATOM      2  C   UNL     1     135.404 138.580 139.817  1.00  0.00    -0.000 C 
BRANCH   2   3
ATOM      3  C   UNL     1     134.512 139.659 139.177  1.00  0.00    -0.000 C 
BRANCH   3   4
ATOM      4  C   UNL     1     134.386 139.489 137.655  1.00  0.00    -0.003 C 
ATOM      5  C   UNL     1     133.003 139.873 137.131  1.00  0.00     0.004 C 
ENDBRANCH   3   4
ENDBRANCH   2   3
ENDBRANCH   1   2
BRANCH   1   6
ATOM      6  C   UNL     1     135.827 136.098 139.361  1.00  0.00     0.000 C 
BRANCH   6   7
ATOM      7  C   UNL     1     134.394 135.545 139.411  1.00  0.00     0.008 C 
BRANCH   7   8
ATOM      8  C   UNL     1     133.604 135.827 138.126  1.00  0.00     0.072 C 
BRANCH   8   9
ATOM      9  C   UNL     1     132.220 136.307 138.445  1.00  0.00     0.224 C 
ATOM     10  O   UNL     1     132.043 137.168 139.293  1.00  0.00    -0.303 OA
ENDBRANCH   8   9
ENDBRANCH   7   8
ENDBRANCH   6   7
ENDBRANCH   1   6
TORSDOF 7
ENDMDL
MODEL 4
REMARK VINA RESULT:    -2.426     11.992     13.927
REMARK INTER + INTRA:          -4.126
REMARK INTER:                  -3.427
REMARK INTRA:                  -0.699
REMARK UNBOUND:                -0.707
REMARK SMILES CCCCCCCCC=O
REMARK SMILES IDX 5 1 4 2 3 3 2 4 1 5 6 6 7 7 8 8 9 9 10 10
REMARK H PARENT
REMARK Flexibility Score: inf
ROOT
ATOM      1  C   UNL     1     143.457 136.488 139.276  1.00  0.00     0.000 C 
ENDROOT
BRANCH   1   2
ATOM      2  C   UNL     1     142.744 137.005 138.016  1.00  0.00    -0.000 C 
BRANCH   2   3
ATOM      3  C   UNL     1     142.024 135.887 137.241  1.00  0.00    -0.000 C 
BRANCH   3   4
ATOM      4  C   UNL     1     141.721 134.664 138.121  1.00  0.00    -0.003 C 
ATOM      5  C   UNL     1     141.642 133.365 137.320  1.00  0.00     0.004 C 
ENDBRANCH   3   4
ENDBRANCH   2   3
ENDBRANCH   1   2
BRANCH   1   6
ATOM      6  C   UNL     1     144.984 136.412 139.101  1.00  0.00     0.000 C 
BRANCH   6   7
ATOM      7  C   UNL     1     145.569 135.080 139.595  1.00  0.00     0.008 C 
BRANCH   7   8
ATOM      8  C   UNL     1     145.363 133.935 138.594  1.00  0.00     0.072 C 
BRANCH   8   9
ATOM      9  C   UNL     1     144.844 132.709 139.284  1.00  0.00     0.224 C 
ATOM     10  O   UNL     1     144.546 131.715 138.640  1.00  0.00    -0.303 OA
ENDBRANCH   8   9
ENDBRANCH   7   8
ENDBRANCH   6   7
ENDBRANCH   1   6
TORSDOF 7
ENDMDL
MODEL 5
REMARK VINA RESULT:    -2.411      1.199      3.236
REMARK INTER + INTRA:          -4.105
REMARK INTER:                  -3.369
REMARK INTRA:                  -0.736
REMARK UNBOUND:                -0.707
REMARK SMILES CCCCCCCCC=O
REMARK SMILES IDX 5 1 4 2 3 3 2 4 1 5 6 6 7 7 8 8 9 9 10 10
REMARK H PARENT
REMARK Flexibility Score: inf
ROOT
ATOM      1  C   UNL     1     139.969 146.462 138.004  1.00  0.00     0.000 C 
ENDROOT
BRANCH   1   2
ATOM      2  C   UNL     1     139.503 145.205 137.252  1.00  0.00    -0.000 C 
BRANCH   2   3
ATOM      3  C   UNL     1     138.729 144.226 138.153  1.00  0.00    -0.000 C 
BRANCH   3   4
ATOM      4  C   UNL     1     138.093 144.923 139.366  1.00  0.00    -0.003 C 
ATOM      5  C   UNL     1     136.577 145.058 139.241  1.00  0.00     0.004 C 
ENDBRANCH   3   4
ENDBRANCH   2   3
ENDBRANCH   1   2
BRANCH   1   6
ATOM      6  C   UNL     1     139.936 147.724 137.123  1.00  0.00     0.000 C 
BRANCH   6   7
ATOM      7  C   UNL     1     139.107 148.857 137.748  1.00  0.00     0.008 C 
BRANCH   7   8
ATOM      8  C   UNL     1     137.671 148.428 138.080  1.00  0.00     0.072 C 
BRANCH   8   9
ATOM      9  C   UNL     1     137.312 148.809 139.485  1.00  0.00     0.224 C 
ATOM     10  O   UNL     1     137.861 148.270 140.433  1.00  0.00    -0.303 OA
ENDBRANCH   8   9
ENDBRANCH   7   8
ENDBRANCH   6   7
ENDBRANCH   1   6
TORSDOF 7
ENDMDL
MODEL 6
REMARK VINA RESULT:    -2.406      8.663     10.156
REMARK INTER + INTRA:          -4.097
REMARK INTER:                  -3.560
REMARK INTRA:                  -0.537
REMARK UNBOUND:                -0.707
REMARK SMILES CCCCCCCCC=O
REMARK SMILES IDX 5 1 4 2 3 3 2 4 1 5 6 6 7 7 8 8 9 9 10 10
REMARK H PARENT
REMARK Flexibility Score: inf
ROOT
ATOM      1  C   UNL     1     145.585 143.718 139.616  1.00  0.00     0.000 C 
ENDROOT
BRANCH   1   2
ATOM      2  C   UNL     1     145.144 142.851 138.426  1.00  0.00    -0.000 C 
BRANCH   2   3
ATOM      3  C   UNL     1     146.097 141.671 138.165  1.00  0.00    -0.000 C 
BRANCH   3   4
ATOM      4  C   UNL     1     147.078 141.951 137.017  1.00  0.00    -0.003 C 
ATOM      5  C   UNL     1     148.517 141.568 137.363  1.00  0.00     0.004 C 
ENDBRANCH   3   4
ENDBRANCH   2   3
ENDBRANCH   1   2
BRANCH   1   6
ATOM      6  C   UNL     1     145.770 145.197 139.233  1.00  0.00     0.000 C 
BRANCH   6   7
ATOM      7  C   UNL     1     147.233 145.655 139.340  1.00  0.00     0.008 C 
BRANCH   7   8
ATOM      8  C   UNL     1     148.020 145.433 138.040  1.00  0.00     0.072 C 
BRANCH   8   9
ATOM      9  C   UNL     1     148.972 146.565 137.793  1.00  0.00     0.224 C 
ATOM     10  O   UNL     1     150.021 146.373 137.198  1.00  0.00    -0.303 OA
ENDBRANCH   8   9
ENDBRANCH   7   8
ENDBRANCH   6   7
ENDBRANCH   1   6
TORSDOF 7
ENDMDL
MODEL 7
REMARK VINA RESULT:    -2.383     11.731     13.479
REMARK INTER + INTRA:          -4.066
REMARK INTER:                  -3.397
REMARK INTRA:                  -0.668
REMARK UNBOUND:                -0.707
REMARK SMILES CCCCCCCCC=O
REMARK SMILES IDX 5 1 4 2 3 3 2 4 1 5 6 6 7 7 8 8 9 9 10 10
REMARK H PARENT
REMARK Flexibility Score: inf
ROOT
ATOM      1  C   UNL     1     141.668 135.400 138.199  1.00  0.00     0.000 C 
ENDROOT
BRANCH   1   2
ATOM      2  C   UNL     1     142.462 136.664 137.833  1.00  0.00    -0.000 C 
BRANCH   2   3
ATOM      3  C   UNL     1     143.261 137.228 139.021  1.00  0.00    -0.000 C 
BRANCH   3   4
ATOM      4  C   UNL     1     144.718 136.739 139.035  1.00  0.00    -0.003 C 
ATOM      5  C   UNL     1     145.110 136.091 140.361  1.00  0.00     0.004 C 
ENDBRANCH   3   4
ENDBRANCH   2   3
ENDBRANCH   1   2
BRANCH   1   6
ATOM      6  C   UNL     1     141.783 134.300 137.129  1.00  0.00     0.000 C 
BRANCH   6   7
ATOM      7  C   UNL     1     142.280 132.965 137.707  1.00  0.00     0.008 C 
BRANCH   7   8
ATOM      8  C   UNL     1     143.301 133.153 138.837  1.00  0.00     0.072 C 
BRANCH   8   9
ATOM      9  C   UNL     1     144.655 132.663 138.420  1.00  0.00     0.224 C 
ATOM     10  O   UNL     1     145.470 133.433 137.937  1.00  0.00    -0.303 OA
ENDBRANCH   8   9
ENDBRANCH   7   8
ENDBRANCH   6   7
ENDBRANCH   1   6
TORSDOF 7
ENDMDL
MODEL 8
REMARK VINA RESULT:    -2.376      8.677     10.346
REMARK INTER + INTRA:          -4.055
REMARK INTER:                  -3.272
REMARK INTRA:                  -0.784
REMARK UNBOUND:                -0.707
REMARK SMILES CCCCCCCCC=O
REMARK SMILES IDX 5 1 4 2 3 3 2 4 1 5 6 6 7 7 8 8 9 9 10 10
REMARK H PARENT
REMARK Flexibility Score: inf
ROOT
ATOM      1  C   UNL     1     148.224 143.922 138.077  1.00  0.00     0.000 C 
ENDROOT
BRANCH   1   2
ATOM      2  C   UNL     1     148.349 144.226 139.579  1.00  0.00    -0.000 C 
BRANCH   2   3
ATOM      3  C   UNL     1     147.087 144.891 140.157  1.00  0.00    -0.000 C 
BRANCH   3   4
ATOM      4  C   UNL     1     146.118 145.363 139.062  1.00  0.00    -0.003 C 
ATOM      5  C   UNL     1     144.728 144.743 139.198  1.00  0.00     0.004 C 
ENDBRANCH   3   4
ENDBRANCH   2   3
ENDBRANCH   1   2
BRANCH   1   6
ATOM      6  C   UNL     1     148.961 142.633 137.672  1.00  0.00     0.000 C 
BRANCH   6   7
ATOM      7  C   UNL     1     147.998 141.482 137.343  1.00  0.00     0.008 C 
BRANCH   7   8
ATOM      8  C   UNL     1     146.524 141.905 137.409  1.00  0.00     0.072 C 
BRANCH   8   9
ATOM      9  C   UNL     1     145.816 141.200 138.526  1.00  0.00     0.224 C 
ATOM     10  O   UNL     1     146.142 141.395 139.687  1.00  0.00    -0.303 OA
ENDBRANCH   8   9
ENDBRANCH   7   8
ENDBRANCH   6   7
ENDBRANCH   1   6
TORSDOF 7
ENDMDL
MODEL 9
REMARK VINA RESULT:    -2.359      8.636     10.224
REMARK INTER + INTRA:          -4.032
REMARK INTER:                  -3.444
REMARK INTRA:                  -0.588
REMARK UNBOUND:                -0.707
REMARK SMILES CCCCCCCCC=O
REMARK SMILES IDX 5 1 4 2 3 3 2 4 1 5 6 6 7 7 8 8 9 9 10 10
REMARK H PARENT
REMARK Flexibility Score: inf
ROOT
ATOM      1  C   UNL     1     146.477 141.565 138.099  1.00  0.00     0.000 C 
ENDROOT
BRANCH   1   2
ATOM      2  C   UNL     1     145.252 141.980 137.266  1.00  0.00    -0.000 C 
BRANCH   2   3
ATOM      3  C   UNL     1     144.226 142.786 138.082  1.00  0.00    -0.000 C 
BRANCH   3   4
ATOM      4  C   UNL     1     144.842 143.420 139.339  1.00  0.00    -0.003 C 
ATOM      5  C   UNL     1     145.018 144.933 139.210  1.00  0.00     0.004 C 
ENDBRANCH   3   4
ENDBRANCH   2   3
ENDBRANCH   1   2
BRANCH   1   6
ATOM      6  C   UNL     1     147.731 141.345 137.234  1.00  0.00     0.000 C 
BRANCH   6   7
ATOM      7  C   UNL     1     148.895 142.262 137.640  1.00  0.00     0.008 C 
BRANCH   7   8
ATOM      8  C   UNL     1     148.501 143.274 138.725  1.00  0.00     0.072 C 
BRANCH   8   9
ATOM      9  C   UNL     1     148.570 144.676 138.198  1.00  0.00     0.224 C 
ATOM     10  O   UNL     1     149.643 145.166 137.879  1.00  0.00    -0.303 OA
ENDBRANCH   8   9
ENDBRANCH   7   8
ENDBRANCH   6   7
ENDBRANCH   1   6
TORSDOF 7
ENDMDL
