MODEL 1
REMARK VINA RESULT:    -3.647      0.000      0.000
REMARK INTER + INTRA:          -5.492
REMARK INTER:                  -5.140
REMARK INTRA:                  -0.353
REMARK UNBOUND:                -0.353
REMARK SMILES CCCCCCCCC(=O)[O-]
REMARK SMILES IDX 6 1 7 2 8 3 9 4 10 5 11 6 5 7 4 8 3 9 2 10 1 11
REMARK H PARENT
REMARK Flexibility Score: inf
ROOT
ATOM      1  C   UNL     1      57.339  29.210  51.651  1.00  0.00     0.000 C 
ENDROOT
BRANCH   1   2
ATOM      2  C   UNL     1      58.566  29.815  50.949  1.00  0.00     0.006 C 
BRANCH   2   3
ATOM      3  C   UNL     1      58.807  29.217  49.558  1.00  0.00     0.053 C 
BRANCH   3   4
ATOM      4  C   UNL     1      59.804  28.104  49.635  1.00  0.00     0.041 C 
ATOM      5  O   UNL     1      61.036  28.357  49.672  1.00  0.00    -0.550 OA
ATOM      6  O   UNL     1      59.368  26.787  49.714  1.00  0.00    -0.550 OA
ENDBRANCH   3   4
ENDBRANCH   2   3
ENDBRANCH   1   2
BRANCH   1   7
ATOM      7  C   UNL     1      56.382  28.511  50.669  1.00  0.00     0.000 C 
BRANCH   7   8
ATOM      8  C   UNL     1      54.946  29.053  50.756  1.00  0.00    -0.000 C 
BRANCH   8   9
ATOM      9  C   UNL     1      53.894  28.021  50.320  1.00  0.00    -0.000 C 
BRANCH   9  10
ATOM     10  C   UNL     1      54.537  26.647  50.095  1.00  0.00    -0.003 C 
ATOM     11  C   UNL     1      53.492  25.608  49.701  1.00  0.00     0.004 C 
ENDBRANCH   9  10
ENDBRANCH   8   9
ENDBRANCH   7   8
ENDBRANCH   1   7
TORSDOF 7
ENDMDL
MODEL 2
REMARK VINA RESULT:    -3.613      1.184      1.495
REMARK INTER + INTRA:          -5.444
REMARK INTER:                  -5.032
REMARK INTRA:                  -0.412
REMARK UNBOUND:                -0.353
REMARK SMILES CCCCCCCCC(=O)[O-]
REMARK SMILES IDX 6 1 7 2 8 3 9 4 10 5 11 6 5 7 4 8 3 9 2 10 1 11
REMARK H PARENT
REMARK Flexibility Score: inf
ROOT
ATOM      1  C   UNL     1      58.035  29.328  50.033  1.00  0.00     0.000 C 
ENDROOT
BRANCH   1   2
ATOM      2  C   UNL     1      59.271  28.530  49.587  1.00  0.00     0.006 C 
BRANCH   2   3
ATOM      3  C   UNL     1      59.141  27.029  49.872  1.00  0.00     0.053 C 
BRANCH   3   4
ATOM      4  C   UNL     1      60.463  26.460  50.282  1.00  0.00     0.041 C 
ATOM      5  O   UNL     1      61.433  27.223  50.529  1.00  0.00    -0.550 OA
ATOM      6  O   UNL     1      60.610  25.088  50.438  1.00  0.00    -0.550 OA
ENDBRANCH   3   4
ENDBRANCH   2   3
ENDBRANCH   1   2
BRANCH   1   7
ATOM      7  C   UNL     1      57.011  28.460  50.785  1.00  0.00     0.000 C 
BRANCH   7   8
ATOM      8  C   UNL     1      55.634  29.136  50.899  1.00  0.00    -0.000 C 
BRANCH   8   9
ATOM      9  C   UNL     1      54.488  28.229  50.426  1.00  0.00    -0.000 C 
BRANCH   9  10
ATOM     10  C   UNL     1      54.966  26.781  50.265  1.00  0.00    -0.003 C 
ATOM     11  C   UNL     1      53.877  25.905  49.652  1.00  0.00     0.004 C 
ENDBRANCH   9  10
ENDBRANCH   8   9
ENDBRANCH   7   8
ENDBRANCH   1   7
TORSDOF 7
ENDMDL
MODEL 3
REMARK VINA RESULT:    -3.360      1.300      1.687
REMARK INTER + INTRA:          -5.087
REMARK INTER:                  -4.745
REMARK INTRA:                  -0.342
REMARK UNBOUND:                -0.353
REMARK SMILES CCCCCCCCC(=O)[O-]
REMARK SMILES IDX 6 1 7 2 8 3 9 4 10 5 11 6 5 7 4 8 3 9 2 10 1 11
REMARK H PARENT
REMARK Flexibility Score: inf
ROOT
ATOM      1  C   UNL     1      57.646  29.370  50.394  1.00  0.00     0.000 C 
ENDROOT
BRANCH   1   2
ATOM      2  C   UNL     1      59.063  29.199  49.823  1.00  0.00     0.006 C 
BRANCH   2   3
ATOM      3  C   UNL     1      59.458  27.727  49.650  1.00  0.00     0.053 C 
BRANCH   3   4
ATOM      4  C   UNL     1      60.896  27.528  50.013  1.00  0.00     0.041 C 
ATOM      5  O   UNL     1      61.742  28.428  49.773  1.00  0.00    -0.550 OA
ATOM      6  O   UNL     1      61.294  26.365  50.661  1.00  0.00    -0.550 OA
ENDBRANCH   3   4
ENDBRANCH   2   3
ENDBRANCH   1   2
BRANCH   1   7
ATOM      7  C   UNL     1      57.051  28.045  50.902  1.00  0.00     0.000 C 
BRANCH   7   8
ATOM      8  C   UNL     1      55.533  27.952  50.671  1.00  0.00    -0.000 C 
BRANCH   8   9
ATOM      9  C   UNL     1      54.833  29.317  50.766  1.00  0.00    -0.000 C 
BRANCH   9  10
ATOM     10  C   UNL     1      53.342  29.190  50.435  1.00  0.00    -0.003 C 
ATOM     11  C   UNL     1      52.959  27.739  50.158  1.00  0.00     0.004 C 
ENDBRANCH   9  10
ENDBRANCH   8   9
ENDBRANCH   7   8
ENDBRANCH   1   7
TORSDOF 7
ENDMDL
MODEL 4
REMARK VINA RESULT:    -3.272      3.358      5.299
REMARK INTER + INTRA:          -4.964
REMARK INTER:                  -4.394
REMARK INTRA:                  -0.569
REMARK UNBOUND:                -0.353
REMARK SMILES CCCCCCCCC(=O)[O-]
REMARK SMILES IDX 6 1 7 2 8 3 9 4 10 5 11 6 5 7 4 8 3 9 2 10 1 11
REMARK H PARENT
REMARK Flexibility Score: inf
ROOT
ATOM      1  C   UNL     1      55.830  26.371  51.566  1.00  0.00     0.000 C 
ENDROOT
BRANCH   1   2
ATOM      2  C   UNL     1      55.466  27.245  50.355  1.00  0.00     0.006 C 
BRANCH   2   3
ATOM      3  C   UNL     1      55.267  28.720  50.728  1.00  0.00     0.053 C 
BRANCH   3   4
ATOM      4  C   UNL     1      53.847  29.130  50.492  1.00  0.00     0.041 C 
ATOM      5  O   UNL     1      53.500  30.329  50.647  1.00  0.00    -0.550 OA
ATOM      6  O   UNL     1      52.918  28.195  50.054  1.00  0.00    -0.550 OA
ENDBRANCH   3   4
ENDBRANCH   2   3
ENDBRANCH   1   2
BRANCH   1   7
ATOM      7  C   UNL     1      57.304  25.931  51.555  1.00  0.00     0.000 C 
BRANCH   7   8
ATOM      8  C   UNL     1      58.059  26.427  50.310  1.00  0.00    -0.000 C 
BRANCH   8   9
ATOM      9  C   UNL     1      59.241  27.344  50.658  1.00  0.00    -0.000 C 
BRANCH   9  10
ATOM     10  C   UNL     1      59.560  28.290  49.495  1.00  0.00    -0.003 C 
ATOM     11  C   UNL     1      58.700  29.549  49.556  1.00  0.00     0.004 C 
ENDBRANCH   9  10
ENDBRANCH   8   9
ENDBRANCH   7   8
ENDBRANCH   1   7
TORSDOF 7
ENDMDL
MODEL 5
REMARK VINA RESULT:    -3.269      2.794      4.822
REMARK INTER + INTRA:          -4.960
REMARK INTER:                  -4.336
REMARK INTRA:                  -0.623
REMARK UNBOUND:                -0.353
REMARK SMILES CCCCCCCCC(=O)[O-]
REMARK SMILES IDX 6 1 7 2 8 3 9 4 10 5 11 6 5 7 4 8 3 9 2 10 1 11
REMARK H PARENT
REMARK Flexibility Score: inf
ROOT
ATOM      1  C   UNL     1      57.969  29.275  50.877  1.00  0.00     0.000 C 
ENDROOT
BRANCH   1   2
ATOM      2  C   UNL     1      56.473  28.965  50.704  1.00  0.00     0.006 C 
BRANCH   2   3
ATOM      3  C   UNL     1      56.176  27.460  50.700  1.00  0.00     0.053 C 
BRANCH   3   4
ATOM      4  C   UNL     1      54.772  27.208  50.249  1.00  0.00     0.041 C 
ATOM      5  O   UNL     1      53.929  28.142  50.246  1.00  0.00    -0.550 OA
ATOM      6  O   UNL     1      54.407  25.950  49.787  1.00  0.00    -0.550 OA
ENDBRANCH   3   4
ENDBRANCH   2   3
ENDBRANCH   1   2
BRANCH   1   7
ATOM      7  C   UNL     1      58.709  29.378  49.532  1.00  0.00     0.000 C 
BRANCH   7   8
ATOM      8  C   UNL     1      59.986  28.523  49.493  1.00  0.00    -0.000 C 
BRANCH   8   9
ATOM      9  C   UNL     1      60.061  27.516  50.651  1.00  0.00    -0.000 C 
BRANCH   9  10
ATOM     10  C   UNL     1      59.709  26.103  50.171  1.00  0.00    -0.003 C 
ATOM     11  C   UNL     1      59.206  25.237  51.323  1.00  0.00     0.004 C 
ENDBRANCH   9  10
ENDBRANCH   8   9
ENDBRANCH   7   8
ENDBRANCH   1   7
TORSDOF 7
ENDMDL
MODEL 6
REMARK VINA RESULT:    -3.231      1.347      1.857
REMARK INTER + INTRA:          -4.905
REMARK INTER:                  -4.261
REMARK INTRA:                  -0.644
REMARK UNBOUND:                -0.353
REMARK SMILES CCCCCCCCC(=O)[O-]
REMARK SMILES IDX 6 1 7 2 8 3 9 4 10 5 11 6 5 7 4 8 3 9 2 10 1 11
REMARK H PARENT
REMARK Flexibility Score: inf
ROOT
ATOM      1  C   UNL     1      57.745  27.230  51.857  1.00  0.00     0.000 C 
ENDROOT
BRANCH   1   2
ATOM      2  C   UNL     1      57.939  26.754  50.408  1.00  0.00     0.006 C 
BRANCH   2   3
ATOM      3  C   UNL     1      59.411  26.751  49.978  1.00  0.00     0.053 C 
BRANCH   3   4
ATOM      4  C   UNL     1      59.863  28.141  49.655  1.00  0.00     0.041 C 
ATOM      5  O   UNL     1      59.062  28.964  49.140  1.00  0.00    -0.550 OA
ATOM      6  O   UNL     1      61.155  28.541  49.967  1.00  0.00    -0.550 OA
ENDBRANCH   3   4
ENDBRANCH   2   3
ENDBRANCH   1   2
BRANCH   1   7
ATOM      7  C   UNL     1      56.628  28.281  51.989  1.00  0.00     0.000 C 
BRANCH   7   8
ATOM      8  C   UNL     1      56.056  28.709  50.627  1.00  0.00    -0.000 C 
BRANCH   8   9
ATOM      9  C   UNL     1      54.525  28.603  50.566  1.00  0.00    -0.000 C 
BRANCH   9  10
ATOM     10  C   UNL     1      54.061  27.180  50.901  1.00  0.00    -0.003 C 
ATOM     11  C   UNL     1      54.328  26.226  49.741  1.00  0.00     0.004 C 
ENDBRANCH   9  10
ENDBRANCH   8   9
ENDBRANCH   7   8
ENDBRANCH   1   7
TORSDOF 7
ENDMDL
MODEL 7
REMARK VINA RESULT:    -3.226      1.801      2.744
REMARK INTER + INTRA:          -4.898
REMARK INTER:                  -4.476
REMARK INTRA:                  -0.423
REMARK UNBOUND:                -0.353
REMARK SMILES CCCCCCCCC(=O)[O-]
REMARK SMILES IDX 6 1 7 2 8 3 9 4 10 5 11 6 5 7 4 8 3 9 2 10 1 11
REMARK H PARENT
REMARK Flexibility Score: inf
ROOT
ATOM      1  C   UNL     1      59.603  29.411  50.178  1.00  0.00     0.000 C 
ENDROOT
BRANCH   1   2
ATOM      2  C   UNL     1      60.069  28.063  49.603  1.00  0.00     0.006 C 
BRANCH   2   3
ATOM      3  C   UNL     1      60.456  27.057  50.694  1.00  0.00     0.053 C 
BRANCH   3   4
ATOM      4  C   UNL     1      59.656  25.800  50.551  1.00  0.00     0.041 C 
ATOM      5  O   UNL     1      58.398  25.848  50.527  1.00  0.00    -0.550 OA
ATOM      6  O   UNL     1      60.301  24.580  50.395  1.00  0.00    -0.550 OA
ENDBRANCH   3   4
ENDBRANCH   2   3
ENDBRANCH   1   2
BRANCH   1   7
ATOM      7  C   UNL     1      58.090  29.635  50.005  1.00  0.00     0.000 C 
BRANCH   7   8
ATOM      8  C   UNL     1      57.274  29.092  51.191  1.00  0.00    -0.000 C 
BRANCH   8   9
ATOM      9  C   UNL     1      55.966  28.418  50.751  1.00  0.00    -0.000 C 
BRANCH   9  10
ATOM     10  C   UNL     1      54.801  29.414  50.781  1.00  0.00    -0.003 C 
ATOM     11  C   UNL     1      53.490  28.742  50.381  1.00  0.00     0.004 C 
ENDBRANCH   9  10
ENDBRANCH   8   9
ENDBRANCH   7   8
ENDBRANCH   1   7
TORSDOF 7
ENDMDL
MODEL 8
REMARK VINA RESULT:    -3.201      1.966      4.667
REMARK INTER + INTRA:          -4.863
REMARK INTER:                  -4.368
REMARK INTRA:                  -0.495
REMARK UNBOUND:                -0.353
REMARK SMILES CCCCCCCCC(=O)[O-]
REMARK SMILES IDX 6 1 7 2 8 3 9 4 10 5 11 6 5 7 4 8 3 9 2 10 1 11
REMARK H PARENT
REMARK Flexibility Score: inf
ROOT
ATOM      1  C   UNL     1      56.685  29.308  51.950  1.00  0.00     0.000 C 
ENDROOT
BRANCH   1   2
ATOM      2  C   UNL     1      55.800  29.067  50.717  1.00  0.00     0.006 C 
BRANCH   2   3
ATOM      3  C   UNL     1      54.792  27.930  50.924  1.00  0.00     0.053 C 
BRANCH   3   4
ATOM      4  C   UNL     1      55.288  26.671  50.283  1.00  0.00     0.041 C 
ATOM      5  O   UNL     1      54.507  25.956  49.604  1.00  0.00    -0.550 OA
ATOM      6  O   UNL     1      56.625  26.315  50.398  1.00  0.00    -0.550 OA
ENDBRANCH   3   4
ENDBRANCH   2   3
ENDBRANCH   1   2
BRANCH   1   7
ATOM      7  C   UNL     1      58.187  29.270  51.615  1.00  0.00     0.000 C 
BRANCH   7   8
ATOM      8  C   UNL     1      58.479  29.692  50.165  1.00  0.00    -0.000 C 
BRANCH   8   9
ATOM      9  C   UNL     1      59.160  28.583  49.350  1.00  0.00    -0.000 C 
BRANCH   9  10
ATOM     10  C   UNL     1      60.409  28.062  50.071  1.00  0.00    -0.003 C 
ATOM     11  C   UNL     1      60.351  26.548  50.251  1.00  0.00     0.004 C 
ENDBRANCH   9  10
ENDBRANCH   8   9
ENDBRANCH   7   8
ENDBRANCH   1   7
TORSDOF 7
ENDMDL
MODEL 9
REMARK VINA RESULT:    -3.191     12.034     13.977
REMARK INTER + INTRA:          -4.849
REMARK INTER:                  -4.561
REMARK INTRA:                  -0.287
REMARK UNBOUND:                -0.353
REMARK SMILES CCCCCCCCC(=O)[O-]
REMARK SMILES IDX 6 1 7 2 8 3 9 4 10 5 11 6 5 7 4 8 3 9 2 10 1 11
REMARK H PARENT
REMARK Flexibility Score: inf
ROOT
ATOM      1  C   UNL     1      63.705  32.370  60.503  1.00  0.00     0.000 C 
ENDROOT
BRANCH   1   2
ATOM      2  C   UNL     1      63.373  30.926  60.095  1.00  0.00     0.006 C 
BRANCH   2   3
ATOM      3  C   UNL     1      63.117  30.013  61.301  1.00  0.00     0.053 C 
BRANCH   3   4
ATOM      4  C   UNL     1      61.844  29.249  61.115  1.00  0.00     0.041 C 
ATOM      5  O   UNL     1      61.674  28.148  61.700  1.00  0.00    -0.550 OA
ATOM      6  O   UNL     1      60.826  29.777  60.332  1.00  0.00    -0.550 OA
ENDBRANCH   3   4
ENDBRANCH   2   3
ENDBRANCH   1   2
BRANCH   1   7
ATOM      7  C   UNL     1      62.756  33.398  59.860  1.00  0.00     0.000 C 
BRANCH   7   8
ATOM      8  C   UNL     1      62.789  34.759  60.574  1.00  0.00    -0.000 C 
BRANCH   8   9
ATOM      9  C   UNL     1      63.845  34.819  61.689  1.00  0.00    -0.000 C 
BRANCH   9  10
ATOM     10  C   UNL     1      64.003  36.251  62.215  1.00  0.00    -0.003 C 
ATOM     11  C   UNL     1      63.328  36.417  63.573  1.00  0.00     0.004 C 
ENDBRANCH   9  10
ENDBRANCH   8   9
ENDBRANCH   7   8
ENDBRANCH   1   7
TORSDOF 7
ENDMDL
