MODEL 1
REMARK VINA RESULT:    -4.364      0.000      0.000
REMARK INTER + INTRA:         -17.344
REMARK INTER:                 -11.506
REMARK INTRA:                  -5.838
REMARK UNBOUND:                -5.838
REMARK SMILES CCCCCCCCCCCCCCCCCCCCCCCCCCCCCC(=O)[O-]
REMARK SMILES IDX 16 1 17 2 18 3 19 4 20 5 21 6 22 7 23 8 24 9 25 10 26 11
REMARK SMILES IDX 27 12 28 13 29 14 30 15 31 16 32 17 15 18 14 19 13 20 12 21
REMARK SMILES IDX 11 22 10 23 9 24 8 25 7 26 6 27 5 28 4 29 3 30 2 31 1 32
REMARK H PARENT
REMARK Flexibility Score: inf
ROOT
ATOM      1  C   UNL     1      59.610  13.008  37.021  1.00  0.00     0.000 C 
ENDROOT
BRANCH   1   2
ATOM      2  C   UNL     1      60.795  12.114  36.627  1.00  0.00     0.000 C 
BRANCH   2   3
ATOM      3  C   UNL     1      60.444  10.614  36.640  1.00  0.00     0.000 C 
BRANCH   3   4
ATOM      4  C   UNL     1      59.043  10.276  37.189  1.00  0.00     0.000 C 
BRANCH   4   5
ATOM      5  C   UNL     1      59.035   9.592  38.569  1.00  0.00     0.000 C 
BRANCH   5   6
ATOM      6  C   UNL     1      58.966  10.556  39.771  1.00  0.00     0.000 C 
BRANCH   6   7
ATOM      7  C   UNL     1      59.987  10.285  40.891  1.00  0.00     0.000 C 
BRANCH   7   8
ATOM      8  C   UNL     1      60.982  11.441  41.090  1.00  0.00     0.000 C 
BRANCH   8   9
ATOM      9  C   UNL     1      62.436  11.040  40.785  1.00  0.00     0.000 C 
BRANCH   9  10
ATOM     10  C   UNL     1      62.692  10.534  39.353  1.00  0.00     0.000 C 
BRANCH  10  11
ATOM     11  C   UNL     1      63.010   9.030  39.300  1.00  0.00     0.000 C 
BRANCH  11  12
ATOM     12  C   UNL     1      63.083   8.478  37.864  1.00  0.00     0.000 C 
BRANCH  12  13
ATOM     13  C   UNL     1      62.132   7.304  37.561  1.00  0.00     0.006 C 
BRANCH  13  14
ATOM     14  C   UNL     1      61.939   6.361  38.755  1.00  0.00     0.053 C 
BRANCH  14  15
ATOM     15  C   UNL     1      60.513   6.370  39.207  1.00  0.00     0.041 C 
ATOM     16  O   UNL     1      60.220   6.755  40.369  1.00  0.00    -0.550 OA
ATOM     17  O   UNL     1      59.510   5.918  38.358  1.00  0.00    -0.550 OA
ENDBRANCH  14  15
ENDBRANCH  13  14
ENDBRANCH  12  13
ENDBRANCH  11  12
ENDBRANCH  10  11
ENDBRANCH   9  10
ENDBRANCH   8   9
ENDBRANCH   7   8
ENDBRANCH   6   7
ENDBRANCH   5   6
ENDBRANCH   4   5
ENDBRANCH   3   4
ENDBRANCH   2   3
ENDBRANCH   1   2
BRANCH   1  18
ATOM     18  C   UNL     1      59.938  13.848  38.265  1.00  0.00     0.000 C 
BRANCH  18  19
ATOM     19  C   UNL     1      61.365  14.421  38.224  1.00  0.00     0.000 C 
BRANCH  19  20
ATOM     20  C   UNL     1      61.983  14.550  39.628  1.00  0.00     0.000 C 
BRANCH  20  21
ATOM     21  C   UNL     1      63.515  14.421  39.622  1.00  0.00     0.000 C 
BRANCH  21  22
ATOM     22  C   UNL     1      64.037  13.678  38.380  1.00  0.00     0.000 C 
BRANCH  22  23
ATOM     23  C   UNL     1      64.977  14.537  37.514  1.00  0.00     0.000 C 
BRANCH  23  24
ATOM     24  C   UNL     1      64.442  14.903  36.115  1.00  0.00    -0.000 C 
BRANCH  24  25
ATOM     25  C   UNL     1      64.325  16.419  35.888  1.00  0.00    -0.000 C 
BRANCH  25  26
ATOM     26  C   UNL     1      63.416  17.107  36.922  1.00  0.00    -0.000 C 
BRANCH  26  27
ATOM     27  C   UNL     1      64.112  18.253  37.690  1.00  0.00    -0.000 C 
BRANCH  27  28
ATOM     28  C   UNL     1      64.380  17.885  39.156  1.00  0.00    -0.000 C 
BRANCH  28  29
ATOM     29  C   UNL     1      63.107  18.024  40.000  1.00  0.00    -0.000 C 
BRANCH  29  30
ATOM     30  C   UNL     1      62.372  19.333  39.677  1.00  0.00    -0.000 C 
BRANCH  30  31
ATOM     31  C   UNL     1      60.909  19.103  39.271  1.00  0.00    -0.003 C 
ATOM     32  C   UNL     1      60.294  17.876  39.945  1.00  0.00     0.004 C 
ENDBRANCH  30  31
ENDBRANCH  29  30
ENDBRANCH  28  29
ENDBRANCH  27  28
ENDBRANCH  26  27
ENDBRANCH  25  26
ENDBRANCH  24  25
ENDBRANCH  23  24
ENDBRANCH  22  23
ENDBRANCH  21  22
ENDBRANCH  20  21
ENDBRANCH  19  20
ENDBRANCH  18  19
ENDBRANCH   1  18
TORSDOF 28
ENDMDL
MODEL 2
REMARK VINA RESULT:    -4.328      2.050      4.898
REMARK INTER + INTRA:         -17.251
REMARK INTER:                 -12.153
REMARK INTRA:                  -5.098
REMARK UNBOUND:                -5.838
REMARK SMILES CCCCCCCCCCCCCCCCCCCCCCCCCCCCCC(=O)[O-]
REMARK SMILES IDX 16 1 17 2 18 3 19 4 20 5 21 6 22 7 23 8 24 9 25 10 26 11
REMARK SMILES IDX 27 12 28 13 29 14 30 15 31 16 32 17 15 18 14 19 13 20 12 21
REMARK SMILES IDX 11 22 10 23 9 24 8 25 7 26 6 27 5 28 4 29 3 30 2 31 1 32
REMARK H PARENT
REMARK Flexibility Score: inf
ROOT
ATOM      1  C   UNL     1      62.008  18.521  37.435  1.00  0.00     0.000 C 
ENDROOT
BRANCH   1   2
ATOM      2  C   UNL     1      60.608  18.866  37.961  1.00  0.00     0.000 C 
BRANCH   2   3
ATOM      3  C   UNL     1      59.585  17.738  37.729  1.00  0.00     0.000 C 
BRANCH   3   4
ATOM      4  C   UNL     1      58.760  17.341  38.970  1.00  0.00     0.000 C 
BRANCH   4   5
ATOM      5  C   UNL     1      58.144  15.929  38.915  1.00  0.00     0.000 C 
BRANCH   5   6
ATOM      6  C   UNL     1      58.467  15.129  37.637  1.00  0.00     0.000 C 
BRANCH   6   7
ATOM      7  C   UNL     1      58.074  13.641  37.676  1.00  0.00     0.000 C 
BRANCH   7   8
ATOM      8  C   UNL     1      58.646  12.839  36.494  1.00  0.00     0.000 C 
BRANCH   8   9
ATOM      9  C   UNL     1      59.547  11.674  36.940  1.00  0.00     0.000 C 
BRANCH   9  10
ATOM     10  C   UNL     1      59.340  11.202  38.392  1.00  0.00     0.000 C 
BRANCH  10  11
ATOM     11  C   UNL     1      60.297  10.066  38.793  1.00  0.00     0.000 C 
BRANCH  11  12
ATOM     12  C   UNL     1      61.545  10.563  39.544  1.00  0.00     0.000 C 
BRANCH  12  13
ATOM     13  C   UNL     1      62.873   9.905  39.121  1.00  0.00     0.006 C 
BRANCH  13  14
ATOM     14  C   UNL     1      62.686   8.758  38.122  1.00  0.00     0.053 C 
BRANCH  14  15
ATOM     15  C   UNL     1      63.654   7.652  38.402  1.00  0.00     0.041 C 
ATOM     16  O   UNL     1      63.603   7.029  39.495  1.00  0.00    -0.550 OA
ATOM     17  O   UNL     1      64.638   7.334  37.473  1.00  0.00    -0.550 OA
ENDBRANCH  14  15
ENDBRANCH  13  14
ENDBRANCH  12  13
ENDBRANCH  11  12
ENDBRANCH  10  11
ENDBRANCH   9  10
ENDBRANCH   8   9
ENDBRANCH   7   8
ENDBRANCH   6   7
ENDBRANCH   5   6
ENDBRANCH   4   5
ENDBRANCH   3   4
ENDBRANCH   2   3
ENDBRANCH   1   2
BRANCH   1  18
ATOM     18  C   UNL     1      63.091  18.865  38.470  1.00  0.00     0.000 C 
BRANCH  18  19
ATOM     19  C   UNL     1      62.590  18.702  39.915  1.00  0.00     0.000 C 
BRANCH  19  20
ATOM     20  C   UNL     1      63.489  17.766  40.743  1.00  0.00     0.000 C 
BRANCH  20  21
ATOM     21  C   UNL     1      63.301  16.283  40.386  1.00  0.00     0.000 C 
BRANCH  21  22
ATOM     22  C   UNL     1      61.851  15.955  39.987  1.00  0.00     0.000 C 
BRANCH  22  23
ATOM     23  C   UNL     1      61.594  14.444  39.836  1.00  0.00     0.000 C 
BRANCH  23  24
ATOM     24  C   UNL     1      61.960  13.841  38.465  1.00  0.00    -0.000 C 
BRANCH  24  25
ATOM     25  C   UNL     1      61.937  14.872  37.324  1.00  0.00    -0.000 C 
BRANCH  25  26
ATOM     26  C   UNL     1      63.057  14.645  36.295  1.00  0.00    -0.000 C 
BRANCH  26  27
ATOM     27  C   UNL     1      64.061  15.816  36.206  1.00  0.00    -0.000 C 
BRANCH  27  28
ATOM     28  C   UNL     1      65.025  15.841  37.401  1.00  0.00    -0.000 C 
BRANCH  28  29
ATOM     29  C   UNL     1      65.937  17.072  37.345  1.00  0.00    -0.000 C 
BRANCH  29  30
ATOM     30  C   UNL     1      65.832  17.775  35.984  1.00  0.00    -0.000 C 
BRANCH  30  31
ATOM     31  C   UNL     1      67.166  18.389  35.534  1.00  0.00    -0.003 C 
ATOM     32  C   UNL     1      67.325  18.406  34.014  1.00  0.00     0.004 C 
ENDBRANCH  30  31
ENDBRANCH  29  30
ENDBRANCH  28  29
ENDBRANCH  27  28
ENDBRANCH  26  27
ENDBRANCH  25  26
ENDBRANCH  24  25
ENDBRANCH  23  24
ENDBRANCH  22  23
ENDBRANCH  21  22
ENDBRANCH  20  21
ENDBRANCH  19  20
ENDBRANCH  18  19
ENDBRANCH   1  18
TORSDOF 28
ENDMDL
MODEL 3
REMARK VINA RESULT:    -4.126      2.702      8.277
REMARK INTER + INTRA:         -16.719
REMARK INTER:                 -11.245
REMARK INTRA:                  -5.474
REMARK UNBOUND:                -5.838
REMARK SMILES CCCCCCCCCCCCCCCCCCCCCCCCCCCCCC(=O)[O-]
REMARK SMILES IDX 16 1 17 2 18 3 19 4 20 5 21 6 22 7 23 8 24 9 25 10 26 11
REMARK SMILES IDX 27 12 28 13 29 14 30 15 31 16 32 17 15 18 14 19 13 20 12 21
REMARK SMILES IDX 11 22 10 23 9 24 8 25 7 26 6 27 5 28 4 29 3 30 2 31 1 32
REMARK H PARENT
REMARK Flexibility Score: inf
ROOT
ATOM      1  C   UNL     1      62.369  14.590  39.790  1.00  0.00     0.000 C 
ENDROOT
BRANCH   1   2
ATOM      2  C   UNL     1      61.662  15.091  38.523  1.00  0.00     0.000 C 
BRANCH   2   3
ATOM      3  C   UNL     1      60.196  15.495  38.774  1.00  0.00     0.000 C 
BRANCH   3   4
ATOM      4  C   UNL     1      59.700  15.283  40.218  1.00  0.00     0.000 C 
BRANCH   4   5
ATOM      5  C   UNL     1      59.064  16.524  40.874  1.00  0.00     0.000 C 
BRANCH   5   6
ATOM      6  C   UNL     1      58.674  17.649  39.893  1.00  0.00     0.000 C 
BRANCH   6   7
ATOM      7  C   UNL     1      59.503  18.941  40.011  1.00  0.00     0.000 C 
BRANCH   7   8
ATOM      8  C   UNL     1      60.644  19.018  38.981  1.00  0.00     0.000 C 
BRANCH   8   9
ATOM      9  C   UNL     1      61.998  19.384  39.613  1.00  0.00     0.000 C 
BRANCH   9  10
ATOM     10  C   UNL     1      62.854  18.189  40.073  1.00  0.00     0.000 C 
BRANCH  10  11
ATOM     11  C   UNL     1      64.084  17.955  39.180  1.00  0.00     0.000 C 
BRANCH  11  12
ATOM     12  C   UNL     1      63.861  18.388  37.719  1.00  0.00     0.000 C 
BRANCH  12  13
ATOM     13  C   UNL     1      64.383  17.404  36.654  1.00  0.00     0.006 C 
BRANCH  13  14
ATOM     14  C   UNL     1      65.381  16.383  37.214  1.00  0.00     0.053 C 
BRANCH  14  15
ATOM     15  C   UNL     1      64.918  14.988  36.937  1.00  0.00     0.041 C 
ATOM     16  O   UNL     1      65.341  14.030  37.636  1.00  0.00    -0.550 OA
ATOM     17  O   UNL     1      64.048  14.739  35.881  1.00  0.00    -0.550 OA
ENDBRANCH  14  15
ENDBRANCH  13  14
ENDBRANCH  12  13
ENDBRANCH  11  12
ENDBRANCH  10  11
ENDBRANCH   9  10
ENDBRANCH   8   9
ENDBRANCH   7   8
ENDBRANCH   6   7
ENDBRANCH   5   6
ENDBRANCH   4   5
ENDBRANCH   3   4
ENDBRANCH   2   3
ENDBRANCH   1   2
BRANCH   1  18
ATOM     18  C   UNL     1      62.779  13.116  39.650  1.00  0.00     0.000 C 
BRANCH  18  19
ATOM     19  C   UNL     1      61.714  12.157  40.210  1.00  0.00     0.000 C 
BRANCH  19  20
ATOM     20  C   UNL     1      60.722  11.689  39.130  1.00  0.00     0.000 C 
BRANCH  20  21
ATOM     21  C   UNL     1      61.397  11.403  37.779  1.00  0.00     0.000 C 
BRANCH  21  22
ATOM     22  C   UNL     1      60.584  11.945  36.591  1.00  0.00     0.000 C 
BRANCH  22  23
ATOM     23  C   UNL     1      59.202  12.487  37.003  1.00  0.00     0.000 C 
BRANCH  23  24
ATOM     24  C   UNL     1      57.993  11.786  36.351  1.00  0.00    -0.000 C 
BRANCH  24  25
ATOM     25  C   UNL     1      58.061  10.253  36.440  1.00  0.00    -0.000 C 
BRANCH  25  26
ATOM     26  C   UNL     1      57.875   9.730  37.874  1.00  0.00    -0.000 C 
BRANCH  26  27
ATOM     27  C   UNL     1      58.598   8.391  38.142  1.00  0.00    -0.000 C 
BRANCH  27  28
ATOM     28  C   UNL     1      59.415   8.427  39.442  1.00  0.00    -0.000 C 
BRANCH  28  29
ATOM     29  C   UNL     1      60.644   7.516  39.342  1.00  0.00    -0.000 C 
BRANCH  29  30
ATOM     30  C   UNL     1      61.364   7.704  37.999  1.00  0.00    -0.000 C 
BRANCH  30  31
ATOM     31  C   UNL     1      62.829   8.129  38.169  1.00  0.00    -0.003 C 
ATOM     32  C   UNL     1      63.133   8.658  39.571  1.00  0.00     0.004 C 
ENDBRANCH  30  31
ENDBRANCH  29  30
ENDBRANCH  28  29
ENDBRANCH  27  28
ENDBRANCH  26  27
ENDBRANCH  25  26
ENDBRANCH  24  25
ENDBRANCH  23  24
ENDBRANCH  22  23
ENDBRANCH  21  22
ENDBRANCH  20  21
ENDBRANCH  19  20
ENDBRANCH  18  19
ENDBRANCH   1  18
TORSDOF 28
ENDMDL
MODEL 4
REMARK VINA RESULT:    -4.116      2.162      3.672
REMARK INTER + INTRA:         -16.693
REMARK INTER:                 -12.180
REMARK INTRA:                  -4.513
REMARK UNBOUND:                -5.838
REMARK SMILES CCCCCCCCCCCCCCCCCCCCCCCCCCCCCC(=O)[O-]
REMARK SMILES IDX 16 1 17 2 18 3 19 4 20 5 21 6 22 7 23 8 24 9 25 10 26 11
REMARK SMILES IDX 27 12 28 13 29 14 30 15 31 16 32 17 15 18 14 19 13 20 12 21
REMARK SMILES IDX 11 22 10 23 9 24 8 25 7 26 6 27 5 28 4 29 3 30 2 31 1 32
REMARK H PARENT
REMARK Flexibility Score: inf
ROOT
ATOM      1  C   UNL     1      61.059  14.055  37.082  1.00  0.00     0.000 C 
ENDROOT
BRANCH   1   2
ATOM      2  C   UNL     1      60.726  12.578  36.827  1.00  0.00     0.000 C 
BRANCH   2   3
ATOM      3  C   UNL     1      59.638  12.037  37.774  1.00  0.00     0.000 C 
BRANCH   3   4
ATOM      4  C   UNL     1      59.401  12.879  39.044  1.00  0.00     0.000 C 
BRANCH   4   5
ATOM      5  C   UNL     1      60.049  12.318  40.324  1.00  0.00     0.000 C 
BRANCH   5   6
ATOM      6  C   UNL     1      61.547  12.645  40.490  1.00  0.00     0.000 C 
BRANCH   6   7
ATOM      7  C   UNL     1      62.478  11.424  40.608  1.00  0.00     0.000 C 
BRANCH   7   8
ATOM      8  C   UNL     1      63.034  10.960  39.250  1.00  0.00     0.000 C 
BRANCH   8   9
ATOM      9  C   UNL     1      62.819   9.458  38.995  1.00  0.00     0.000 C 
BRANCH   9  10
ATOM     10  C   UNL     1      61.991   9.117  37.741  1.00  0.00     0.000 C 
BRANCH  10  11
ATOM     11  C   UNL     1      62.472   7.837  37.038  1.00  0.00     0.000 C 
BRANCH  11  12
ATOM     12  C   UNL     1      62.622   6.641  37.996  1.00  0.00     0.000 C 
BRANCH  12  13
ATOM     13  C   UNL     1      63.953   5.871  37.885  1.00  0.00     0.006 C 
BRANCH  13  14
ATOM     14  C   UNL     1      65.169   6.791  37.725  1.00  0.00     0.053 C 
BRANCH  14  15
ATOM     15  C   UNL     1      66.150   6.563  38.832  1.00  0.00     0.041 C 
ATOM     16  O   UNL     1      67.333   6.224  38.569  1.00  0.00    -0.550 OA
ATOM     17  O   UNL     1      65.748   6.689  40.156  1.00  0.00    -0.550 OA
ENDBRANCH  14  15
ENDBRANCH  13  14
ENDBRANCH  12  13
ENDBRANCH  11  12
ENDBRANCH  10  11
ENDBRANCH   9  10
ENDBRANCH   8   9
ENDBRANCH   7   8
ENDBRANCH   6   7
ENDBRANCH   5   6
ENDBRANCH   4   5
ENDBRANCH   3   4
ENDBRANCH   2   3
ENDBRANCH   1   2
BRANCH   1  18
ATOM     18  C   UNL     1      62.575  14.266  37.221  1.00  0.00     0.000 C 
BRANCH  18  19
ATOM     19  C   UNL     1      63.247  14.586  35.874  1.00  0.00     0.000 C 
BRANCH  19  20
ATOM     20  C   UNL     1      64.603  15.290  36.051  1.00  0.00     0.000 C 
BRANCH  20  21
ATOM     21  C   UNL     1      64.617  16.717  35.480  1.00  0.00     0.000 C 
BRANCH  21  22
ATOM     22  C   UNL     1      65.314  17.718  36.418  1.00  0.00     0.000 C 
BRANCH  22  23
ATOM     23  C   UNL     1      65.196  17.334  37.905  1.00  0.00     0.000 C 
BRANCH  23  24
ATOM     24  C   UNL     1      64.056  18.023  38.681  1.00  0.00    -0.000 C 
BRANCH  24  25
ATOM     25  C   UNL     1      64.134  17.798  40.201  1.00  0.00    -0.000 C 
BRANCH  25  26
ATOM     26  C   UNL     1      62.788  17.372  40.809  1.00  0.00    -0.000 C 
BRANCH  26  27
ATOM     27  C   UNL     1      62.065  16.272  40.001  1.00  0.00    -0.000 C 
BRANCH  27  28
ATOM     28  C   UNL     1      60.588  16.139  40.398  1.00  0.00    -0.000 C 
BRANCH  28  29
ATOM     29  C   UNL     1      59.672  16.717  39.312  1.00  0.00    -0.000 C 
BRANCH  29  30
ATOM     30  C   UNL     1      59.223  18.141  39.668  1.00  0.00    -0.000 C 
BRANCH  30  31
ATOM     31  C   UNL     1      60.183  19.213  39.133  1.00  0.00    -0.003 C 
ATOM     32  C   UNL     1      60.720  18.884  37.740  1.00  0.00     0.004 C 
ENDBRANCH  30  31
ENDBRANCH  29  30
ENDBRANCH  28  29
ENDBRANCH  27  28
ENDBRANCH  26  27
ENDBRANCH  25  26
ENDBRANCH  24  25
ENDBRANCH  23  24
ENDBRANCH  22  23
ENDBRANCH  21  22
ENDBRANCH  20  21
ENDBRANCH  19  20
ENDBRANCH  18  19
ENDBRANCH   1  18
TORSDOF 28
ENDMDL
MODEL 5
REMARK VINA RESULT:    -4.113      2.064      4.368
REMARK INTER + INTRA:         -16.684
REMARK INTER:                 -11.040
REMARK INTRA:                  -5.644
REMARK UNBOUND:                -5.838
REMARK SMILES CCCCCCCCCCCCCCCCCCCCCCCCCCCCCC(=O)[O-]
REMARK SMILES IDX 16 1 17 2 18 3 19 4 20 5 21 6 22 7 23 8 24 9 25 10 26 11
REMARK SMILES IDX 27 12 28 13 29 14 30 15 31 16 32 17 15 18 14 19 13 20 12 21
REMARK SMILES IDX 11 22 10 23 9 24 8 25 7 26 6 27 5 28 4 29 3 30 2 31 1 32
REMARK H PARENT
REMARK Flexibility Score: inf
ROOT
ATOM      1  C   UNL     1      63.568  13.713  39.727  1.00  0.00     0.000 C 
ENDROOT
BRANCH   1   2
ATOM      2  C   UNL     1      62.792  12.448  39.336  1.00  0.00     0.000 C 
BRANCH   2   3
ATOM      3  C   UNL     1      62.736  11.405  40.468  1.00  0.00     0.000 C 
BRANCH   3   4
ATOM      4  C   UNL     1      61.337  11.179  41.078  1.00  0.00     0.000 C 
BRANCH   4   5
ATOM      5  C   UNL     1      60.213  12.031  40.457  1.00  0.00     0.000 C 
BRANCH   5   6
ATOM      6  C   UNL     1      59.131  11.230  39.706  1.00  0.00     0.000 C 
BRANCH   6   7
ATOM      7  C   UNL     1      59.076  11.463  38.185  1.00  0.00     0.000 C 
BRANCH   7   8
ATOM      8  C   UNL     1      59.596  10.264  37.374  1.00  0.00     0.000 C 
BRANCH   8   9
ATOM      9  C   UNL     1      61.122  10.290  37.176  1.00  0.00     0.000 C 
BRANCH   9  10
ATOM     10  C   UNL     1      61.833   8.938  37.377  1.00  0.00     0.000 C 
BRANCH  10  11
ATOM     11  C   UNL     1      61.134   8.044  38.415  1.00  0.00     0.000 C 
BRANCH  11  12
ATOM     12  C   UNL     1      61.993   7.788  39.668  1.00  0.00     0.000 C 
BRANCH  12  13
ATOM     13  C   UNL     1      63.504   8.029  39.491  1.00  0.00     0.006 C 
BRANCH  13  14
ATOM     14  C   UNL     1      64.336   6.745  39.592  1.00  0.00     0.053 C 
BRANCH  14  15
ATOM     15  C   UNL     1      65.224   6.598  38.398  1.00  0.00     0.041 C 
ATOM     16  O   UNL     1      66.475   6.567  38.539  1.00  0.00    -0.550 OA
ATOM     17  O   UNL     1      64.674   6.534  37.123  1.00  0.00    -0.550 OA
ENDBRANCH  14  15
ENDBRANCH  13  14
ENDBRANCH  12  13
ENDBRANCH  11  12
ENDBRANCH  10  11
ENDBRANCH   9  10
ENDBRANCH   8   9
ENDBRANCH   7   8
ENDBRANCH   6   7
ENDBRANCH   5   6
ENDBRANCH   4   5
ENDBRANCH   3   4
ENDBRANCH   2   3
ENDBRANCH   1   2
BRANCH   1  18
ATOM     18  C   UNL     1      62.622  14.807  40.245  1.00  0.00     0.000 C 
BRANCH  18  19
ATOM     19  C   UNL     1      63.265  16.204  40.204  1.00  0.00     0.000 C 
BRANCH  19  20
ATOM     20  C   UNL     1      62.230  17.329  40.385  1.00  0.00     0.000 C 
BRANCH  20  21
ATOM     21  C   UNL     1      62.340  18.424  39.313  1.00  0.00     0.000 C 
BRANCH  21  22
ATOM     22  C   UNL     1      60.966  18.969  38.887  1.00  0.00     0.000 C 
BRANCH  22  23
ATOM     23  C   UNL     1      59.832  17.939  39.051  1.00  0.00     0.000 C 
BRANCH  23  24
ATOM     24  C   UNL     1      59.546  17.062  37.816  1.00  0.00    -0.000 C 
BRANCH  24  25
ATOM     25  C   UNL     1      59.423  15.566  38.150  1.00  0.00    -0.000 C 
BRANCH  25  26
ATOM     26  C   UNL     1      60.452  14.703  37.401  1.00  0.00    -0.000 C 
BRANCH  26  27
ATOM     27  C   UNL     1      61.731  15.472  37.003  1.00  0.00    -0.000 C 
BRANCH  27  28
ATOM     28  C   UNL     1      62.756  14.566  36.305  1.00  0.00    -0.000 C 
BRANCH  28  29
ATOM     29  C   UNL     1      64.003  15.360  35.898  1.00  0.00    -0.000 C 
BRANCH  29  30
ATOM     30  C   UNL     1      65.027  15.403  37.041  1.00  0.00    -0.000 C 
BRANCH  30  31
ATOM     31  C   UNL     1      65.429  16.836  37.419  1.00  0.00    -0.003 C 
ATOM     32  C   UNL     1      64.981  17.868  36.384  1.00  0.00     0.004 C 
ENDBRANCH  30  31
ENDBRANCH  29  30
ENDBRANCH  28  29
ENDBRANCH  27  28
ENDBRANCH  26  27
ENDBRANCH  25  26
ENDBRANCH  24  25
ENDBRANCH  23  24
ENDBRANCH  22  23
ENDBRANCH  21  22
ENDBRANCH  20  21
ENDBRANCH  19  20
ENDBRANCH  18  19
ENDBRANCH   1  18
TORSDOF 28
ENDMDL
MODEL 6
REMARK VINA RESULT:    -4.108      2.245      2.457
REMARK INTER + INTRA:         -16.670
REMARK INTER:                 -11.892
REMARK INTRA:                  -4.778
REMARK UNBOUND:                -5.838
REMARK SMILES CCCCCCCCCCCCCCCCCCCCCCCCCCCCCC(=O)[O-]
REMARK SMILES IDX 16 1 17 2 18 3 19 4 20 5 21 6 22 7 23 8 24 9 25 10 26 11
REMARK SMILES IDX 27 12 28 13 29 14 30 15 31 16 32 17 15 18 14 19 13 20 12 21
REMARK SMILES IDX 11 22 10 23 9 24 8 25 7 26 6 27 5 28 4 29 3 30 2 31 1 32
REMARK H PARENT
REMARK Flexibility Score: inf
ROOT
ATOM      1  C   UNL     1      59.553  13.313  37.247  1.00  0.00     0.000 C 
ENDROOT
BRANCH   1   2
ATOM      2  C   UNL     1      60.906  12.666  36.917  1.00  0.00     0.000 C 
BRANCH   2   3
ATOM      3  C   UNL     1      60.828  11.131  36.815  1.00  0.00     0.000 C 
BRANCH   3   4
ATOM      4  C   UNL     1      59.423  10.534  37.033  1.00  0.00     0.000 C 
BRANCH   4   5
ATOM      5  C   UNL     1      59.275   9.669  38.299  1.00  0.00     0.000 C 
BRANCH   5   6
ATOM      6  C   UNL     1      59.126  10.462  39.613  1.00  0.00     0.000 C 
BRANCH   6   7
ATOM      7  C   UNL     1      60.236  10.224  40.654  1.00  0.00     0.000 C 
BRANCH   7   8
ATOM      8  C   UNL     1      61.361  11.271  40.583  1.00  0.00     0.000 C 
BRANCH   8   9
ATOM      9  C   UNL     1      62.644  10.730  39.928  1.00  0.00     0.000 C 
BRANCH   9  10
ATOM     10  C   UNL     1      62.683   9.204  39.721  1.00  0.00     0.000 C 
BRANCH  10  11
ATOM     11  C   UNL     1      63.059   8.805  38.284  1.00  0.00     0.000 C 
BRANCH  11  12
ATOM     12  C   UNL     1      63.509   7.338  38.162  1.00  0.00     0.000 C 
BRANCH  12  13
ATOM     13  C   UNL     1      64.502   6.862  39.240  1.00  0.00     0.006 C 
BRANCH  13  14
ATOM     14  C   UNL     1      65.370   5.684  38.782  1.00  0.00     0.053 C 
BRANCH  14  15
ATOM     15  C   UNL     1      66.595   6.175  38.078  1.00  0.00     0.041 C 
ATOM     16  O   UNL     1      67.737   5.915  38.539  1.00  0.00    -0.550 OA
ATOM     17  O   UNL     1      66.476   6.953  36.932  1.00  0.00    -0.550 OA
ENDBRANCH  14  15
ENDBRANCH  13  14
ENDBRANCH  12  13
ENDBRANCH  11  12
ENDBRANCH  10  11
ENDBRANCH   9  10
ENDBRANCH   8   9
ENDBRANCH   7   8
ENDBRANCH   6   7
ENDBRANCH   5   6
ENDBRANCH   4   5
ENDBRANCH   3   4
ENDBRANCH   2   3
ENDBRANCH   1   2
BRANCH   1  18
ATOM     18  C   UNL     1      59.599  14.037  38.601  1.00  0.00     0.000 C 
BRANCH  18  19
ATOM     19  C   UNL     1      60.776  15.023  38.697  1.00  0.00     0.000 C 
BRANCH  19  20
ATOM     20  C   UNL     1      61.620  14.804  39.966  1.00  0.00     0.000 C 
BRANCH  20  21
ATOM     21  C   UNL     1      63.115  15.086  39.747  1.00  0.00     0.000 C 
BRANCH  21  22
ATOM     22  C   UNL     1      63.830  13.929  39.028  1.00  0.00     0.000 C 
BRANCH  22  23
ATOM     23  C   UNL     1      64.586  14.380  37.764  1.00  0.00     0.000 C 
BRANCH  23  24
ATOM     24  C   UNL     1      63.722  15.049  36.677  1.00  0.00    -0.000 C 
BRANCH  24  25
ATOM     25  C   UNL     1      64.552  15.703  35.560  1.00  0.00    -0.000 C 
BRANCH  25  26
ATOM     26  C   UNL     1      64.484  17.240  35.590  1.00  0.00    -0.000 C 
BRANCH  26  27
ATOM     27  C   UNL     1      64.873  17.849  36.955  1.00  0.00    -0.000 C 
BRANCH  27  28
ATOM     28  C   UNL     1      63.682  18.529  37.644  1.00  0.00    -0.000 C 
BRANCH  28  29
ATOM     29  C   UNL     1      63.778  18.393  39.169  1.00  0.00    -0.000 C 
BRANCH  29  30
ATOM     30  C   UNL     1      62.509  18.925  39.852  1.00  0.00    -0.000 C 
BRANCH  30  31
ATOM     31  C   UNL     1      61.281  18.876  38.932  1.00  0.00    -0.003 C 
ATOM     32  C   UNL     1      59.972  18.702  39.703  1.00  0.00     0.004 C 
ENDBRANCH  30  31
ENDBRANCH  29  30
ENDBRANCH  28  29
ENDBRANCH  27  28
ENDBRANCH  26  27
ENDBRANCH  25  26
ENDBRANCH  24  25
ENDBRANCH  23  24
ENDBRANCH  22  23
ENDBRANCH  21  22
ENDBRANCH  20  21
ENDBRANCH  19  20
ENDBRANCH  18  19
ENDBRANCH   1  18
TORSDOF 28
ENDMDL
MODEL 7
REMARK VINA RESULT:    -4.108     10.010     12.962
REMARK INTER + INTRA:         -16.670
REMARK INTER:                 -13.560
REMARK INTRA:                  -3.109
REMARK UNBOUND:                -5.838
REMARK SMILES CCCCCCCCCCCCCCCCCCCCCCCCCCCCCC(=O)[O-]
REMARK SMILES IDX 16 1 17 2 18 3 19 4 20 5 21 6 22 7 23 8 24 9 25 10 26 11
REMARK SMILES IDX 27 12 28 13 29 14 30 15 31 16 32 17 15 18 14 19 13 20 12 21
REMARK SMILES IDX 11 22 10 23 9 24 8 25 7 26 6 27 5 28 4 29 3 30 2 31 1 32
REMARK H PARENT
REMARK Flexibility Score: inf
ROOT
ATOM      1  C   UNL     1      71.307  11.298  32.144  1.00  0.00     0.000 C 
ENDROOT
BRANCH   1   2
ATOM      2  C   UNL     1      69.804  11.361  31.838  1.00  0.00     0.000 C 
BRANCH   2   3
ATOM      3  C   UNL     1      68.930  11.006  33.056  1.00  0.00     0.000 C 
BRANCH   3   4
ATOM      4  C   UNL     1      67.997   9.794  32.858  1.00  0.00     0.000 C 
BRANCH   4   5
ATOM      5  C   UNL     1      68.389   8.536  33.655  1.00  0.00     0.000 C 
BRANCH   5   6
ATOM      6  C   UNL     1      68.188   7.203  32.906  1.00  0.00     0.000 C 
BRANCH   6   7
ATOM      7  C   UNL     1      67.542   6.075  33.730  1.00  0.00     0.000 C 
BRANCH   7   8
ATOM      8  C   UNL     1      68.329   5.739  35.008  1.00  0.00     0.000 C 
BRANCH   8   9
ATOM      9  C   UNL     1      67.432   5.224  36.148  1.00  0.00     0.000 C 
BRANCH   9  10
ATOM     10  C   UNL     1      68.173   4.826  37.439  1.00  0.00     0.000 C 
BRANCH  10  11
ATOM     11  C   UNL     1      67.697   5.617  38.669  1.00  0.00     0.000 C 
BRANCH  11  12
ATOM     12  C   UNL     1      66.491   6.528  38.373  1.00  0.00     0.000 C 
BRANCH  12  13
ATOM     13  C   UNL     1      65.130   5.998  38.862  1.00  0.00     0.006 C 
BRANCH  13  14
ATOM     14  C   UNL     1      64.364   7.008  39.725  1.00  0.00     0.053 C 
BRANCH  14  15
ATOM     15  C   UNL     1      63.317   7.705  38.916  1.00  0.00     0.041 C 
ATOM     16  O   UNL     1      63.266   8.963  38.893  1.00  0.00    -0.550 OA
ATOM     17  O   UNL     1      62.372   6.965  38.215  1.00  0.00    -0.550 OA
ENDBRANCH  14  15
ENDBRANCH  13  14
ENDBRANCH  12  13
ENDBRANCH  11  12
ENDBRANCH  10  11
ENDBRANCH   9  10
ENDBRANCH   8   9
ENDBRANCH   7   8
ENDBRANCH   6   7
ENDBRANCH   5   6
ENDBRANCH   4   5
ENDBRANCH   3   4
ENDBRANCH   2   3
ENDBRANCH   1   2
BRANCH   1  18
ATOM     18  C   UNL     1      71.816   9.849  32.133  1.00  0.00     0.000 C 
BRANCH  18  19
ATOM     19  C   UNL     1      72.398   9.423  33.491  1.00  0.00     0.000 C 
BRANCH  19  20
ATOM     20  C   UNL     1      72.062   7.961  33.839  1.00  0.00     0.000 C 
BRANCH  20  21
ATOM     21  C   UNL     1      71.641   7.135  32.614  1.00  0.00     0.000 C 
BRANCH  21  22
ATOM     22  C   UNL     1      72.161   5.688  32.675  1.00  0.00     0.000 C 
BRANCH  22  23
ATOM     23  C   UNL     1      73.484   5.555  33.453  1.00  0.00     0.000 C 
BRANCH  23  24
ATOM     24  C   UNL     1      74.754   5.430  32.587  1.00  0.00    -0.000 C 
BRANCH  24  25
ATOM     25  C   UNL     1      75.356   6.789  32.195  1.00  0.00    -0.000 C 
BRANCH  25  26
ATOM     26  C   UNL     1      75.144   7.128  30.710  1.00  0.00    -0.000 C 
BRANCH  26  27
ATOM     27  C   UNL     1      75.056   8.644  30.429  1.00  0.00    -0.000 C 
BRANCH  27  28
ATOM     28  C   UNL     1      75.923   9.062  29.233  1.00  0.00    -0.000 C 
BRANCH  28  29
ATOM     29  C   UNL     1      76.653  10.380  29.517  1.00  0.00    -0.000 C 
BRANCH  29  30
ATOM     30  C   UNL     1      77.415  10.868  28.276  1.00  0.00    -0.000 C 
BRANCH  30  31
ATOM     31  C   UNL     1      77.815   9.718  27.340  1.00  0.00    -0.003 C 
ATOM     32  C   UNL     1      77.080   9.764  26.000  1.00  0.00     0.004 C 
ENDBRANCH  30  31
ENDBRANCH  29  30
ENDBRANCH  28  29
ENDBRANCH  27  28
ENDBRANCH  26  27
ENDBRANCH  25  26
ENDBRANCH  24  25
ENDBRANCH  23  24
ENDBRANCH  22  23
ENDBRANCH  21  22
ENDBRANCH  20  21
ENDBRANCH  19  20
ENDBRANCH  18  19
ENDBRANCH   1  18
TORSDOF 28
ENDMDL
MODEL 8
REMARK VINA RESULT:    -4.104      3.428      8.553
REMARK INTER + INTRA:         -16.659
REMARK INTER:                 -11.255
REMARK INTRA:                  -5.404
REMARK UNBOUND:                -5.838
REMARK SMILES CCCCCCCCCCCCCCCCCCCCCCCCCCCCCC(=O)[O-]
REMARK SMILES IDX 16 1 17 2 18 3 19 4 20 5 21 6 22 7 23 8 24 9 25 10 26 11
REMARK SMILES IDX 27 12 28 13 29 14 30 15 31 16 32 17 15 18 14 19 13 20 12 21
REMARK SMILES IDX 11 22 10 23 9 24 8 25 7 26 6 27 5 28 4 29 3 30 2 31 1 32
REMARK H PARENT
REMARK Flexibility Score: inf
ROOT
ATOM      1  C   UNL     1      63.633  14.942  40.013  1.00  0.00     0.000 C 
ENDROOT
BRANCH   1   2
ATOM      2  C   UNL     1      62.643  16.114  40.067  1.00  0.00     0.000 C 
BRANCH   2   3
ATOM      3  C   UNL     1      63.205  17.339  40.814  1.00  0.00     0.000 C 
BRANCH   3   4
ATOM      4  C   UNL     1      63.091  18.675  40.052  1.00  0.00     0.000 C 
BRANCH   4   5
ATOM      5  C   UNL     1      61.980  18.722  38.986  1.00  0.00     0.000 C 
BRANCH   5   6
ATOM      6  C   UNL     1      60.579  19.075  39.525  1.00  0.00     0.000 C 
BRANCH   6   7
ATOM      7  C   UNL     1      59.481  18.035  39.236  1.00  0.00     0.000 C 
BRANCH   7   8
ATOM      8  C   UNL     1      59.631  17.371  37.857  1.00  0.00     0.000 C 
BRANCH   8   9
ATOM      9  C   UNL     1      59.237  15.884  37.860  1.00  0.00     0.000 C 
BRANCH   9  10
ATOM     10  C   UNL     1      60.250  14.934  37.193  1.00  0.00     0.000 C 
BRANCH  10  11
ATOM     11  C   UNL     1      61.629  15.582  36.986  1.00  0.00     0.000 C 
BRANCH  11  12
ATOM     12  C   UNL     1      62.666  14.618  36.381  1.00  0.00     0.000 C 
BRANCH  12  13
ATOM     13  C   UNL     1      64.103  15.168  36.291  1.00  0.00     0.006 C 
BRANCH  13  14
ATOM     14  C   UNL     1      64.162  16.626  35.819  1.00  0.00     0.053 C 
BRANCH  14  15
ATOM     15  C   UNL     1      65.310  17.340  36.460  1.00  0.00     0.041 C 
ATOM     16  O   UNL     1      66.144  17.961  35.750  1.00  0.00    -0.550 OA
ATOM     17  O   UNL     1      65.480  17.290  37.838  1.00  0.00    -0.550 OA
ENDBRANCH  14  15
ENDBRANCH  13  14
ENDBRANCH  12  13
ENDBRANCH  11  12
ENDBRANCH  10  11
ENDBRANCH   9  10
ENDBRANCH   8   9
ENDBRANCH   7   8
ENDBRANCH   6   7
ENDBRANCH   5   6
ENDBRANCH   4   5
ENDBRANCH   3   4
ENDBRANCH   2   3
ENDBRANCH   1   2
BRANCH   1  18
ATOM     18  C   UNL     1      62.900  13.605  39.827  1.00  0.00     0.000 C 
BRANCH  18  19
ATOM     19  C   UNL     1      61.418  13.689  40.229  1.00  0.00     0.000 C 
BRANCH  19  20
ATOM     20  C   UNL     1      60.898  12.370  40.829  1.00  0.00     0.000 C 
BRANCH  20  21
ATOM     21  C   UNL     1      61.987  11.291  40.937  1.00  0.00     0.000 C 
BRANCH  21  22
ATOM     22  C   UNL     1      61.664  10.045  40.094  1.00  0.00     0.000 C 
BRANCH  22  23
ATOM     23  C   UNL     1      62.374  10.040  38.727  1.00  0.00     0.000 C 
BRANCH  23  24
ATOM     24  C   UNL     1      61.451   9.908  37.500  1.00  0.00    -0.000 C 
BRANCH  24  25
ATOM     25  C   UNL     1      60.819  11.243  37.071  1.00  0.00    -0.000 C 
BRANCH  25  26
ATOM     26  C   UNL     1      59.353  11.378  37.518  1.00  0.00    -0.000 C 
BRANCH  26  27
ATOM     27  C   UNL     1      58.484  10.151  37.165  1.00  0.00    -0.000 C 
BRANCH  27  28
ATOM     28  C   UNL     1      57.998   9.408  38.417  1.00  0.00    -0.000 C 
BRANCH  28  29
ATOM     29  C   UNL     1      58.447   7.942  38.396  1.00  0.00    -0.000 C 
BRANCH  29  30
ATOM     30  C   UNL     1      58.958   7.501  39.775  1.00  0.00    -0.000 C 
BRANCH  30  31
ATOM     31  C   UNL     1      60.273   6.713  39.693  1.00  0.00    -0.003 C 
ATOM     32  C   UNL     1      60.678   6.386  38.256  1.00  0.00     0.004 C 
ENDBRANCH  30  31
ENDBRANCH  29  30
ENDBRANCH  28  29
ENDBRANCH  27  28
ENDBRANCH  26  27
ENDBRANCH  25  26
ENDBRANCH  24  25
ENDBRANCH  23  24
ENDBRANCH  22  23
ENDBRANCH  21  22
ENDBRANCH  20  21
ENDBRANCH  19  20
ENDBRANCH  18  19
ENDBRANCH   1  18
TORSDOF 28
ENDMDL
MODEL 9
REMARK VINA RESULT:    -3.989      3.107      8.653
REMARK INTER + INTRA:         -16.358
REMARK INTER:                 -10.768
REMARK INTRA:                  -5.589
REMARK UNBOUND:                -5.838
REMARK SMILES CCCCCCCCCCCCCCCCCCCCCCCCCCCCCC(=O)[O-]
REMARK SMILES IDX 16 1 17 2 18 3 19 4 20 5 21 6 22 7 23 8 24 9 25 10 26 11
REMARK SMILES IDX 27 12 28 13 29 14 30 15 31 16 32 17 15 18 14 19 13 20 12 21
REMARK SMILES IDX 11 22 10 23 9 24 8 25 7 26 6 27 5 28 4 29 3 30 2 31 1 32
REMARK H PARENT
REMARK Flexibility Score: inf
ROOT
ATOM      1  C   UNL     1      63.493  14.325  39.633  1.00  0.00     0.000 C 
ENDROOT
BRANCH   1   2
ATOM      2  C   UNL     1      62.097  14.962  39.590  1.00  0.00     0.000 C 
BRANCH   2   3
ATOM      3  C   UNL     1      61.609  15.242  38.156  1.00  0.00     0.000 C 
BRANCH   3   4
ATOM      4  C   UNL     1      60.170  14.776  37.854  1.00  0.00     0.000 C 
BRANCH   4   5
ATOM      5  C   UNL     1      59.256  14.651  39.088  1.00  0.00     0.000 C 
BRANCH   5   6
ATOM      6  C   UNL     1      58.410  15.902  39.398  1.00  0.00     0.000 C 
BRANCH   6   7
ATOM      7  C   UNL     1      58.779  16.641  40.697  1.00  0.00     0.000 C 
BRANCH   7   8
ATOM      8  C   UNL     1      59.864  17.713  40.491  1.00  0.00     0.000 C 
BRANCH   8   9
ATOM      9  C   UNL     1      59.790  18.384  39.108  1.00  0.00     0.000 C 
BRANCH   9  10
ATOM     10  C   UNL     1      61.136  18.875  38.543  1.00  0.00     0.000 C 
BRANCH  10  11
ATOM     11  C   UNL     1      62.202  19.080  39.633  1.00  0.00     0.000 C 
BRANCH  11  12
ATOM     12  C   UNL     1      63.499  18.294  39.366  1.00  0.00     0.000 C 
BRANCH  12  13
ATOM     13  C   UNL     1      63.921  18.204  37.887  1.00  0.00     0.006 C 
BRANCH  13  14
ATOM     14  C   UNL     1      64.965  17.113  37.623  1.00  0.00     0.053 C 
BRANCH  14  15
ATOM     15  C   UNL     1      64.640  16.366  36.368  1.00  0.00     0.041 C 
ATOM     16  O   UNL     1      64.341  16.993  35.318  1.00  0.00    -0.550 OA
ATOM     17  O   UNL     1      64.631  14.976  36.367  1.00  0.00    -0.550 OA
ENDBRANCH  14  15
ENDBRANCH  13  14
ENDBRANCH  12  13
ENDBRANCH  11  12
ENDBRANCH  10  11
ENDBRANCH   9  10
ENDBRANCH   8   9
ENDBRANCH   7   8
ENDBRANCH   6   7
ENDBRANCH   5   6
ENDBRANCH   4   5
ENDBRANCH   3   4
ENDBRANCH   2   3
ENDBRANCH   1   2
BRANCH   1  18
ATOM     18  C   UNL     1      63.437  12.838  39.252  1.00  0.00     0.000 C 
BRANCH  18  19
ATOM     19  C   UNL     1      62.468  12.042  40.143  1.00  0.00     0.000 C 
BRANCH  19  20
ATOM     20  C   UNL     1      61.295  11.446  39.345  1.00  0.00     0.000 C 
BRANCH  20  21
ATOM     21  C   UNL     1      61.522  11.483  37.826  1.00  0.00     0.000 C 
BRANCH  21  22
ATOM     22  C   UNL     1      60.509  10.615  37.060  1.00  0.00     0.000 C 
BRANCH  22  23
ATOM     23  C   UNL     1      59.062  10.795  37.556  1.00  0.00     0.000 C 
BRANCH  23  24
ATOM     24  C   UNL     1      58.252   9.494  37.728  1.00  0.00    -0.000 C 
BRANCH  24  25
ATOM     25  C   UNL     1      58.042   9.101  39.200  1.00  0.00    -0.000 C 
BRANCH  25  26
ATOM     26  C   UNL     1      59.266   8.394  39.807  1.00  0.00    -0.000 C 
BRANCH  26  27
ATOM     27  C   UNL     1      59.747   7.177  38.986  1.00  0.00    -0.000 C 
BRANCH  27  28
ATOM     28  C   UNL     1      61.215   7.315  38.557  1.00  0.00    -0.000 C 
BRANCH  28  29
ATOM     29  C   UNL     1      62.035   8.046  39.627  1.00  0.00    -0.000 C 
BRANCH  29  30
ATOM     30  C   UNL     1      63.490   8.234  39.174  1.00  0.00    -0.000 C 
BRANCH  30  31
ATOM     31  C   UNL     1      64.239   6.902  39.030  1.00  0.00    -0.003 C 
ATOM     32  C   UNL     1      65.415   6.776  39.999  1.00  0.00     0.004 C 
ENDBRANCH  30  31
ENDBRANCH  29  30
ENDBRANCH  28  29
ENDBRANCH  27  28
ENDBRANCH  26  27
ENDBRANCH  25  26
ENDBRANCH  24  25
ENDBRANCH  23  24
ENDBRANCH  22  23
ENDBRANCH  21  22
ENDBRANCH  20  21
ENDBRANCH  19  20
ENDBRANCH  18  19
ENDBRANCH   1  18
TORSDOF 28
ENDMDL
