MODEL 1
REMARK VINA RESULT:    -5.331      0.000      0.000
REMARK INTER + INTRA:          -5.487
REMARK INTER:                  -5.487
REMARK INTRA:                   0.000
REMARK UNBOUND:                 0.000
REMARK SMILES O=c1ccc2ccc(O)cc2o1
REMARK SMILES IDX 6 1 7 2 8 3 10 4 11 5 5 6 4 7 3 8 2 9 1 10 12 11 9 12
REMARK H PARENT 9 13
REMARK Flexibility Score: inf
ROOT
ATOM      1  C   UNL     1      20.551  22.652  40.179  1.00  0.00     0.016 A 
ATOM      2  C   UNL     1      20.643  21.422  39.520  1.00  0.00     0.047 A 
ATOM      3  C   UNL     1      20.248  21.305  38.182  1.00  0.00     0.119 A 
ATOM      4  C   UNL     1      19.757  22.426  37.497  1.00  0.00     0.094 A 
ATOM      5  C   UNL     1      19.661  23.661  38.148  1.00  0.00     0.142 A 
ATOM      6  C   UNL     1      20.061  23.774  39.498  1.00  0.00     0.018 A 
ATOM      7  C   UNL     1      19.953  25.021  40.123  1.00  0.00     0.019 A 
ATOM      8  C   UNL     1      19.459  26.107  39.401  1.00  0.00     0.094 A 
ATOM      9  C   UNL     1      19.082  25.920  38.066  1.00  0.00     0.336 A 
ATOM     10  O   UNL     1      18.634  26.889  37.398  1.00  0.00    -0.246 OA
ATOM     11  O   UNL     1      19.195  24.723  37.496  1.00  0.00    -0.423 OA
ENDROOT
BRANCH   3  12
ATOM     12  O   UNL     1      20.348  20.071  37.542  1.00  0.00    -0.508 OA
ATOM     13  H   UNL     1      21.092  19.420  37.760  1.00  0.00     0.293 HD
ENDBRANCH   3  12
TORSDOF 1
ENDMDL
MODEL 2
REMARK VINA RESULT:    -5.128      1.879      4.876
REMARK INTER + INTRA:          -5.277
REMARK INTER:                  -5.277
REMARK INTRA:                   0.000
REMARK UNBOUND:                 0.000
REMARK SMILES O=c1ccc2ccc(O)cc2o1
REMARK SMILES IDX 6 1 7 2 8 3 10 4 11 5 5 6 4 7 3 8 2 9 1 10 12 11 9 12
REMARK H PARENT 9 13
REMARK Flexibility Score: inf
ROOT
ATOM      1  C   UNL     1      19.188  25.278  37.992  1.00  0.00     0.016 A 
ATOM      2  C   UNL     1      19.205  26.520  38.634  1.00  0.00     0.047 A 
ATOM      3  C   UNL     1      19.720  26.639  39.931  1.00  0.00     0.119 A 
ATOM      4  C   UNL     1      20.221  25.507  40.591  1.00  0.00     0.094 A 
ATOM      5  C   UNL     1      20.207  24.259  39.957  1.00  0.00     0.142 A 
ATOM      6  C   UNL     1      19.687  24.145  38.648  1.00  0.00     0.018 A 
ATOM      7  C   UNL     1      19.687  22.885  38.039  1.00  0.00     0.019 A 
ATOM      8  C   UNL     1      20.195  21.789  38.735  1.00  0.00     0.094 A 
ATOM      9  C   UNL     1      20.694  21.979  40.029  1.00  0.00     0.336 A 
ATOM     10  O   UNL     1      21.158  21.001  40.673  1.00  0.00    -0.246 OA
ATOM     11  O   UNL     1      20.683  23.188  40.585  1.00  0.00    -0.423 OA
ENDROOT
BRANCH   3  12
ATOM     12  O   UNL     1      19.729  27.884  40.555  1.00  0.00    -0.508 OA
ATOM     13  H   UNL     1      20.541  28.488  40.520  1.00  0.00     0.293 HD
ENDBRANCH   3  12
TORSDOF 1
ENDMDL
MODEL 3
REMARK VINA RESULT:    -4.962      0.879      4.227
REMARK INTER + INTRA:          -5.107
REMARK INTER:                  -5.107
REMARK INTRA:                   0.000
REMARK UNBOUND:                 0.000
REMARK SMILES O=c1ccc2ccc(O)cc2o1
REMARK SMILES IDX 6 1 7 2 8 3 10 4 11 5 5 6 4 7 3 8 2 9 1 10 12 11 9 12
REMARK H PARENT 9 13
REMARK Flexibility Score: inf
ROOT
ATOM      1  C   UNL     1      19.826  25.444  39.823  1.00  0.00     0.016 A 
ATOM      2  C   UNL     1      19.331  26.430  38.963  1.00  0.00     0.047 A 
ATOM      3  C   UNL     1      18.975  26.108  37.647  1.00  0.00     0.119 A 
ATOM      4  C   UNL     1      19.114  24.790  37.188  1.00  0.00     0.094 A 
ATOM      5  C   UNL     1      19.607  23.796  38.041  1.00  0.00     0.142 A 
ATOM      6  C   UNL     1      19.966  24.126  39.367  1.00  0.00     0.018 A 
ATOM      7  C   UNL     1      20.456  23.112  40.197  1.00  0.00     0.019 A 
ATOM      8  C   UNL     1      20.577  21.816  39.695  1.00  0.00     0.094 A 
ATOM      9  C   UNL     1      20.202  21.564  38.371  1.00  0.00     0.336 A 
ATOM     10  O   UNL     1      20.303  20.400  37.900  1.00  0.00    -0.246 OA
ATOM     11  O   UNL     1      19.738  22.547  37.603  1.00  0.00    -0.423 OA
ENDROOT
BRANCH   3  12
ATOM     12  O   UNL     1      18.484  27.103  36.806  1.00  0.00    -0.508 OA
ATOM     13  H   UNL     1      19.080  27.847  36.462  1.00  0.00     0.293 HD
ENDBRANCH   3  12
TORSDOF 1
ENDMDL
MODEL 4
REMARK VINA RESULT:    -4.822      1.845      2.545
REMARK INTER + INTRA:          -4.963
REMARK INTER:                  -4.963
REMARK INTRA:                   0.000
REMARK UNBOUND:                 0.000
REMARK SMILES O=c1ccc2ccc(O)cc2o1
REMARK SMILES IDX 6 1 7 2 8 3 10 4 11 5 5 6 4 7 3 8 2 9 1 10 12 11 9 12
REMARK H PARENT 9 13
REMARK Flexibility Score: inf
ROOT
ATOM      1  C   UNL     1      19.414  24.035  37.123  1.00  0.00     0.016 A 
ATOM      2  C   UNL     1      19.784  22.695  36.971  1.00  0.00     0.047 A 
ATOM      3  C   UNL     1      20.182  21.940  38.081  1.00  0.00     0.119 A 
ATOM      4  C   UNL     1      20.209  22.530  39.354  1.00  0.00     0.094 A 
ATOM      5  C   UNL     1      19.840  23.869  39.517  1.00  0.00     0.142 A 
ATOM      6  C   UNL     1      19.439  24.627  38.393  1.00  0.00     0.018 A 
ATOM      7  C   UNL     1      19.076  25.964  38.586  1.00  0.00     0.019 A 
ATOM      8  C   UNL     1      19.119  26.506  39.871  1.00  0.00     0.094 A 
ATOM      9  C   UNL     1      19.526  25.695  40.936  1.00  0.00     0.336 A 
ATOM     10  O   UNL     1      19.570  26.166  42.103  1.00  0.00    -0.246 OA
ATOM     11  O   UNL     1      19.866  24.426  40.724  1.00  0.00    -0.423 OA
ENDROOT
BRANCH   3  12
ATOM     12  O   UNL     1      20.547  20.607  37.909  1.00  0.00    -0.508 OA
ATOM     13  H   UNL     1      21.512  20.309  37.986  1.00  0.00     0.293 HD
ENDBRANCH   3  12
TORSDOF 1
ENDMDL
MODEL 5
REMARK VINA RESULT:    -4.780      6.016      7.907
REMARK INTER + INTRA:          -4.920
REMARK INTER:                  -4.920
REMARK INTRA:                   0.000
REMARK UNBOUND:                 0.000
REMARK SMILES O=c1ccc2ccc(O)cc2o1
REMARK SMILES IDX 6 1 7 2 8 3 10 4 11 5 5 6 4 7 3 8 2 9 1 10 12 11 9 12
REMARK H PARENT 9 13
REMARK Flexibility Score: inf
ROOT
ATOM      1  C   UNL     1      16.451  26.153  46.150  1.00  0.00     0.016 A 
ATOM      2  C   UNL     1      16.906  27.420  46.531  1.00  0.00     0.047 A 
ATOM      3  C   UNL     1      17.883  28.078  45.774  1.00  0.00     0.119 A 
ATOM      4  C   UNL     1      18.409  27.466  44.627  1.00  0.00     0.094 A 
ATOM      5  C   UNL     1      17.960  26.199  44.237  1.00  0.00     0.142 A 
ATOM      6  C   UNL     1      16.975  25.538  45.004  1.00  0.00     0.018 A 
ATOM      7  C   UNL     1      16.546  24.273  44.591  1.00  0.00     0.019 A 
ATOM      8  C   UNL     1      17.098  23.705  43.443  1.00  0.00     0.094 A 
ATOM      9  C   UNL     1      18.071  24.418  42.734  1.00  0.00     0.336 A 
ATOM     10  O   UNL     1      18.581  23.922  41.695  1.00  0.00    -0.246 OA
ATOM     11  O   UNL     1      18.461  25.621  43.149  1.00  0.00    -0.423 OA
ENDROOT
BRANCH   3  12
ATOM     12  O   UNL     1      18.323  29.339  46.170  1.00  0.00    -0.508 OA
ATOM     13  H   UNL     1      18.877  29.923  45.555  1.00  0.00     0.293 HD
ENDBRANCH   3  12
TORSDOF 1
ENDMDL
MODEL 6
REMARK VINA RESULT:    -4.661      5.102      6.743
REMARK INTER + INTRA:          -4.797
REMARK INTER:                  -4.797
REMARK INTRA:                   0.000
REMARK UNBOUND:                 0.000
REMARK SMILES O=c1ccc2ccc(O)cc2o1
REMARK SMILES IDX 6 1 7 2 8 3 10 4 11 5 5 6 4 7 3 8 2 9 1 10 12 11 9 12
REMARK H PARENT 9 13
REMARK Flexibility Score: inf
ROOT
ATOM      1  C   UNL     1      16.720  25.983  43.066  1.00  0.00     0.016 A 
ATOM      2  C   UNL     1      16.415  25.980  44.431  1.00  0.00     0.047 A 
ATOM      3  C   UNL     1      17.381  26.356  45.373  1.00  0.00     0.119 A 
ATOM      4  C   UNL     1      18.662  26.737  44.947  1.00  0.00     0.094 A 
ATOM      5  C   UNL     1      18.977  26.743  43.584  1.00  0.00     0.142 A 
ATOM      6  C   UNL     1      18.000  26.364  42.637  1.00  0.00     0.018 A 
ATOM      7  C   UNL     1      18.343  26.380  41.281  1.00  0.00     0.019 A 
ATOM      8  C   UNL     1      19.630  26.766  40.906  1.00  0.00     0.094 A 
ATOM      9  C   UNL     1      20.546  27.130  41.899  1.00  0.00     0.336 A 
ATOM     10  O   UNL     1      21.712  27.482  41.580  1.00  0.00    -0.246 OA
ATOM     11  O   UNL     1      20.193  27.106  43.182  1.00  0.00    -0.423 OA
ENDROOT
BRANCH   3  12
ATOM     12  O   UNL     1      17.059  26.346  46.728  1.00  0.00    -0.508 OA
ATOM     13  H   UNL     1      16.482  27.070  47.140  1.00  0.00     0.293 HD
ENDBRANCH   3  12
TORSDOF 1
ENDMDL
MODEL 7
REMARK VINA RESULT:    -4.634      5.718      7.265
REMARK INTER + INTRA:          -4.770
REMARK INTER:                  -4.770
REMARK INTRA:                   0.000
REMARK UNBOUND:                 0.000
REMARK SMILES O=c1ccc2ccc(O)cc2o1
REMARK SMILES IDX 6 1 7 2 8 3 10 4 11 5 5 6 4 7 3 8 2 9 1 10 12 11 9 12
REMARK H PARENT 9 13
REMARK Flexibility Score: inf
ROOT
ATOM      1  C   UNL     1      18.125  26.078  41.987  1.00  0.00     0.016 A 
ATOM      2  C   UNL     1      19.383  26.595  41.661  1.00  0.00     0.047 A 
ATOM      3  C   UNL     1      20.216  27.112  42.661  1.00  0.00     0.119 A 
ATOM      4  C   UNL     1      19.789  27.112  43.997  1.00  0.00     0.094 A 
ATOM      5  C   UNL     1      18.532  26.597  44.333  1.00  0.00     0.142 A 
ATOM      6  C   UNL     1      17.695  26.076  43.321  1.00  0.00     0.018 A 
ATOM      7  C   UNL     1      16.444  25.568  43.687  1.00  0.00     0.019 A 
ATOM      8  C   UNL     1      16.063  25.590  45.029  1.00  0.00     0.094 A 
ATOM      9  C   UNL     1      16.945  26.121  45.976  1.00  0.00     0.336 A 
ATOM     10  O   UNL     1      16.619  26.149  47.192  1.00  0.00    -0.246 OA
ATOM     11  O   UNL     1      18.129  26.598  45.601  1.00  0.00    -0.423 OA
ENDROOT
BRANCH   3  12
ATOM     12  O   UNL     1      21.466  27.623  42.316  1.00  0.00    -0.508 OA
ATOM     13  H   UNL     1      21.696  27.857  41.358  1.00  0.00     0.293 HD
ENDBRANCH   3  12
TORSDOF 1
ENDMDL
MODEL 8
REMARK VINA RESULT:    -4.564      1.937      2.336
REMARK INTER + INTRA:          -4.698
REMARK INTER:                  -4.698
REMARK INTRA:                   0.000
REMARK UNBOUND:                 0.000
REMARK SMILES O=c1ccc2ccc(O)cc2o1
REMARK SMILES IDX 6 1 7 2 8 3 10 4 11 5 5 6 4 7 3 8 2 9 1 10 12 11 9 12
REMARK H PARENT 9 13
REMARK Flexibility Score: inf
ROOT
ATOM      1  C   UNL     1      20.098  22.198  38.472  1.00  0.00     0.016 A 
ATOM      2  C   UNL     1      19.298  21.663  37.457  1.00  0.00     0.047 A 
ATOM      3  C   UNL     1      18.100  22.292  37.094  1.00  0.00     0.119 A 
ATOM      4  C   UNL     1      17.699  23.465  37.751  1.00  0.00     0.094 A 
ATOM      5  C   UNL     1      18.492  24.008  38.768  1.00  0.00     0.142 A 
ATOM      6  C   UNL     1      19.700  23.370  39.130  1.00  0.00     0.018 A 
ATOM      7  C   UNL     1      20.472  23.935  40.151  1.00  0.00     0.019 A 
ATOM      8  C   UNL     1      20.032  25.102  40.775  1.00  0.00     0.094 A 
ATOM      9  C   UNL     1      18.825  25.678  40.363  1.00  0.00     0.336 A 
ATOM     10  O   UNL     1      18.412  26.732  40.914  1.00  0.00    -0.246 OA
ATOM     11  O   UNL     1      18.110  25.120  39.390  1.00  0.00    -0.423 OA
ENDROOT
BRANCH   3  12
ATOM     12  O   UNL     1      17.317  21.745  36.081  1.00  0.00    -0.508 OA
ATOM     13  H   UNL     1      17.585  20.890  35.607  1.00  0.00     0.293 HD
ENDBRANCH   3  12
TORSDOF 1
ENDMDL
