MODEL 1
REMARK VINA RESULT:    -4.748      0.000      0.000
REMARK INTER + INTRA:          -6.022
REMARK INTER:                  -5.858
REMARK INTRA:                  -0.165
REMARK UNBOUND:                -0.165
REMARK SMILES CCCCC=CC(C)=O
REMARK SMILES IDX 4 1 3 2 2 3 1 4 5 5 6 6 7 7 9 8 8 9
REMARK H PARENT
REMARK Flexibility Score: inf
ROOT
ATOM      1  C   UNL     1       9.890 -25.327 -25.353  1.00  0.00     0.027 C 
ENDROOT
BRANCH   1   2
ATOM      2  C   UNL     1      10.244 -23.954 -25.939  1.00  0.00     0.004 C 
BRANCH   2   3
ATOM      3  C   UNL     1      11.690 -23.929 -26.445  1.00  0.00    -0.003 C 
ATOM      4  C   UNL     1      12.506 -22.856 -25.731  1.00  0.00     0.004 C 
ENDBRANCH   2   3
ENDBRANCH   1   2
BRANCH   1   5
ATOM      5  C   UNL     1       8.898 -25.202 -24.234  1.00  0.00    -0.023 C 
ATOM      6  C   UNL     1       7.773 -24.490 -24.372  1.00  0.00     0.042 C 
BRANCH   6   7
ATOM      7  C   UNL     1       6.780 -24.366 -23.290  1.00  0.00     0.152 C 
ATOM      8  O   UNL     1       5.553 -24.229 -23.552  1.00  0.00    -0.295 OA
ATOM      9  C   UNL     1       7.230 -24.405 -21.865  1.00  0.00     0.093 C 
ENDBRANCH   6   7
ENDBRANCH   1   5
TORSDOF 4
ENDMDL
MODEL 2
REMARK VINA RESULT:    -4.073      8.021      9.402
REMARK INTER + INTRA:          -5.190
REMARK INTER:                  -5.103
REMARK INTRA:                  -0.087
REMARK UNBOUND:                -0.165
REMARK SMILES CCCCC=CC(C)=O
REMARK SMILES IDX 4 1 3 2 2 3 1 4 5 5 6 6 7 7 9 8 8 9
REMARK H PARENT
REMARK Flexibility Score: inf
ROOT
ATOM      1  C   UNL     1      10.245 -18.173 -19.765  1.00  0.00     0.027 C 
ENDROOT
BRANCH   1   2
ATOM      2  C   UNL     1       9.540 -18.188 -21.127  1.00  0.00     0.004 C 
BRANCH   2   3
ATOM      3  C   UNL     1       8.230 -18.979 -21.060  1.00  0.00    -0.003 C 
ATOM      4  C   UNL     1       7.430 -18.833 -22.350  1.00  0.00     0.004 C 
ENDBRANCH   2   3
ENDBRANCH   1   2
BRANCH   1   5
ATOM      5  C   UNL     1      11.733 -18.300 -19.920  1.00  0.00    -0.023 C 
ATOM      6  C   UNL     1      12.575 -17.496 -19.260  1.00  0.00     0.042 C 
BRANCH   6   7
ATOM      7  C   UNL     1      14.039 -17.612 -19.388  1.00  0.00     0.152 C 
ATOM      8  O   UNL     1      14.595 -17.565 -20.519  1.00  0.00    -0.295 OA
ATOM      9  C   UNL     1      14.877 -17.786 -18.162  1.00  0.00     0.093 C 
ENDBRANCH   6   7
ENDBRANCH   1   5
TORSDOF 4
ENDMDL
MODEL 3
REMARK VINA RESULT:    -4.066      2.297      5.336
REMARK INTER + INTRA:          -5.181
REMARK INTER:                  -5.036
REMARK INTRA:                  -0.145
REMARK UNBOUND:                -0.165
REMARK SMILES CCCCC=CC(C)=O
REMARK SMILES IDX 4 1 3 2 2 3 1 4 5 5 6 6 7 7 9 8 8 9
REMARK H PARENT
REMARK Flexibility Score: inf
ROOT
ATOM      1  C   UNL     1       7.468 -24.209 -24.079  1.00  0.00     0.027 C 
ENDROOT
BRANCH   1   2
ATOM      2  C   UNL     1       7.296 -24.348 -22.561  1.00  0.00     0.004 C 
BRANCH   2   3
ATOM      3  C   UNL     1       5.813 -24.363 -22.175  1.00  0.00    -0.003 C 
ATOM      4  C   UNL     1       4.921 -24.340 -23.412  1.00  0.00     0.004 C 
ENDBRANCH   2   3
ENDBRANCH   1   2
BRANCH   1   5
ATOM      5  C   UNL     1       8.813 -24.707 -24.522  1.00  0.00    -0.023 C 
ATOM      6  C   UNL     1       9.539 -24.045 -25.432  1.00  0.00     0.042 C 
BRANCH   6   7
ATOM      7  C   UNL     1      10.867 -24.509 -25.871  1.00  0.00     0.152 C 
ATOM      8  O   UNL     1      11.135 -25.741 -25.931  1.00  0.00    -0.295 OA
ATOM      9  C   UNL     1      11.911 -23.510 -26.253  1.00  0.00     0.093 C 
ENDBRANCH   6   7
ENDBRANCH   1   5
TORSDOF 4
ENDMDL
MODEL 4
REMARK VINA RESULT:    -3.968      7.656      8.558
REMARK INTER + INTRA:          -5.060
REMARK INTER:                  -4.907
REMARK INTRA:                  -0.153
REMARK UNBOUND:                -0.165
REMARK SMILES CCCCC=CC(C)=O
REMARK SMILES IDX 4 1 3 2 2 3 1 4 5 5 6 6 7 7 9 8 8 9
REMARK H PARENT
REMARK Flexibility Score: inf
ROOT
ATOM      1  C   UNL     1      12.935 -17.931 -19.468  1.00  0.00     0.027 C 
ENDROOT
BRANCH   1   2
ATOM      2  C   UNL     1      14.272 -18.116 -20.196  1.00  0.00     0.004 C 
BRANCH   2   3
ATOM      3  C   UNL     1      15.433 -17.563 -19.362  1.00  0.00    -0.003 C 
ATOM      4  C   UNL     1      15.127 -17.640 -17.869  1.00  0.00     0.004 C 
ENDBRANCH   2   3
ENDBRANCH   1   2
BRANCH   1   5
ATOM      5  C   UNL     1      11.775 -18.165 -20.392  1.00  0.00    -0.023 C 
ATOM      6  C   UNL     1      10.523 -18.266 -19.930  1.00  0.00     0.042 C 
BRANCH   6   7
ATOM      7  C   UNL     1       9.369 -18.482 -20.821  1.00  0.00     0.152 C 
ATOM      8  O   UNL     1       8.390 -19.187 -20.451  1.00  0.00    -0.295 OA
ATOM      9  C   UNL     1       9.355 -17.858 -22.179  1.00  0.00     0.093 C 
ENDBRANCH   6   7
ENDBRANCH   1   5
TORSDOF 4
ENDMDL
MODEL 5
REMARK VINA RESULT:    -3.950     15.247     15.846
REMARK INTER + INTRA:          -5.038
REMARK INTER:                  -4.820
REMARK INTRA:                  -0.218
REMARK UNBOUND:                -0.165
REMARK SMILES CCCCC=CC(C)=O
REMARK SMILES IDX 4 1 3 2 2 3 1 4 5 5 6 6 7 7 9 8 8 9
REMARK H PARENT
REMARK Flexibility Score: inf
ROOT
ATOM      1  C   UNL     1       7.980  -8.391 -24.292  1.00  0.00     0.027 C 
ENDROOT
BRANCH   1   2
ATOM      2  C   UNL     1       7.092  -7.179 -23.983  1.00  0.00     0.004 C 
BRANCH   2   3
ATOM      3  C   UNL     1       7.767  -5.876 -24.423  1.00  0.00    -0.003 C 
ATOM      4  C   UNL     1       9.286  -5.984 -24.333  1.00  0.00     0.004 C 
ENDBRANCH   2   3
ENDBRANCH   1   2
BRANCH   1   5
ATOM      5  C   UNL     1       7.155  -9.609 -24.590  1.00  0.00    -0.023 C 
ATOM      6  C   UNL     1       5.881  -9.511 -24.989  1.00  0.00     0.042 C 
BRANCH   6   7
ATOM      7  C   UNL     1       5.058 -10.693 -25.299  1.00  0.00     0.152 C 
ATOM      8  O   UNL     1       3.799 -10.640 -25.232  1.00  0.00    -0.295 OA
ATOM      9  C   UNL     1       5.721 -11.971 -25.701  1.00  0.00     0.093 C 
ENDBRANCH   6   7
ENDBRANCH   1   5
TORSDOF 4
ENDMDL
MODEL 6
REMARK VINA RESULT:    -3.764      8.420      9.747
REMARK INTER + INTRA:          -4.808
REMARK INTER:                  -4.621
REMARK INTRA:                  -0.188
REMARK UNBOUND:                -0.165
REMARK SMILES CCCCC=CC(C)=O
REMARK SMILES IDX 4 1 3 2 2 3 1 4 5 5 6 6 7 7 9 8 8 9
REMARK H PARENT
REMARK Flexibility Score: inf
ROOT
ATOM      1  C   UNL     1      11.953 -18.311 -20.920  1.00  0.00     0.027 C 
ENDROOT
BRANCH   1   2
ATOM      2  C   UNL     1      10.747 -18.201 -19.978  1.00  0.00     0.004 C 
BRANCH   2   3
ATOM      3  C   UNL     1       9.437 -18.455 -20.730  1.00  0.00    -0.003 C 
ATOM      4  C   UNL     1       9.478 -17.849 -22.130  1.00  0.00     0.004 C 
ENDBRANCH   2   3
ENDBRANCH   1   2
BRANCH   1   5
ATOM      5  C   UNL     1      13.233 -18.461 -20.151  1.00  0.00    -0.023 C 
ATOM      6  C   UNL     1      13.363 -17.978 -18.909  1.00  0.00     0.042 C 
BRANCH   6   7
ATOM      7  C   UNL     1      14.607 -18.126 -18.131  1.00  0.00     0.152 C 
ATOM      8  O   UNL     1      14.601 -18.694 -17.005  1.00  0.00    -0.295 OA
ATOM      9  C   UNL     1      15.892 -17.599 -18.684  1.00  0.00     0.093 C 
ENDBRANCH   6   7
ENDBRANCH   1   5
TORSDOF 4
ENDMDL
MODEL 7
REMARK VINA RESULT:    -3.702      7.852      9.040
REMARK INTER + INTRA:          -4.732
REMARK INTER:                  -4.607
REMARK INTRA:                  -0.124
REMARK UNBOUND:                -0.165
REMARK SMILES CCCCC=CC(C)=O
REMARK SMILES IDX 4 1 3 2 2 3 1 4 5 5 6 6 7 7 9 8 8 9
REMARK H PARENT
REMARK Flexibility Score: inf
ROOT
ATOM      1  C   UNL     1      13.876 -20.761 -20.879  1.00  0.00     0.027 C 
ENDROOT
BRANCH   1   2
ATOM      2  C   UNL     1      15.106 -20.939 -21.778  1.00  0.00     0.004 C 
BRANCH   2   3
ATOM      3  C   UNL     1      15.299 -22.410 -22.161  1.00  0.00    -0.003 C 
ATOM      4  C   UNL     1      15.280 -22.592 -23.676  1.00  0.00     0.004 C 
ENDBRANCH   2   3
ENDBRANCH   1   2
BRANCH   1   5
ATOM      5  C   UNL     1      14.255 -20.192 -19.543  1.00  0.00    -0.023 C 
ATOM      6  C   UNL     1      14.318 -18.871 -19.338  1.00  0.00     0.042 C 
BRANCH   6   7
ATOM      7  C   UNL     1      14.675 -18.291 -18.031  1.00  0.00     0.152 C 
ATOM      8  O   UNL     1      15.226 -17.159 -17.954  1.00  0.00    -0.295 OA
ATOM      9  C   UNL     1      14.379 -19.052 -16.779  1.00  0.00     0.093 C 
ENDBRANCH   6   7
ENDBRANCH   1   5
TORSDOF 4
ENDMDL
MODEL 8
REMARK VINA RESULT:    -3.695      7.787      8.913
REMARK INTER + INTRA:          -4.723
REMARK INTER:                  -4.472
REMARK INTRA:                  -0.251
REMARK UNBOUND:                -0.165
REMARK SMILES CCCCC=CC(C)=O
REMARK SMILES IDX 4 1 3 2 2 3 1 4 5 5 6 6 7 7 9 8 8 9
REMARK H PARENT
REMARK Flexibility Score: inf
ROOT
ATOM      1  C   UNL     1       9.930 -18.429 -20.445  1.00  0.00     0.027 C 
ENDROOT
BRANCH   1   2
ATOM      2  C   UNL     1       9.369 -17.927 -21.781  1.00  0.00     0.004 C 
BRANCH   2   3
ATOM      3  C   UNL     1      10.498 -17.542 -22.742  1.00  0.00    -0.003 C 
ATOM      4  C   UNL     1      10.151 -17.914 -24.180  1.00  0.00     0.004 C 
ENDBRANCH   2   3
ENDBRANCH   1   2
BRANCH   1   5
ATOM      5  C   UNL     1      11.430 -18.392 -20.437  1.00  0.00    -0.023 C 
ATOM      6  C   UNL     1      12.110 -17.789 -19.454  1.00  0.00     0.042 C 
BRANCH   6   7
ATOM      7  C   UNL     1      13.583 -17.754 -19.420  1.00  0.00     0.152 C 
ATOM      8  O   UNL     1      14.202 -17.658 -18.325  1.00  0.00    -0.295 OA
ATOM      9  C   UNL     1      14.355 -17.834 -20.697  1.00  0.00     0.093 C 
ENDBRANCH   6   7
ENDBRANCH   1   5
TORSDOF 4
ENDMDL
MODEL 9
REMARK VINA RESULT:    -3.652      7.540      8.245
REMARK INTER + INTRA:          -4.670
REMARK INTER:                  -4.510
REMARK INTRA:                  -0.160
REMARK UNBOUND:                -0.165
REMARK SMILES CCCCC=CC(C)=O
REMARK SMILES IDX 4 1 3 2 2 3 1 4 5 5 6 6 7 7 9 8 8 9
REMARK H PARENT
REMARK Flexibility Score: inf
ROOT
ATOM      1  C   UNL     1      16.252 -23.502 -23.492  1.00  0.00     0.027 C 
ENDROOT
BRANCH   1   2
ATOM      2  C   UNL     1      16.522 -24.651 -22.512  1.00  0.00     0.004 C 
BRANCH   2   3
ATOM      3  C   UNL     1      17.893 -25.284 -22.771  1.00  0.00    -0.003 C 
ATOM      4  C   UNL     1      18.697 -25.406 -21.480  1.00  0.00     0.004 C 
ENDBRANCH   2   3
ENDBRANCH   1   2
BRANCH   1   5
ATOM      5  C   UNL     1      16.053 -22.204 -22.766  1.00  0.00    -0.023 C 
ATOM      6  C   UNL     1      15.059 -22.040 -21.885  1.00  0.00     0.042 C 
BRANCH   6   7
ATOM      7  C   UNL     1      14.855 -20.777 -21.152  1.00  0.00     0.152 C 
ATOM      8  O   UNL     1      15.751 -19.890 -21.130  1.00  0.00    -0.295 OA
ATOM      9  C   UNL     1      13.569 -20.543 -20.427  1.00  0.00     0.093 C 
ENDBRANCH   6   7
ENDBRANCH   1   5
TORSDOF 4
ENDMDL
