MODEL 1
REMARK VINA RESULT:    -1.892      0.000      0.000
REMARK INTER + INTRA:          -2.466
REMARK INTER:                  -2.335
REMARK INTRA:                  -0.131
REMARK UNBOUND:                -0.131
REMARK SMILES CCCCCC(=O)[O-]
REMARK SMILES IDX 4 1 5 2 6 3 7 4 8 5 3 6 2 7 1 8
REMARK H PARENT
REMARK Flexibility Score: inf
ROOT
ATOM      1  C   UNL     1     102.548  13.548  13.709  1.00  0.00     0.006 C 
ENDROOT
BRANCH   1   2
ATOM      2  C   UNL     1     101.333  13.619  12.771  1.00  0.00     0.053 C 
BRANCH   2   3
ATOM      3  C   UNL     1     101.742  13.748  11.335  1.00  0.00     0.041 C 
ATOM      4  O   UNL     1     100.933  14.202  10.484  1.00  0.00    -0.550 OA
ATOM      5  O   UNL     1     103.027  13.395  10.945  1.00  0.00    -0.550 OA
ENDBRANCH   2   3
ENDBRANCH   1   2
BRANCH   1   6
ATOM      6  C   UNL     1     102.611  12.275  14.577  1.00  0.00     0.000 C 
BRANCH   6   7
ATOM      7  C   UNL     1     101.281  11.875  15.239  1.00  0.00    -0.003 C 
ATOM      8  C   UNL     1     100.896  12.786  16.403  1.00  0.00     0.004 C 
ENDBRANCH   6   7
ENDBRANCH   1   6
TORSDOF 4
ENDMDL
MODEL 2
REMARK VINA RESULT:    -1.892     18.764     19.731
REMARK INTER + INTRA:          -2.465
REMARK INTER:                  -2.279
REMARK INTRA:                  -0.186
REMARK UNBOUND:                -0.131
REMARK SMILES CCCCCC(=O)[O-]
REMARK SMILES IDX 4 1 5 2 6 3 7 4 8 5 3 6 2 7 1 8
REMARK H PARENT
REMARK Flexibility Score: inf
ROOT
ATOM      1  C   UNL     1     115.910  14.366  26.827  1.00  0.00     0.006 C 
ENDROOT
BRANCH   1   2
ATOM      2  C   UNL     1     116.432  14.020  25.424  1.00  0.00     0.053 C 
BRANCH   2   3
ATOM      3  C   UNL     1     115.952  12.678  24.963  1.00  0.00     0.041 C 
ATOM      4  O   UNL     1     116.648  11.996  24.166  1.00  0.00    -0.550 OA
ATOM      5  O   UNL     1     114.752  12.168  25.440  1.00  0.00    -0.550 OA
ENDBRANCH   2   3
ENDBRANCH   1   2
BRANCH   1   6
ATOM      6  C   UNL     1     116.999  14.437  27.915  1.00  0.00     0.000 C 
BRANCH   6   7
ATOM      7  C   UNL     1     116.835  13.426  29.064  1.00  0.00    -0.003 C 
ATOM      8  C   UNL     1     115.665  12.467  28.851  1.00  0.00     0.004 C 
ENDBRANCH   6   7
ENDBRANCH   1   6
TORSDOF 4
ENDMDL
MODEL 3
REMARK VINA RESULT:    -1.801     19.837     20.885
REMARK INTER + INTRA:          -2.353
REMARK INTER:                  -2.259
REMARK INTRA:                  -0.094
REMARK UNBOUND:                -0.131
REMARK SMILES CCCCCC(=O)[O-]
REMARK SMILES IDX 4 1 5 2 6 3 7 4 8 5 3 6 2 7 1 8
REMARK H PARENT
REMARK Flexibility Score: inf
ROOT
ATOM      1  C   UNL     1     116.602  14.180  27.514  1.00  0.00     0.006 C 
ENDROOT
BRANCH   1   2
ATOM      2  C   UNL     1     116.862  15.680  27.307  1.00  0.00     0.053 C 
BRANCH   2   3
ATOM      3  C   UNL     1     118.305  16.029  27.504  1.00  0.00     0.041 C 
ATOM      4  O   UNL     1     119.016  16.365  26.520  1.00  0.00    -0.550 OA
ATOM      5  O   UNL     1     118.856  16.015  28.779  1.00  0.00    -0.550 OA
ENDBRANCH   2   3
ENDBRANCH   1   2
BRANCH   1   6
ATOM      6  C   UNL     1     115.742  13.522  26.416  1.00  0.00     0.000 C 
BRANCH   6   7
ATOM      7  C   UNL     1     116.332  13.600  24.997  1.00  0.00    -0.003 C 
ATOM      8  C   UNL     1     116.319  12.256  24.271  1.00  0.00     0.004 C 
ENDBRANCH   6   7
ENDBRANCH   1   6
TORSDOF 4
ENDMDL
MODEL 4
REMARK VINA RESULT:    -1.761     19.404     20.404
REMARK INTER + INTRA:          -2.304
REMARK INTER:                  -2.134
REMARK INTRA:                  -0.170
REMARK UNBOUND:                -0.131
REMARK SMILES CCCCCC(=O)[O-]
REMARK SMILES IDX 4 1 5 2 6 3 7 4 8 5 3 6 2 7 1 8
REMARK H PARENT
REMARK Flexibility Score: inf
ROOT
ATOM      1  C   UNL     1     116.045  14.673  27.489  1.00  0.00     0.006 C 
ENDROOT
BRANCH   1   2
ATOM      2  C   UNL     1     115.654  13.407  26.711  1.00  0.00     0.053 C 
BRANCH   2   3
ATOM      3  C   UNL     1     116.228  13.401  25.328  1.00  0.00     0.041 C 
ATOM      4  O   UNL     1     116.205  12.349  24.637  1.00  0.00    -0.550 OA
ATOM      5  O   UNL     1     116.760  14.567  24.791  1.00  0.00    -0.550 OA
ENDBRANCH   2   3
ENDBRANCH   1   2
BRANCH   1   6
ATOM      6  C   UNL     1     117.282  14.511  28.395  1.00  0.00     0.000 C 
BRANCH   6   7
ATOM      7  C   UNL     1     118.134  15.782  28.562  1.00  0.00    -0.003 C 
ATOM      8  C   UNL     1     118.661  16.327  27.236  1.00  0.00     0.004 C 
ENDBRANCH   6   7
ENDBRANCH   1   6
TORSDOF 4
ENDMDL
MODEL 5
REMARK VINA RESULT:    -1.742      1.691      2.478
REMARK INTER + INTRA:          -2.280
REMARK INTER:                  -2.127
REMARK INTRA:                  -0.154
REMARK UNBOUND:                -0.131
REMARK SMILES CCCCCC(=O)[O-]
REMARK SMILES IDX 4 1 5 2 6 3 7 4 8 5 3 6 2 7 1 8
REMARK H PARENT
REMARK Flexibility Score: inf
ROOT
ATOM      1  C   UNL     1     101.440  11.875  15.067  1.00  0.00     0.006 C 
ENDROOT
BRANCH   1   2
ATOM      2  C   UNL     1     100.876  12.854  14.025  1.00  0.00     0.053 C 
BRANCH   2   3
ATOM      3  C   UNL     1     101.955  13.443  13.169  1.00  0.00     0.041 C 
ATOM      4  O   UNL     1     103.112  13.613  13.634  1.00  0.00    -0.550 OA
ATOM      5  O   UNL     1     101.688  13.775  11.847  1.00  0.00    -0.550 OA
ENDBRANCH   2   3
ENDBRANCH   1   2
BRANCH   1   6
ATOM      6  C   UNL     1     101.216  12.300  16.532  1.00  0.00     0.000 C 
BRANCH   6   7
ATOM      7  C   UNL     1     101.975  13.568  16.962  1.00  0.00    -0.003 C 
ATOM      8  C   UNL     1     103.144  13.274  17.901  1.00  0.00     0.004 C 
ENDBRANCH   6   7
ENDBRANCH   1   6
TORSDOF 4
ENDMDL
MODEL 6
REMARK VINA RESULT:    -1.741     18.799     19.610
REMARK INTER + INTRA:          -2.279
REMARK INTER:                  -2.202
REMARK INTRA:                  -0.077
REMARK UNBOUND:                -0.131
REMARK SMILES CCCCCC(=O)[O-]
REMARK SMILES IDX 4 1 5 2 6 3 7 4 8 5 3 6 2 7 1 8
REMARK H PARENT
REMARK Flexibility Score: inf
ROOT
ATOM      1  C   UNL     1     116.288  13.342  24.794  1.00  0.00     0.006 C 
ENDROOT
BRANCH   1   2
ATOM      2  C   UNL     1     115.831  13.369  26.260  1.00  0.00     0.053 C 
BRANCH   2   3
ATOM      3  C   UNL     1     116.671  14.289  27.092  1.00  0.00     0.041 C 
ATOM      4  O   UNL     1     116.852  14.051  28.314  1.00  0.00    -0.550 OA
ATOM      5  O   UNL     1     117.279  15.393  26.507  1.00  0.00    -0.550 OA
ENDBRANCH   2   3
ENDBRANCH   1   2
BRANCH   1   6
ATOM      6  C   UNL     1     116.339  11.935  24.165  1.00  0.00     0.000 C 
BRANCH   6   7
ATOM      7  C   UNL     1     116.875  11.888  22.723  1.00  0.00    -0.003 C 
ATOM      8  C   UNL     1     117.240  13.268  22.177  1.00  0.00     0.004 C 
ENDBRANCH   6   7
ENDBRANCH   1   6
TORSDOF 4
ENDMDL
MODEL 7
REMARK VINA RESULT:    -1.737     19.197     20.273
REMARK INTER + INTRA:          -2.274
REMARK INTER:                  -2.176
REMARK INTRA:                  -0.099
REMARK UNBOUND:                -0.131
REMARK SMILES CCCCCC(=O)[O-]
REMARK SMILES IDX 4 1 5 2 6 3 7 4 8 5 3 6 2 7 1 8
REMARK H PARENT
REMARK Flexibility Score: inf
ROOT
ATOM      1  C   UNL     1     115.639  13.328  26.517  1.00  0.00     0.006 C 
ENDROOT
BRANCH   1   2
ATOM      2  C   UNL     1     116.598  14.517  26.683  1.00  0.00     0.053 C 
BRANCH   2   3
ATOM      3  C   UNL     1     117.249  14.527  28.032  1.00  0.00     0.041 C 
ATOM      4  O   UNL     1     117.023  13.599  28.852  1.00  0.00    -0.550 OA
ATOM      5  O   UNL     1     118.130  15.546  28.370  1.00  0.00    -0.550 OA
ENDBRANCH   2   3
ENDBRANCH   1   2
BRANCH   1   6
ATOM      6  C   UNL     1     115.264  13.008  25.056  1.00  0.00     0.000 C 
BRANCH   6   7
ATOM      7  C   UNL     1     116.309  12.184  24.283  1.00  0.00    -0.003 C 
ATOM      8  C   UNL     1     116.732  12.840  22.970  1.00  0.00     0.004 C 
ENDBRANCH   6   7
ENDBRANCH   1   6
TORSDOF 4
ENDMDL
MODEL 8
REMARK VINA RESULT:    -1.728     20.451     21.430
REMARK INTER + INTRA:          -2.262
REMARK INTER:                  -2.155
REMARK INTRA:                  -0.108
REMARK UNBOUND:                -0.131
REMARK SMILES CCCCCC(=O)[O-]
REMARK SMILES IDX 4 1 5 2 6 3 7 4 8 5 3 6 2 7 1 8
REMARK H PARENT
REMARK Flexibility Score: inf
ROOT
ATOM      1  C   UNL     1     116.722  14.723  26.857  1.00  0.00     0.006 C 
ENDROOT
BRANCH   1   2
ATOM      2  C   UNL     1     117.431  14.950  28.201  1.00  0.00     0.053 C 
BRANCH   2   3
ATOM      3  C   UNL     1     118.532  15.959  28.090  1.00  0.00     0.041 C 
ATOM      4  O   UNL     1     119.104  16.390  29.125  1.00  0.00    -0.550 OA
ATOM      5  O   UNL     1     118.947  16.399  26.839  1.00  0.00    -0.550 OA
ENDBRANCH   2   3
ENDBRANCH   1   2
BRANCH   1   6
ATOM      6  C   UNL     1     115.689  13.579  26.864  1.00  0.00     0.000 C 
BRANCH   6   7
ATOM      7  C   UNL     1     114.933  13.395  28.192  1.00  0.00    -0.003 C 
ATOM      8  C   UNL     1     115.077  11.989  28.771  1.00  0.00     0.004 C 
ENDBRANCH   6   7
ENDBRANCH   1   6
TORSDOF 4
ENDMDL
MODEL 9
REMARK VINA RESULT:    -1.706      3.542      4.757
REMARK INTER + INTRA:          -2.236
REMARK INTER:                  -2.044
REMARK INTRA:                  -0.192
REMARK UNBOUND:                -0.131
REMARK SMILES CCCCCC(=O)[O-]
REMARK SMILES IDX 4 1 5 2 6 3 7 4 8 5 3 6 2 7 1 8
REMARK H PARENT
REMARK Flexibility Score: inf
ROOT
ATOM      1  C   UNL     1     101.174  11.875  15.134  1.00  0.00     0.006 C 
ENDROOT
BRANCH   1   2
ATOM      2  C   UNL     1     100.959  12.464  16.536  1.00  0.00     0.053 C 
BRANCH   2   3
ATOM      3  C   UNL     1     102.255  12.699  17.250  1.00  0.00     0.041 C 
ATOM      4  O   UNL     1     102.348  13.612  18.111  1.00  0.00    -0.550 OA
ATOM      5  O   UNL     1     103.351  11.887  16.984  1.00  0.00    -0.550 OA
ENDBRANCH   2   3
ENDBRANCH   1   2
BRANCH   1   6
ATOM      6  C   UNL     1     100.876  12.850  13.977  1.00  0.00     0.000 C 
BRANCH   6   7
ATOM      7  C   UNL     1     102.119  13.457  13.304  1.00  0.00    -0.003 C 
ATOM      8  C   UNL     1     102.657  14.683  14.039  1.00  0.00     0.004 C 
ENDBRANCH   6   7
ENDBRANCH   1   6
TORSDOF 4
ENDMDL
