MODEL 1
REMARK VINA RESULT:    -6.631      0.000      0.000
REMARK INTER + INTRA:         -10.752
REMARK INTER:                  -8.958
REMARK INTRA:                  -1.795
REMARK UNBOUND:                -1.795
REMARK SMILES CC[C@H](CC[C@H](C)[C@@H]1CC[C@@H]2[C@@H]3CC(=O)C4=CC(=O)CC[C@]4(C)[C@H]3CC[C@@]21C)C(C)C
REMARK SMILES IDX 4 1 3 2 2 3 1 4 29 5 30 6 31 7 5 8 6 9 7 10 8 11 9 12 27 13
REMARK SMILES IDX 10 14 11 15 26 16 28 17 12 18 25 19 24 20 13 21 22 22 14 23
REMARK SMILES IDX 16 24 21 25 23 26 15 27 17 28 20 29 18 30 19 31
REMARK H PARENT
REMARK Flexibility Score: inf
ROOT
ATOM      1  C   UNL     1     -15.949  -0.335  30.698  1.00  0.00     0.004 C 
ENDROOT
BRANCH   1   2
ATOM      2  C   UNL     1     -17.260   0.506  30.673  1.00  0.00    -0.009 C 
BRANCH   2   3
ATOM      3  C   UNL     1     -18.518  -0.351  30.339  1.00  0.00     0.000 C 
ATOM      4  C   UNL     1     -18.409  -1.821  30.756  1.00  0.00     0.004 C 
ENDBRANCH   2   3
BRANCH   2   5
ATOM      5  C   UNL     1     -17.428   1.342  31.991  1.00  0.00    -0.014 C 
ATOM      6  C   UNL     1     -16.545   0.805  33.135  1.00  0.00     0.007 C 
ATOM      7  C   UNL     1     -17.100   2.833  31.778  1.00  0.00     0.007 C 
ENDBRANCH   2   5
ENDBRANCH   1   2
BRANCH   1   8
ATOM      8  C   UNL     1     -15.116  -0.247  29.403  1.00  0.00     0.004 C 
BRANCH   8   9
ATOM      9  C   UNL     1     -15.949   0.202  28.177  1.00  0.00    -0.011 C 
ATOM     10  C   UNL     1     -16.385  -1.016  27.326  1.00  0.00     0.008 C 
BRANCH   9  11
ATOM     11  C   UNL     1     -15.263   1.388  27.403  1.00  0.00    -0.002 C 
ATOM     12  C   UNL     1     -13.929   1.850  28.023  1.00  0.00     0.005 C 
ATOM     13  C   UNL     1     -16.055   2.689  27.034  1.00  0.00    -0.026 C 
ATOM     14  C   UNL     1     -13.819   3.349  27.760  1.00  0.00     0.005 C 
ATOM     15  C   UNL     1     -14.907   3.680  26.733  1.00  0.00    -0.001 C 
ATOM     16  C   UNL     1     -16.918   3.216  28.213  1.00  0.00     0.007 C 
ATOM     17  C   UNL     1     -16.931   2.486  25.767  1.00  0.00     0.012 C 
ATOM     18  C   UNL     1     -15.324   5.182  26.655  1.00  0.00     0.004 C 
ATOM     19  C   UNL     1     -17.404   4.653  28.007  1.00  0.00     0.005 C 
ATOM     20  C   UNL     1     -16.224   5.642  27.839  1.00  0.00     0.003 C 
ATOM     21  C   UNL     1     -14.084   6.083  26.517  1.00  0.00     0.085 C 
ATOM     22  C   UNL     1     -16.702   7.149  27.702  1.00  0.00    -0.000 C 
ATOM     23  C   UNL     1     -14.464   7.521  26.429  1.00  0.00     0.159 C 
ATOM     24  C   UNL     1     -15.524   8.052  27.313  1.00  0.00     0.005 C 
ATOM     25  C   UNL     1     -17.280   7.629  29.072  1.00  0.00     0.020 C 
ATOM     26  C   UNL     1     -17.791   7.308  26.604  1.00  0.00     0.017 C 
ATOM     27  O   UNL     1     -13.814   8.288  25.666  1.00  0.00    -0.295 OA
ATOM     28  C   UNL     1     -15.485   9.351  27.671  1.00  0.00     0.055 C 
ATOM     29  C   UNL     1     -17.629   9.124  29.089  1.00  0.00     0.081 C 
ATOM     30  C   UNL     1     -16.496   9.946  28.558  1.00  0.00     0.156 C 
ATOM     31  O   UNL     1     -16.418  11.166  28.860  1.00  0.00    -0.295 OA
ENDBRANCH   9  11
ENDBRANCH   8   9
ENDBRANCH   1   8
TORSDOF 6
ENDMDL
MODEL 2
REMARK VINA RESULT:    -6.544      3.406      7.689
REMARK INTER + INTRA:         -10.634
REMARK INTER:                  -8.960
REMARK INTRA:                  -1.674
REMARK UNBOUND:                -1.795
REMARK SMILES CC[C@H](CC[C@H](C)[C@@H]1CC[C@@H]2[C@@H]3CC(=O)C4=CC(=O)CC[C@]4(C)[C@H]3CC[C@@]21C)C(C)C
REMARK SMILES IDX 4 1 3 2 2 3 1 4 29 5 30 6 31 7 5 8 6 9 7 10 8 11 9 12 27 13
REMARK SMILES IDX 10 14 11 15 26 16 28 17 12 18 25 19 24 20 13 21 22 22 14 23
REMARK SMILES IDX 16 24 21 25 23 26 15 27 17 28 20 29 18 30 19 31
REMARK H PARENT
REMARK Flexibility Score: inf
ROOT
ATOM      1  C   UNL     1     -15.273   7.148  27.266  1.00  0.00     0.004 C 
ENDROOT
BRANCH   1   2
ATOM      2  C   UNL     1     -16.442   7.922  26.585  1.00  0.00    -0.009 C 
BRANCH   2   3
ATOM      3  C   UNL     1     -17.841   7.349  26.961  1.00  0.00     0.000 C 
ATOM      4  C   UNL     1     -17.795   6.106  27.855  1.00  0.00     0.004 C 
ENDBRANCH   2   3
BRANCH   2   5
ATOM      5  C   UNL     1     -16.331   9.467  26.841  1.00  0.00    -0.014 C 
ATOM      6  C   UNL     1     -16.029   9.790  28.318  1.00  0.00     0.007 C 
ATOM      7  C   UNL     1     -15.246  10.123  25.964  1.00  0.00     0.007 C 
ENDBRANCH   2   5
ENDBRANCH   1   2
BRANCH   1   8
ATOM      8  C   UNL     1     -14.356   6.394  26.283  1.00  0.00     0.004 C 
BRANCH   8   9
ATOM      9  C   UNL     1     -13.550   5.257  26.957  1.00  0.00    -0.011 C 
ATOM     10  C   UNL     1     -12.036   5.400  26.664  1.00  0.00     0.008 C 
BRANCH   9  11
ATOM     11  C   UNL     1     -14.185   3.843  26.682  1.00  0.00    -0.002 C 
ATOM     12  C   UNL     1     -15.377   3.873  25.704  1.00  0.00     0.005 C 
ATOM     13  C   UNL     1     -14.599   2.892  27.856  1.00  0.00    -0.026 C 
ATOM     14  C   UNL     1     -16.327   2.761  26.136  1.00  0.00     0.005 C 
ATOM     15  C   UNL     1     -15.548   1.903  27.139  1.00  0.00    -0.001 C 
ATOM     16  C   UNL     1     -15.360   3.635  28.987  1.00  0.00     0.007 C 
ATOM     17  C   UNL     1     -13.374   2.130  28.435  1.00  0.00     0.012 C 
ATOM     18  C   UNL     1     -16.417   1.011  28.079  1.00  0.00     0.004 C 
ATOM     19  C   UNL     1     -16.081   2.690  29.950  1.00  0.00     0.005 C 
ATOM     20  C   UNL     1     -17.120   1.803  29.219  1.00  0.00     0.003 C 
ATOM     21  C   UNL     1     -17.434   0.193  27.263  1.00  0.00     0.085 C 
ATOM     22  C   UNL     1     -17.935   0.869  30.209  1.00  0.00    -0.000 C 
ATOM     23  C   UNL     1     -18.265  -0.676  28.144  1.00  0.00     0.159 C 
ATOM     24  C   UNL     1     -18.780  -0.140  29.421  1.00  0.00     0.005 C 
ATOM     25  C   UNL     1     -18.883   1.754  31.084  1.00  0.00     0.020 C 
ATOM     26  C   UNL     1     -16.991   0.058  31.140  1.00  0.00     0.017 C 
ATOM     27  O   UNL     1     -18.595  -1.827  27.745  1.00  0.00    -0.295 OA
ATOM     28  C   UNL     1     -19.934  -0.630  29.917  1.00  0.00     0.055 C 
ATOM     29  C   UNL     1     -19.828   0.931  31.969  1.00  0.00     0.081 C 
ATOM     30  C   UNL     1     -20.514  -0.137  31.175  1.00  0.00     0.156 C 
ATOM     31  O   UNL     1     -21.592  -0.632  31.598  1.00  0.00    -0.295 OA
ENDBRANCH   9  11
ENDBRANCH   8   9
ENDBRANCH   1   8
TORSDOF 6
ENDMDL
MODEL 3
REMARK VINA RESULT:    -6.342      2.946      5.615
REMARK INTER + INTRA:         -10.361
REMARK INTER:                  -8.382
REMARK INTRA:                  -1.979
REMARK UNBOUND:                -1.795
REMARK SMILES CC[C@H](CC[C@H](C)[C@@H]1CC[C@@H]2[C@@H]3CC(=O)C4=CC(=O)CC[C@]4(C)[C@H]3CC[C@@]21C)C(C)C
REMARK SMILES IDX 4 1 3 2 2 3 1 4 29 5 30 6 31 7 5 8 6 9 7 10 8 11 9 12 27 13
REMARK SMILES IDX 10 14 11 15 26 16 28 17 12 18 25 19 24 20 13 21 22 22 14 23
REMARK SMILES IDX 16 24 21 25 23 26 15 27 17 28 20 29 18 30 19 31
REMARK H PARENT
REMARK Flexibility Score: inf
ROOT
ATOM      1  C   UNL     1     -20.201  -1.939  24.414  1.00  0.00     0.004 C 
ENDROOT
BRANCH   1   2
ATOM      2  C   UNL     1     -18.794  -1.383  24.042  1.00  0.00    -0.009 C 
BRANCH   2   3
ATOM      3  C   UNL     1     -17.978  -2.364  23.147  1.00  0.00     0.000 C 
ATOM      4  C   UNL     1     -18.616  -3.746  22.981  1.00  0.00     0.004 C 
ENDBRANCH   2   3
BRANCH   2   5
ATOM      5  C   UNL     1     -18.892   0.059  23.427  1.00  0.00    -0.014 C 
ATOM      6  C   UNL     1     -17.521   0.762  23.375  1.00  0.00     0.007 C 
ATOM      7  C   UNL     1     -19.489   0.042  22.005  1.00  0.00     0.007 C 
ENDBRANCH   2   5
ENDBRANCH   1   2
BRANCH   1   8
ATOM      8  C   UNL     1     -20.702  -1.509  25.808  1.00  0.00     0.004 C 
BRANCH   8   9
ATOM      9  C   UNL     1     -19.552  -1.134  26.775  1.00  0.00    -0.011 C 
ATOM     10  C   UNL     1     -19.333  -2.244  27.833  1.00  0.00     0.008 C 
BRANCH   9  11
ATOM     11  C   UNL     1     -19.698   0.334  27.321  1.00  0.00    -0.002 C 
ATOM     12  C   UNL     1     -20.481   1.275  26.383  1.00  0.00     0.005 C 
ATOM     13  C   UNL     1     -18.455   1.145  27.826  1.00  0.00    -0.026 C 
ATOM     14  C   UNL     1     -19.885   2.668  26.562  1.00  0.00     0.005 C 
ATOM     15  C   UNL     1     -18.998   2.593  27.809  1.00  0.00    -0.001 C 
ATOM     16  C   UNL     1     -17.235   1.022  26.873  1.00  0.00     0.007 C 
ATOM     17  C   UNL     1     -18.057   0.741  29.273  1.00  0.00     0.012 C 
ATOM     18  C   UNL     1     -17.917   3.712  27.934  1.00  0.00     0.004 C 
ATOM     19  C   UNL     1     -16.154   2.071  27.140  1.00  0.00     0.005 C 
ATOM     20  C   UNL     1     -16.698   3.513  26.987  1.00  0.00     0.003 C 
ATOM     21  C   UNL     1     -18.551   5.101  27.739  1.00  0.00     0.085 C 
ATOM     22  C   UNL     1     -15.576   4.617  27.184  1.00  0.00    -0.000 C 
ATOM     23  C   UNL     1     -17.535   6.185  27.868  1.00  0.00     0.159 C 
ATOM     24  C   UNL     1     -16.204   6.016  27.248  1.00  0.00     0.005 C 
ATOM     25  C   UNL     1     -14.583   4.559  25.978  1.00  0.00     0.020 C 
ATOM     26  C   UNL     1     -14.786   4.402  28.505  1.00  0.00     0.017 C 
ATOM     27  O   UNL     1     -17.855   7.270  28.426  1.00  0.00    -0.295 OA
ATOM     28  C   UNL     1     -15.527   7.109  26.847  1.00  0.00     0.055 C 
ATOM     29  C   UNL     1     -13.546   5.690  25.995  1.00  0.00     0.081 C 
ATOM     30  C   UNL     1     -14.204   7.018  26.210  1.00  0.00     0.156 C 
ATOM     31  O   UNL     1     -13.610   8.071  25.857  1.00  0.00    -0.295 OA
ENDBRANCH   9  11
ENDBRANCH   8   9
ENDBRANCH   1   8
TORSDOF 6
ENDMDL
MODEL 4
REMARK VINA RESULT:    -6.337      5.175      8.490
REMARK INTER + INTRA:         -10.355
REMARK INTER:                  -8.576
REMARK INTRA:                  -1.779
REMARK UNBOUND:                -1.795
REMARK SMILES CC[C@H](CC[C@H](C)[C@@H]1CC[C@@H]2[C@@H]3CC(=O)C4=CC(=O)CC[C@]4(C)[C@H]3CC[C@@]21C)C(C)C
REMARK SMILES IDX 4 1 3 2 2 3 1 4 29 5 30 6 31 7 5 8 6 9 7 10 8 11 9 12 27 13
REMARK SMILES IDX 10 14 11 15 26 16 28 17 12 18 25 19 24 20 13 21 22 22 14 23
REMARK SMILES IDX 16 24 21 25 23 26 15 27 17 28 20 29 18 30 19 31
REMARK H PARENT
REMARK Flexibility Score: inf
ROOT
ATOM      1  C   UNL     1     -20.321  -3.372  21.911  1.00  0.00     0.004 C 
ENDROOT
BRANCH   1   2
ATOM      2  C   UNL     1     -19.747  -4.295  23.027  1.00  0.00    -0.009 C 
BRANCH   2   3
ATOM      3  C   UNL     1     -20.528  -4.171  24.371  1.00  0.00     0.000 C 
ATOM      4  C   UNL     1     -21.874  -3.449  24.253  1.00  0.00     0.004 C 
ENDBRANCH   2   3
BRANCH   2   5
ATOM      5  C   UNL     1     -19.624  -5.781  22.534  1.00  0.00    -0.014 C 
ATOM      6  C   UNL     1     -20.491  -6.743  23.369  1.00  0.00     0.007 C 
ATOM      7  C   UNL     1     -20.014  -5.932  21.050  1.00  0.00     0.007 C 
ENDBRANCH   2   5
ENDBRANCH   1   2
BRANCH   1   8
ATOM      8  C   UNL     1     -19.395  -2.202  21.520  1.00  0.00     0.004 C 
BRANCH   8   9
ATOM      9  C   UNL     1     -19.785  -0.868  22.202  1.00  0.00    -0.011 C 
ATOM     10  C   UNL     1     -20.391   0.123  21.178  1.00  0.00     0.008 C 
BRANCH   9  11
ATOM     11  C   UNL     1     -18.627  -0.312  23.111  1.00  0.00    -0.002 C 
ATOM     12  C   UNL     1     -17.459  -1.300  23.310  1.00  0.00     0.005 C 
ATOM     13  C   UNL     1     -18.921   0.314  24.517  1.00  0.00    -0.026 C 
ATOM     14  C   UNL     1     -16.903  -1.047  24.708  1.00  0.00     0.005 C 
ATOM     15  C   UNL     1     -17.524   0.274  25.178  1.00  0.00    -0.001 C 
ATOM     16  C   UNL     1     -19.928  -0.528  25.347  1.00  0.00     0.007 C 
ATOM     17  C   UNL     1     -19.412   1.784  24.398  1.00  0.00     0.012 C 
ATOM     18  C   UNL     1     -17.506   0.513  26.720  1.00  0.00     0.004 C 
ATOM     19  C   UNL     1     -19.953  -0.148  26.829  1.00  0.00     0.005 C 
ATOM     20  C   UNL     1     -18.565  -0.325  27.494  1.00  0.00     0.003 C 
ATOM     21  C   UNL     1     -16.095   0.286  27.288  1.00  0.00     0.085 C 
ATOM     22  C   UNL     1     -18.585  -0.010  29.049  1.00  0.00    -0.000 C 
ATOM     23  C   UNL     1     -16.056   0.523  28.760  1.00  0.00     0.159 C 
ATOM     24  C   UNL     1     -17.157   0.021  29.609  1.00  0.00     0.005 C 
ATOM     25  C   UNL     1     -19.397  -1.125  29.787  1.00  0.00     0.020 C 
ATOM     26  C   UNL     1     -19.230   1.372  29.346  1.00  0.00     0.017 C 
ATOM     27  O   UNL     1     -15.040   1.068  29.273  1.00  0.00    -0.295 OA
ATOM     28  C   UNL     1     -16.897  -0.300  30.892  1.00  0.00     0.055 C 
ATOM     29  C   UNL     1     -19.346  -0.996  31.315  1.00  0.00     0.081 C 
ATOM     30  C   UNL     1     -17.938  -0.818  31.793  1.00  0.00     0.156 C 
ATOM     31  O   UNL     1     -17.646  -1.099  32.985  1.00  0.00    -0.295 OA
ENDBRANCH   9  11
ENDBRANCH   8   9
ENDBRANCH   1   8
TORSDOF 6
ENDMDL
MODEL 5
REMARK VINA RESULT:    -6.240      5.591      8.775
REMARK INTER + INTRA:         -10.224
REMARK INTER:                  -8.000
REMARK INTRA:                  -2.224
REMARK UNBOUND:                -1.795
REMARK SMILES CC[C@H](CC[C@H](C)[C@@H]1CC[C@@H]2[C@@H]3CC(=O)C4=CC(=O)CC[C@]4(C)[C@H]3CC[C@@]21C)C(C)C
REMARK SMILES IDX 4 1 3 2 2 3 1 4 29 5 30 6 31 7 5 8 6 9 7 10 8 11 9 12 27 13
REMARK SMILES IDX 10 14 11 15 26 16 28 17 12 18 25 19 24 20 13 21 22 22 14 23
REMARK SMILES IDX 16 24 21 25 23 26 15 27 17 28 20 29 18 30 19 31
REMARK H PARENT
REMARK Flexibility Score: inf
ROOT
ATOM      1  C   UNL     1     -21.874  -2.706  21.224  1.00  0.00     0.004 C 
ENDROOT
BRANCH   1   2
ATOM      2  C   UNL     1     -21.526  -4.054  21.924  1.00  0.00    -0.009 C 
BRANCH   2   3
ATOM      3  C   UNL     1     -20.086  -4.550  21.593  1.00  0.00     0.000 C 
ATOM      4  C   UNL     1     -19.999  -6.034  21.222  1.00  0.00     0.004 C 
ENDBRANCH   2   3
BRANCH   2   5
ATOM      5  C   UNL     1     -21.803  -3.984  23.469  1.00  0.00    -0.014 C 
ATOM      6  C   UNL     1     -20.504  -3.832  24.284  1.00  0.00     0.007 C 
ATOM      7  C   UNL     1     -22.751  -2.825  23.835  1.00  0.00     0.007 C 
ENDBRANCH   2   5
ENDBRANCH   1   2
BRANCH   1   8
ATOM      8  C   UNL     1     -20.643  -1.884  20.791  1.00  0.00     0.004 C 
BRANCH   8   9
ATOM      9  C   UNL     1     -20.615  -0.465  21.409  1.00  0.00    -0.011 C 
ATOM     10  C   UNL     1     -20.954   0.610  20.347  1.00  0.00     0.008 C 
BRANCH   9  11
ATOM     11  C   UNL     1     -19.316  -0.221  22.262  1.00  0.00    -0.002 C 
ATOM     12  C   UNL     1     -18.421  -1.468  22.409  1.00  0.00     0.005 C 
ATOM     13  C   UNL     1     -19.382   0.446  23.679  1.00  0.00    -0.026 C 
ATOM     14  C   UNL     1     -17.756  -1.373  23.778  1.00  0.00     0.005 C 
ATOM     15  C   UNL     1     -18.009   0.056  24.274  1.00  0.00    -0.001 C 
ATOM     16  C   UNL     1     -20.526  -0.129  24.556  1.00  0.00     0.007 C 
ATOM     17  C   UNL     1     -19.499   1.992  23.579  1.00  0.00     0.012 C 
ATOM     18  C   UNL     1     -17.863   0.269  25.813  1.00  0.00     0.004 C 
ATOM     19  C   UNL     1     -20.389   0.232  26.037  1.00  0.00     0.005 C 
ATOM     20  C   UNL     1     -19.059  -0.288  26.637  1.00  0.00     0.003 C 
ATOM     21  C   UNL     1     -16.527  -0.305  26.315  1.00  0.00     0.085 C 
ATOM     22  C   UNL     1     -18.930   0.007  28.191  1.00  0.00    -0.000 C 
ATOM     23  C   UNL     1     -16.364  -0.098  27.783  1.00  0.00     0.159 C 
ATOM     24  C   UNL     1     -17.514  -0.321  28.684  1.00  0.00     0.005 C 
ATOM     25  C   UNL     1     -19.957  -0.879  28.968  1.00  0.00     0.020 C 
ATOM     26  C   UNL     1     -19.199   1.503  28.514  1.00  0.00     0.017 C 
ATOM     27  O   UNL     1     -15.222   0.174  28.247  1.00  0.00    -0.295 OA
ATOM     28  C   UNL     1     -17.284  -0.708  29.954  1.00  0.00     0.055 C 
ATOM     29  C   UNL     1     -19.807  -0.781  30.492  1.00  0.00     0.081 C 
ATOM     30  C   UNL     1     -18.378  -0.961  30.903  1.00  0.00     0.156 C 
ATOM     31  O   UNL     1     -18.110  -1.316  32.081  1.00  0.00    -0.295 OA
ENDBRANCH   9  11
ENDBRANCH   8   9
ENDBRANCH   1   8
TORSDOF 6
ENDMDL
MODEL 6
REMARK VINA RESULT:    -6.226      3.956      7.252
REMARK INTER + INTRA:         -10.205
REMARK INTER:                  -8.279
REMARK INTRA:                  -1.926
REMARK UNBOUND:                -1.795
REMARK SMILES CC[C@H](CC[C@H](C)[C@@H]1CC[C@@H]2[C@@H]3CC(=O)C4=CC(=O)CC[C@]4(C)[C@H]3CC[C@@]21C)C(C)C
REMARK SMILES IDX 4 1 3 2 2 3 1 4 29 5 30 6 31 7 5 8 6 9 7 10 8 11 9 12 27 13
REMARK SMILES IDX 10 14 11 15 26 16 28 17 12 18 25 19 24 20 13 21 22 22 14 23
REMARK SMILES IDX 16 24 21 25 23 26 15 27 17 28 20 29 18 30 19 31
REMARK H PARENT
REMARK Flexibility Score: inf
ROOT
ATOM      1  C   UNL     1     -15.355   0.309  27.397  1.00  0.00     0.004 C 
ENDROOT
BRANCH   1   2
ATOM      2  C   UNL     1     -15.874   1.685  26.881  1.00  0.00    -0.009 C 
BRANCH   2   3
ATOM      3  C   UNL     1     -17.406   1.871  27.102  1.00  0.00     0.000 C 
ATOM      4  C   UNL     1     -17.768   2.877  28.199  1.00  0.00     0.004 C 
ENDBRANCH   2   3
BRANCH   2   5
ATOM      5  C   UNL     1     -15.029   2.872  27.468  1.00  0.00    -0.014 C 
ATOM      6  C   UNL     1     -13.674   2.396  28.029  1.00  0.00     0.007 C 
ATOM      7  C   UNL     1     -14.766   3.970  26.418  1.00  0.00     0.007 C 
ENDBRANCH   2   5
ENDBRANCH   1   2
BRANCH   1   8
ATOM      8  C   UNL     1     -16.241  -0.334  28.482  1.00  0.00     0.004 C 
BRANCH   8   9
ATOM      9  C   UNL     1     -15.787   0.017  29.921  1.00  0.00    -0.011 C 
ATOM     10  C   UNL     1     -14.475  -0.721  30.285  1.00  0.00     0.008 C 
BRANCH   9  11
ATOM     11  C   UNL     1     -16.967  -0.102  30.955  1.00  0.00    -0.002 C 
ATOM     12  C   UNL     1     -18.362  -0.190  30.304  1.00  0.00     0.005 C 
ATOM     13  C   UNL     1     -17.102   0.893  32.158  1.00  0.00    -0.026 C 
ATOM     14  C   UNL     1     -19.336   0.493  31.258  1.00  0.00     0.005 C 
ATOM     15  C   UNL     1     -18.576   0.683  32.576  1.00  0.00    -0.001 C 
ATOM     16  C   UNL     1     -16.872   2.371  31.740  1.00  0.00     0.007 C 
ATOM     17  C   UNL     1     -16.156   0.507  33.329  1.00  0.00     0.012 C 
ATOM     18  C   UNL     1     -19.158   1.764  33.539  1.00  0.00     0.004 C 
ATOM     19  C   UNL     1     -17.348   3.375  32.792  1.00  0.00     0.005 C 
ATOM     20  C   UNL     1     -18.860   3.224  33.092  1.00  0.00     0.003 C 
ATOM     21  C   UNL     1     -20.666   1.545  33.751  1.00  0.00     0.085 C 
ATOM     22  C   UNL     1     -19.391   4.307  34.124  1.00  0.00    -0.000 C 
ATOM     23  C   UNL     1     -21.238   2.562  34.679  1.00  0.00     0.159 C 
ATOM     24  C   UNL     1     -20.826   3.976  34.557  1.00  0.00     0.005 C 
ATOM     25  C   UNL     1     -19.377   5.714  33.442  1.00  0.00     0.020 C 
ATOM     26  C   UNL     1     -18.517   4.353  35.408  1.00  0.00     0.017 C 
ATOM     27  O   UNL     1     -22.135   2.218  35.498  1.00  0.00    -0.295 OA
ATOM     28  C   UNL     1     -21.688   4.942  34.930  1.00  0.00     0.055 C 
ATOM     29  C   UNL     1     -20.018   6.809  34.306  1.00  0.00     0.081 C 
ATOM     30  C   UNL     1     -21.353   6.371  34.824  1.00  0.00     0.156 C 
ATOM     31  O   UNL     1     -22.192   7.235  35.191  1.00  0.00    -0.295 OA
ENDBRANCH   9  11
ENDBRANCH   8   9
ENDBRANCH   1   8
TORSDOF 6
ENDMDL
MODEL 7
REMARK VINA RESULT:    -6.024      3.936      7.557
REMARK INTER + INTRA:          -9.932
REMARK INTER:                  -8.112
REMARK INTRA:                  -1.820
REMARK UNBOUND:                -1.795
REMARK SMILES CC[C@H](CC[C@H](C)[C@@H]1CC[C@@H]2[C@@H]3CC(=O)C4=CC(=O)CC[C@]4(C)[C@H]3CC[C@@]21C)C(C)C
REMARK SMILES IDX 4 1 3 2 2 3 1 4 29 5 30 6 31 7 5 8 6 9 7 10 8 11 9 12 27 13
REMARK SMILES IDX 10 14 11 15 26 16 28 17 12 18 25 19 24 20 13 21 22 22 14 23
REMARK SMILES IDX 16 24 21 25 23 26 15 27 17 28 20 29 18 30 19 31
REMARK H PARENT
REMARK Flexibility Score: inf
ROOT
ATOM      1  C   UNL     1     -14.287   4.301  28.117  1.00  0.00     0.004 C 
ENDROOT
BRANCH   1   2
ATOM      2  C   UNL     1     -15.247   5.185  27.263  1.00  0.00    -0.009 C 
BRANCH   2   3
ATOM      3  C   UNL     1     -16.619   5.428  27.960  1.00  0.00     0.000 C 
ATOM      4  C   UNL     1     -17.690   4.385  27.627  1.00  0.00     0.004 C 
ENDBRANCH   2   3
BRANCH   2   5
ATOM      5  C   UNL     1     -14.549   6.519  26.816  1.00  0.00    -0.014 C 
ATOM      6  C   UNL     1     -13.765   6.349  25.500  1.00  0.00     0.007 C 
ATOM      7  C   UNL     1     -15.559   7.670  26.641  1.00  0.00     0.007 C 
ENDBRANCH   2   5
ENDBRANCH   1   2
BRANCH   1   8
ATOM      8  C   UNL     1     -13.993   2.916  27.506  1.00  0.00     0.004 C 
BRANCH   8   9
ATOM      9  C   UNL     1     -13.951   1.785  28.563  1.00  0.00    -0.011 C 
ATOM     10  C   UNL     1     -12.555   1.118  28.607  1.00  0.00     0.008 C 
BRANCH   9  11
ATOM     11  C   UNL     1     -15.185   0.817  28.437  1.00  0.00    -0.002 C 
ATOM     12  C   UNL     1     -16.038   1.052  27.173  1.00  0.00     0.005 C 
ATOM     13  C   UNL     1     -16.193   0.620  29.621  1.00  0.00    -0.026 C 
ATOM     14  C   UNL     1     -17.478   0.716  27.547  1.00  0.00     0.005 C 
ATOM     15  C   UNL     1     -17.409  -0.005  28.898  1.00  0.00    -0.001 C 
ATOM     16  C   UNL     1     -16.602   1.963  30.287  1.00  0.00     0.007 C 
ATOM     17  C   UNL     1     -15.640  -0.368  30.685  1.00  0.00     0.012 C 
ATOM     18  C   UNL     1     -18.736  -0.025  29.718  1.00  0.00     0.004 C 
ATOM     19  C   UNL     1     -17.836   1.839  31.183  1.00  0.00     0.005 C 
ATOM     20  C   UNL     1     -19.072   1.334  30.398  1.00  0.00     0.003 C 
ATOM     21  C   UNL     1     -19.906  -0.513  28.845  1.00  0.00     0.085 C 
ATOM     22  C   UNL     1     -20.382   1.272  31.290  1.00  0.00    -0.000 C 
ATOM     23  C   UNL     1     -21.181  -0.551  29.616  1.00  0.00     0.159 C 
ATOM     24  C   UNL     1     -21.512   0.558  30.536  1.00  0.00     0.005 C 
ATOM     25  C   UNL     1     -20.838   2.728  31.632  1.00  0.00     0.020 C 
ATOM     26  C   UNL     1     -20.139   0.490  32.611  1.00  0.00     0.017 C 
ATOM     27  O   UNL     1     -22.004  -1.484  29.405  1.00  0.00    -0.295 OA
ATOM     28  C   UNL     1     -22.807   0.847  30.771  1.00  0.00     0.055 C 
ATOM     29  C   UNL     1     -22.186   2.781  32.364  1.00  0.00     0.081 C 
ATOM     30  C   UNL     1     -23.212   1.944  31.663  1.00  0.00     0.156 C 
ATOM     31  O   UNL     1     -24.435   2.171  31.853  1.00  0.00    -0.295 OA
ENDBRANCH   9  11
ENDBRANCH   8   9
ENDBRANCH   1   8
TORSDOF 6
ENDMDL
MODEL 8
REMARK VINA RESULT:    -5.978      5.343      8.649
REMARK INTER + INTRA:          -9.869
REMARK INTER:                  -7.484
REMARK INTRA:                  -2.385
REMARK UNBOUND:                -1.795
REMARK SMILES CC[C@H](CC[C@H](C)[C@@H]1CC[C@@H]2[C@@H]3CC(=O)C4=CC(=O)CC[C@]4(C)[C@H]3CC[C@@]21C)C(C)C
REMARK SMILES IDX 4 1 3 2 2 3 1 4 29 5 30 6 31 7 5 8 6 9 7 10 8 11 9 12 27 13
REMARK SMILES IDX 10 14 11 15 26 16 28 17 12 18 25 19 24 20 13 21 22 22 14 23
REMARK SMILES IDX 16 24 21 25 23 26 15 27 17 28 20 29 18 30 19 31
REMARK H PARENT
REMARK Flexibility Score: inf
ROOT
ATOM      1  C   UNL     1     -17.143   1.125  32.519  1.00  0.00     0.004 C 
ENDROOT
BRANCH   1   2
ATOM      2  C   UNL     1     -17.056   1.431  30.993  1.00  0.00    -0.009 C 
BRANCH   2   3
ATOM      3  C   UNL     1     -16.857   2.948  30.696  1.00  0.00     0.000 C 
ATOM      4  C   UNL     1     -17.292   3.877  31.833  1.00  0.00     0.004 C 
ENDBRANCH   2   3
BRANCH   2   5
ATOM      5  C   UNL     1     -15.981   0.529  30.289  1.00  0.00    -0.014 C 
ATOM      6  C   UNL     1     -15.518  -0.632  31.191  1.00  0.00     0.007 C 
ATOM      7  C   UNL     1     -16.499  -0.058  28.961  1.00  0.00     0.007 C 
ENDBRANCH   2   5
ENDBRANCH   1   2
BRANCH   1   8
ATOM      8  C   UNL     1     -18.482   0.502  32.962  1.00  0.00     0.004 C 
BRANCH   8   9
ATOM      9  C   UNL     1     -19.657   0.856  32.017  1.00  0.00    -0.011 C 
ATOM     10  C   UNL     1     -20.747   1.664  32.764  1.00  0.00     0.008 C 
BRANCH   9  11
ATOM     11  C   UNL     1     -20.151  -0.395  31.200  1.00  0.00    -0.002 C 
ATOM     12  C   UNL     1     -19.141  -1.560  31.170  1.00  0.00     0.005 C 
ATOM     13  C   UNL     1     -20.704  -0.250  29.741  1.00  0.00    -0.026 C 
ATOM     14  C   UNL     1     -19.314  -2.256  29.823  1.00  0.00     0.005 C 
ATOM     15  C   UNL     1     -20.613  -1.705  29.225  1.00  0.00    -0.001 C 
ATOM     16  C   UNL     1     -19.829   0.683  28.860  1.00  0.00     0.007 C 
ATOM     17  C   UNL     1     -22.183   0.226  29.734  1.00  0.00     0.012 C 
ATOM     18  C   UNL     1     -20.769  -1.878  27.682  1.00  0.00     0.004 C 
ATOM     19  C   UNL     1     -20.130   0.556  27.365  1.00  0.00     0.005 C 
ATOM     20  C   UNL     1     -19.903  -0.888  26.851  1.00  0.00     0.003 C 
ATOM     21  C   UNL     1     -20.497  -3.335  27.269  1.00  0.00     0.085 C 
ATOM     22  C   UNL     1     -20.133  -1.026  25.287  1.00  0.00    -0.000 C 
ATOM     23  C   UNL     1     -20.654  -3.522  25.799  1.00  0.00     0.159 C 
ATOM     24  C   UNL     1     -20.119  -2.503  24.871  1.00  0.00     0.005 C 
ATOM     25  C   UNL     1     -18.990  -0.273  24.533  1.00  0.00     0.020 C 
ATOM     26  C   UNL     1     -21.505  -0.435  24.856  1.00  0.00     0.017 C 
ATOM     27  O   UNL     1     -21.160  -4.592  25.361  1.00  0.00    -0.295 OA
ATOM     28  C   UNL     1     -19.727  -2.882  23.639  1.00  0.00     0.055 C 
ATOM     29  C   UNL     1     -19.036  -0.476  23.012  1.00  0.00     0.081 C 
ATOM     30  C   UNL     1     -19.173  -1.927  22.668  1.00  0.00     0.156 C 
ATOM     31  O   UNL     1     -18.826  -2.331  21.527  1.00  0.00    -0.295 OA
ENDBRANCH   9  11
ENDBRANCH   8   9
ENDBRANCH   1   8
TORSDOF 6
ENDMDL
MODEL 9
REMARK VINA RESULT:    -5.967      5.114      9.052
REMARK INTER + INTRA:          -9.855
REMARK INTER:                  -7.679
REMARK INTRA:                  -2.176
REMARK UNBOUND:                -1.795
REMARK SMILES CC[C@H](CC[C@H](C)[C@@H]1CC[C@@H]2[C@@H]3CC(=O)C4=CC(=O)CC[C@]4(C)[C@H]3CC[C@@]21C)C(C)C
REMARK SMILES IDX 4 1 3 2 2 3 1 4 29 5 30 6 31 7 5 8 6 9 7 10 8 11 9 12 27 13
REMARK SMILES IDX 10 14 11 15 26 16 28 17 12 18 25 19 24 20 13 21 22 22 14 23
REMARK SMILES IDX 16 24 21 25 23 26 15 27 17 28 20 29 18 30 19 31
REMARK H PARENT
REMARK Flexibility Score: inf
ROOT
ATOM      1  C   UNL     1     -16.014   2.316  29.628  1.00  0.00     0.004 C 
ENDROOT
BRANCH   1   2
ATOM      2  C   UNL     1     -15.409   1.648  28.356  1.00  0.00    -0.009 C 
BRANCH   2   3
ATOM      3  C   UNL     1     -14.046   2.278  27.937  1.00  0.00     0.000 C 
ATOM      4  C   UNL     1     -14.171   3.575  27.134  1.00  0.00     0.004 C 
ENDBRANCH   2   3
BRANCH   2   5
ATOM      5  C   UNL     1     -15.334   0.087  28.511  1.00  0.00    -0.014 C 
ATOM      6  C   UNL     1     -15.702  -0.643  27.203  1.00  0.00     0.007 C 
ATOM      7  C   UNL     1     -13.937  -0.384  28.959  1.00  0.00     0.007 C 
ENDBRANCH   2   5
ENDBRANCH   1   2
BRANCH   1   8
ATOM      8  C   UNL     1     -16.752   1.339  30.565  1.00  0.00     0.004 C 
BRANCH   8   9
ATOM      9  C   UNL     1     -18.281   1.578  30.606  1.00  0.00    -0.011 C 
ATOM     10  C   UNL     1     -18.702   2.252  31.935  1.00  0.00     0.008 C 
BRANCH   9  11
ATOM     11  C   UNL     1     -19.089   0.295  30.186  1.00  0.00    -0.002 C 
ATOM     12  C   UNL     1     -18.294  -1.019  30.330  1.00  0.00     0.005 C 
ATOM     13  C   UNL     1     -19.834   0.213  28.810  1.00  0.00    -0.026 C 
ATOM     14  C   UNL     1     -18.783  -1.952  29.227  1.00  0.00     0.005 C 
ATOM     15  C   UNL     1     -20.056  -1.311  28.664  1.00  0.00    -0.001 C 
ATOM     16  C   UNL     1     -18.971   0.741  27.631  1.00  0.00     0.007 C 
ATOM     17  C   UNL     1     -21.201   0.949  28.854  1.00  0.00     0.012 C 
ATOM     18  C   UNL     1     -20.477  -1.791  27.239  1.00  0.00     0.004 C 
ATOM     19  C   UNL     1     -19.518   0.342  26.259  1.00  0.00     0.005 C 
ATOM     20  C   UNL     1     -19.606  -1.195  26.096  1.00  0.00     0.003 C 
ATOM     21  C   UNL     1     -20.508  -3.328  27.172  1.00  0.00     0.085 C 
ATOM     22  C   UNL     1     -20.098  -1.633  24.652  1.00  0.00    -0.000 C 
ATOM     23  C   UNL     1     -20.921  -3.805  25.822  1.00  0.00     0.159 C 
ATOM     24  C   UNL     1     -20.383  -3.140  24.616  1.00  0.00     0.005 C 
ATOM     25  C   UNL     1     -18.982  -1.300  23.609  1.00  0.00     0.020 C 
ATOM     26  C   UNL     1     -21.409  -0.902  24.248  1.00  0.00     0.017 C 
ATOM     27  O   UNL     1     -21.652  -4.829  25.724  1.00  0.00    -0.295 OA
ATOM     28  C   UNL     1     -20.254  -3.853  23.480  1.00  0.00     0.055 C 
ATOM     29  C   UNL     1     -19.297  -1.825  22.201  1.00  0.00     0.081 C 
ATOM     30  C   UNL     1     -19.714  -3.262  22.245  1.00  0.00     0.156 C 
ATOM     31  O   UNL     1     -19.619  -3.970  21.208  1.00  0.00    -0.295 OA
ENDBRANCH   9  11
ENDBRANCH   8   9
ENDBRANCH   1   8
TORSDOF 6
ENDMDL
