MODEL 1
REMARK VINA RESULT:    -3.118      0.000      0.000
REMARK INTER + INTRA:          -4.277
REMARK INTER:                  -4.030
REMARK INTRA:                  -0.247
REMARK UNBOUND:                -0.247
REMARK SMILES CCCCCCC(=O)[O-]
REMARK SMILES IDX 5 1 6 2 7 3 8 4 9 5 4 6 3 7 2 8 1 9
REMARK H PARENT
REMARK Flexibility Score: inf
ROOT
ATOM      1  C   UNL     1      27.256   9.718   6.525  1.00  0.00     0.006 C 
ENDROOT
BRANCH   1   2
ATOM      2  C   UNL     1      27.601  10.560   5.290  1.00  0.00     0.053 C 
BRANCH   2   3
ATOM      3  C   UNL     1      28.163  11.885   5.703  1.00  0.00     0.041 C 
ATOM      4  O   UNL     1      28.944  12.508   4.937  1.00  0.00    -0.550 OA
ATOM      5  O   UNL     1      27.785  12.453   6.912  1.00  0.00    -0.550 OA
ENDBRANCH   2   3
ENDBRANCH   1   2
BRANCH   1   6
ATOM      6  C   UNL     1      25.746   9.437   6.632  1.00  0.00     0.000 C 
BRANCH   6   7
ATOM      7  C   UNL     1      24.942   9.944   5.414  1.00  0.00    -0.000 C 
BRANCH   7   8
ATOM      8  C   UNL     1      23.912  11.029   5.769  1.00  0.00    -0.003 C 
ATOM      9  C   UNL     1      22.908  10.575   6.827  1.00  0.00     0.004 C 
ENDBRANCH   7   8
ENDBRANCH   6   7
ENDBRANCH   1   6
TORSDOF 5
ENDMDL
MODEL 2
REMARK VINA RESULT:    -3.016     15.699     17.443
REMARK INTER + INTRA:          -4.145
REMARK INTER:                  -4.012
REMARK INTRA:                  -0.133
REMARK UNBOUND:                -0.247
REMARK SMILES CCCCCCC(=O)[O-]
REMARK SMILES IDX 5 1 6 2 7 3 8 4 9 5 4 6 3 7 2 8 1 9
REMARK H PARENT
REMARK Flexibility Score: inf
ROOT
ATOM      1  C   UNL     1      15.614   0.390  16.056  1.00  0.00     0.006 C 
ENDROOT
BRANCH   1   2
ATOM      2  C   UNL     1      16.328  -0.097  14.789  1.00  0.00     0.053 C 
BRANCH   2   3
ATOM      3  C   UNL     1      16.087  -1.560  14.585  1.00  0.00     0.041 C 
ATOM      4  O   UNL     1      15.322  -1.954  13.665  1.00  0.00    -0.550 OA
ATOM      5  O   UNL     1      16.745  -2.491  15.378  1.00  0.00    -0.550 OA
ENDBRANCH   2   3
ENDBRANCH   1   2
BRANCH   1   6
ATOM      6  C   UNL     1      15.139   1.849  15.930  1.00  0.00     0.000 C 
BRANCH   6   7
ATOM      7  C   UNL     1      15.831   2.620  14.784  1.00  0.00    -0.000 C 
BRANCH   7   8
ATOM      8  C   UNL     1      15.810   4.146  14.973  1.00  0.00    -0.003 C 
ATOM      9  C   UNL     1      16.761   4.877  14.027  1.00  0.00     0.004 C 
ENDBRANCH   7   8
ENDBRANCH   6   7
ENDBRANCH   1   6
TORSDOF 5
ENDMDL
MODEL 3
REMARK VINA RESULT:    -2.920      8.924     10.115
REMARK INTER + INTRA:          -4.021
REMARK INTER:                  -3.881
REMARK INTRA:                  -0.140
REMARK UNBOUND:                -0.247
REMARK SMILES CCCCCCC(=O)[O-]
REMARK SMILES IDX 5 1 6 2 7 3 8 4 9 5 4 6 3 7 2 8 1 9
REMARK H PARENT
REMARK Flexibility Score: inf
ROOT
ATOM      1  C   UNL     1      24.891   1.380   6.586  1.00  0.00     0.006 C 
ENDROOT
BRANCH   1   2
ATOM      2  C   UNL     1      24.605   2.833   6.184  1.00  0.00     0.053 C 
BRANCH   2   3
ATOM      3  C   UNL     1      23.180   2.983   5.750  1.00  0.00     0.041 C 
ATOM      4  O   UNL     1      22.256   2.442   6.412  1.00  0.00    -0.550 OA
ATOM      5  O   UNL     1      22.869   3.763   4.644  1.00  0.00    -0.550 OA
ENDBRANCH   2   3
ENDBRANCH   1   2
BRANCH   1   6
ATOM      6  C   UNL     1      26.227   1.237   7.336  1.00  0.00     0.000 C 
BRANCH   6   7
ATOM      7  C   UNL     1      26.213   0.119   8.402  1.00  0.00    -0.000 C 
BRANCH   7   8
ATOM      8  C   UNL     1      26.705   0.583   9.783  1.00  0.00    -0.003 C 
ATOM      9  C   UNL     1      27.771   1.674   9.700  1.00  0.00     0.004 C 
ENDBRANCH   7   8
ENDBRANCH   6   7
ENDBRANCH   1   6
TORSDOF 5
ENDMDL
MODEL 4
REMARK VINA RESULT:    -2.892     18.953     20.217
REMARK INTER + INTRA:          -3.985
REMARK INTER:                  -3.801
REMARK INTRA:                  -0.183
REMARK UNBOUND:                -0.247
REMARK SMILES CCCCCCC(=O)[O-]
REMARK SMILES IDX 5 1 6 2 7 3 8 4 9 5 4 6 3 7 2 8 1 9
REMARK H PARENT
REMARK Flexibility Score: inf
ROOT
ATOM      1  C   UNL     1      15.519  -5.626  10.945  1.00  0.00     0.006 C 
ENDROOT
BRANCH   1   2
ATOM      2  C   UNL     1      15.872  -6.276  12.289  1.00  0.00     0.053 C 
BRANCH   2   3
ATOM      3  C   UNL     1      16.353  -5.241  13.257  1.00  0.00     0.041 C 
ATOM      4  O   UNL     1      15.796  -4.113  13.308  1.00  0.00    -0.550 OA
ATOM      5  O   UNL     1      17.384  -5.540  14.138  1.00  0.00    -0.550 OA
ENDBRANCH   2   3
ENDBRANCH   1   2
BRANCH   1   6
ATOM      6  C   UNL     1      15.264  -6.672   9.844  1.00  0.00     0.000 C 
BRANCH   6   7
ATOM      7  C   UNL     1      16.110  -6.438   8.572  1.00  0.00    -0.000 C 
BRANCH   7   8
ATOM      8  C   UNL     1      17.355  -5.569   8.816  1.00  0.00    -0.003 C 
ATOM      9  C   UNL     1      17.648  -4.611   7.663  1.00  0.00     0.004 C 
ENDBRANCH   7   8
ENDBRANCH   6   7
ENDBRANCH   1   6
TORSDOF 5
ENDMDL
MODEL 5
REMARK VINA RESULT:    -2.882      8.382      9.184
REMARK INTER + INTRA:          -3.972
REMARK INTER:                  -3.685
REMARK INTRA:                  -0.287
REMARK UNBOUND:                -0.247
REMARK SMILES CCCCCCC(=O)[O-]
REMARK SMILES IDX 5 1 6 2 7 3 8 4 9 5 4 6 3 7 2 8 1 9
REMARK H PARENT
REMARK Flexibility Score: inf
ROOT
ATOM      1  C   UNL     1      21.266   1.951   4.884  1.00  0.00     0.006 C 
ENDROOT
BRANCH   1   2
ATOM      2  C   UNL     1      22.071   2.715   5.944  1.00  0.00     0.053 C 
BRANCH   2   3
ATOM      3  C   UNL     1      23.437   3.039   5.427  1.00  0.00     0.041 C 
ATOM      4  O   UNL     1      23.654   3.076   4.187  1.00  0.00    -0.550 OA
ATOM      5  O   UNL     1      24.460   3.349   6.314  1.00  0.00    -0.550 OA
ENDBRANCH   2   3
ENDBRANCH   1   2
BRANCH   1   6
ATOM      6  C   UNL     1      19.983   2.699   4.478  1.00  0.00     0.000 C 
BRANCH   6   7
ATOM      7  C   UNL     1      20.242   4.152   4.019  1.00  0.00    -0.000 C 
BRANCH   7   8
ATOM      8  C   UNL     1      19.461   5.198   4.831  1.00  0.00    -0.003 C 
ATOM      9  C   UNL     1      18.163   4.649   5.419  1.00  0.00     0.004 C 
ENDBRANCH   7   8
ENDBRANCH   6   7
ENDBRANCH   1   6
TORSDOF 5
ENDMDL
MODEL 6
REMARK VINA RESULT:    -2.869     18.184     19.596
REMARK INTER + INTRA:          -3.955
REMARK INTER:                  -3.792
REMARK INTRA:                  -0.163
REMARK UNBOUND:                -0.247
REMARK SMILES CCCCCCC(=O)[O-]
REMARK SMILES IDX 5 1 6 2 7 3 8 4 9 5 4 6 3 7 2 8 1 9
REMARK H PARENT
REMARK Flexibility Score: inf
ROOT
ATOM      1  C   UNL     1      15.970  -3.846  15.284  1.00  0.00     0.006 C 
ENDROOT
BRANCH   1   2
ATOM      2  C   UNL     1      15.630  -2.611  14.441  1.00  0.00     0.053 C 
BRANCH   2   3
ATOM      3  C   UNL     1      16.422  -1.429  14.904  1.00  0.00     0.041 C 
ATOM      4  O   UNL     1      17.446  -1.593  15.618  1.00  0.00    -0.550 OA
ATOM      5  O   UNL     1      16.057  -0.149  14.507  1.00  0.00    -0.550 OA
ENDBRANCH   2   3
ENDBRANCH   1   2
BRANCH   1   6
ATOM      6  C   UNL     1      16.025  -5.131  14.438  1.00  0.00     0.000 C 
BRANCH   6   7
ATOM      7  C   UNL     1      16.007  -4.861  12.916  1.00  0.00    -0.000 C 
BRANCH   7   8
ATOM      8  C   UNL     1      16.002  -6.144  12.068  1.00  0.00    -0.003 C 
ATOM      9  C   UNL     1      15.240  -5.985  10.753  1.00  0.00     0.004 C 
ENDBRANCH   7   8
ENDBRANCH   6   7
ENDBRANCH   1   6
TORSDOF 5
ENDMDL
MODEL 7
REMARK VINA RESULT:    -2.848     18.411     19.702
REMARK INTER + INTRA:          -3.928
REMARK INTER:                  -3.691
REMARK INTRA:                  -0.237
REMARK UNBOUND:                -0.247
REMARK SMILES CCCCCCC(=O)[O-]
REMARK SMILES IDX 5 1 6 2 7 3 8 4 9 5 4 6 3 7 2 8 1 9
REMARK H PARENT
REMARK Flexibility Score: inf
ROOT
ATOM      1  C   UNL     1      15.990  -4.494  15.025  1.00  0.00     0.006 C 
ENDROOT
BRANCH   1   2
ATOM      2  C   UNL     1      16.010  -4.678  13.502  1.00  0.00     0.053 C 
BRANCH   2   3
ATOM      3  C   UNL     1      17.099  -5.625  13.106  1.00  0.00     0.041 C 
ATOM      4  O   UNL     1      17.178  -6.040  11.920  1.00  0.00    -0.550 OA
ATOM      5  O   UNL     1      18.057  -6.010  14.035  1.00  0.00    -0.550 OA
ENDBRANCH   2   3
ENDBRANCH   1   2
BRANCH   1   6
ATOM      6  C   UNL     1      15.629  -3.054  15.431  1.00  0.00     0.000 C 
BRANCH   6   7
ATOM      7  C   UNL     1      15.611  -2.069  14.240  1.00  0.00    -0.000 C 
BRANCH   7   8
ATOM      8  C   UNL     1      16.330  -0.742  14.531  1.00  0.00    -0.003 C 
ATOM      9  C   UNL     1      17.374  -0.862  15.640  1.00  0.00     0.004 C 
ENDBRANCH   7   8
ENDBRANCH   6   7
ENDBRANCH   1   6
TORSDOF 5
ENDMDL
MODEL 8
REMARK VINA RESULT:    -2.835     18.382     19.313
REMARK INTER + INTRA:          -3.911
REMARK INTER:                  -3.446
REMARK INTRA:                  -0.465
REMARK UNBOUND:                -0.247
REMARK SMILES CCCCCCC(=O)[O-]
REMARK SMILES IDX 5 1 6 2 7 3 8 4 9 5 4 6 3 7 2 8 1 9
REMARK H PARENT
REMARK Flexibility Score: inf
ROOT
ATOM      1  C   UNL     1      15.407  -1.733  14.234  1.00  0.00     0.006 C 
ENDROOT
BRANCH   1   2
ATOM      2  C   UNL     1      15.938  -3.153  14.470  1.00  0.00     0.053 C 
BRANCH   2   3
ATOM      3  C   UNL     1      15.951  -3.469  15.933  1.00  0.00     0.041 C 
ATOM      4  O   UNL     1      16.945  -4.044  16.448  1.00  0.00    -0.550 OA
ATOM      5  O   UNL     1      14.886  -3.082  16.736  1.00  0.00    -0.550 OA
ENDBRANCH   2   3
ENDBRANCH   1   2
BRANCH   1   6
ATOM      6  C   UNL     1      16.467  -0.659  14.539  1.00  0.00     0.000 C 
BRANCH   6   7
ATOM      7  C   UNL     1      15.984   0.406  15.549  1.00  0.00    -0.000 C 
BRANCH   7   8
ATOM      8  C   UNL     1      16.537   0.200  16.968  1.00  0.00    -0.003 C 
ATOM      9  C   UNL     1      17.880  -0.529  16.984  1.00  0.00     0.004 C 
ENDBRANCH   7   8
ENDBRANCH   6   7
ENDBRANCH   1   6
TORSDOF 5
ENDMDL
MODEL 9
REMARK VINA RESULT:    -2.785     17.580     18.898
REMARK INTER + INTRA:          -3.846
REMARK INTER:                  -3.403
REMARK INTRA:                  -0.443
REMARK UNBOUND:                -0.247
REMARK SMILES CCCCCCC(=O)[O-]
REMARK SMILES IDX 5 1 6 2 7 3 8 4 9 5 4 6 3 7 2 8 1 9
REMARK H PARENT
REMARK Flexibility Score: inf
ROOT
ATOM      1  C   UNL     1      16.394  -0.560  14.449  1.00  0.00     0.006 C 
ENDROOT
BRANCH   1   2
ATOM      2  C   UNL     1      16.452   0.209  15.776  1.00  0.00     0.053 C 
BRANCH   2   3
ATOM      3  C   UNL     1      17.432  -0.433  16.707  1.00  0.00     0.041 C 
ATOM      4  O   UNL     1      17.320  -0.276  17.951  1.00  0.00    -0.550 OA
ATOM      5  O   UNL     1      18.440  -1.245  16.204  1.00  0.00    -0.550 OA
ENDBRANCH   2   3
ENDBRANCH   1   2
BRANCH   1   6
ATOM      6  C   UNL     1      15.340  -1.681  14.473  1.00  0.00     0.000 C 
BRANCH   6   7
ATOM      7  C   UNL     1      15.956  -3.099  14.491  1.00  0.00    -0.000 C 
BRANCH   7   8
ATOM      8  C   UNL     1      15.649  -3.884  15.777  1.00  0.00    -0.003 C 
ATOM      9  C   UNL     1      14.787  -3.098  16.763  1.00  0.00     0.004 C 
ENDBRANCH   7   8
ENDBRANCH   6   7
ENDBRANCH   1   6
TORSDOF 5
ENDMDL
