MODEL 1
REMARK VINA RESULT:    -4.147      0.000      0.000
REMARK INTER + INTRA:          -4.520
REMARK INTER:                  -4.510
REMARK INTRA:                  -0.010
REMARK UNBOUND:                -0.010
REMARK SMILES OCc1ccccc1
REMARK SMILES IDX 2 1 3 2 6 3 5 4 7 5 4 6 8 7 1 8
REMARK H PARENT 1 9
REMARK Flexibility Score: inf
ROOT
ATOM      1  C   UNL     1      10.493   4.226 -18.215  1.00  0.00     0.191 C 
ENDROOT
BRANCH   1   2
ATOM      2  C   UNL     1      10.368   2.935 -18.978  1.00  0.00    -0.023 A 
ATOM      3  C   UNL     1      10.084   0.565 -20.451  1.00  0.00     0.000 A 
ATOM      4  C   UNL     1       9.247   0.813 -19.360  1.00  0.00     0.000 A 
ATOM      5  C   UNL     1      11.056   1.501 -20.816  1.00  0.00     0.000 A 
ATOM      6  C   UNL     1       9.384   1.997 -18.627  1.00  0.00     0.006 A 
ATOM      7  C   UNL     1      11.195   2.687 -20.086  1.00  0.00     0.006 A 
ENDBRANCH   1   2
BRANCH   1   8
ATOM      8  O   UNL     1       9.501   5.125 -18.626  1.00  0.00    -0.392 OA
ATOM      9  H   UNL     1       9.919   5.718 -19.304  1.00  0.00     0.211 HD
ENDBRANCH   1   8
TORSDOF 2
ENDMDL
MODEL 2
REMARK VINA RESULT:    -4.131     14.745     15.382
REMARK INTER + INTRA:          -4.503
REMARK INTER:                  -4.491
REMARK INTRA:                  -0.012
REMARK UNBOUND:                -0.010
REMARK SMILES OCc1ccccc1
REMARK SMILES IDX 2 1 3 2 6 3 5 4 7 5 4 6 8 7 1 8
REMARK H PARENT 1 9
REMARK Flexibility Score: inf
ROOT
ATOM      1  C   UNL     1      22.770   3.786 -13.547  1.00  0.00     0.191 C 
ENDROOT
BRANCH   1   2
ATOM      2  C   UNL     1      24.008   3.234 -14.201  1.00  0.00    -0.023 A 
ATOM      3  C   UNL     1      26.278   2.133 -15.427  1.00  0.00     0.000 A 
ATOM      4  C   UNL     1      26.154   2.107 -14.036  1.00  0.00     0.000 A 
ATOM      5  C   UNL     1      25.267   2.699 -16.210  1.00  0.00     0.000 A 
ATOM      6  C   UNL     1      25.020   2.651 -13.422  1.00  0.00     0.006 A 
ATOM      7  C   UNL     1      24.131   3.242 -15.600  1.00  0.00     0.006 A 
ENDBRANCH   1   2
BRANCH   1   8
ATOM      8  O   UNL     1      23.112   4.816 -12.662  1.00  0.00    -0.392 OA
ATOM      9  H   UNL     1      23.744   4.424 -12.003  1.00  0.00     0.211 HD
ENDBRANCH   1   8
TORSDOF 2
ENDMDL
MODEL 3
REMARK VINA RESULT:    -4.130      2.085      3.714
REMARK INTER + INTRA:          -4.503
REMARK INTER:                  -4.487
REMARK INTRA:                  -0.016
REMARK UNBOUND:                -0.010
REMARK SMILES OCc1ccccc1
REMARK SMILES IDX 2 1 3 2 6 3 5 4 7 5 4 6 8 7 1 8
REMARK H PARENT 1 9
REMARK Flexibility Score: inf
ROOT
ATOM      1  C   UNL     1      10.409   0.717 -20.549  1.00  0.00     0.191 C 
ENDROOT
BRANCH   1   2
ATOM      2  C   UNL     1      10.495   2.017 -19.797  1.00  0.00    -0.023 A 
ATOM      3  C   UNL     1      10.598   4.471 -18.442  1.00  0.00     0.000 A 
ATOM      4  C   UNL     1      11.423   4.249 -19.547  1.00  0.00     0.000 A 
ATOM      5  C   UNL     1       9.713   3.475 -18.017  1.00  0.00     0.000 A 
ATOM      6  C   UNL     1      11.370   3.028 -20.228  1.00  0.00     0.006 A 
ATOM      7  C   UNL     1       9.656   2.253 -18.696  1.00  0.00     0.006 A 
ENDBRANCH   1   2
BRANCH   1   8
ATOM      8  O   UNL     1      10.501   0.951 -21.927  1.00  0.00    -0.392 OA
ATOM      9  H   UNL     1      11.288   0.437 -22.250  1.00  0.00     0.211 HD
ENDBRANCH   1   8
TORSDOF 2
ENDMDL
MODEL 4
REMARK VINA RESULT:    -4.116      2.091      3.312
REMARK INTER + INTRA:          -4.487
REMARK INTER:                  -4.473
REMARK INTRA:                  -0.014
REMARK UNBOUND:                -0.010
REMARK SMILES OCc1ccccc1
REMARK SMILES IDX 2 1 3 2 6 3 5 4 7 5 4 6 8 7 1 8
REMARK H PARENT 1 9
REMARK Flexibility Score: inf
ROOT
ATOM      1  C   UNL     1      10.443   0.735 -20.503  1.00  0.00     0.191 C 
ENDROOT
BRANCH   1   2
ATOM      2  C   UNL     1      10.503   2.075 -19.823  1.00  0.00    -0.023 A 
ATOM      3  C   UNL     1      10.675   4.546 -18.506  1.00  0.00     0.000 A 
ATOM      4  C   UNL     1       9.781   3.573 -18.051  1.00  0.00     0.000 A 
ATOM      5  C   UNL     1      11.491   4.286 -19.611  1.00  0.00     0.000 A 
ATOM      6  C   UNL     1       9.698   2.338 -18.703  1.00  0.00     0.006 A 
ATOM      7  C   UNL     1      11.411   3.052 -20.265  1.00  0.00     0.006 A 
ENDBRANCH   1   2
BRANCH   1   8
ATOM      8  O   UNL     1      10.444   0.901 -21.894  1.00  0.00    -0.392 OA
ATOM      9  H   UNL     1      11.136   0.286 -22.252  1.00  0.00     0.211 HD
ENDBRANCH   1   8
TORSDOF 2
ENDMDL
MODEL 5
REMARK VINA RESULT:    -4.097     15.696     16.662
REMARK INTER + INTRA:          -4.467
REMARK INTER:                  -4.451
REMARK INTRA:                  -0.015
REMARK UNBOUND:                -0.010
REMARK SMILES OCc1ccccc1
REMARK SMILES IDX 2 1 3 2 6 3 5 4 7 5 4 6 8 7 1 8
REMARK H PARENT 1 9
REMARK Flexibility Score: inf
ROOT
ATOM      1  C   UNL     1      10.559 -11.133 -12.690  1.00  0.00     0.191 C 
ENDROOT
BRANCH   1   2
ATOM      2  C   UNL     1      10.988 -12.395 -13.387  1.00  0.00    -0.023 A 
ATOM      3  C   UNL     1      11.728 -14.789 -14.648  1.00  0.00     0.000 A 
ATOM      4  C   UNL     1      12.310 -14.434 -13.428  1.00  0.00     0.000 A 
ATOM      5  C   UNL     1      10.771 -13.957 -15.236  1.00  0.00     0.000 A 
ATOM      6  C   UNL     1      11.938 -13.243 -12.795  1.00  0.00     0.006 A 
ATOM      7  C   UNL     1      10.395 -12.766 -14.605  1.00  0.00     0.006 A 
ENDBRANCH   1   2
BRANCH   1   8
ATOM      8  O   UNL     1      10.406 -11.369 -11.319  1.00  0.00    -0.392 OA
ATOM      9  H   UNL     1      10.262 -10.483 -10.893  1.00  0.00     0.211 HD
ENDBRANCH   1   8
TORSDOF 2
ENDMDL
MODEL 6
REMARK VINA RESULT:    -4.084     21.172     21.659
REMARK INTER + INTRA:          -4.453
REMARK INTER:                  -4.439
REMARK INTRA:                  -0.013
REMARK UNBOUND:                -0.010
REMARK SMILES OCc1ccccc1
REMARK SMILES IDX 2 1 3 2 6 3 5 4 7 5 4 6 8 7 1 8
REMARK H PARENT 1 9
REMARK Flexibility Score: inf
ROOT
ATOM      1  C   UNL     1      24.339 -13.647 -12.627  1.00  0.00     0.191 C 
ENDROOT
BRANCH   1   2
ATOM      2  C   UNL     1      23.783 -12.492 -11.840  1.00  0.00    -0.023 A 
ATOM      3  C   UNL     1      22.769 -10.377 -10.302  1.00  0.00     0.000 A 
ATOM      4  C   UNL     1      21.942 -11.450 -10.643  1.00  0.00     0.000 A 
ATOM      5  C   UNL     1      24.103 -10.360 -10.718  1.00  0.00     0.000 A 
ATOM      6  C   UNL     1      22.448 -12.509 -11.405  1.00  0.00     0.006 A 
ATOM      7  C   UNL     1      24.613 -11.418 -11.479  1.00  0.00     0.006 A 
ENDBRANCH   1   2
BRANCH   1   8
ATOM      8  O   UNL     1      25.480 -14.156 -11.995  1.00  0.00    -0.392 OA
ATOM      9  H   UNL     1      26.228 -13.544 -12.225  1.00  0.00     0.211 HD
ENDBRANCH   1   8
TORSDOF 2
ENDMDL
MODEL 7
REMARK VINA RESULT:    -4.076     20.702     21.371
REMARK INTER + INTRA:          -4.444
REMARK INTER:                  -4.432
REMARK INTRA:                  -0.012
REMARK UNBOUND:                -0.010
REMARK SMILES OCc1ccccc1
REMARK SMILES IDX 2 1 3 2 6 3 5 4 7 5 4 6 8 7 1 8
REMARK H PARENT 1 9
REMARK Flexibility Score: inf
ROOT
ATOM      1  C   UNL     1      24.285 -12.097 -16.765  1.00  0.00     0.191 C 
ENDROOT
BRANCH   1   2
ATOM      2  C   UNL     1      25.276 -11.380 -15.888  1.00  0.00    -0.023 A 
ATOM      3  C   UNL     1      27.074  -9.977 -14.255  1.00  0.00     0.000 A 
ATOM      4  C   UNL     1      27.221  -9.944 -15.644  1.00  0.00     0.000 A 
ATOM      5  C   UNL     1      26.026 -10.700 -13.679  1.00  0.00     0.000 A 
ATOM      6  C   UNL     1      26.322 -10.639 -16.461  1.00  0.00     0.006 A 
ATOM      7  C   UNL     1      25.124 -11.395 -14.492  1.00  0.00     0.006 A 
ENDBRANCH   1   2
BRANCH   1   8
ATOM      8  O   UNL     1      24.949 -13.012 -17.590  1.00  0.00    -0.392 OA
ATOM      9  H   UNL     1      25.784 -12.568 -17.893  1.00  0.00     0.211 HD
ENDBRANCH   1   8
TORSDOF 2
ENDMDL
MODEL 8
REMARK VINA RESULT:    -4.019     12.570     13.509
REMARK INTER + INTRA:          -4.381
REMARK INTER:                  -4.362
REMARK INTRA:                  -0.019
REMARK UNBOUND:                -0.010
REMARK SMILES OCc1ccccc1
REMARK SMILES IDX 2 1 3 2 6 3 5 4 7 5 4 6 8 7 1 8
REMARK H PARENT 1 9
REMARK Flexibility Score: inf
ROOT
ATOM      1  C   UNL     1      24.021  -2.163 -20.007  1.00  0.00     0.191 C 
ENDROOT
BRANCH   1   2
ATOM      2  C   UNL     1      23.241  -0.893 -20.209  1.00  0.00    -0.023 A 
ATOM      3  C   UNL     1      21.836   1.495 -20.649  1.00  0.00     0.000 A 
ATOM      4  C   UNL     1      22.939   1.482 -19.791  1.00  0.00     0.000 A 
ATOM      5  C   UNL     1      21.438   0.321 -21.295  1.00  0.00     0.000 A 
ATOM      6  C   UNL     1      23.644   0.294 -19.574  1.00  0.00     0.006 A 
ATOM      7  C   UNL     1      22.142  -0.869 -21.082  1.00  0.00     0.006 A 
ENDBRANCH   1   2
BRANCH   1   8
ATOM      8  O   UNL     1      23.664  -3.106 -20.979  1.00  0.00    -0.392 OA
ATOM      9  H   UNL     1      22.903  -2.716 -21.486  1.00  0.00     0.211 HD
ENDBRANCH   1   8
TORSDOF 2
ENDMDL
MODEL 9
REMARK VINA RESULT:    -4.010     21.135     21.747
REMARK INTER + INTRA:          -4.372
REMARK INTER:                  -4.358
REMARK INTRA:                  -0.014
REMARK UNBOUND:                -0.010
REMARK SMILES OCc1ccccc1
REMARK SMILES IDX 2 1 3 2 6 3 5 4 7 5 4 6 8 7 1 8
REMARK H PARENT 1 9
REMARK Flexibility Score: inf
ROOT
ATOM      1  C   UNL     1      23.981 -12.698 -16.316  1.00  0.00     0.191 C 
ENDROOT
BRANCH   1   2
ATOM      2  C   UNL     1      24.326 -12.661 -14.853  1.00  0.00    -0.023 A 
ATOM      3  C   UNL     1      25.038 -12.634 -12.139  1.00  0.00     0.000 A 
ATOM      4  C   UNL     1      24.250 -13.671 -12.643  1.00  0.00     0.000 A 
ATOM      5  C   UNL     1      25.481 -11.614 -12.988  1.00  0.00     0.000 A 
ATOM      6  C   UNL     1      23.898 -13.689 -13.998  1.00  0.00     0.006 A 
ATOM      7  C   UNL     1      25.133 -11.630 -14.343  1.00  0.00     0.006 A 
ENDBRANCH   1   2
BRANCH   1   8
ATOM      8  O   UNL     1      25.135 -12.509 -17.087  1.00  0.00    -0.392 OA
ATOM      9  H   UNL     1      25.682 -11.827 -16.616  1.00  0.00     0.211 HD
ENDBRANCH   1   8
TORSDOF 2
ENDMDL
