MODEL 1
REMARK VINA RESULT:    -6.195      0.000      0.000
REMARK INTER + INTRA:          -7.917
REMARK INTER:                  -7.644
REMARK INTRA:                  -0.273
REMARK UNBOUND:                -0.273
REMARK SMILES COc1cc(-c2oc3cc(O)cc(O)c3c(=O)c2O)ccc1O
REMARK SMILES IDX 6 1 18 2 16 3 17 4 15 5 13 6 12 7 10 8 9 9 8 10 7 11 5 12
REMARK SMILES IDX 3 13 22 14 4 15 21 16 20 17 2 18 1 19 23 20 19 22 14 24
REMARK SMILES IDX 11 26
REMARK H PARENT 23 21 19 23 14 25 11 27
REMARK Flexibility Score: inf
ROOT
ATOM      1  C   UNL     1      18.424  -1.139 -16.638  1.00  0.00     0.180 A 
ATOM      2  C   UNL     1      17.758  -0.343 -15.690  1.00  0.00     0.208 A 
ATOM      3  C   UNL     1      17.052  -0.968 -14.650  1.00  0.00     0.238 A 
ATOM      4  O   UNL     1      16.522  -0.249 -13.763  1.00  0.00    -0.285 OA
ATOM      5  C   UNL     1      16.972  -2.381 -14.602  1.00  0.00     0.111 A 
ATOM      6  C   UNL     1      16.247  -3.121 -13.619  1.00  0.00     0.134 A 
ATOM      7  C   UNL     1      16.328  -4.519 -13.609  1.00  0.00     0.093 A 
ATOM      8  C   UNL     1      17.054  -5.206 -14.584  1.00  0.00     0.123 A 
ATOM      9  C   UNL     1      17.719  -4.495 -15.579  1.00  0.00     0.094 A 
ATOM     10  C   UNL     1      17.691  -3.099 -15.594  1.00  0.00     0.146 A 
ATOM     11  O   UNL     1      18.357  -2.462 -16.548  1.00  0.00    -0.452 OA
ENDROOT
BRANCH   1  12
ATOM     12  C   UNL     1      19.200  -0.552 -17.753  1.00  0.00     0.025 A 
ATOM     13  C   UNL     1      21.129   0.691 -18.597  1.00  0.00     0.161 A 
ATOM     14  C   UNL     1      20.672   0.496 -19.908  1.00  0.00     0.157 A 
ATOM     15  C   UNL     1      20.392   0.158 -17.522  1.00  0.00     0.062 A 
ATOM     16  C   UNL     1      19.498  -0.230 -20.141  1.00  0.00     0.051 A 
ATOM     17  C   UNL     1      18.771  -0.757 -19.072  1.00  0.00     0.016 A 
BRANCH  13  18
ATOM     18  O   UNL     1      22.317   1.415 -18.405  1.00  0.00    -0.493 OA
ATOM     19  C   UNL     1      22.989   1.544 -17.156  1.00  0.00     0.278 C 
ENDBRANCH  13  18
BRANCH  14  20
ATOM     20  O   UNL     1      21.395   1.025 -20.977  1.00  0.00    -0.504 OA
ATOM     21  H   UNL     1      22.259   0.601 -21.293  1.00  0.00     0.293 HD
ENDBRANCH  14  20
ENDBRANCH   1  12
BRANCH   2  22
ATOM     22  O   UNL     1      17.786   1.051 -15.798  1.00  0.00    -0.502 OA
ATOM     23  H   UNL     1      17.023   1.581 -16.202  1.00  0.00     0.293 HD
ENDBRANCH   2  22
BRANCH   6  24
ATOM     24  O   UNL     1      15.419  -2.539 -12.654  1.00  0.00    -0.507 OA
ATOM     25  H   UNL     1      15.398  -2.796 -11.679  1.00  0.00     0.293 HD
ENDBRANCH   6  24
BRANCH   8  26
ATOM     26  O   UNL     1      17.114  -6.598 -14.577  1.00  0.00    -0.508 OA
ATOM     27  H   UNL     1      16.901  -7.142 -15.405  1.00  0.00     0.293 HD
ENDBRANCH   8  26
TORSDOF 6
ENDMDL
MODEL 2
REMARK VINA RESULT:    -5.828      6.708      8.610
REMARK INTER + INTRA:          -7.463
REMARK INTER:                  -7.095
REMARK INTRA:                  -0.368
REMARK UNBOUND:                -0.273
REMARK SMILES COc1cc(-c2oc3cc(O)cc(O)c3c(=O)c2O)ccc1O
REMARK SMILES IDX 6 1 18 2 16 3 17 4 15 5 13 6 12 7 10 8 9 9 8 10 7 11 5 12
REMARK SMILES IDX 3 13 22 14 4 15 21 16 20 17 2 18 1 19 23 20 19 22 14 24
REMARK SMILES IDX 11 26
REMARK H PARENT 23 21 19 23 14 25 11 27
REMARK Flexibility Score: inf
ROOT
ATOM      1  C   UNL     1      18.127  -2.432  -8.995  1.00  0.00     0.180 A 
ATOM      2  C   UNL     1      17.373  -1.245  -8.987  1.00  0.00     0.208 A 
ATOM      3  C   UNL     1      16.287  -1.122  -9.867  1.00  0.00     0.238 A 
ATOM      4  O   UNL     1      15.571  -0.088  -9.801  1.00  0.00    -0.285 OA
ATOM      5  C   UNL     1      16.002  -2.162 -10.785  1.00  0.00     0.111 A 
ATOM      6  C   UNL     1      14.953  -2.126 -11.753  1.00  0.00     0.134 A 
ATOM      7  C   UNL     1      14.698  -3.258 -12.537  1.00  0.00     0.093 A 
ATOM      8  C   UNL     1      15.493  -4.401 -12.433  1.00  0.00     0.123 A 
ATOM      9  C   UNL     1      16.552  -4.426 -11.530  1.00  0.00     0.094 A 
ATOM     10  C   UNL     1      16.809  -3.327 -10.706  1.00  0.00     0.146 A 
ATOM     11  O   UNL     1      17.816  -3.403  -9.845  1.00  0.00    -0.452 OA
ENDROOT
BRANCH   1  12
ATOM     12  C   UNL     1      19.276  -2.641  -8.086  1.00  0.00     0.025 A 
ATOM     13  C   UNL     1      21.679  -2.604  -7.628  1.00  0.00     0.161 A 
ATOM     14  C   UNL     1      21.425  -2.998  -6.306  1.00  0.00     0.157 A 
ATOM     15  C   UNL     1      20.599  -2.420  -8.514  1.00  0.00     0.062 A 
ATOM     16  C   UNL     1      20.109  -3.196  -5.873  1.00  0.00     0.051 A 
ATOM     17  C   UNL     1      19.041  -3.012  -6.754  1.00  0.00     0.016 A 
BRANCH  13  18
ATOM     18  O   UNL     1      23.012  -2.404  -8.022  1.00  0.00    -0.493 OA
ATOM     19  C   UNL     1      23.799  -3.365  -8.718  1.00  0.00     0.278 C 
ENDBRANCH  13  18
BRANCH  14  20
ATOM     20  O   UNL     1      22.491  -3.185  -5.427  1.00  0.00    -0.504 OA
ATOM     21  H   UNL     1      23.389  -2.744  -5.582  1.00  0.00     0.293 HD
ENDBRANCH  14  20
ENDBRANCH   1  12
BRANCH   2  22
ATOM     22  O   UNL     1      17.718  -0.199  -8.125  1.00  0.00    -0.502 OA
ATOM     23  H   UNL     1      17.147   0.060  -7.329  1.00  0.00     0.293 HD
ENDBRANCH   2  22
BRANCH   6  24
ATOM     24  O   UNL     1      14.155  -1.005 -12.003  1.00  0.00    -0.507 OA
ATOM     25  H   UNL     1      14.305  -0.344 -12.750  1.00  0.00     0.293 HD
ENDBRANCH   6  24
BRANCH   8  26
ATOM     26  O   UNL     1      15.242  -5.517 -13.229  1.00  0.00    -0.508 OA
ATOM     27  H   UNL     1      15.034  -6.421 -12.823  1.00  0.00     0.293 HD
ENDBRANCH   8  26
TORSDOF 6
ENDMDL
MODEL 3
REMARK VINA RESULT:    -5.817      1.663      7.052
REMARK INTER + INTRA:          -7.451
REMARK INTER:                  -7.061
REMARK INTRA:                  -0.390
REMARK UNBOUND:                -0.273
REMARK SMILES COc1cc(-c2oc3cc(O)cc(O)c3c(=O)c2O)ccc1O
REMARK SMILES IDX 6 1 18 2 16 3 17 4 15 5 13 6 12 7 10 8 9 9 8 10 7 11 5 12
REMARK SMILES IDX 3 13 22 14 4 15 21 16 20 17 2 18 1 19 23 20 19 22 14 24
REMARK SMILES IDX 11 26
REMARK H PARENT 23 21 19 23 14 25 11 27
REMARK Flexibility Score: inf
ROOT
ATOM      1  C   UNL     1      18.037  -0.355 -15.455  1.00  0.00     0.180 A 
ATOM      2  C   UNL     1      19.093   0.417 -14.938  1.00  0.00     0.208 A 
ATOM      3  C   UNL     1      20.122   0.827 -15.800  1.00  0.00     0.238 A 
ATOM      4  O   UNL     1      21.023   1.581 -15.347  1.00  0.00    -0.285 OA
ATOM      5  C   UNL     1      20.113   0.415 -17.155  1.00  0.00     0.111 A 
ATOM      6  C   UNL     1      21.127   0.736 -18.108  1.00  0.00     0.134 A 
ATOM      7  C   UNL     1      20.959   0.362 -19.447  1.00  0.00     0.093 A 
ATOM      8  C   UNL     1      19.845  -0.374 -19.855  1.00  0.00     0.123 A 
ATOM      9  C   UNL     1      18.877  -0.738 -18.923  1.00  0.00     0.094 A 
ATOM     10  C   UNL     1      18.996  -0.348 -17.587  1.00  0.00     0.146 A 
ATOM     11  O   UNL     1      18.040  -0.699 -16.737  1.00  0.00    -0.452 OA
ENDROOT
BRANCH   1  12
ATOM     12  C   UNL     1      16.910  -0.812 -14.612  1.00  0.00     0.025 A 
ATOM     13  C   UNL     1      15.854  -2.483 -13.171  1.00  0.00     0.161 A 
ATOM     14  C   UNL     1      14.770  -1.616 -12.972  1.00  0.00     0.157 A 
ATOM     15  C   UNL     1      16.926  -2.073 -13.987  1.00  0.00     0.062 A 
ATOM     16  C   UNL     1      14.762  -0.352 -13.575  1.00  0.00     0.051 A 
ATOM     17  C   UNL     1      15.828   0.050 -14.383  1.00  0.00     0.016 A 
BRANCH  13  18
ATOM     18  O   UNL     1      15.830  -3.737 -12.541  1.00  0.00    -0.493 OA
ATOM     19  C   UNL     1      15.907  -4.984 -13.224  1.00  0.00     0.278 C 
ENDBRANCH  13  18
BRANCH  14  20
ATOM     20  O   UNL     1      13.704  -2.018 -12.169  1.00  0.00    -0.504 OA
ATOM     21  H   UNL     1      13.834  -2.666 -11.402  1.00  0.00     0.293 HD
ENDBRANCH  14  20
ENDBRANCH   1  12
BRANCH   2  22
ATOM     22  O   UNL     1      19.121   0.750 -13.580  1.00  0.00    -0.502 OA
ATOM     23  H   UNL     1      19.442   1.652 -13.248  1.00  0.00     0.293 HD
ENDBRANCH   2  22
BRANCH   6  24
ATOM     24  O   UNL     1      22.322   1.389 -17.791  1.00  0.00    -0.507 OA
ATOM     25  H   UNL     1      22.517   1.843 -16.911  1.00  0.00     0.293 HD
ENDBRANCH   6  24
BRANCH   8  26
ATOM     26  O   UNL     1      19.694  -0.756 -21.187  1.00  0.00    -0.508 OA
ATOM     27  H   UNL     1      19.839  -0.101 -21.946  1.00  0.00     0.293 HD
ENDBRANCH   8  26
TORSDOF 6
ENDMDL
MODEL 4
REMARK VINA RESULT:    -5.800      2.094      7.045
REMARK INTER + INTRA:          -7.429
REMARK INTER:                  -7.033
REMARK INTRA:                  -0.395
REMARK UNBOUND:                -0.273
REMARK SMILES COc1cc(-c2oc3cc(O)cc(O)c3c(=O)c2O)ccc1O
REMARK SMILES IDX 6 1 18 2 16 3 17 4 15 5 13 6 12 7 10 8 9 9 8 10 7 11 5 12
REMARK SMILES IDX 3 13 22 14 4 15 21 16 20 17 2 18 1 19 23 20 19 22 14 24
REMARK SMILES IDX 11 26
REMARK H PARENT 23 21 19 23 14 25 11 27
REMARK Flexibility Score: inf
ROOT
ATOM      1  C   UNL     1      18.039  -0.301 -15.444  1.00  0.00     0.180 A 
ATOM      2  C   UNL     1      19.105   0.465 -14.941  1.00  0.00     0.208 A 
ATOM      3  C   UNL     1      20.135   0.854 -15.813  1.00  0.00     0.238 A 
ATOM      4  O   UNL     1      21.046   1.604 -15.374  1.00  0.00    -0.285 OA
ATOM      5  C   UNL     1      20.115   0.425 -17.162  1.00  0.00     0.111 A 
ATOM      6  C   UNL     1      21.129   0.723 -18.124  1.00  0.00     0.134 A 
ATOM      7  C   UNL     1      20.950   0.334 -19.458  1.00  0.00     0.093 A 
ATOM      8  C   UNL     1      19.827  -0.396 -19.852  1.00  0.00     0.123 A 
ATOM      9  C   UNL     1      18.860  -0.738 -18.910  1.00  0.00     0.094 A 
ATOM     10  C   UNL     1      18.989  -0.331 -17.580  1.00  0.00     0.146 A 
ATOM     11  O   UNL     1      18.033  -0.661 -16.721  1.00  0.00    -0.452 OA
ENDROOT
BRANCH   1  12
ATOM     12  C   UNL     1      16.911  -0.736 -14.590  1.00  0.00     0.025 A 
ATOM     13  C   UNL     1      14.723  -0.345 -13.569  1.00  0.00     0.161 A 
ATOM     14  C   UNL     1      14.765  -1.627 -13.004  1.00  0.00     0.157 A 
ATOM     15  C   UNL     1      15.797   0.095 -14.368  1.00  0.00     0.062 A 
ATOM     16  C   UNL     1      15.863  -2.463 -13.243  1.00  0.00     0.051 A 
ATOM     17  C   UNL     1      16.925  -2.024 -14.035  1.00  0.00     0.016 A 
BRANCH  13  18
ATOM     18  O   UNL     1      13.600   0.460 -13.317  1.00  0.00    -0.493 OA
ATOM     19  C   UNL     1      13.148   1.504 -14.173  1.00  0.00     0.278 C 
ENDBRANCH  13  18
BRANCH  14  20
ATOM     20  O   UNL     1      13.707  -2.066 -12.210  1.00  0.00    -0.504 OA
ATOM     21  H   UNL     1      13.517  -1.651 -11.306  1.00  0.00     0.293 HD
ENDBRANCH  14  20
ENDBRANCH   1  12
BRANCH   2  22
ATOM     22  O   UNL     1      19.144   0.815 -13.588  1.00  0.00    -0.502 OA
ATOM     23  H   UNL     1      19.582   0.230 -12.887  1.00  0.00     0.293 HD
ENDBRANCH   2  22
BRANCH   6  24
ATOM     24  O   UNL     1      22.331   1.368 -17.820  1.00  0.00    -0.507 OA
ATOM     25  H   UNL     1      23.043   1.005 -17.205  1.00  0.00     0.293 HD
ENDBRANCH   6  24
BRANCH   8  26
ATOM     26  O   UNL     1      19.666  -0.793 -21.178  1.00  0.00    -0.508 OA
ATOM     27  H   UNL     1      18.782  -0.684 -21.659  1.00  0.00     0.293 HD
ENDBRANCH   8  26
TORSDOF 6
ENDMDL
MODEL 5
REMARK VINA RESULT:    -5.779      8.391     12.495
REMARK INTER + INTRA:          -7.404
REMARK INTER:                  -7.872
REMARK INTRA:                   0.468
REMARK UNBOUND:                -0.273
REMARK SMILES COc1cc(-c2oc3cc(O)cc(O)c3c(=O)c2O)ccc1O
REMARK SMILES IDX 6 1 18 2 16 3 17 4 15 5 13 6 12 7 10 8 9 9 8 10 7 11 5 12
REMARK SMILES IDX 3 13 22 14 4 15 21 16 20 17 2 18 1 19 23 20 19 22 14 24
REMARK SMILES IDX 11 26
REMARK H PARENT 23 21 19 23 14 25 11 27
REMARK Flexibility Score: inf
ROOT
ATOM      1  C   UNL     1      10.785  -7.256  -9.293  1.00  0.00     0.180 A 
ATOM      2  C   UNL     1       9.928  -8.367  -9.378  1.00  0.00     0.208 A 
ATOM      3  C   UNL     1       8.893  -8.503  -8.440  1.00  0.00     0.238 A 
ATOM      4  O   UNL     1       8.084  -9.459  -8.568  1.00  0.00    -0.285 OA
ATOM      5  C   UNL     1       8.762  -7.557  -7.394  1.00  0.00     0.111 A 
ATOM      6  C   UNL     1       7.776  -7.620  -6.362  1.00  0.00     0.134 A 
ATOM      7  C   UNL     1       7.674  -6.569  -5.441  1.00  0.00     0.093 A 
ATOM      8  C   UNL     1       8.561  -5.492  -5.475  1.00  0.00     0.123 A 
ATOM      9  C   UNL     1       9.560  -5.449  -6.444  1.00  0.00     0.094 A 
ATOM     10  C   UNL     1       9.664  -6.461  -7.402  1.00  0.00     0.146 A 
ATOM     11  O   UNL     1      10.617  -6.369  -8.320  1.00  0.00    -0.452 OA
ENDROOT
BRANCH   1  12
ATOM     12  C   UNL     1      11.889  -7.037 -10.254  1.00  0.00     0.025 A 
ATOM     13  C   UNL     1      13.693  -5.660 -11.166  1.00  0.00     0.161 A 
ATOM     14  C   UNL     1      14.015  -6.689 -12.063  1.00  0.00     0.157 A 
ATOM     15  C   UNL     1      12.632  -5.842 -10.258  1.00  0.00     0.062 A 
ATOM     16  C   UNL     1      13.291  -7.887 -12.046  1.00  0.00     0.051 A 
ATOM     17  C   UNL     1      12.240  -8.063 -11.144  1.00  0.00     0.016 A 
BRANCH  13  18
ATOM     18  O   UNL     1      14.450  -4.478 -11.206  1.00  0.00    -0.493 OA
ATOM     19  C   UNL     1      15.584  -4.219 -10.386  1.00  0.00     0.278 C 
ENDBRANCH  13  18
BRANCH  14  20
ATOM     20  O   UNL     1      15.062  -6.513 -12.967  1.00  0.00    -0.504 OA
ATOM     21  H   UNL     1      15.460  -5.599 -13.145  1.00  0.00     0.293 HD
ENDBRANCH  14  20
ENDBRANCH   1  12
BRANCH   2  22
ATOM     22  O   UNL     1      10.122  -9.330 -10.374  1.00  0.00    -0.502 OA
ATOM     23  H   UNL     1       9.414  -9.548 -11.064  1.00  0.00     0.293 HD
ENDBRANCH   2  22
BRANCH   6  24
ATOM     24  O   UNL     1       6.899  -8.692  -6.181  1.00  0.00    -0.507 OA
ATOM     25  H   UNL     1       6.349  -9.119  -6.911  1.00  0.00     0.293 HD
ENDBRANCH   6  24
BRANCH   8  26
ATOM     26  O   UNL     1       8.463  -4.460  -4.543  1.00  0.00    -0.508 OA
ATOM     27  H   UNL     1       7.699  -3.796  -4.568  1.00  0.00     0.293 HD
ENDBRANCH   8  26
TORSDOF 6
ENDMDL
MODEL 6
REMARK VINA RESULT:    -5.745     10.712     11.997
REMARK INTER + INTRA:          -7.361
REMARK INTER:                  -6.995
REMARK INTRA:                  -0.366
REMARK UNBOUND:                -0.273
REMARK SMILES COc1cc(-c2oc3cc(O)cc(O)c3c(=O)c2O)ccc1O
REMARK SMILES IDX 6 1 18 2 16 3 17 4 15 5 13 6 12 7 10 8 9 9 8 10 7 11 5 12
REMARK SMILES IDX 3 13 22 14 4 15 21 16 20 17 2 18 1 19 23 20 19 22 14 24
REMARK SMILES IDX 11 26
REMARK H PARENT 23 21 19 23 14 25 11 27
REMARK Flexibility Score: inf
ROOT
ATOM      1  C   UNL     1       9.110   3.570 -18.683  1.00  0.00     0.180 A 
ATOM      2  C   UNL     1       8.657   2.772 -19.748  1.00  0.00     0.208 A 
ATOM      3  C   UNL     1       7.281   2.524 -19.876  1.00  0.00     0.238 A 
ATOM      4  O   UNL     1       6.875   1.873 -20.874  1.00  0.00    -0.285 OA
ATOM      5  C   UNL     1       6.381   3.029 -18.906  1.00  0.00     0.111 A 
ATOM      6  C   UNL     1       4.971   2.802 -18.911  1.00  0.00     0.134 A 
ATOM      7  C   UNL     1       4.166   3.441 -17.958  1.00  0.00     0.093 A 
ATOM      8  C   UNL     1       4.726   4.245 -16.964  1.00  0.00     0.123 A 
ATOM      9  C   UNL     1       6.105   4.428 -16.918  1.00  0.00     0.094 A 
ATOM     10  C   UNL     1       6.932   3.837 -17.877  1.00  0.00     0.146 A 
ATOM     11  O   UNL     1       8.239   4.055 -17.807  1.00  0.00    -0.452 OA
ENDROOT
BRANCH   1  12
ATOM     12  C   UNL     1      10.543   3.887 -18.492  1.00  0.00     0.025 A 
ATOM     13  C   UNL     1      12.434   5.431 -18.648  1.00  0.00     0.161 A 
ATOM     14  C   UNL     1      13.262   4.465 -18.057  1.00  0.00     0.157 A 
ATOM     15  C   UNL     1      11.072   5.139 -18.857  1.00  0.00     0.062 A 
ATOM     16  C   UNL     1      12.732   3.227 -17.673  1.00  0.00     0.051 A 
ATOM     17  C   UNL     1      11.382   2.942 -17.882  1.00  0.00     0.016 A 
BRANCH  13  18
ATOM     18  O   UNL     1      12.999   6.664 -19.009  1.00  0.00    -0.493 OA
ATOM     19  C   UNL     1      12.489   7.932 -18.610  1.00  0.00     0.278 C 
ENDBRANCH  13  18
BRANCH  14  20
ATOM     20  O   UNL     1      14.612   4.747 -17.851  1.00  0.00    -0.504 OA
ATOM     21  H   UNL     1      15.245   4.054 -17.470  1.00  0.00     0.293 HD
ENDBRANCH  14  20
ENDBRANCH   1  12
BRANCH   2  22
ATOM     22  O   UNL     1       9.570   2.221 -20.653  1.00  0.00    -0.502 OA
ATOM     23  H   UNL     1       9.843   2.694 -21.505  1.00  0.00     0.293 HD
ENDBRANCH   2  22
BRANCH   6  24
ATOM     24  O   UNL     1       4.318   1.947 -19.803  1.00  0.00    -0.507 OA
ATOM     25  H   UNL     1       3.351   1.668 -19.734  1.00  0.00     0.293 HD
ENDBRANCH   6  24
BRANCH   8  26
ATOM     26  O   UNL     1       3.919   4.862 -16.010  1.00  0.00    -0.508 OA
ATOM     27  H   UNL     1       4.279   5.120 -15.099  1.00  0.00     0.293 HD
ENDBRANCH   8  26
TORSDOF 6
ENDMDL
MODEL 7
REMARK VINA RESULT:    -5.738      5.486      8.239
REMARK INTER + INTRA:          -7.353
REMARK INTER:                  -6.967
REMARK INTRA:                  -0.385
REMARK UNBOUND:                -0.273
REMARK SMILES COc1cc(-c2oc3cc(O)cc(O)c3c(=O)c2O)ccc1O
REMARK SMILES IDX 6 1 18 2 16 3 17 4 15 5 13 6 12 7 10 8 9 9 8 10 7 11 5 12
REMARK SMILES IDX 3 13 22 14 4 15 21 16 20 17 2 18 1 19 23 20 19 22 14 24
REMARK SMILES IDX 11 26
REMARK H PARENT 23 21 19 23 14 25 11 27
REMARK Flexibility Score: inf
ROOT
ATOM      1  C   UNL     1      16.938  -6.219 -14.890  1.00  0.00     0.180 A 
ATOM      2  C   UNL     1      16.166  -6.969 -15.794  1.00  0.00     0.208 A 
ATOM      3  C   UNL     1      16.802  -7.919 -16.609  1.00  0.00     0.238 A 
ATOM      4  O   UNL     1      16.094  -8.639 -17.361  1.00  0.00    -0.285 OA
ATOM      5  C   UNL     1      18.209  -8.068 -16.551  1.00  0.00     0.111 A 
ATOM      6  C   UNL     1      18.964  -8.969 -17.363  1.00  0.00     0.134 A 
ATOM      7  C   UNL     1      20.340  -9.106 -17.144  1.00  0.00     0.093 A 
ATOM      8  C   UNL     1      20.999  -8.332 -16.187  1.00  0.00     0.123 A 
ATOM      9  C   UNL     1      20.280  -7.412 -15.429  1.00  0.00     0.094 A 
ATOM     10  C   UNL     1      18.900  -7.278 -15.596  1.00  0.00     0.146 A 
ATOM     11  O   UNL     1      18.252  -6.404 -14.836  1.00  0.00    -0.452 OA
ENDROOT
BRANCH   1  12
ATOM     12  C   UNL     1      16.337  -5.211 -13.988  1.00  0.00     0.025 A 
ATOM     13  C   UNL     1      15.156  -4.610 -11.933  1.00  0.00     0.161 A 
ATOM     14  C   UNL     1      15.259  -3.255 -12.279  1.00  0.00     0.157 A 
ATOM     15  C   UNL     1      15.704  -5.585 -12.789  1.00  0.00     0.062 A 
ATOM     16  C   UNL     1      15.909  -2.879 -13.461  1.00  0.00     0.051 A 
ATOM     17  C   UNL     1      16.451  -3.850 -14.306  1.00  0.00     0.016 A 
BRANCH  13  18
ATOM     18  O   UNL     1      14.507  -4.946 -10.734  1.00  0.00    -0.493 OA
ATOM     19  C   UNL     1      13.175  -5.440 -10.650  1.00  0.00     0.278 C 
ENDBRANCH  13  18
BRANCH  14  20
ATOM     20  O   UNL     1      14.715  -2.285 -11.437  1.00  0.00    -0.504 OA
ATOM     21  H   UNL     1      15.167  -1.389 -11.300  1.00  0.00     0.293 HD
ENDBRANCH  14  20
ENDBRANCH   1  12
BRANCH   2  22
ATOM     22  O   UNL     1      14.788  -6.754 -15.889  1.00  0.00    -0.502 OA
ATOM     23  H   UNL     1      14.219  -6.506 -15.087  1.00  0.00     0.293 HD
ENDBRANCH   2  22
BRANCH   6  24
ATOM     24  O   UNL     1      18.422  -9.724 -18.407  1.00  0.00    -0.507 OA
ATOM     25  H   UNL     1      17.808  -9.366 -19.122  1.00  0.00     0.293 HD
ENDBRANCH   6  24
BRANCH   8  26
ATOM     26  O   UNL     1      22.372  -8.463 -15.988  1.00  0.00    -0.508 OA
ATOM     27  H   UNL     1      22.804  -9.370 -15.858  1.00  0.00     0.293 HD
ENDBRANCH   8  26
TORSDOF 6
ENDMDL
MODEL 8
REMARK VINA RESULT:    -5.658      7.427      9.672
REMARK INTER + INTRA:          -7.254
REMARK INTER:                  -6.948
REMARK INTRA:                  -0.306
REMARK UNBOUND:                -0.273
REMARK SMILES COc1cc(-c2oc3cc(O)cc(O)c3c(=O)c2O)ccc1O
REMARK SMILES IDX 6 1 18 2 16 3 17 4 15 5 13 6 12 7 10 8 9 9 8 10 7 11 5 12
REMARK SMILES IDX 3 13 22 14 4 15 21 16 20 17 2 18 1 19 23 20 19 22 14 24
REMARK SMILES IDX 11 26
REMARK H PARENT 23 21 19 23 14 25 11 27
REMARK Flexibility Score: inf
ROOT
ATOM      1  C   UNL     1      18.619  -1.896  -8.382  1.00  0.00     0.180 A 
ATOM      2  C   UNL     1      17.678  -2.767  -8.958  1.00  0.00     0.208 A 
ATOM      3  C   UNL     1      16.628  -2.229  -9.718  1.00  0.00     0.238 A 
ATOM      4  O   UNL     1      15.833  -3.018 -10.293  1.00  0.00    -0.285 OA
ATOM      5  C   UNL     1      16.498  -0.824  -9.846  1.00  0.00     0.111 A 
ATOM      6  C   UNL     1      15.447  -0.167 -10.556  1.00  0.00     0.134 A 
ATOM      7  C   UNL     1      15.481   1.225 -10.704  1.00  0.00     0.093 A 
ATOM      8  C   UNL     1      16.490   1.989 -10.116  1.00  0.00     0.123 A 
ATOM      9  C   UNL     1      17.489   1.362  -9.376  1.00  0.00     0.094 A 
ATOM     10  C   UNL     1      17.506  -0.028  -9.242  1.00  0.00     0.146 A 
ATOM     11  O   UNL     1      18.489  -0.585  -8.545  1.00  0.00    -0.452 OA
ENDROOT
BRANCH   1  12
ATOM     12  C   UNL     1      19.761  -2.390  -7.580  1.00  0.00     0.025 A 
ATOM     13  C   UNL     1      22.156  -2.793  -7.286  1.00  0.00     0.161 A 
ATOM     14  C   UNL     1      21.907  -3.288  -5.998  1.00  0.00     0.157 A 
ATOM     15  C   UNL     1      21.079  -2.338  -8.072  1.00  0.00     0.062 A 
ATOM     16  C   UNL     1      20.599  -3.319  -5.499  1.00  0.00     0.051 A 
ATOM     17  C   UNL     1      19.535  -2.867  -6.281  1.00  0.00     0.016 A 
BRANCH  13  18
ATOM     18  O   UNL     1      23.482  -2.767  -7.748  1.00  0.00    -0.493 OA
ATOM     19  C   UNL     1      23.867  -2.426  -9.075  1.00  0.00     0.278 C 
ENDBRANCH  13  18
BRANCH  14  20
ATOM     20  O   UNL     1      22.969  -3.744  -5.218  1.00  0.00    -0.504 OA
ATOM     21  H   UNL     1      23.799  -3.182  -5.074  1.00  0.00     0.293 HD
ENDBRANCH  14  20
ENDBRANCH   1  12
BRANCH   2  22
ATOM     22  O   UNL     1      17.781  -4.147  -8.757  1.00  0.00    -0.502 OA
ATOM     23  H   UNL     1      17.767  -4.565  -7.834  1.00  0.00     0.293 HD
ENDBRANCH   2  22
BRANCH   6  24
ATOM     24  O   UNL     1      14.343  -0.824 -11.106  1.00  0.00    -0.507 OA
ATOM     25  H   UNL     1      13.384  -0.534 -10.996  1.00  0.00     0.293 HD
ENDBRANCH   6  24
BRANCH   8  26
ATOM     26  O   UNL     1      16.506   3.376 -10.255  1.00  0.00    -0.508 OA
ATOM     27  H   UNL     1      17.328   3.865 -10.588  1.00  0.00     0.293 HD
ENDBRANCH   8  26
TORSDOF 6
ENDMDL
MODEL 9
REMARK VINA RESULT:    -5.581      4.847      7.621
REMARK INTER + INTRA:          -7.159
REMARK INTER:                  -6.764
REMARK INTRA:                  -0.396
REMARK UNBOUND:                -0.273
REMARK SMILES COc1cc(-c2oc3cc(O)cc(O)c3c(=O)c2O)ccc1O
REMARK SMILES IDX 6 1 18 2 16 3 17 4 15 5 13 6 12 7 10 8 9 9 8 10 7 11 5 12
REMARK SMILES IDX 3 13 22 14 4 15 21 16 20 17 2 18 1 19 23 20 19 22 14 24
REMARK SMILES IDX 11 26
REMARK H PARENT 23 21 19 23 14 25 11 27
REMARK Flexibility Score: inf
ROOT
ATOM      1  C   UNL     1      16.413  -3.552 -11.783  1.00  0.00     0.180 A 
ATOM      2  C   UNL     1      15.484  -4.581 -11.551  1.00  0.00     0.208 A 
ATOM      3  C   UNL     1      15.330  -5.590 -12.514  1.00  0.00     0.238 A 
ATOM      4  O   UNL     1      14.552  -6.548 -12.266  1.00  0.00    -0.285 OA
ATOM      5  C   UNL     1      16.065  -5.527 -13.723  1.00  0.00     0.111 A 
ATOM      6  C   UNL     1      15.956  -6.472 -14.789  1.00  0.00     0.134 A 
ATOM      7  C   UNL     1      16.811  -6.368 -15.894  1.00  0.00     0.093 A 
ATOM      8  C   UNL     1      17.726  -5.318 -16.000  1.00  0.00     0.123 A 
ATOM      9  C   UNL     1      17.802  -4.362 -14.991  1.00  0.00     0.094 A 
ATOM     10  C   UNL     1      16.990  -4.459 -13.859  1.00  0.00     0.146 A 
ATOM     11  O   UNL     1      17.111  -3.537 -12.912  1.00  0.00    -0.452 OA
ENDROOT
BRANCH   1  12
ATOM     12  C   UNL     1      16.641  -2.462 -10.807  1.00  0.00     0.025 A 
ATOM     13  C   UNL     1      17.783  -1.547  -8.847  1.00  0.00     0.161 A 
ATOM     14  C   UNL     1      17.083  -0.343  -9.010  1.00  0.00     0.157 A 
ATOM     15  C   UNL     1      17.563  -2.603  -9.754  1.00  0.00     0.062 A 
ATOM     16  C   UNL     1      16.182  -0.194 -10.072  1.00  0.00     0.051 A 
ATOM     17  C   UNL     1      15.967  -1.242 -10.968  1.00  0.00     0.016 A 
BRANCH  13  18
ATOM     18  O   UNL     1      18.687  -1.655  -7.778  1.00  0.00    -0.493 OA
ATOM     19  C   UNL     1      18.950  -2.858  -7.063  1.00  0.00     0.278 C 
ENDBRANCH  13  18
BRANCH  14  20
ATOM     20  O   UNL     1      17.293   0.704  -8.114  1.00  0.00    -0.504 OA
ATOM     21  H   UNL     1      16.609   1.439  -7.989  1.00  0.00     0.293 HD
ENDBRANCH  14  20
ENDBRANCH   1  12
BRANCH   2  22
ATOM     22  O   UNL     1      14.713  -4.583 -10.384  1.00  0.00    -0.502 OA
ATOM     23  H   UNL     1      14.789  -5.311  -9.683  1.00  0.00     0.293 HD
ENDBRANCH   2  22
BRANCH   6  24
ATOM     24  O   UNL     1      15.016  -7.506 -14.827  1.00  0.00    -0.507 OA
ATOM     25  H   UNL     1      14.371  -7.673 -15.584  1.00  0.00     0.293 HD
ENDBRANCH   6  24
BRANCH   8  26
ATOM     26  O   UNL     1      18.561  -5.213 -17.111  1.00  0.00    -0.508 OA
ATOM     27  H   UNL     1      18.962  -4.326 -17.390  1.00  0.00     0.293 HD
ENDBRANCH   8  26
TORSDOF 6
ENDMDL
