MODEL 1
REMARK VINA RESULT:    -6.311      0.000      0.000
REMARK INTER + INTRA:          -7.933
REMARK INTER:                  -7.602
REMARK INTRA:                  -0.331
REMARK UNBOUND:                -0.331
REMARK SMILES O=c1c(O)c(-c2ccc(O)c(O)c2)oc2cc(O)cc(O)c12
REMARK SMILES IDX 5 1 3 2 2 3 1 4 22 5 20 6 19 7 17 8 16 9 15 10 14 11 6 12
REMARK SMILES IDX 7 13 8 14 9 15 13 16 11 17 10 18 12 20 4 22 21 24 18 26
REMARK H PARENT 10 19 12 21 4 23 21 25 18 27
REMARK Flexibility Score: inf
ROOT
ATOM      1  C   UNL     1       5.615 -15.416   7.225  1.00  0.00     0.180 A 
ATOM      2  C   UNL     1       6.097 -14.635   6.158  1.00  0.00     0.208 A 
ATOM      3  C   UNL     1       7.464 -14.686   5.844  1.00  0.00     0.238 A 
ATOM      4  O   UNL     1       7.906 -13.998   4.882  1.00  0.00    -0.285 OA
ATOM      5  C   UNL     1       8.327 -15.497   6.609  1.00  0.00     0.111 A 
ATOM      6  C   UNL     1       9.716 -15.601   6.361  1.00  0.00     0.134 A 
ATOM      7  C   UNL     1      10.508 -16.424   7.175  1.00  0.00     0.093 A 
ATOM      8  C   UNL     1       9.940 -17.143   8.229  1.00  0.00     0.123 A 
ATOM      9  C   UNL     1       8.568 -17.045   8.480  1.00  0.00     0.094 A 
ATOM     10  C   UNL     1       7.761 -16.230   7.679  1.00  0.00     0.146 A 
ATOM     11  O   UNL     1       6.460 -16.159   7.934  1.00  0.00    -0.452 OA
ENDROOT
BRANCH   1  12
ATOM     12  C   UNL     1       4.184 -15.431   7.606  1.00  0.00     0.025 A 
ATOM     13  C   UNL     1       3.732 -14.582   8.628  1.00  0.00     0.016 A 
ATOM     14  C   UNL     1       2.391 -14.594   9.017  1.00  0.00     0.051 A 
ATOM     15  C   UNL     1       1.485 -15.468   8.402  1.00  0.00     0.157 A 
ATOM     16  C   UNL     1       3.276 -16.321   7.004  1.00  0.00     0.062 A 
ATOM     17  C   UNL     1       1.929 -16.336   7.397  1.00  0.00     0.158 A 
BRANCH  15  18
ATOM     18  O   UNL     1       0.145 -15.482   8.786  1.00  0.00    -0.504 OA
ATOM     19  H   UNL     1      -0.366 -16.350   8.892  1.00  0.00     0.293 HD
ENDBRANCH  15  18
BRANCH  17  20
ATOM     20  O   UNL     1       1.028 -17.213   6.795  1.00  0.00    -0.504 OA
ATOM     21  H   UNL     1       0.840 -18.130   7.183  1.00  0.00     0.293 HD
ENDBRANCH  17  20
ENDBRANCH   1  12
BRANCH   2  22
ATOM     22  O   UNL     1       5.231 -13.800   5.445  1.00  0.00    -0.502 OA
ATOM     23  H   UNL     1       4.326 -13.524   5.805  1.00  0.00     0.293 HD
ENDBRANCH   2  22
BRANCH   6  24
ATOM     24  O   UNL     1      10.314 -14.896   5.316  1.00  0.00    -0.507 OA
ATOM     25  H   UNL     1      10.416 -13.887   5.342  1.00  0.00     0.293 HD
ENDBRANCH   6  24
BRANCH   8  26
ATOM     26  O   UNL     1      10.750 -17.952   9.024  1.00  0.00    -0.508 OA
ATOM     27  H   UNL     1      11.748 -17.795   9.096  1.00  0.00     0.293 HD
ENDBRANCH   8  26
TORSDOF 6
ENDMDL
MODEL 2
REMARK VINA RESULT:    -6.216      2.633      3.399
REMARK INTER + INTRA:          -7.819
REMARK INTER:                  -7.752
REMARK INTRA:                  -0.067
REMARK UNBOUND:                -0.331
REMARK SMILES O=c1c(O)c(-c2ccc(O)c(O)c2)oc2cc(O)cc(O)c12
REMARK SMILES IDX 5 1 3 2 2 3 1 4 22 5 20 6 19 7 17 8 16 9 15 10 14 11 6 12
REMARK SMILES IDX 7 13 8 14 9 15 13 16 11 17 10 18 12 20 4 22 21 24 18 26
REMARK H PARENT 10 19 12 21 4 23 21 25 18 27
REMARK Flexibility Score: inf
ROOT
ATOM      1  C   UNL     1       5.653 -15.936   8.479  1.00  0.00     0.180 A 
ATOM      2  C   UNL     1       5.072 -14.970   7.635  1.00  0.00     0.208 A 
ATOM      3  C   UNL     1       5.831 -14.450   6.575  1.00  0.00     0.238 A 
ATOM      4  O   UNL     1       5.317 -13.592   5.806  1.00  0.00    -0.285 OA
ATOM      5  C   UNL     1       7.159 -14.887   6.388  1.00  0.00     0.111 A 
ATOM      6  C   UNL     1       7.992 -14.410   5.347  1.00  0.00     0.134 A 
ATOM      7  C   UNL     1       9.305 -14.888   5.235  1.00  0.00     0.093 A 
ATOM      8  C   UNL     1       9.801 -15.831   6.138  1.00  0.00     0.123 A 
ATOM      9  C   UNL     1       8.984 -16.306   7.168  1.00  0.00     0.094 A 
ATOM     10  C   UNL     1       7.671 -15.842   7.298  1.00  0.00     0.146 A 
ATOM     11  O   UNL     1       6.912 -16.314   8.281  1.00  0.00    -0.452 OA
ENDROOT
BRANCH   1  12
ATOM     12  C   UNL     1       4.911 -16.545   9.606  1.00  0.00     0.025 A 
ATOM     13  C   UNL     1       3.689 -17.191   9.361  1.00  0.00     0.016 A 
ATOM     14  C   UNL     1       2.962 -17.755  10.412  1.00  0.00     0.051 A 
ATOM     15  C   UNL     1       3.439 -17.666  11.726  1.00  0.00     0.157 A 
ATOM     16  C   UNL     1       5.376 -16.440  10.930  1.00  0.00     0.062 A 
ATOM     17  C   UNL     1       4.645 -17.004  11.987  1.00  0.00     0.158 A 
BRANCH  15  18
ATOM     18  O   UNL     1       2.717 -18.228  12.778  1.00  0.00    -0.504 OA
ATOM     19  H   UNL     1       1.902 -17.768  13.167  1.00  0.00     0.293 HD
ENDBRANCH  15  18
BRANCH  17  20
ATOM     20  O   UNL     1       5.110 -16.905  13.297  1.00  0.00    -0.504 OA
ATOM     21  H   UNL     1       6.099 -16.835  13.505  1.00  0.00     0.293 HD
ENDBRANCH  17  20
ENDBRANCH   1  12
BRANCH   2  22
ATOM     22  O   UNL     1       3.771 -14.517   7.872  1.00  0.00    -0.502 OA
ATOM     23  H   UNL     1       3.574 -13.579   8.197  1.00  0.00     0.293 HD
ENDBRANCH   2  22
BRANCH   6  24
ATOM     24  O   UNL     1       7.527 -13.469   4.429  1.00  0.00    -0.507 OA
ATOM     25  H   UNL     1       8.105 -13.135   3.667  1.00  0.00     0.293 HD
ENDBRANCH   6  24
BRANCH   8  26
ATOM     26  O   UNL     1      11.111 -16.288   6.004  1.00  0.00    -0.508 OA
ATOM     27  H   UNL     1      11.335 -17.275   6.055  1.00  0.00     0.293 HD
ENDBRANCH   8  26
TORSDOF 6
ENDMDL
MODEL 3
REMARK VINA RESULT:    -6.215      5.727      8.129
REMARK INTER + INTRA:          -7.817
REMARK INTER:                  -7.514
REMARK INTRA:                  -0.303
REMARK UNBOUND:                -0.331
REMARK SMILES O=c1c(O)c(-c2ccc(O)c(O)c2)oc2cc(O)cc(O)c12
REMARK SMILES IDX 5 1 3 2 2 3 1 4 22 5 20 6 19 7 17 8 16 9 15 10 14 11 6 12
REMARK SMILES IDX 7 13 8 14 9 15 13 16 11 17 10 18 12 20 4 22 21 24 18 26
REMARK H PARENT 10 19 12 21 4 23 21 25 18 27
REMARK Flexibility Score: inf
ROOT
ATOM      1  C   UNL     1       9.320 -14.608  12.158  1.00  0.00     0.180 A 
ATOM      2  C   UNL     1      10.579 -13.997  12.313  1.00  0.00     0.208 A 
ATOM      3  C   UNL     1      10.634 -12.658  12.730  1.00  0.00     0.238 A 
ATOM      4  O   UNL     1      11.757 -12.102  12.884  1.00  0.00    -0.285 OA
ATOM      5  C   UNL     1       9.438 -11.949  12.964  1.00  0.00     0.111 A 
ATOM      6  C   UNL     1       9.408 -10.596  13.382  1.00  0.00     0.134 A 
ATOM      7  C   UNL     1       8.175  -9.959  13.585  1.00  0.00     0.093 A 
ATOM      8  C   UNL     1       6.975 -10.645  13.378  1.00  0.00     0.123 A 
ATOM      9  C   UNL     1       6.999 -11.981  12.966  1.00  0.00     0.094 A 
ATOM     10  C   UNL     1       8.217 -12.634  12.759  1.00  0.00     0.146 A 
ATOM     11  O   UNL     1       8.212 -13.905  12.374  1.00  0.00    -0.452 OA
ENDROOT
BRANCH   1  12
ATOM     12  C   UNL     1       9.178 -16.021  11.740  1.00  0.00     0.025 A 
ATOM     13  C   UNL     1       9.012 -17.018  12.715  1.00  0.00     0.016 A 
ATOM     14  C   UNL     1       8.896 -18.359  12.344  1.00  0.00     0.051 A 
ATOM     15  C   UNL     1       8.964 -18.727  10.994  1.00  0.00     0.157 A 
ATOM     16  C   UNL     1       9.266 -16.397  10.386  1.00  0.00     0.062 A 
ATOM     17  C   UNL     1       9.153 -17.745  10.014  1.00  0.00     0.158 A 
BRANCH  15  18
ATOM     18  O   UNL     1       8.848 -20.065  10.620  1.00  0.00    -0.504 OA
ATOM     19  H   UNL     1       7.999 -20.592  10.794  1.00  0.00     0.293 HD
ENDBRANCH  15  18
BRANCH  17  20
ATOM     20  O   UNL     1       9.232 -18.115   8.672  1.00  0.00    -0.504 OA
ATOM     21  H   UNL     1       9.261 -17.424   7.932  1.00  0.00     0.293 HD
ENDBRANCH  17  20
ENDBRANCH   1  12
BRANCH   2  22
ATOM     22  O   UNL     1      11.749 -14.705  12.027  1.00  0.00    -0.502 OA
ATOM     23  H   UNL     1      11.742 -15.689  11.787  1.00  0.00     0.293 HD
ENDBRANCH   2  22
BRANCH   6  24
ATOM     24  O   UNL     1      10.588  -9.884  13.596  1.00  0.00    -0.507 OA
ATOM     25  H   UNL     1      11.483 -10.350  13.694  1.00  0.00     0.293 HD
ENDBRANCH   6  24
BRANCH   8  26
ATOM     26  O   UNL     1       5.764  -9.988  13.586  1.00  0.00    -0.508 OA
ATOM     27  H   UNL     1       5.038 -10.386  14.169  1.00  0.00     0.293 HD
ENDBRANCH   8  26
TORSDOF 6
ENDMDL
MODEL 4
REMARK VINA RESULT:    -6.167      1.922      3.720
REMARK INTER + INTRA:          -7.760
REMARK INTER:                  -7.443
REMARK INTRA:                  -0.317
REMARK UNBOUND:                -0.331
REMARK SMILES O=c1c(O)c(-c2ccc(O)c(O)c2)oc2cc(O)cc(O)c12
REMARK SMILES IDX 5 1 3 2 2 3 1 4 22 5 20 6 19 7 17 8 16 9 15 10 14 11 6 12
REMARK SMILES IDX 7 13 8 14 9 15 13 16 11 17 10 18 12 20 4 22 21 24 18 26
REMARK H PARENT 10 19 12 21 4 23 21 25 18 27
REMARK Flexibility Score: inf
ROOT
ATOM      1  C   UNL     1       3.455 -15.574   8.260  1.00  0.00     0.180 A 
ATOM      2  C   UNL     1       4.353 -16.291   9.073  1.00  0.00     0.208 A 
ATOM      3  C   UNL     1       5.724 -16.245   8.774  1.00  0.00     0.238 A 
ATOM      4  O   UNL     1       6.540 -16.874   9.502  1.00  0.00    -0.285 OA
ATOM      5  C   UNL     1       6.171 -15.503   7.661  1.00  0.00     0.111 A 
ATOM      6  C   UNL     1       7.534 -15.409   7.289  1.00  0.00     0.134 A 
ATOM      7  C   UNL     1       7.895 -14.657   6.161  1.00  0.00     0.093 A 
ATOM      8  C   UNL     1       6.926 -14.001   5.400  1.00  0.00     0.123 A 
ATOM      9  C   UNL     1       5.578 -14.090   5.762  1.00  0.00     0.094 A 
ATOM     10  C   UNL     1       5.196 -14.833   6.884  1.00  0.00     0.146 A 
ATOM     11  O   UNL     1       3.910 -14.897   7.210  1.00  0.00    -0.452 OA
ENDROOT
BRANCH   1  12
ATOM     12  C   UNL     1       1.998 -15.558   8.521  1.00  0.00     0.025 A 
ATOM     13  C   UNL     1       1.474 -14.655   9.460  1.00  0.00     0.016 A 
ATOM     14  C   UNL     1       0.105 -14.637   9.737  1.00  0.00     0.051 A 
ATOM     15  C   UNL     1      -0.758 -15.533   9.093  1.00  0.00     0.157 A 
ATOM     16  C   UNL     1       1.131 -16.470   7.891  1.00  0.00     0.062 A 
ATOM     17  C   UNL     1      -0.244 -16.453   8.172  1.00  0.00     0.158 A 
BRANCH  15  18
ATOM     18  O   UNL     1      -2.125 -15.516   9.366  1.00  0.00    -0.504 OA
ATOM     19  H   UNL     1      -2.776 -15.011   8.776  1.00  0.00     0.293 HD
ENDBRANCH  15  18
BRANCH  17  20
ATOM     20  O   UNL     1      -1.103 -17.353   7.542  1.00  0.00    -0.504 OA
ATOM     21  H   UNL     1      -0.776 -18.249   7.201  1.00  0.00     0.293 HD
ENDBRANCH  17  20
ENDBRANCH   1  12
BRANCH   2  22
ATOM     22  O   UNL     1       3.881 -17.059  10.141  1.00  0.00    -0.502 OA
ATOM     23  H   UNL     1       3.391 -16.652  10.927  1.00  0.00     0.293 HD
ENDBRANCH   2  22
BRANCH   6  24
ATOM     24  O   UNL     1       8.526 -16.053   8.027  1.00  0.00    -0.507 OA
ATOM     25  H   UNL     1       9.000 -15.596   8.798  1.00  0.00     0.293 HD
ENDBRANCH   6  24
BRANCH   8  26
ATOM     26  O   UNL     1       7.313 -13.262   4.284  1.00  0.00    -0.508 OA
ATOM     27  H   UNL     1       7.730 -13.705   3.474  1.00  0.00     0.293 HD
ENDBRANCH   8  26
TORSDOF 6
ENDMDL
MODEL 5
REMARK VINA RESULT:    -6.078      1.996      7.380
REMARK INTER + INTRA:          -7.653
REMARK INTER:                  -7.321
REMARK INTRA:                  -0.332
REMARK UNBOUND:                -0.331
REMARK SMILES O=c1c(O)c(-c2ccc(O)c(O)c2)oc2cc(O)cc(O)c12
REMARK SMILES IDX 5 1 3 2 2 3 1 4 22 5 20 6 19 7 17 8 16 9 15 10 14 11 6 12
REMARK SMILES IDX 7 13 8 14 9 15 13 16 11 17 10 18 12 20 4 22 21 24 18 26
REMARK H PARENT 10 19 12 21 4 23 21 25 18 27
REMARK Flexibility Score: inf
ROOT
ATOM      1  C   UNL     1       3.825 -15.362   7.052  1.00  0.00     0.180 A 
ATOM      2  C   UNL     1       3.276 -14.895   8.262  1.00  0.00     0.208 A 
ATOM      3  C   UNL     1       2.014 -15.364   8.659  1.00  0.00     0.238 A 
ATOM      4  O   UNL     1       1.517 -14.961   9.747  1.00  0.00    -0.285 OA
ATOM      5  C   UNL     1       1.315 -16.271   7.836  1.00  0.00     0.111 A 
ATOM      6  C   UNL     1       0.038 -16.787   8.162  1.00  0.00     0.134 A 
ATOM      7  C   UNL     1      -0.596 -17.679   7.284  1.00  0.00     0.093 A 
ATOM      8  C   UNL     1       0.020 -18.064   6.091  1.00  0.00     0.123 A 
ATOM      9  C   UNL     1       1.282 -17.557   5.764  1.00  0.00     0.094 A 
ATOM     10  C   UNL     1       1.931 -16.668   6.626  1.00  0.00     0.146 A 
ATOM     11  O   UNL     1       3.131 -16.206   6.294  1.00  0.00    -0.452 OA
ENDROOT
BRANCH   1  12
ATOM     12  C   UNL     1       5.157 -14.930   6.575  1.00  0.00     0.025 A 
ATOM     13  C   UNL     1       5.252 -13.882   5.645  1.00  0.00     0.016 A 
ATOM     14  C   UNL     1       6.498 -13.471   5.166  1.00  0.00     0.051 A 
ATOM     15  C   UNL     1       7.667 -14.114   5.595  1.00  0.00     0.157 A 
ATOM     16  C   UNL     1       6.332 -15.586   6.987  1.00  0.00     0.062 A 
ATOM     17  C   UNL     1       7.583 -15.175   6.504  1.00  0.00     0.158 A 
BRANCH  15  18
ATOM     18  O   UNL     1       8.912 -13.706   5.120  1.00  0.00    -0.504 OA
ATOM     19  H   UNL     1       9.288 -12.791   5.338  1.00  0.00     0.293 HD
ENDBRANCH  15  18
BRANCH  17  20
ATOM     20  O   UNL     1       8.746 -15.822   6.919  1.00  0.00    -0.504 OA
ATOM     21  H   UNL     1       9.572 -15.859   6.332  1.00  0.00     0.293 HD
ENDBRANCH  17  20
ENDBRANCH   1  12
BRANCH   2  22
ATOM     22  O   UNL     1       3.966 -13.958   9.036  1.00  0.00    -0.502 OA
ATOM     23  H   UNL     1       3.953 -12.968   8.828  1.00  0.00     0.293 HD
ENDBRANCH   2  22
BRANCH   6  24
ATOM     24  O   UNL     1      -0.604 -16.422   9.345  1.00  0.00    -0.507 OA
ATOM     25  H   UNL     1      -0.284 -15.642   9.908  1.00  0.00     0.293 HD
ENDBRANCH   6  24
BRANCH   8  26
ATOM     26  O   UNL     1      -0.632 -18.950   5.236  1.00  0.00    -0.508 OA
ATOM     27  H   UNL     1      -1.120 -19.765   5.589  1.00  0.00     0.293 HD
ENDBRANCH   8  26
TORSDOF 6
ENDMDL
MODEL 6
REMARK VINA RESULT:    -6.027      5.427      6.776
REMARK INTER + INTRA:          -7.591
REMARK INTER:                  -7.420
REMARK INTRA:                  -0.171
REMARK UNBOUND:                -0.331
REMARK SMILES O=c1c(O)c(-c2ccc(O)c(O)c2)oc2cc(O)cc(O)c12
REMARK SMILES IDX 5 1 3 2 2 3 1 4 22 5 20 6 19 7 17 8 16 9 15 10 14 11 6 12
REMARK SMILES IDX 7 13 8 14 9 15 13 16 11 17 10 18 12 20 4 22 21 24 18 26
REMARK H PARENT 10 19 12 21 4 23 21 25 18 27
REMARK Flexibility Score: inf
ROOT
ATOM      1  C   UNL     1       8.427 -14.148  12.415  1.00  0.00     0.180 A 
ATOM      2  C   UNL     1       7.597 -14.977  11.635  1.00  0.00     0.208 A 
ATOM      3  C   UNL     1       8.191 -15.883  10.743  1.00  0.00     0.238 A 
ATOM      4  O   UNL     1       7.458 -16.639  10.047  1.00  0.00    -0.285 OA
ATOM      5  C   UNL     1       9.596 -15.933  10.630  1.00  0.00     0.111 A 
ATOM      6  C   UNL     1      10.271 -16.815   9.752  1.00  0.00     0.134 A 
ATOM      7  C   UNL     1      11.672 -16.796   9.691  1.00  0.00     0.093 A 
ATOM      8  C   UNL     1      12.409 -15.917  10.488  1.00  0.00     0.123 A 
ATOM      9  C   UNL     1      11.748 -15.044  11.357  1.00  0.00     0.094 A 
ATOM     10  C   UNL     1      10.351 -15.047  11.433  1.00  0.00     0.146 A 
ATOM     11  O   UNL     1       9.748 -14.212  12.271  1.00  0.00    -0.452 OA
ENDROOT
BRANCH   1  12
ATOM     12  C   UNL     1       7.878 -13.180  13.391  1.00  0.00     0.025 A 
ATOM     13  C   UNL     1       8.082 -13.392  14.764  1.00  0.00     0.016 A 
ATOM     14  C   UNL     1       7.556 -12.503  15.703  1.00  0.00     0.051 A 
ATOM     15  C   UNL     1       6.803 -11.397  15.285  1.00  0.00     0.157 A 
ATOM     16  C   UNL     1       7.105 -12.080  12.976  1.00  0.00     0.062 A 
ATOM     17  C   UNL     1       6.574 -11.188  13.920  1.00  0.00     0.158 A 
BRANCH  15  18
ATOM     18  O   UNL     1       6.277 -10.506  16.220  1.00  0.00    -0.504 OA
ATOM     19  H   UNL     1       6.225  -9.512  16.032  1.00  0.00     0.293 HD
ENDBRANCH  15  18
BRANCH  17  20
ATOM     20  O   UNL     1       5.814 -10.095  13.507  1.00  0.00    -0.504 OA
ATOM     21  H   UNL     1       5.924  -9.181  13.931  1.00  0.00     0.293 HD
ENDBRANCH  17  20
ENDBRANCH   1  12
BRANCH   2  22
ATOM     22  O   UNL     1       6.207 -14.873  11.730  1.00  0.00    -0.502 OA
ATOM     23  H   UNL     1       5.663 -15.439  12.369  1.00  0.00     0.293 HD
ENDBRANCH   2  22
BRANCH   6  24
ATOM     24  O   UNL     1       9.564 -17.704   8.943  1.00  0.00    -0.507 OA
ATOM     25  H   UNL     1       9.842 -18.675   8.846  1.00  0.00     0.293 HD
ENDBRANCH   6  24
BRANCH   8  26
ATOM     26  O   UNL     1      13.800 -15.918  10.407  1.00  0.00    -0.508 OA
ATOM     27  H   UNL     1      14.338 -16.767  10.539  1.00  0.00     0.293 HD
ENDBRANCH   8  26
TORSDOF 6
ENDMDL
MODEL 7
REMARK VINA RESULT:    -5.928      2.350      6.904
REMARK INTER + INTRA:          -7.471
REMARK INTER:                  -7.246
REMARK INTRA:                  -0.225
REMARK UNBOUND:                -0.331
REMARK SMILES O=c1c(O)c(-c2ccc(O)c(O)c2)oc2cc(O)cc(O)c12
REMARK SMILES IDX 5 1 3 2 2 3 1 4 22 5 20 6 19 7 17 8 16 9 15 10 14 11 6 12
REMARK SMILES IDX 7 13 8 14 9 15 13 16 11 17 10 18 12 20 4 22 21 24 18 26
REMARK H PARENT 10 19 12 21 4 23 21 25 18 27
REMARK Flexibility Score: inf
ROOT
ATOM      1  C   UNL     1       9.127 -16.342   8.558  1.00  0.00     0.180 A 
ATOM      2  C   UNL     1       9.657 -16.253   7.256  1.00  0.00     0.208 A 
ATOM      3  C   UNL     1       8.905 -15.608   6.261  1.00  0.00     0.238 A 
ATOM      4  O   UNL     1       9.374 -15.512   5.094  1.00  0.00    -0.285 OA
ATOM      5  C   UNL     1       7.634 -15.083   6.576  1.00  0.00     0.111 A 
ATOM      6  C   UNL     1       6.813 -14.424   5.631  1.00  0.00     0.134 A 
ATOM      7  C   UNL     1       5.556 -13.938   6.022  1.00  0.00     0.093 A 
ATOM      8  C   UNL     1       5.106 -14.099   7.334  1.00  0.00     0.123 A 
ATOM      9  C   UNL     1       5.913 -14.750   8.273  1.00  0.00     0.094 A 
ATOM     10  C   UNL     1       7.169 -15.240   7.903  1.00  0.00     0.146 A 
ATOM     11  O   UNL     1       7.919 -15.849   8.815  1.00  0.00    -0.452 OA
ENDROOT
BRANCH   1  12
ATOM     12  C   UNL     1       9.866 -16.990   9.665  1.00  0.00     0.025 A 
ATOM     13  C   UNL     1       9.356 -18.163  10.244  1.00  0.00     0.016 A 
ATOM     14  C   UNL     1      10.026 -18.779  11.303  1.00  0.00     0.051 A 
ATOM     15  C   UNL     1      11.207 -18.222  11.810  1.00  0.00     0.157 A 
ATOM     16  C   UNL     1      11.041 -16.423  10.191  1.00  0.00     0.062 A 
ATOM     17  C   UNL     1      11.714 -17.040  11.257  1.00  0.00     0.158 A 
BRANCH  15  18
ATOM     18  O   UNL     1      11.880 -18.835  12.867  1.00  0.00    -0.504 OA
ATOM     19  H   UNL     1      12.557 -18.331  13.427  1.00  0.00     0.293 HD
ENDBRANCH  15  18
BRANCH  17  20
ATOM     20  O   UNL     1      12.882 -16.481  11.772  1.00  0.00    -0.504 OA
ATOM     21  H   UNL     1      13.526 -17.023  12.337  1.00  0.00     0.293 HD
ENDBRANCH  17  20
ENDBRANCH   1  12
BRANCH   2  22
ATOM     22  O   UNL     1      10.897 -16.824   6.957  1.00  0.00    -0.502 OA
ATOM     23  H   UNL     1      11.700 -16.725   7.565  1.00  0.00     0.293 HD
ENDBRANCH   2  22
BRANCH   6  24
ATOM     24  O   UNL     1       7.233 -14.248   4.313  1.00  0.00    -0.507 OA
ATOM     25  H   UNL     1       7.669 -14.997   3.787  1.00  0.00     0.293 HD
ENDBRANCH   6  24
BRANCH   8  26
ATOM     26  O   UNL     1       3.853 -13.608   7.695  1.00  0.00    -0.508 OA
ATOM     27  H   UNL     1       3.097 -14.229   7.963  1.00  0.00     0.293 HD
ENDBRANCH   8  26
TORSDOF 6
ENDMDL
MODEL 8
REMARK VINA RESULT:    -5.808     12.330     14.101
REMARK INTER + INTRA:          -7.327
REMARK INTER:                  -7.009
REMARK INTRA:                  -0.318
REMARK UNBOUND:                -0.331
REMARK SMILES O=c1c(O)c(-c2ccc(O)c(O)c2)oc2cc(O)cc(O)c12
REMARK SMILES IDX 5 1 3 2 2 3 1 4 22 5 20 6 19 7 17 8 16 9 15 10 14 11 6 12
REMARK SMILES IDX 7 13 8 14 9 15 13 16 11 17 10 18 12 20 4 22 21 24 18 26
REMARK H PARENT 10 19 12 21 4 23 21 25 18 27
REMARK Flexibility Score: inf
ROOT
ATOM      1  C   UNL     1      14.359 -23.339  15.014  1.00  0.00     0.180 A 
ATOM      2  C   UNL     1      14.990 -23.061  16.241  1.00  0.00     0.208 A 
ATOM      3  C   UNL     1      15.796 -21.916  16.344  1.00  0.00     0.238 A 
ATOM      4  O   UNL     1      16.358 -21.650  17.442  1.00  0.00    -0.285 OA
ATOM      5  C   UNL     1      15.973 -21.083  15.220  1.00  0.00     0.111 A 
ATOM      6  C   UNL     1      16.771 -19.914  15.240  1.00  0.00     0.134 A 
ATOM      7  C   UNL     1      16.904 -19.144  14.076  1.00  0.00     0.093 A 
ATOM      8  C   UNL     1      16.257 -19.517  12.895  1.00  0.00     0.123 A 
ATOM      9  C   UNL     1      15.467 -20.671  12.869  1.00  0.00     0.094 A 
ATOM     10  C   UNL     1      15.321 -21.452  14.020  1.00  0.00     0.146 A 
ATOM     11  O   UNL     1      14.560 -22.539  13.970  1.00  0.00    -0.452 OA
ENDROOT
BRANCH   1  12
ATOM     12  C   UNL     1      13.480 -24.516  14.831  1.00  0.00     0.025 A 
ATOM     13  C   UNL     1      13.978 -25.658  14.184  1.00  0.00     0.016 A 
ATOM     14  C   UNL     1      13.160 -26.772  13.983  1.00  0.00     0.051 A 
ATOM     15  C   UNL     1      11.826 -26.754  14.410  1.00  0.00     0.157 A 
ATOM     16  C   UNL     1      12.133 -24.495  15.239  1.00  0.00     0.062 A 
ATOM     17  C   UNL     1      11.310 -25.613  15.035  1.00  0.00     0.158 A 
BRANCH  15  18
ATOM     18  O   UNL     1      11.007 -27.865  14.212  1.00  0.00    -0.504 OA
ATOM     19  H   UNL     1      10.880 -28.273  13.293  1.00  0.00     0.293 HD
ENDBRANCH  15  18
BRANCH  17  20
ATOM     20  O   UNL     1       9.979 -25.593  15.446  1.00  0.00    -0.504 OA
ATOM     21  H   UNL     1       9.498 -26.438  15.732  1.00  0.00     0.293 HD
ENDBRANCH  17  20
ENDBRANCH   1  12
BRANCH   2  22
ATOM     22  O   UNL     1      14.839 -23.928  17.326  1.00  0.00    -0.502 OA
ATOM     23  H   UNL     1      15.361 -23.816  18.187  1.00  0.00     0.293 HD
ENDBRANCH   2  22
BRANCH   6  24
ATOM     24  O   UNL     1      17.431 -19.514  16.402  1.00  0.00    -0.507 OA
ATOM     25  H   UNL     1      16.990 -18.909  17.085  1.00  0.00     0.293 HD
ENDBRANCH   6  24
BRANCH   8  26
ATOM     26  O   UNL     1      16.407 -18.734  11.753  1.00  0.00    -0.508 OA
ATOM     27  H   UNL     1      16.003 -17.807  11.688  1.00  0.00     0.293 HD
ENDBRANCH   8  26
TORSDOF 6
ENDMDL
MODEL 9
REMARK VINA RESULT:    -5.784      4.396      5.482
REMARK INTER + INTRA:          -7.299
REMARK INTER:                  -6.978
REMARK INTRA:                  -0.321
REMARK UNBOUND:                -0.331
REMARK SMILES O=c1c(O)c(-c2ccc(O)c(O)c2)oc2cc(O)cc(O)c12
REMARK SMILES IDX 5 1 3 2 2 3 1 4 22 5 20 6 19 7 17 8 16 9 15 10 14 11 6 12
REMARK SMILES IDX 7 13 8 14 9 15 13 16 11 17 10 18 12 20 4 22 21 24 18 26
REMARK H PARENT 10 19 12 21 4 23 21 25 18 27
REMARK Flexibility Score: inf
ROOT
ATOM      1  C   UNL     1       7.427 -14.562  10.478  1.00  0.00     0.180 A 
ATOM      2  C   UNL     1       8.432 -15.548  10.509  1.00  0.00     0.208 A 
ATOM      3  C   UNL     1       9.590 -15.312  11.266  1.00  0.00     0.238 A 
ATOM      4  O   UNL     1      10.493 -16.193  11.310  1.00  0.00    -0.285 OA
ATOM      5  C   UNL     1       9.733 -14.093  11.961  1.00  0.00     0.111 A 
ATOM      6  C   UNL     1      10.871 -13.776  12.742  1.00  0.00     0.134 A 
ATOM      7  C   UNL     1      10.941 -12.537  13.395  1.00  0.00     0.093 A 
ATOM      8  C   UNL     1       9.901 -11.612  13.283  1.00  0.00     0.123 A 
ATOM      9  C   UNL     1       8.775 -11.919  12.513  1.00  0.00     0.094 A 
ATOM     10  C   UNL     1       8.685 -13.149  11.854  1.00  0.00     0.146 A 
ATOM     11  O   UNL     1       7.602 -13.419  11.134  1.00  0.00    -0.452 OA
ENDROOT
BRANCH   1  12
ATOM     12  C   UNL     1       6.169 -14.744   9.719  1.00  0.00     0.025 A 
ATOM     13  C   UNL     1       5.051 -15.303  10.357  1.00  0.00     0.016 A 
ATOM     14  C   UNL     1       3.860 -15.503   9.654  1.00  0.00     0.051 A 
ATOM     15  C   UNL     1       3.776 -15.162   8.297  1.00  0.00     0.157 A 
ATOM     16  C   UNL     1       6.086 -14.423   8.351  1.00  0.00     0.062 A 
ATOM     17  C   UNL     1       4.892 -14.626   7.644  1.00  0.00     0.158 A 
BRANCH  15  18
ATOM     18  O   UNL     1       2.589 -15.358   7.593  1.00  0.00    -0.504 OA
ATOM     19  H   UNL     1       2.286 -16.284   7.313  1.00  0.00     0.293 HD
ENDBRANCH  15  18
BRANCH  17  20
ATOM     20  O   UNL     1       4.809 -14.300   6.291  1.00  0.00    -0.504 OA
ATOM     21  H   UNL     1       4.997 -14.985   5.568  1.00  0.00     0.293 HD
ENDBRANCH  17  20
ENDBRANCH   1  12
BRANCH   2  22
ATOM     22  O   UNL     1       8.288 -16.727   9.772  1.00  0.00    -0.502 OA
ATOM     23  H   UNL     1       7.468 -16.918   9.209  1.00  0.00     0.293 HD
ENDBRANCH   2  22
BRANCH   6  24
ATOM     24  O   UNL     1      11.926 -14.679  12.873  1.00  0.00    -0.507 OA
ATOM     25  H   UNL     1      11.922 -15.578  12.404  1.00  0.00     0.293 HD
ENDBRANCH   6  24
BRANCH   8  26
ATOM     26  O   UNL     1       9.998 -10.388  13.942  1.00  0.00    -0.508 OA
ATOM     27  H   UNL     1      10.776 -10.175  14.555  1.00  0.00     0.293 HD
ENDBRANCH   8  26
TORSDOF 6
ENDMDL
