MODEL 1
REMARK VINA RESULT:    -3.985      0.000      0.000
REMARK INTER + INTRA:          -4.861
REMARK INTER:                  -4.800
REMARK INTRA:                  -0.061
REMARK UNBOUND:                -0.061
REMARK SMILES CCCCCO
REMARK SMILES IDX 4 1 3 2 2 3 1 4 5 5 6 6
REMARK H PARENT 6 7
REMARK Flexibility Score: inf
ROOT
ATOM      1  C   UNL     1     -19.314  -5.561   1.160  1.00  0.00     0.028 C 
ENDROOT
BRANCH   1   2
ATOM      2  C   UNL     1     -20.123  -6.831   1.477  1.00  0.00     0.002 C 
BRANCH   2   3
ATOM      3  C   UNL     1     -21.415  -6.931   0.654  1.00  0.00    -0.003 C 
ATOM      4  C   UNL     1     -21.339  -8.078  -0.351  1.00  0.00     0.004 C 
ENDBRANCH   2   3
ENDBRANCH   1   2
BRANCH   1   5
ATOM      5  C   UNL     1     -20.175  -4.395   0.664  1.00  0.00     0.156 C 
BRANCH   5   6
ATOM      6  O   UNL     1     -20.191  -3.365   1.613  1.00  0.00    -0.396 OA
ATOM      7  H   UNL     1     -19.368  -3.477   2.155  1.00  0.00     0.210 HD
ENDBRANCH   5   6
ENDBRANCH   1   5
TORSDOF 4
ENDMDL
MODEL 2
REMARK VINA RESULT:    -3.892      1.882      3.395
REMARK INTER + INTRA:          -4.749
REMARK INTER:                  -4.678
REMARK INTRA:                  -0.071
REMARK UNBOUND:                -0.061
REMARK SMILES CCCCCO
REMARK SMILES IDX 4 1 3 2 2 3 1 4 5 5 6 6
REMARK H PARENT 6 7
REMARK Flexibility Score: inf
ROOT
ATOM      1  C   UNL     1     -20.332  -7.117   1.076  1.00  0.00     0.028 C 
ENDROOT
BRANCH   1   2
ATOM      2  C   UNL     1     -19.752  -5.856   0.414  1.00  0.00     0.002 C 
BRANCH   2   3
ATOM      3  C   UNL     1     -19.182  -4.860   1.435  1.00  0.00    -0.003 C 
ATOM      4  C   UNL     1     -20.241  -3.848   1.865  1.00  0.00     0.004 C 
ENDBRANCH   2   3
ENDBRANCH   1   2
BRANCH   1   5
ATOM      5  C   UNL     1     -21.644  -7.593   0.442  1.00  0.00     0.156 C 
BRANCH   5   6
ATOM      6  O   UNL     1     -22.464  -6.498   0.143  1.00  0.00    -0.396 OA
ATOM      7  H   UNL     1     -22.317  -5.838   0.867  1.00  0.00     0.210 HD
ENDBRANCH   5   6
ENDBRANCH   1   5
TORSDOF 4
ENDMDL
MODEL 3
REMARK VINA RESULT:    -3.647     17.276     17.855
REMARK INTER + INTRA:          -4.454
REMARK INTER:                  -4.407
REMARK INTRA:                  -0.048
REMARK UNBOUND:                -0.061
REMARK SMILES CCCCCO
REMARK SMILES IDX 4 1 3 2 2 3 1 4 5 5 6 6
REMARK H PARENT 6 7
REMARK Flexibility Score: inf
ROOT
ATOM      1  C   UNL     1     -25.671   7.518  11.627  1.00  0.00     0.028 C 
ENDROOT
BRANCH   1   2
ATOM      2  C   UNL     1     -24.508   7.837  10.673  1.00  0.00     0.002 C 
BRANCH   2   3
ATOM      3  C   UNL     1     -23.164   7.286  11.172  1.00  0.00    -0.003 C 
ATOM      4  C   UNL     1     -22.017   8.228  10.814  1.00  0.00     0.004 C 
ENDBRANCH   2   3
ENDBRANCH   1   2
BRANCH   1   5
ATOM      5  C   UNL     1     -25.229   6.824  12.920  1.00  0.00     0.156 C 
BRANCH   5   6
ATOM      6  O   UNL     1     -26.265   6.025  13.421  1.00  0.00    -0.396 OA
ATOM      7  H   UNL     1     -26.186   6.059  14.409  1.00  0.00     0.210 HD
ENDBRANCH   5   6
ENDBRANCH   1   5
TORSDOF 4
ENDMDL
MODEL 4
REMARK VINA RESULT:    -3.488     16.897     17.440
REMARK INTER + INTRA:          -4.263
REMARK INTER:                  -4.227
REMARK INTRA:                  -0.035
REMARK UNBOUND:                -0.061
REMARK SMILES CCCCCO
REMARK SMILES IDX 4 1 3 2 2 3 1 4 5 5 6 6
REMARK H PARENT 6 7
REMARK Flexibility Score: inf
ROOT
ATOM      1  C   UNL     1     -23.197   7.240  11.122  1.00  0.00     0.028 C 
ENDROOT
BRANCH   1   2
ATOM      2  C   UNL     1     -24.566   7.644  10.550  1.00  0.00     0.002 C 
BRANCH   2   3
ATOM      3  C   UNL     1     -25.644   7.780  11.635  1.00  0.00    -0.003 C 
ATOM      4  C   UNL     1     -25.353   6.860  12.818  1.00  0.00     0.004 C 
ENDBRANCH   2   3
ENDBRANCH   1   2
BRANCH   1   5
ATOM      5  C   UNL     1     -22.113   8.305  10.925  1.00  0.00     0.156 C 
BRANCH   5   6
ATOM      6  O   UNL     1     -21.265   7.946   9.868  1.00  0.00    -0.396 OA
ATOM      7  H   UNL     1     -21.656   7.128   9.468  1.00  0.00     0.210 HD
ENDBRANCH   5   6
ENDBRANCH   1   5
TORSDOF 4
ENDMDL
MODEL 5
REMARK VINA RESULT:    -3.476     16.898     18.236
REMARK INTER + INTRA:          -4.248
REMARK INTER:                  -4.194
REMARK INTRA:                  -0.054
REMARK UNBOUND:                -0.061
REMARK SMILES CCCCCO
REMARK SMILES IDX 4 1 3 2 2 3 1 4 5 5 6 6
REMARK H PARENT 6 7
REMARK Flexibility Score: inf
ROOT
ATOM      1  C   UNL     1     -18.806   8.353   9.910  1.00  0.00     0.028 C 
ENDROOT
BRANCH   1   2
ATOM      2  C   UNL     1     -18.970   9.064  11.264  1.00  0.00     0.002 C 
BRANCH   2   3
ATOM      3  C   UNL     1     -17.887  10.124  11.511  1.00  0.00    -0.003 C 
ATOM      4  C   UNL     1     -17.274   9.968  12.901  1.00  0.00     0.004 C 
ENDBRANCH   2   3
ENDBRANCH   1   2
BRANCH   1   5
ATOM      5  C   UNL     1     -17.687   8.939   9.042  1.00  0.00     0.156 C 
BRANCH   5   6
ATOM      6  O   UNL     1     -17.066   7.926   8.300  1.00  0.00    -0.396 OA
ATOM      7  H   UNL     1     -16.162   8.265   8.074  1.00  0.00     0.210 HD
ENDBRANCH   5   6
ENDBRANCH   1   5
TORSDOF 4
ENDMDL
MODEL 6
REMARK VINA RESULT:    -3.271      6.739      8.222
REMARK INTER + INTRA:          -4.001
REMARK INTER:                  -3.985
REMARK INTRA:                  -0.017
REMARK UNBOUND:                -0.061
REMARK SMILES CCCCCO
REMARK SMILES IDX 4 1 3 2 2 3 1 4 5 5 6 6
REMARK H PARENT 6 7
REMARK Flexibility Score: inf
ROOT
ATOM      1  C   UNL     1     -13.780  -4.968   3.310  1.00  0.00     0.028 C 
ENDROOT
BRANCH   1   2
ATOM      2  C   UNL     1     -12.792  -4.521   2.219  1.00  0.00     0.002 C 
BRANCH   2   3
ATOM      3  C   UNL     1     -11.380  -4.264   2.768  1.00  0.00    -0.003 C 
ATOM      4  C   UNL     1     -10.832  -2.929   2.270  1.00  0.00     0.004 C 
ENDBRANCH   2   3
ENDBRANCH   1   2
BRANCH   1   5
ATOM      5  C   UNL     1     -15.247  -4.907   2.870  1.00  0.00     0.156 C 
BRANCH   5   6
ATOM      6  O   UNL     1     -15.335  -4.518   1.527  1.00  0.00    -0.396 OA
ATOM      7  H   UNL     1     -15.024  -3.577   1.492  1.00  0.00     0.210 HD
ENDBRANCH   5   6
ENDBRANCH   1   5
TORSDOF 4
ENDMDL
MODEL 7
REMARK VINA RESULT:    -3.239      7.056      8.131
REMARK INTER + INTRA:          -3.962
REMARK INTER:                  -3.914
REMARK INTRA:                  -0.048
REMARK UNBOUND:                -0.061
REMARK SMILES CCCCCO
REMARK SMILES IDX 4 1 3 2 2 3 1 4 5 5 6 6
REMARK H PARENT 6 7
REMARK Flexibility Score: inf
ROOT
ATOM      1  C   UNL     1     -11.985  -5.453   3.076  1.00  0.00     0.028 C 
ENDROOT
BRANCH   1   2
ATOM      2  C   UNL     1     -13.080  -4.548   2.486  1.00  0.00     0.002 C 
BRANCH   2   3
ATOM      3  C   UNL     1     -14.465  -4.825   3.087  1.00  0.00    -0.003 C 
ATOM      4  C   UNL     1     -15.536  -4.878   2.000  1.00  0.00     0.004 C 
ENDBRANCH   2   3
ENDBRANCH   1   2
BRANCH   1   5
ATOM      5  C   UNL     1     -12.458  -6.285   4.273  1.00  0.00     0.156 C 
BRANCH   5   6
ATOM      6  O   UNL     1     -11.419  -6.438   5.199  1.00  0.00    -0.396 OA
ATOM      7  H   UNL     1     -11.026  -5.536   5.324  1.00  0.00     0.210 HD
ENDBRANCH   5   6
ENDBRANCH   1   5
TORSDOF 4
ENDMDL
MODEL 8
REMARK VINA RESULT:    -3.182      9.291      9.898
REMARK INTER + INTRA:          -3.894
REMARK INTER:                  -3.851
REMARK INTRA:                  -0.042
REMARK UNBOUND:                -0.061
REMARK SMILES CCCCCO
REMARK SMILES IDX 4 1 3 2 2 3 1 4 5 5 6 6
REMARK H PARENT 6 7
REMARK Flexibility Score: inf
ROOT
ATOM      1  C   UNL     1     -11.343  -2.999   1.810  1.00  0.00     0.028 C 
ENDROOT
BRANCH   1   2
ATOM      2  C   UNL     1     -12.257  -3.975   2.570  1.00  0.00     0.002 C 
BRANCH   2   3
ATOM      3  C   UNL     1     -11.560  -5.302   2.904  1.00  0.00    -0.003 C 
ATOM      4  C   UNL     1     -12.271  -6.024   4.045  1.00  0.00     0.004 C 
ENDBRANCH   2   3
ENDBRANCH   1   2
BRANCH   1   5
ATOM      5  C   UNL     1     -10.065  -2.636   2.575  1.00  0.00     0.156 C 
BRANCH   5   6
ATOM      6  O   UNL     1      -8.966  -2.628   1.707  1.00  0.00    -0.396 OA
ATOM      7  H   UNL     1      -8.609  -3.552   1.706  1.00  0.00     0.210 HD
ENDBRANCH   5   6
ENDBRANCH   1   5
TORSDOF 4
ENDMDL
