MODEL 1
REMARK VINA RESULT:    -4.575      0.000      0.000
REMARK INTER + INTRA:          -9.955
REMARK INTER:                  -7.784
REMARK INTRA:                  -2.171
REMARK UNBOUND:                -2.171
REMARK SMILES CCCCCCCCCCCCCC(=O)[O-]
REMARK SMILES IDX 8 1 9 2 10 3 11 4 12 5 13 6 14 7 15 8 16 9 7 10 6 11 5 12
REMARK SMILES IDX 4 13 3 14 2 15 1 16
REMARK H PARENT
REMARK Flexibility Score: inf
ROOT
ATOM      1  C   UNL     1      62.979  29.194  13.253  1.00  0.00     0.000 C 
ENDROOT
BRANCH   1   2
ATOM      2  C   UNL     1      63.791  30.297  13.942  1.00  0.00     0.000 C 
BRANCH   2   3
ATOM      3  C   UNL     1      64.497  31.187  12.909  1.00  0.00     0.000 C 
BRANCH   3   4
ATOM      4  C   UNL     1      63.686  32.444  12.559  1.00  0.00     0.000 C 
BRANCH   4   5
ATOM      5  C   UNL     1      63.115  33.146  13.803  1.00  0.00     0.006 C 
BRANCH   5   6
ATOM      6  C   UNL     1      61.592  33.316  13.723  1.00  0.00     0.053 C 
BRANCH   6   7
ATOM      7  C   UNL     1      60.897  32.657  14.875  1.00  0.00     0.041 C 
ATOM      8  O   UNL     1      59.709  32.259  14.754  1.00  0.00    -0.550 OA
ATOM      9  O   UNL     1      61.574  32.452  16.071  1.00  0.00    -0.550 OA
ENDBRANCH   6   7
ENDBRANCH   5   6
ENDBRANCH   4   5
ENDBRANCH   3   4
ENDBRANCH   2   3
ENDBRANCH   1   2
BRANCH   1  10
ATOM     10  C   UNL     1      61.556  29.118  13.820  1.00  0.00     0.000 C 
BRANCH  10  11
ATOM     11  C   UNL     1      60.511  29.215  12.698  1.00  0.00    -0.000 C 
BRANCH  11  12
ATOM     12  C   UNL     1      60.764  30.404  11.757  1.00  0.00    -0.000 C 
BRANCH  12  13
ATOM     13  C   UNL     1      60.729  30.003  10.274  1.00  0.00    -0.000 C 
BRANCH  13  14
ATOM     14  C   UNL     1      62.080  30.274   9.601  1.00  0.00    -0.000 C 
BRANCH  14  15
ATOM     15  C   UNL     1      62.925  28.997   9.531  1.00  0.00    -0.003 C 
ATOM     16  C   UNL     1      64.411  29.310   9.693  1.00  0.00     0.004 C 
ENDBRANCH  14  15
ENDBRANCH  13  14
ENDBRANCH  12  13
ENDBRANCH  11  12
ENDBRANCH  10  11
ENDBRANCH   1  10
TORSDOF 12
ENDMDL
MODEL 2
REMARK VINA RESULT:    -4.424      1.555      2.211
REMARK INTER + INTRA:          -9.699
REMARK INTER:                  -7.808
REMARK INTRA:                  -1.891
REMARK UNBOUND:                -2.171
REMARK SMILES CCCCCCCCCCCCCC(=O)[O-]
REMARK SMILES IDX 8 1 9 2 10 3 11 4 12 5 13 6 14 7 15 8 16 9 7 10 6 11 5 12
REMARK SMILES IDX 4 13 3 14 2 15 1 16
REMARK H PARENT
REMARK Flexibility Score: inf
ROOT
ATOM      1  C   UNL     1      63.724  30.703  14.148  1.00  0.00     0.000 C 
ENDROOT
BRANCH   1   2
ATOM      2  C   UNL     1      63.961  31.610  12.934  1.00  0.00     0.000 C 
BRANCH   2   3
ATOM      3  C   UNL     1      63.427  33.027  13.194  1.00  0.00     0.000 C 
BRANCH   3   4
ATOM      4  C   UNL     1      61.901  33.059  13.373  1.00  0.00     0.000 C 
BRANCH   4   5
ATOM      5  C   UNL     1      61.466  33.904  14.583  1.00  0.00     0.006 C 
BRANCH   5   6
ATOM      6  C   UNL     1      61.877  33.263  15.915  1.00  0.00     0.053 C 
BRANCH   6   7
ATOM      7  C   UNL     1      62.679  34.204  16.761  1.00  0.00     0.041 C 
ATOM      8  O   UNL     1      63.855  34.507  16.431  1.00  0.00    -0.550 OA
ATOM      9  O   UNL     1      62.114  34.774  17.895  1.00  0.00    -0.550 OA
ENDBRANCH   6   7
ENDBRANCH   5   6
ENDBRANCH   4   5
ENDBRANCH   3   4
ENDBRANCH   2   3
ENDBRANCH   1   2
BRANCH   1  10
ATOM     10  C   UNL     1      63.167  29.340  13.718  1.00  0.00     0.000 C 
BRANCH  10  11
ATOM     11  C   UNL     1      61.631  29.341  13.747  1.00  0.00    -0.000 C 
BRANCH  11  12
ATOM     12  C   UNL     1      61.014  28.931  12.400  1.00  0.00    -0.000 C 
BRANCH  12  13
ATOM     13  C   UNL     1      60.649  30.139  11.523  1.00  0.00    -0.000 C 
BRANCH  13  14
ATOM     14  C   UNL     1      61.619  30.273  10.343  1.00  0.00    -0.000 C 
BRANCH  14  15
ATOM     15  C   UNL     1      62.425  28.984  10.145  1.00  0.00    -0.003 C 
ATOM     16  C   UNL     1      63.916  29.282  10.009  1.00  0.00     0.004 C 
ENDBRANCH  14  15
ENDBRANCH  13  14
ENDBRANCH  12  13
ENDBRANCH  11  12
ENDBRANCH  10  11
ENDBRANCH   1  10
TORSDOF 12
ENDMDL
MODEL 3
REMARK VINA RESULT:    -4.419      0.882      2.695
REMARK INTER + INTRA:          -9.691
REMARK INTER:                  -8.065
REMARK INTRA:                  -1.626
REMARK UNBOUND:                -2.171
REMARK SMILES CCCCCCCCCCCCCC(=O)[O-]
REMARK SMILES IDX 8 1 9 2 10 3 11 4 12 5 13 6 14 7 15 8 16 9 7 10 6 11 5 12
REMARK SMILES IDX 4 13 3 14 2 15 1 16
REMARK H PARENT
REMARK Flexibility Score: inf
ROOT
ATOM      1  C   UNL     1      64.557  30.107  11.060  1.00  0.00     0.000 C 
ENDROOT
BRANCH   1   2
ATOM      2  C   UNL     1      64.847  31.591  10.802  1.00  0.00     0.000 C 
BRANCH   2   3
ATOM      3  C   UNL     1      64.733  32.407  12.098  1.00  0.00     0.000 C 
BRANCH   3   4
ATOM      4  C   UNL     1      63.306  32.420  12.665  1.00  0.00     0.000 C 
BRANCH   4   5
ATOM      5  C   UNL     1      63.181  33.280  13.935  1.00  0.00     0.006 C 
BRANCH   5   6
ATOM      6  C   UNL     1      61.730  33.697  14.212  1.00  0.00     0.053 C 
BRANCH   6   7
ATOM      7  C   UNL     1      60.962  32.613  14.903  1.00  0.00     0.041 C 
ATOM      8  O   UNL     1      59.868  32.211  14.429  1.00  0.00    -0.550 OA
ATOM      9  O   UNL     1      61.474  32.022  16.052  1.00  0.00    -0.550 OA
ENDBRANCH   6   7
ENDBRANCH   5   6
ENDBRANCH   4   5
ENDBRANCH   3   4
ENDBRANCH   2   3
ENDBRANCH   1   2
BRANCH   1  10
ATOM     10  C   UNL     1      64.300  29.359   9.746  1.00  0.00     0.000 C 
BRANCH  10  11
ATOM     11  C   UNL     1      62.887  29.648   9.217  1.00  0.00    -0.000 C 
BRANCH  11  12
ATOM     12  C   UNL     1      61.852  28.619   9.699  1.00  0.00    -0.000 C 
BRANCH  12  13
ATOM     13  C   UNL     1      60.541  29.270  10.163  1.00  0.00    -0.000 C 
BRANCH  13  14
ATOM     14  C   UNL     1      60.758  30.095  11.437  1.00  0.00    -0.000 C 
BRANCH  14  15
ATOM     15  C   UNL     1      60.587  29.227  12.689  1.00  0.00    -0.003 C 
ATOM     16  C   UNL     1      61.910  29.065  13.433  1.00  0.00     0.004 C 
ENDBRANCH  14  15
ENDBRANCH  13  14
ENDBRANCH  12  13
ENDBRANCH  11  12
ENDBRANCH  10  11
ENDBRANCH   1  10
TORSDOF 12
ENDMDL
MODEL 4
REMARK VINA RESULT:    -4.405      2.897      6.054
REMARK INTER + INTRA:          -9.666
REMARK INTER:                  -8.346
REMARK INTRA:                  -1.319
REMARK UNBOUND:                -2.171
REMARK SMILES CCCCCCCCCCCCCC(=O)[O-]
REMARK SMILES IDX 8 1 9 2 10 3 11 4 12 5 13 6 14 7 15 8 16 9 7 10 6 11 5 12
REMARK SMILES IDX 4 13 3 14 2 15 1 16
REMARK H PARENT
REMARK Flexibility Score: inf
ROOT
ATOM      1  C   UNL     1      63.430  31.440  14.071  1.00  0.00     0.000 C 
ENDROOT
BRANCH   1   2
ATOM      2  C   UNL     1      63.955  30.283  13.213  1.00  0.00     0.000 C 
BRANCH   2   3
ATOM      3  C   UNL     1      63.102  29.021  13.408  1.00  0.00     0.000 C 
BRANCH   3   4
ATOM      4  C   UNL     1      61.654  29.343  13.808  1.00  0.00     0.000 C 
BRANCH   4   5
ATOM      5  C   UNL     1      60.641  28.978  12.709  1.00  0.00     0.006 C 
BRANCH   5   6
ATOM      6  C   UNL     1      60.651  29.987  11.553  1.00  0.00     0.053 C 
BRANCH   6   7
ATOM      7  C   UNL     1      60.947  29.328  10.241  1.00  0.00     0.041 C 
ATOM      8  O   UNL     1      61.860  28.466  10.158  1.00  0.00    -0.550 OA
ATOM      9  O   UNL     1      60.190  29.641   9.119  1.00  0.00    -0.550 OA
ENDBRANCH   6   7
ENDBRANCH   5   6
ENDBRANCH   4   5
ENDBRANCH   3   4
ENDBRANCH   2   3
ENDBRANCH   1   2
BRANCH   1  10
ATOM     10  C   UNL     1      63.184  32.692  13.220  1.00  0.00     0.000 C 
BRANCH  10  11
ATOM     11  C   UNL     1      61.725  33.160  13.340  1.00  0.00    -0.000 C 
BRANCH  11  12
ATOM     12  C   UNL     1      61.192  33.072  14.778  1.00  0.00    -0.000 C 
BRANCH  12  13
ATOM     13  C   UNL     1      61.614  34.270  15.641  1.00  0.00    -0.000 C 
BRANCH  13  14
ATOM     14  C   UNL     1      62.621  33.844  16.717  1.00  0.00    -0.000 C 
BRANCH  14  15
ATOM     15  C   UNL     1      62.789  34.939  17.777  1.00  0.00    -0.003 C 
ATOM     16  C   UNL     1      62.084  34.560  19.077  1.00  0.00     0.004 C 
ENDBRANCH  14  15
ENDBRANCH  13  14
ENDBRANCH  12  13
ENDBRANCH  11  12
ENDBRANCH  10  11
ENDBRANCH   1  10
TORSDOF 12
ENDMDL
MODEL 5
REMARK VINA RESULT:    -4.389      2.924      5.510
REMARK INTER + INTRA:          -9.638
REMARK INTER:                  -7.917
REMARK INTRA:                  -1.721
REMARK UNBOUND:                -2.171
REMARK SMILES CCCCCCCCCCCCCC(=O)[O-]
REMARK SMILES IDX 8 1 9 2 10 3 11 4 12 5 13 6 14 7 15 8 16 9 7 10 6 11 5 12
REMARK SMILES IDX 4 13 3 14 2 15 1 16
REMARK H PARENT
REMARK Flexibility Score: inf
ROOT
ATOM      1  C   UNL     1      61.830  29.249  13.719  1.00  0.00     0.000 C 
ENDROOT
BRANCH   1   2
ATOM      2  C   UNL     1      60.795  28.776  12.691  1.00  0.00     0.000 C 
BRANCH   2   3
ATOM      3  C   UNL     1      60.573  29.839  11.605  1.00  0.00     0.000 C 
BRANCH   3   4
ATOM      4  C   UNL     1      60.613  29.251  10.185  1.00  0.00     0.000 C 
BRANCH   4   5
ATOM      5  C   UNL     1      62.047  28.988   9.694  1.00  0.00     0.006 C 
BRANCH   5   6
ATOM      6  C   UNL     1      62.734  30.268   9.198  1.00  0.00     0.053 C 
BRANCH   6   7
ATOM      7  C   UNL     1      64.223  30.114   9.141  1.00  0.00     0.041 C 
ATOM      8  O   UNL     1      64.748  28.981   9.300  1.00  0.00    -0.550 OA
ATOM      9  O   UNL     1      65.027  31.215   8.875  1.00  0.00    -0.550 OA
ENDBRANCH   6   7
ENDBRANCH   5   6
ENDBRANCH   4   5
ENDBRANCH   3   4
ENDBRANCH   2   3
ENDBRANCH   1   2
BRANCH   1  10
ATOM     10  C   UNL     1      63.247  29.214  13.133  1.00  0.00     0.000 C 
BRANCH  10  11
ATOM     11  C   UNL     1      64.026  30.485  13.505  1.00  0.00    -0.000 C 
BRANCH  11  12
ATOM     12  C   UNL     1      63.869  31.602  12.461  1.00  0.00    -0.000 C 
BRANCH  12  13
ATOM     13  C   UNL     1      63.843  33.003  13.091  1.00  0.00    -0.000 C 
BRANCH  13  14
ATOM     14  C   UNL     1      63.131  32.981  14.449  1.00  0.00    -0.000 C 
BRANCH  14  15
ATOM     15  C   UNL     1      61.756  33.652  14.359  1.00  0.00    -0.003 C 
ATOM     16  C   UNL     1      60.652  32.620  14.142  1.00  0.00     0.004 C 
ENDBRANCH  14  15
ENDBRANCH  13  14
ENDBRANCH  12  13
ENDBRANCH  11  12
ENDBRANCH  10  11
ENDBRANCH   1  10
TORSDOF 12
ENDMDL
MODEL 6
REMARK VINA RESULT:    -4.267      1.751      4.999
REMARK INTER + INTRA:          -9.431
REMARK INTER:                  -8.079
REMARK INTRA:                  -1.352
REMARK UNBOUND:                -2.171
REMARK SMILES CCCCCCCCCCCCCC(=O)[O-]
REMARK SMILES IDX 8 1 9 2 10 3 11 4 12 5 13 6 14 7 15 8 16 9 7 10 6 11 5 12
REMARK SMILES IDX 4 13 3 14 2 15 1 16
REMARK H PARENT
REMARK Flexibility Score: inf
ROOT
ATOM      1  C   UNL     1      64.349  30.238  11.130  1.00  0.00     0.000 C 
ENDROOT
BRANCH   1   2
ATOM      2  C   UNL     1      64.304  29.359   9.873  1.00  0.00     0.000 C 
BRANCH   2   3
ATOM      3  C   UNL     1      62.912  29.397   9.226  1.00  0.00     0.000 C 
BRANCH   3   4
ATOM      4  C   UNL     1      61.868  28.598  10.021  1.00  0.00     0.000 C 
BRANCH   4   5
ATOM      5  C   UNL     1      60.592  29.410  10.305  1.00  0.00     0.006 C 
BRANCH   5   6
ATOM      6  C   UNL     1      60.651  30.126  11.661  1.00  0.00     0.053 C 
BRANCH   6   7
ATOM      7  C   UNL     1      60.646  29.156  12.803  1.00  0.00     0.041 C 
ATOM      8  O   UNL     1      61.653  29.054  13.551  1.00  0.00    -0.550 OA
ATOM      9  O   UNL     1      59.515  28.392  13.061  1.00  0.00    -0.550 OA
ENDBRANCH   6   7
ENDBRANCH   5   6
ENDBRANCH   4   5
ENDBRANCH   3   4
ENDBRANCH   2   3
ENDBRANCH   1   2
BRANCH   1  10
ATOM     10  C   UNL     1      64.844  31.651  10.798  1.00  0.00     0.000 C 
BRANCH  10  11
ATOM     11  C   UNL     1      64.792  32.557  12.037  1.00  0.00    -0.000 C 
BRANCH  11  12
ATOM     12  C   UNL     1      63.819  32.038  13.108  1.00  0.00    -0.000 C 
BRANCH  12  13
ATOM     13  C   UNL     1      63.098  33.172  13.853  1.00  0.00    -0.000 C 
BRANCH  13  14
ATOM     14  C   UNL     1      61.628  33.261  13.426  1.00  0.00    -0.000 C 
BRANCH  14  15
ATOM     15  C   UNL     1      60.714  32.603  14.465  1.00  0.00    -0.003 C 
ATOM     16  C   UNL     1      61.416  32.473  15.814  1.00  0.00     0.004 C 
ENDBRANCH  14  15
ENDBRANCH  13  14
ENDBRANCH  12  13
ENDBRANCH  11  12
ENDBRANCH  10  11
ENDBRANCH   1  10
TORSDOF 12
ENDMDL
MODEL 7
REMARK VINA RESULT:    -4.255      1.322      1.922
REMARK INTER + INTRA:          -9.411
REMARK INTER:                  -7.574
REMARK INTRA:                  -1.838
REMARK UNBOUND:                -2.171
REMARK SMILES CCCCCCCCCCCCCC(=O)[O-]
REMARK SMILES IDX 8 1 9 2 10 3 11 4 12 5 13 6 14 7 15 8 16 9 7 10 6 11 5 12
REMARK SMILES IDX 4 13 3 14 2 15 1 16
REMARK H PARENT
REMARK Flexibility Score: inf
ROOT
ATOM      1  C   UNL     1      61.537  29.309  13.790  1.00  0.00     0.000 C 
ENDROOT
BRANCH   1   2
ATOM      2  C   UNL     1      63.057  29.509  13.726  1.00  0.00     0.000 C 
BRANCH   2   3
ATOM      3  C   UNL     1      63.446  30.921  14.187  1.00  0.00     0.000 C 
BRANCH   3   4
ATOM      4  C   UNL     1      63.325  31.963  13.064  1.00  0.00     0.000 C 
BRANCH   4   5
ATOM      5  C   UNL     1      62.260  33.033  13.362  1.00  0.00     0.006 C 
BRANCH   5   6
ATOM      6  C   UNL     1      61.768  32.971  14.814  1.00  0.00     0.053 C 
BRANCH   6   7
ATOM      7  C   UNL     1      62.267  34.132  15.619  1.00  0.00     0.041 C 
ATOM      8  O   UNL     1      63.504  34.315  15.766  1.00  0.00    -0.550 OA
ATOM      9  O   UNL     1      61.366  35.030  16.178  1.00  0.00    -0.550 OA
ENDBRANCH   6   7
ENDBRANCH   5   6
ENDBRANCH   4   5
ENDBRANCH   3   4
ENDBRANCH   2   3
ENDBRANCH   1   2
BRANCH   1  10
ATOM     10  C   UNL     1      60.980  28.871  12.430  1.00  0.00     0.000 C 
BRANCH  10  11
ATOM     11  C   UNL     1      60.614  30.089  11.568  1.00  0.00    -0.000 C 
BRANCH  11  12
ATOM     12  C   UNL     1      61.022  29.916  10.096  1.00  0.00    -0.000 C 
BRANCH  12  13
ATOM     13  C   UNL     1      61.873  28.660   9.861  1.00  0.00    -0.000 C 
BRANCH  13  14
ATOM     14  C   UNL     1      63.219  29.021   9.221  1.00  0.00    -0.000 C 
BRANCH  14  15
ATOM     15  C   UNL     1      64.203  29.547  10.272  1.00  0.00    -0.003 C 
ATOM     16  C   UNL     1      64.811  30.880   9.840  1.00  0.00     0.004 C 
ENDBRANCH  14  15
ENDBRANCH  13  14
ENDBRANCH  12  13
ENDBRANCH  11  12
ENDBRANCH  10  11
ENDBRANCH   1  10
TORSDOF 12
ENDMDL
MODEL 8
REMARK VINA RESULT:    -4.232      1.468      3.087
REMARK INTER + INTRA:          -9.371
REMARK INTER:                  -7.538
REMARK INTRA:                  -1.834
REMARK UNBOUND:                -2.171
REMARK SMILES CCCCCCCCCCCCCC(=O)[O-]
REMARK SMILES IDX 8 1 9 2 10 3 11 4 12 5 13 6 14 7 15 8 16 9 7 10 6 11 5 12
REMARK SMILES IDX 4 13 3 14 2 15 1 16
REMARK H PARENT
REMARK Flexibility Score: inf
ROOT
ATOM      1  C   UNL     1      64.836  31.636  11.229  1.00  0.00     0.000 C 
ENDROOT
BRANCH   1   2
ATOM      2  C   UNL     1      64.429  32.660  12.295  1.00  0.00     0.000 C 
BRANCH   2   3
ATOM      3  C   UNL     1      63.251  32.142  13.134  1.00  0.00     0.000 C 
BRANCH   3   4
ATOM      4  C   UNL     1      62.130  33.182  13.285  1.00  0.00     0.000 C 
BRANCH   4   5
ATOM      5  C   UNL     1      61.081  32.773  14.334  1.00  0.00     0.006 C 
BRANCH   5   6
ATOM      6  C   UNL     1      61.709  32.522  15.712  1.00  0.00     0.053 C 
BRANCH   6   7
ATOM      7  C   UNL     1      62.256  33.781  16.312  1.00  0.00     0.041 C 
ATOM      8  O   UNL     1      63.404  33.789  16.828  1.00  0.00    -0.550 OA
ATOM      9  O   UNL     1      61.512  34.953  16.268  1.00  0.00    -0.550 OA
ENDBRANCH   6   7
ENDBRANCH   5   6
ENDBRANCH   4   5
ENDBRANCH   3   4
ENDBRANCH   2   3
ENDBRANCH   1   2
BRANCH   1  10
ATOM     10  C   UNL     1      64.317  30.236  11.580  1.00  0.00     0.000 C 
BRANCH  10  11
ATOM     11  C   UNL     1      63.958  29.449  10.311  1.00  0.00    -0.000 C 
BRANCH  11  12
ATOM     12  C   UNL     1      62.467  29.082  10.244  1.00  0.00    -0.000 C 
BRANCH  12  13
ATOM     13  C   UNL     1      61.549  30.288  10.493  1.00  0.00    -0.000 C 
BRANCH  13  14
ATOM     14  C   UNL     1      60.583  30.012  11.653  1.00  0.00    -0.000 C 
BRANCH  14  15
ATOM     15  C   UNL     1      61.000  28.757  12.428  1.00  0.00    -0.003 C 
ATOM     16  C   UNL     1      61.518  29.116  13.819  1.00  0.00     0.004 C 
ENDBRANCH  14  15
ENDBRANCH  13  14
ENDBRANCH  12  13
ENDBRANCH  11  12
ENDBRANCH  10  11
ENDBRANCH   1  10
TORSDOF 12
ENDMDL
MODEL 9
REMARK VINA RESULT:    -4.169     12.863     14.914
REMARK INTER + INTRA:          -9.265
REMARK INTER:                  -7.509
REMARK INTRA:                  -1.756
REMARK UNBOUND:                -2.171
REMARK SMILES CCCCCCCCCCCCCC(=O)[O-]
REMARK SMILES IDX 8 1 9 2 10 3 11 4 12 5 13 6 14 7 15 8 16 9 7 10 6 11 5 12
REMARK SMILES IDX 4 13 3 14 2 15 1 16
REMARK H PARENT
REMARK Flexibility Score: inf
ROOT
ATOM      1  C   UNL     1      64.244  30.867  27.907  1.00  0.00     0.000 C 
ENDROOT
BRANCH   1   2
ATOM      2  C   UNL     1      65.697  30.744  28.383  1.00  0.00     0.000 C 
BRANCH   2   3
ATOM      3  C   UNL     1      66.579  30.109  27.299  1.00  0.00     0.000 C 
BRANCH   3   4
ATOM      4  C   UNL     1      65.774  29.255  26.307  1.00  0.00     0.000 C 
BRANCH   4   5
ATOM      5  C   UNL     1      66.596  28.090  25.728  1.00  0.00     0.006 C 
BRANCH   5   6
ATOM      6  C   UNL     1      65.816  26.768  25.742  1.00  0.00     0.053 C 
BRANCH   6   7
ATOM      7  C   UNL     1      65.455  26.320  24.359  1.00  0.00     0.041 C 
ATOM      8  O   UNL     1      64.289  25.920  24.108  1.00  0.00    -0.550 OA
ATOM      9  O   UNL     1      66.398  26.378  23.341  1.00  0.00    -0.550 OA
ENDBRANCH   6   7
ENDBRANCH   5   6
ENDBRANCH   4   5
ENDBRANCH   3   4
ENDBRANCH   2   3
ENDBRANCH   1   2
BRANCH   1  10
ATOM     10  C   UNL     1      63.265  30.745  29.082  1.00  0.00     0.000 C 
BRANCH  10  11
ATOM     11  C   UNL     1      62.299  29.570  28.873  1.00  0.00    -0.000 C 
BRANCH  11  12
ATOM     12  C   UNL     1      63.023  28.217  28.783  1.00  0.00    -0.000 C 
BRANCH  12  13
ATOM     13  C   UNL     1      62.727  27.472  27.473  1.00  0.00    -0.000 C 
BRANCH  13  14
ATOM     14  C   UNL     1      61.324  27.812  26.953  1.00  0.00    -0.000 C 
BRANCH  14  15
ATOM     15  C   UNL     1      61.343  28.053  25.440  1.00  0.00    -0.003 C 
ATOM     16  C   UNL     1      62.444  29.036  25.051  1.00  0.00     0.004 C 
ENDBRANCH  14  15
ENDBRANCH  13  14
ENDBRANCH  12  13
ENDBRANCH  11  12
ENDBRANCH  10  11
ENDBRANCH   1  10
TORSDOF 12
ENDMDL
