MODEL 1
REMARK VINA RESULT:    -2.931      0.000      0.000
REMARK INTER + INTRA:          -3.102
REMARK INTER:                  -3.102
REMARK INTRA:                   0.000
REMARK UNBOUND:                 0.000
REMARK SMILES O=c1ccc2cc(O)c(O)cc2o1
REMARK SMILES IDX 4 1 3 2 2 3 1 4 13 5 12 6 11 7 9 8 7 9 6 10 5 11 8 12 10 14
REMARK H PARENT 8 13 10 15
REMARK Flexibility Score: inf
ROOT
ATOM      1  C   UNL     1     -44.417 -23.216  44.042  1.00  0.00     0.019 A 
ATOM      2  C   UNL     1     -44.405 -23.936  45.237  1.00  0.00     0.094 A 
ATOM      3  C   UNL     1     -45.062 -25.171  45.289  1.00  0.00     0.336 A 
ATOM      4  O   UNL     1     -45.062 -25.837  46.357  1.00  0.00    -0.246 OA
ATOM      5  O   UNL     1     -45.685 -25.648  44.215  1.00  0.00    -0.423 OA
ATOM      6  C   UNL     1     -45.720 -24.992  43.057  1.00  0.00     0.142 A 
ATOM      7  C   UNL     1     -46.391 -25.542  41.962  1.00  0.00     0.098 A 
ATOM      8  C   UNL     1     -46.437 -24.864  40.737  1.00  0.00     0.161 A 
ATOM      9  C   UNL     1     -45.795 -23.607  40.609  1.00  0.00     0.158 A 
ATOM     10  C   UNL     1     -45.122 -23.058  41.709  1.00  0.00     0.062 A 
ATOM     11  C   UNL     1     -45.081 -23.742  42.930  1.00  0.00     0.022 A 
ENDROOT
BRANCH   9  12
ATOM     12  O   UNL     1     -45.799 -22.877  39.419  1.00  0.00    -0.504 OA
ATOM     13  H   UNL     1     -45.025 -22.313  39.098  1.00  0.00     0.293 HD
ENDBRANCH   9  12
BRANCH   8  14
ATOM     14  O   UNL     1     -47.125 -25.470  39.684  1.00  0.00    -0.504 OA
ATOM     15  H   UNL     1     -46.987 -25.237  38.711  1.00  0.00     0.293 HD
ENDBRANCH   8  14
TORSDOF 2
ENDMDL
MODEL 2
REMARK VINA RESULT:    -2.910     16.631     17.392
REMARK INTER + INTRA:          -3.080
REMARK INTER:                  -3.080
REMARK INTRA:                   0.000
REMARK UNBOUND:                 0.000
REMARK SMILES O=c1ccc2cc(O)c(O)cc2o1
REMARK SMILES IDX 4 1 3 2 2 3 1 4 13 5 12 6 11 7 9 8 7 9 6 10 5 11 8 12 10 14
REMARK H PARENT 8 13 10 15
REMARK Flexibility Score: inf
ROOT
ATOM      1  C   UNL     1     -26.875 -25.791  44.263  1.00  0.00     0.019 A 
ATOM      2  C   UNL     1     -27.523 -25.936  45.490  1.00  0.00     0.094 A 
ATOM      3  C   UNL     1     -28.784 -25.354  45.662  1.00  0.00     0.336 A 
ATOM      4  O   UNL     1     -29.386 -25.473  46.761  1.00  0.00    -0.246 OA
ATOM      5  O   UNL     1     -29.353 -24.675  44.669  1.00  0.00    -0.423 OA
ATOM      6  C   UNL     1     -28.768 -24.514  43.484  1.00  0.00     0.142 A 
ATOM      7  C   UNL     1     -29.414 -23.790  42.479  1.00  0.00     0.098 A 
ATOM      8  C   UNL     1     -28.812 -23.612  41.227  1.00  0.00     0.161 A 
ATOM      9  C   UNL     1     -27.534 -24.172  40.979  1.00  0.00     0.158 A 
ATOM     10  C   UNL     1     -26.889 -24.898  41.989  1.00  0.00     0.062 A 
ATOM     11  C   UNL     1     -27.498 -25.071  43.238  1.00  0.00     0.022 A 
ENDROOT
BRANCH   9  12
ATOM     12  O   UNL     1     -26.875 -24.035  39.755  1.00  0.00    -0.504 OA
ATOM     13  H   UNL     1     -25.871 -24.014  39.653  1.00  0.00     0.293 HD
ENDBRANCH   9  12
BRANCH   8  14
ATOM     14  O   UNL     1     -29.512 -22.877  40.267  1.00  0.00    -0.504 OA
ATOM     15  H   UNL     1     -29.148 -22.054  39.810  1.00  0.00     0.293 HD
ENDBRANCH   8  14
TORSDOF 2
ENDMDL
MODEL 3
REMARK VINA RESULT:    -2.860     16.407     17.656
REMARK INTER + INTRA:          -3.027
REMARK INTER:                  -3.027
REMARK INTRA:                   0.000
REMARK UNBOUND:                 0.000
REMARK SMILES O=c1ccc2cc(O)c(O)cc2o1
REMARK SMILES IDX 4 1 3 2 2 3 1 4 13 5 12 6 11 7 9 8 7 9 6 10 5 11 8 12 10 14
REMARK H PARENT 8 13 10 15
REMARK Flexibility Score: inf
ROOT
ATOM      1  C   UNL     1     -26.949 -25.002  41.030  1.00  0.00     0.019 A 
ATOM      2  C   UNL     1     -27.259 -24.407  39.808  1.00  0.00     0.094 A 
ATOM      3  C   UNL     1     -28.409 -23.614  39.713  1.00  0.00     0.336 A 
ATOM      4  O   UNL     1     -28.706 -23.067  38.619  1.00  0.00    -0.246 OA
ATOM      5  O   UNL     1     -29.190 -23.432  40.775  1.00  0.00    -0.423 OA
ATOM      6  C   UNL     1     -28.930 -23.983  41.958  1.00  0.00     0.142 A 
ATOM      7  C   UNL     1     -29.788 -23.758  43.037  1.00  0.00     0.098 A 
ATOM      8  C   UNL     1     -29.527 -24.330  44.290  1.00  0.00     0.161 A 
ATOM      9  C   UNL     1     -28.381 -25.145  44.461  1.00  0.00     0.158 A 
ATOM     10  C   UNL     1     -27.522 -25.369  43.376  1.00  0.00     0.062 A 
ATOM     11  C   UNL     1     -27.790 -24.794  42.128  1.00  0.00     0.022 A 
ENDROOT
BRANCH   9  12
ATOM     12  O   UNL     1     -28.059 -25.747  45.680  1.00  0.00    -0.504 OA
ATOM     13  H   UNL     1     -28.052 -26.744  45.833  1.00  0.00     0.293 HD
ENDBRANCH   9  12
BRANCH   8  14
ATOM     14  O   UNL     1     -30.425 -24.064  45.326  1.00  0.00    -0.504 OA
ATOM     15  H   UNL     1     -30.688 -24.737  46.031  1.00  0.00     0.293 HD
ENDBRANCH   8  14
TORSDOF 2
ENDMDL
MODEL 4
REMARK VINA RESULT:    -2.856      0.982      2.267
REMARK INTER + INTRA:          -3.023
REMARK INTER:                  -3.023
REMARK INTRA:                   0.000
REMARK UNBOUND:                 0.000
REMARK SMILES O=c1ccc2cc(O)c(O)cc2o1
REMARK SMILES IDX 4 1 3 2 2 3 1 4 13 5 12 6 11 7 9 8 7 9 6 10 5 11 8 12 10 14
REMARK H PARENT 8 13 10 15
REMARK Flexibility Score: inf
ROOT
ATOM      1  C   UNL     1     -45.963 -26.480  44.030  1.00  0.00     0.019 A 
ATOM      2  C   UNL     1     -45.400 -26.048  45.231  1.00  0.00     0.094 A 
ATOM      3  C   UNL     1     -44.873 -24.754  45.304  1.00  0.00     0.336 A 
ATOM      4  O   UNL     1     -44.361 -24.344  46.379  1.00  0.00    -0.246 OA
ATOM      5  O   UNL     1     -44.912 -23.950  44.245  1.00  0.00    -0.423 OA
ATOM      6  C   UNL     1     -45.441 -24.324  43.082  1.00  0.00     0.142 A 
ATOM      7  C   UNL     1     -45.453 -23.436  42.003  1.00  0.00     0.098 A 
ATOM      8  C   UNL     1     -46.006 -23.815  40.772  1.00  0.00     0.161 A 
ATOM      9  C   UNL     1     -46.558 -25.112  40.623  1.00  0.00     0.158 A 
ATOM     10  C   UNL     1     -46.544 -25.999  41.707  1.00  0.00     0.062 A 
ATOM     11  C   UNL     1     -45.990 -25.613  42.933  1.00  0.00     0.022 A 
ENDROOT
BRANCH   9  12
ATOM     12  O   UNL     1     -47.125 -25.556  39.426  1.00  0.00    -0.504 OA
ATOM     13  H   UNL     1     -47.965 -26.113  39.371  1.00  0.00     0.293 HD
ENDBRANCH   9  12
BRANCH   8  14
ATOM     14  O   UNL     1     -45.986 -22.880  39.735  1.00  0.00    -0.504 OA
ATOM     15  H   UNL     1     -45.849 -23.118  38.763  1.00  0.00     0.293 HD
ENDBRANCH   8  14
TORSDOF 2
ENDMDL
MODEL 5
REMARK VINA RESULT:    -2.826      1.330      4.575
REMARK INTER + INTRA:          -2.992
REMARK INTER:                  -2.992
REMARK INTRA:                   0.000
REMARK UNBOUND:                 0.000
REMARK SMILES O=c1ccc2cc(O)c(O)cc2o1
REMARK SMILES IDX 4 1 3 2 2 3 1 4 13 5 12 6 11 7 9 8 7 9 6 10 5 11 8 12 10 14
REMARK H PARENT 8 13 10 15
REMARK Flexibility Score: inf
ROOT
ATOM      1  C   UNL     1     -44.966 -23.295  40.528  1.00  0.00     0.019 A 
ATOM      2  C   UNL     1     -45.578 -23.660  39.329  1.00  0.00     0.094 A 
ATOM      3  C   UNL     1     -46.455 -24.750  39.322  1.00  0.00     0.336 A 
ATOM      4  O   UNL     1     -47.019 -25.096  38.251  1.00  0.00    -0.246 OA
ATOM      5  O   UNL     1     -46.699 -25.426  40.442  1.00  0.00    -0.423 OA
ATOM      6  C   UNL     1     -46.135 -25.110  41.606  1.00  0.00     0.142 A 
ATOM      7  C   UNL     1     -46.429 -25.856  42.749  1.00  0.00     0.098 A 
ATOM      8  C   UNL     1     -45.844 -25.536  43.982  1.00  0.00     0.161 A 
ATOM      9  C   UNL     1     -44.945 -24.444  44.066  1.00  0.00     0.158 A 
ATOM     10  C   UNL     1     -44.653 -23.698  42.917  1.00  0.00     0.062 A 
ATOM     11  C   UNL     1     -45.242 -24.024  41.690  1.00  0.00     0.022 A 
ENDROOT
BRANCH   9  12
ATOM     12  O   UNL     1     -44.326 -24.069  45.261  1.00  0.00    -0.504 OA
ATOM     13  H   UNL     1     -44.787 -24.064  46.159  1.00  0.00     0.293 HD
ENDBRANCH   9  12
BRANCH   8  14
ATOM     14  O   UNL     1     -46.180 -26.323  45.085  1.00  0.00    -0.504 OA
ATOM     15  H   UNL     1     -45.926 -27.295  45.184  1.00  0.00     0.293 HD
ENDBRANCH   8  14
TORSDOF 2
ENDMDL
MODEL 6
REMARK VINA RESULT:    -2.804     16.265     16.988
REMARK INTER + INTRA:          -2.968
REMARK INTER:                  -2.968
REMARK INTRA:                   0.000
REMARK UNBOUND:                 0.000
REMARK SMILES O=c1ccc2cc(O)c(O)cc2o1
REMARK SMILES IDX 4 1 3 2 2 3 1 4 13 5 12 6 11 7 9 8 7 9 6 10 5 11 8 12 10 14
REMARK H PARENT 8 13 10 15
REMARK Flexibility Score: inf
ROOT
ATOM      1  C   UNL     1     -30.225 -24.019  43.905  1.00  0.00     0.019 A 
ATOM      2  C   UNL     1     -29.809 -24.663  45.070  1.00  0.00     0.094 A 
ATOM      3  C   UNL     1     -28.593 -25.355  45.063  1.00  0.00     0.336 A 
ATOM      4  O   UNL     1     -28.199 -25.943  46.105  1.00  0.00    -0.246 OA
ATOM      5  O   UNL     1     -27.847 -25.395  43.962  1.00  0.00    -0.423 OA
ATOM      6  C   UNL     1     -28.208 -24.794  42.831  1.00  0.00     0.142 A 
ATOM      7  C   UNL     1     -27.384 -24.871  41.705  1.00  0.00     0.098 A 
ATOM      8  C   UNL     1     -27.750 -24.244  40.507  1.00  0.00     0.161 A 
ATOM      9  C   UNL     1     -28.969 -23.525  40.438  1.00  0.00     0.158 A 
ATOM     10  C   UNL     1     -29.793 -23.449  41.569  1.00  0.00     0.062 A 
ATOM     11  C   UNL     1     -29.420 -24.079  42.763  1.00  0.00     0.022 A 
ENDROOT
BRANCH   9  12
ATOM     12  O   UNL     1     -29.396 -22.875  39.278  1.00  0.00    -0.504 OA
ATOM     13  H   UNL     1     -29.690 -23.353  38.439  1.00  0.00     0.293 HD
ENDBRANCH   9  12
BRANCH   8  14
ATOM     14  O   UNL     1     -26.881 -24.360  39.420  1.00  0.00    -0.504 OA
ATOM     15  H   UNL     1     -26.175 -25.077  39.336  1.00  0.00     0.293 HD
ENDBRANCH   8  14
TORSDOF 2
ENDMDL
MODEL 7
REMARK VINA RESULT:    -2.788      1.378      5.048
REMARK INTER + INTRA:          -2.951
REMARK INTER:                  -2.951
REMARK INTRA:                   0.000
REMARK UNBOUND:                 0.000
REMARK SMILES O=c1ccc2cc(O)c(O)cc2o1
REMARK SMILES IDX 4 1 3 2 2 3 1 4 13 5 12 6 11 7 9 8 7 9 6 10 5 11 8 12 10 14
REMARK H PARENT 8 13 10 15
REMARK Flexibility Score: inf
ROOT
ATOM      1  C   UNL     1     -46.757 -26.382  42.788  1.00  0.00     0.019 A 
ATOM      2  C   UNL     1     -47.024 -25.981  41.479  1.00  0.00     0.094 A 
ATOM      3  C   UNL     1     -46.485 -24.775  41.018  1.00  0.00     0.336 A 
ATOM      4  O   UNL     1     -46.713 -24.395  39.840  1.00  0.00    -0.246 OA
ATOM      5  O   UNL     1     -45.729 -24.026  41.817  1.00  0.00    -0.423 OA
ATOM      6  C   UNL     1     -45.452 -24.373  43.071  1.00  0.00     0.142 A 
ATOM      7  C   UNL     1     -44.653 -23.545  43.864  1.00  0.00     0.098 A 
ATOM      8  C   UNL     1     -44.351 -23.897  45.187  1.00  0.00     0.161 A 
ATOM      9  C   UNL     1     -44.862 -25.105  45.723  1.00  0.00     0.158 A 
ATOM     10  C   UNL     1     -45.663 -25.932  44.925  1.00  0.00     0.062 A 
ATOM     11  C   UNL     1     -45.960 -25.574  43.605  1.00  0.00     0.022 A 
ENDROOT
BRANCH   9  12
ATOM     12  O   UNL     1     -44.602 -25.517  47.032  1.00  0.00    -0.504 OA
ATOM     13  H   UNL     1     -44.686 -26.471  47.351  1.00  0.00     0.293 HD
ENDBRANCH   9  12
BRANCH   8  14
ATOM     14  O   UNL     1     -43.547 -23.025  45.924  1.00  0.00    -0.504 OA
ATOM     15  H   UNL     1     -43.464 -22.037  45.734  1.00  0.00     0.293 HD
ENDBRANCH   8  14
TORSDOF 2
ENDMDL
MODEL 8
REMARK VINA RESULT:    -2.758     16.565     17.956
REMARK INTER + INTRA:          -2.920
REMARK INTER:                  -2.920
REMARK INTRA:                   0.000
REMARK UNBOUND:                 0.000
REMARK SMILES O=c1ccc2cc(O)c(O)cc2o1
REMARK SMILES IDX 4 1 3 2 2 3 1 4 13 5 12 6 11 7 9 8 7 9 6 10 5 11 8 12 10 14
REMARK H PARENT 8 13 10 15
REMARK Flexibility Score: inf
ROOT
ATOM      1  C   UNL     1     -29.604 -23.707  42.936  1.00  0.00     0.019 A 
ATOM      2  C   UNL     1     -28.957 -23.546  41.711  1.00  0.00     0.094 A 
ATOM      3  C   UNL     1     -27.721 -24.172  41.511  1.00  0.00     0.336 A 
ATOM      4  O   UNL     1     -27.120 -24.040  40.413  1.00  0.00    -0.246 OA
ATOM      5  O   UNL     1     -27.175 -24.908  42.476  1.00  0.00    -0.423 OA
ATOM      6  C   UNL     1     -27.760 -25.086  43.658  1.00  0.00     0.142 A 
ATOM      7  C   UNL     1     -27.139 -25.870  44.634  1.00  0.00     0.098 A 
ATOM      8  C   UNL     1     -27.742 -26.067  45.883  1.00  0.00     0.161 A 
ATOM      9  C   UNL     1     -28.995 -25.464  46.158  1.00  0.00     0.158 A 
ATOM     10  C   UNL     1     -29.615 -24.679  45.177  1.00  0.00     0.062 A 
ATOM     11  C   UNL     1     -29.006 -24.487  43.931  1.00  0.00     0.022 A 
ENDROOT
BRANCH   9  12
ATOM     12  O   UNL     1     -29.653 -25.618  47.380  1.00  0.00    -0.504 OA
ATOM     13  H   UNL     1     -29.745 -26.498  47.866  1.00  0.00     0.293 HD
ENDBRANCH   9  12
BRANCH   8  14
ATOM     14  O   UNL     1     -27.068 -26.861  46.813  1.00  0.00    -0.504 OA
ATOM     15  H   UNL     1     -27.496 -27.249  47.640  1.00  0.00     0.293 HD
ENDBRANCH   8  14
TORSDOF 2
ENDMDL
MODEL 9
REMARK VINA RESULT:    -2.749      3.737      6.938
REMARK INTER + INTRA:          -2.909
REMARK INTER:                  -2.909
REMARK INTRA:                   0.000
REMARK UNBOUND:                 0.000
REMARK SMILES O=c1ccc2cc(O)c(O)cc2o1
REMARK SMILES IDX 4 1 3 2 2 3 1 4 13 5 12 6 11 7 9 8 7 9 6 10 5 11 8 12 10 14
REMARK H PARENT 8 13 10 15
REMARK Flexibility Score: inf
ROOT
ATOM      1  C   UNL     1     -41.891 -23.147  46.358  1.00  0.00     0.019 A 
ATOM      2  C   UNL     1     -42.260 -23.076  45.015  1.00  0.00     0.094 A 
ATOM      3  C   UNL     1     -43.615 -22.942  44.692  1.00  0.00     0.336 A 
ATOM      4  O   UNL     1     -43.970 -22.876  43.486  1.00  0.00    -0.246 OA
ATOM      5  O   UNL     1     -44.534 -22.883  45.653  1.00  0.00    -0.423 OA
ATOM      6  C   UNL     1     -44.223 -22.948  46.946  1.00  0.00     0.142 A 
ATOM      7  C   UNL     1     -45.231 -22.881  47.911  1.00  0.00     0.098 A 
ATOM      8  C   UNL     1     -44.920 -22.947  49.275  1.00  0.00     0.161 A 
ATOM      9  C   UNL     1     -43.568 -23.084  49.678  1.00  0.00     0.158 A 
ATOM     10  C   UNL     1     -42.559 -23.150  48.708  1.00  0.00     0.062 A 
ATOM     11  C   UNL     1     -42.879 -23.083  47.346  1.00  0.00     0.022 A 
ENDROOT
BRANCH   9  12
ATOM     12  O   UNL     1     -43.185 -23.156  51.020  1.00  0.00    -0.504 OA
ATOM     13  H   UNL     1     -43.759 -22.842  51.789  1.00  0.00     0.293 HD
ENDBRANCH   9  12
BRANCH   8  14
ATOM     14  O   UNL     1     -45.975 -22.875  50.187  1.00  0.00    -0.504 OA
ATOM     15  H   UNL     1     -46.668 -22.142  50.191  1.00  0.00     0.293 HD
ENDBRANCH   8  14
TORSDOF 2
ENDMDL
