MODEL 1
REMARK VINA RESULT:    -4.873      0.000      0.000
REMARK INTER + INTRA:         -11.026
REMARK INTER:                  -8.861
REMARK INTRA:                  -2.165
REMARK UNBOUND:                -2.165
REMARK SMILES CCCCCCCCCCCCCCCC(=O)[O-]
REMARK SMILES IDX 9 1 10 2 11 3 12 4 13 5 14 6 15 7 16 8 17 9 18 10 8 11 7 12
REMARK SMILES IDX 6 13 5 14 4 15 3 16 2 17 1 18
REMARK H PARENT
REMARK Flexibility Score: inf
ROOT
ATOM      1  C   UNL     1       6.252  47.475   9.359  1.00  0.00     0.000 C 
ENDROOT
BRANCH   1   2
ATOM      2  C   UNL     1       5.069  46.742  10.010  1.00  0.00     0.000 C 
BRANCH   2   3
ATOM      3  C   UNL     1       4.488  45.638   9.112  1.00  0.00     0.000 C 
BRANCH   3   4
ATOM      4  C   UNL     1       3.417  44.798   9.823  1.00  0.00     0.000 C 
BRANCH   4   5
ATOM      5  C   UNL     1       3.345  45.150  11.314  1.00  0.00     0.000 C 
BRANCH   5   6
ATOM      6  C   UNL     1       3.863  43.992  12.179  1.00  0.00     0.006 C 
BRANCH   6   7
ATOM      7  C   UNL     1       3.702  42.632  11.486  1.00  0.00     0.053 C 
BRANCH   7   8
ATOM      8  C   UNL     1       2.516  41.878  12.008  1.00  0.00     0.041 C 
ATOM      9  O   UNL     1       1.430  42.479  12.225  1.00  0.00    -0.550 OA
ATOM     10  O   UNL     1       2.620  40.521  12.285  1.00  0.00    -0.550 OA
ENDBRANCH   7   8
ENDBRANCH   6   7
ENDBRANCH   5   6
ENDBRANCH   4   5
ENDBRANCH   3   4
ENDBRANCH   2   3
ENDBRANCH   1   2
BRANCH   1  11
ATOM     11  C   UNL     1       6.255  48.960   9.742  1.00  0.00     0.000 C 
BRANCH  11  12
ATOM     12  C   UNL     1       4.963  49.344  10.476  1.00  0.00    -0.000 C 
BRANCH  12  13
ATOM     13  C   UNL     1       4.228  50.528   9.809  1.00  0.00    -0.000 C 
BRANCH  13  14
ATOM     14  C   UNL     1       4.385  50.570   8.278  1.00  0.00    -0.000 C 
BRANCH  14  15
ATOM     15  C   UNL     1       3.178  50.024   7.494  1.00  0.00    -0.000 C 
BRANCH  15  16
ATOM     16  C   UNL     1       3.157  48.483   7.381  1.00  0.00    -0.000 C 
BRANCH  16  17
ATOM     17  C   UNL     1       1.804  47.876   7.777  1.00  0.00    -0.003 C 
ATOM     18  C   UNL     1       1.570  47.987   9.280  1.00  0.00     0.004 C 
ENDBRANCH  16  17
ENDBRANCH  15  16
ENDBRANCH  14  15
ENDBRANCH  13  14
ENDBRANCH  12  13
ENDBRANCH  11  12
ENDBRANCH   1  11
TORSDOF 14
ENDMDL
MODEL 2
REMARK VINA RESULT:    -4.778      1.313      3.268
REMARK INTER + INTRA:         -10.853
REMARK INTER:                  -8.551
REMARK INTRA:                  -2.302
REMARK UNBOUND:                -2.165
REMARK SMILES CCCCCCCCCCCCCCCC(=O)[O-]
REMARK SMILES IDX 9 1 10 2 11 3 12 4 13 5 14 6 15 7 16 8 17 9 18 10 8 11 7 12
REMARK SMILES IDX 6 13 5 14 4 15 3 16 2 17 1 18
REMARK H PARENT
REMARK Flexibility Score: inf
ROOT
ATOM      1  C   UNL     1       3.139  48.440   7.475  1.00  0.00     0.000 C 
ENDROOT
BRANCH   1   2
ATOM      2  C   UNL     1       1.770  47.829   7.814  1.00  0.00     0.000 C 
BRANCH   2   3
ATOM      3  C   UNL     1       1.465  47.856   9.320  1.00  0.00     0.000 C 
BRANCH   3   4
ATOM      4  C   UNL     1       0.709  46.606   9.794  1.00  0.00     0.000 C 
BRANCH   4   5
ATOM      5  C   UNL     1       0.914  45.439   8.820  1.00  0.00     0.000 C 
BRANCH   5   6
ATOM      6  C   UNL     1       1.136  44.122   9.578  1.00  0.00     0.006 C 
BRANCH   6   7
ATOM      7  C   UNL     1       1.275  44.339  11.091  1.00  0.00     0.053 C 
BRANCH   7   8
ATOM      8  C   UNL     1       2.353  43.481  11.680  1.00  0.00     0.041 C 
ATOM      9  O   UNL     1       3.308  44.008  12.309  1.00  0.00    -0.550 OA
ATOM     10  O   UNL     1       2.320  42.103  11.505  1.00  0.00    -0.550 OA
ENDBRANCH   7   8
ENDBRANCH   6   7
ENDBRANCH   5   6
ENDBRANCH   4   5
ENDBRANCH   3   4
ENDBRANCH   2   3
ENDBRANCH   1   2
BRANCH   1  11
ATOM     11  C   UNL     1       3.070  49.971   7.473  1.00  0.00     0.000 C 
BRANCH  11  12
ATOM     12  C   UNL     1       4.263  50.579   8.223  1.00  0.00    -0.000 C 
BRANCH  12  13
ATOM     13  C   UNL     1       4.134  50.446   9.757  1.00  0.00    -0.000 C 
BRANCH  13  14
ATOM     14  C   UNL     1       5.204  49.538  10.390  1.00  0.00    -0.000 C 
BRANCH  14  15
ATOM     15  C   UNL     1       6.229  48.964   9.395  1.00  0.00    -0.000 C 
BRANCH  15  16
ATOM     16  C   UNL     1       6.223  47.420   9.320  1.00  0.00    -0.000 C 
BRANCH  16  17
ATOM     17  C   UNL     1       5.038  46.794  10.067  1.00  0.00    -0.003 C 
ATOM     18  C   UNL     1       4.507  45.569   9.329  1.00  0.00     0.004 C 
ENDBRANCH  16  17
ENDBRANCH  15  16
ENDBRANCH  14  15
ENDBRANCH  13  14
ENDBRANCH  12  13
ENDBRANCH  11  12
ENDBRANCH   1  11
TORSDOF 14
ENDMDL
MODEL 3
REMARK VINA RESULT:    -4.756      1.592      3.213
REMARK INTER + INTRA:         -10.813
REMARK INTER:                  -9.435
REMARK INTRA:                  -1.378
REMARK UNBOUND:                -2.165
REMARK SMILES CCCCCCCCCCCCCCCC(=O)[O-]
REMARK SMILES IDX 9 1 10 2 11 3 12 4 13 5 14 6 15 7 16 8 17 9 18 10 8 11 7 12
REMARK SMILES IDX 6 13 5 14 4 15 3 16 2 17 1 18
REMARK H PARENT
REMARK Flexibility Score: inf
ROOT
ATOM      1  C   UNL     1       3.595  45.820   9.457  1.00  0.00     0.000 C 
ENDROOT
BRANCH   1   2
ATOM      2  C   UNL     1       4.485  45.532  10.676  1.00  0.00     0.000 C 
BRANCH   2   3
ATOM      3  C   UNL     1       3.809  44.602  11.697  1.00  0.00     0.000 C 
BRANCH   3   4
ATOM      4  C   UNL     1       2.470  44.043  11.193  1.00  0.00     0.000 C 
BRANCH   4   5
ATOM      5  C   UNL     1       2.595  42.556  10.840  1.00  0.00     0.000 C 
BRANCH   5   6
ATOM      6  C   UNL     1       3.345  41.790  11.940  1.00  0.00     0.006 C 
BRANCH   6   7
ATOM      7  C   UNL     1       2.567  40.559  12.424  1.00  0.00     0.053 C 
BRANCH   7   8
ATOM      8  C   UNL     1       3.475  39.399  12.696  1.00  0.00     0.041 C 
ATOM      9  O   UNL     1       4.687  39.595  12.978  1.00  0.00    -0.550 OA
ATOM     10  O   UNL     1       2.992  38.100  12.606  1.00  0.00    -0.550 OA
ENDBRANCH   7   8
ENDBRANCH   6   7
ENDBRANCH   5   6
ENDBRANCH   4   5
ENDBRANCH   3   4
ENDBRANCH   2   3
ENDBRANCH   1   2
BRANCH   1  11
ATOM     11  C   UNL     1       3.377  47.328   9.283  1.00  0.00     0.000 C 
BRANCH  11  12
ATOM     12  C   UNL     1       3.100  47.680   7.815  1.00  0.00    -0.000 C 
BRANCH  12  13
ATOM     13  C   UNL     1       3.627  49.081   7.428  1.00  0.00    -0.000 C 
BRANCH  13  14
ATOM     14  C   UNL     1       3.553  50.107   8.573  1.00  0.00    -0.000 C 
BRANCH  14  15
ATOM     15  C   UNL     1       4.901  50.751   8.945  1.00  0.00    -0.000 C 
BRANCH  15  16
ATOM     16  C   UNL     1       6.125  49.870   8.605  1.00  0.00    -0.000 C 
BRANCH  16  17
ATOM     17  C   UNL     1       6.585  49.009   9.790  1.00  0.00    -0.003 C 
ATOM     18  C   UNL     1       7.067  47.640   9.321  1.00  0.00     0.004 C 
ENDBRANCH  16  17
ENDBRANCH  15  16
ENDBRANCH  14  15
ENDBRANCH  13  14
ENDBRANCH  12  13
ENDBRANCH  11  12
ENDBRANCH   1  11
TORSDOF 14
ENDMDL
MODEL 4
REMARK VINA RESULT:    -4.756      3.632      6.536
REMARK INTER + INTRA:         -10.813
REMARK INTER:                  -8.582
REMARK INTRA:                  -2.231
REMARK UNBOUND:                -2.165
REMARK SMILES CCCCCCCCCCCCCCCC(=O)[O-]
REMARK SMILES IDX 9 1 10 2 11 3 12 4 13 5 14 6 15 7 16 8 17 9 18 10 8 11 7 12
REMARK SMILES IDX 6 13 5 14 4 15 3 16 2 17 1 18
REMARK H PARENT
REMARK Flexibility Score: inf
ROOT
ATOM      1  C   UNL     1       2.812  47.378   8.572  1.00  0.00     0.000 C 
ENDROOT
BRANCH   1   2
ATOM      2  C   UNL     1       3.045  47.668  10.063  1.00  0.00     0.000 C 
BRANCH   2   3
ATOM      3  C   UNL     1       4.500  47.425  10.495  1.00  0.00     0.000 C 
BRANCH   3   4
ATOM      4  C   UNL     1       5.367  46.860   9.360  1.00  0.00     0.000 C 
BRANCH   4   5
ATOM      5  C   UNL     1       6.602  47.738   9.124  1.00  0.00     0.000 C 
BRANCH   5   6
ATOM      6  C   UNL     1       6.389  49.151   9.689  1.00  0.00     0.006 C 
BRANCH   6   7
ATOM      7  C   UNL     1       6.024  50.165   8.597  1.00  0.00     0.053 C 
BRANCH   7   8
ATOM      8  C   UNL     1       4.642  50.712   8.785  1.00  0.00     0.041 C 
ATOM      9  O   UNL     1       4.273  51.124   9.917  1.00  0.00    -0.550 OA
ATOM     10  O   UNL     1       3.751  50.736   7.720  1.00  0.00    -0.550 OA
ENDBRANCH   7   8
ENDBRANCH   6   7
ENDBRANCH   5   6
ENDBRANCH   4   5
ENDBRANCH   3   4
ENDBRANCH   2   3
ENDBRANCH   1   2
BRANCH   1  11
ATOM     11  C   UNL     1       1.372  46.915   8.323  1.00  0.00     0.000 C 
BRANCH  11  12
ATOM     12  C   UNL     1       0.650  46.616   9.644  1.00  0.00    -0.000 C 
BRANCH  12  13
ATOM     13  C   UNL     1       0.232  45.134   9.774  1.00  0.00    -0.000 C 
BRANCH  13  14
ATOM     14  C   UNL     1       0.768  44.239   8.643  1.00  0.00    -0.000 C 
BRANCH  14  15
ATOM     15  C   UNL     1       1.909  43.294   9.059  1.00  0.00    -0.000 C 
BRANCH  15  16
ATOM     16  C   UNL     1       2.301  43.413  10.550  1.00  0.00    -0.000 C 
BRANCH  16  17
ATOM     17  C   UNL     1       3.784  43.755  10.749  1.00  0.00    -0.003 C 
ATOM     18  C   UNL     1       4.043  44.282  12.157  1.00  0.00     0.004 C 
ENDBRANCH  16  17
ENDBRANCH  15  16
ENDBRANCH  14  15
ENDBRANCH  13  14
ENDBRANCH  12  13
ENDBRANCH  11  12
ENDBRANCH   1  11
TORSDOF 14
ENDMDL
MODEL 5
REMARK VINA RESULT:    -4.747      1.267      2.038
REMARK INTER + INTRA:         -10.796
REMARK INTER:                  -9.327
REMARK INTRA:                  -1.470
REMARK UNBOUND:                -2.165
REMARK SMILES CCCCCCCCCCCCCCCC(=O)[O-]
REMARK SMILES IDX 9 1 10 2 11 3 12 4 13 5 14 6 15 7 16 8 17 9 18 10 8 11 7 12
REMARK SMILES IDX 6 13 5 14 4 15 3 16 2 17 1 18
REMARK H PARENT
REMARK Flexibility Score: inf
ROOT
ATOM      1  C   UNL     1       5.328  46.887   9.104  1.00  0.00     0.000 C 
ENDROOT
BRANCH   1   2
ATOM      2  C   UNL     1       4.749  46.442  10.456  1.00  0.00     0.000 C 
BRANCH   2   3
ATOM      3  C   UNL     1       3.810  45.232  10.329  1.00  0.00     0.000 C 
BRANCH   3   4
ATOM      4  C   UNL     1       3.922  44.268  11.518  1.00  0.00     0.000 C 
BRANCH   4   5
ATOM      5  C   UNL     1       2.553  43.676  11.876  1.00  0.00     0.000 C 
BRANCH   5   6
ATOM      6  C   UNL     1       2.550  42.150  11.702  1.00  0.00     0.006 C 
BRANCH   6   7
ATOM      7  C   UNL     1       3.915  41.526  12.023  1.00  0.00     0.053 C 
BRANCH   7   8
ATOM      8  C   UNL     1       3.773  40.185  12.677  1.00  0.00     0.041 C 
ATOM      9  O   UNL     1       2.665  39.586  12.660  1.00  0.00    -0.550 OA
ATOM     10  O   UNL     1       4.856  39.612  13.333  1.00  0.00    -0.550 OA
ENDBRANCH   7   8
ENDBRANCH   6   7
ENDBRANCH   5   6
ENDBRANCH   4   5
ENDBRANCH   3   4
ENDBRANCH   2   3
ENDBRANCH   1   2
BRANCH   1  11
ATOM     11  C   UNL     1       6.632  47.671   9.297  1.00  0.00     0.000 C 
BRANCH  11  12
ATOM     12  C   UNL     1       6.447  49.150   8.935  1.00  0.00    -0.000 C 
BRANCH  12  13
ATOM     13  C   UNL     1       6.030  50.014  10.147  1.00  0.00    -0.000 C 
BRANCH  13  14
ATOM     14  C   UNL     1       4.648  50.673   9.991  1.00  0.00    -0.000 C 
BRANCH  14  15
ATOM     15  C   UNL     1       3.474  49.840  10.537  1.00  0.00    -0.000 C 
BRANCH  15  16
ATOM     16  C   UNL     1       2.309  49.679   9.535  1.00  0.00    -0.000 C 
BRANCH  16  17
ATOM     17  C   UNL     1       2.787  49.329   8.119  1.00  0.00    -0.003 C 
ATOM     18  C   UNL     1       2.301  47.945   7.700  1.00  0.00     0.004 C 
ENDBRANCH  16  17
ENDBRANCH  15  16
ENDBRANCH  14  15
ENDBRANCH  13  14
ENDBRANCH  12  13
ENDBRANCH  11  12
ENDBRANCH   1  11
TORSDOF 14
ENDMDL
MODEL 6
REMARK VINA RESULT:    -4.694      1.054      3.027
REMARK INTER + INTRA:         -10.700
REMARK INTER:                  -8.590
REMARK INTRA:                  -2.110
REMARK UNBOUND:                -2.165
REMARK SMILES CCCCCCCCCCCCCCCC(=O)[O-]
REMARK SMILES IDX 9 1 10 2 11 3 12 4 13 5 14 6 15 7 16 8 17 9 18 10 8 11 7 12
REMARK SMILES IDX 6 13 5 14 4 15 3 16 2 17 1 18
REMARK H PARENT
REMARK Flexibility Score: inf
ROOT
ATOM      1  C   UNL     1       3.149  48.108   7.495  1.00  0.00     0.000 C 
ENDROOT
BRANCH   1   2
ATOM      2  C   UNL     1       1.900  47.492   8.142  1.00  0.00     0.000 C 
BRANCH   2   3
ATOM      3  C   UNL     1       2.232  46.305   9.060  1.00  0.00     0.000 C 
BRANCH   3   4
ATOM      4  C   UNL     1       3.739  46.160   9.319  1.00  0.00     0.000 C 
BRANCH   4   5
ATOM      5  C   UNL     1       4.001  45.487  10.672  1.00  0.00     0.000 C 
BRANCH   5   6
ATOM      6  C   UNL     1       4.127  43.965  10.514  1.00  0.00     0.006 C 
BRANCH   6   7
ATOM      7  C   UNL     1       3.749  43.215  11.799  1.00  0.00     0.053 C 
BRANCH   7   8
ATOM      8  C   UNL     1       2.400  42.571  11.691  1.00  0.00     0.041 C 
ATOM      9  O   UNL     1       1.493  43.113  11.006  1.00  0.00    -0.550 OA
ATOM     10  O   UNL     1       2.135  41.391  12.374  1.00  0.00    -0.550 OA
ENDBRANCH   7   8
ENDBRANCH   6   7
ENDBRANCH   5   6
ENDBRANCH   4   5
ENDBRANCH   3   4
ENDBRANCH   2   3
ENDBRANCH   1   2
BRANCH   1  11
ATOM     11  C   UNL     1       2.960  49.612   7.262  1.00  0.00     0.000 C 
BRANCH  11  12
ATOM     12  C   UNL     1       2.135  50.247   8.390  1.00  0.00    -0.000 C 
BRANCH  12  13
ATOM     13  C   UNL     1       3.016  50.841   9.512  1.00  0.00    -0.000 C 
BRANCH  13  14
ATOM     14  C   UNL     1       3.205  49.898  10.714  1.00  0.00    -0.000 C 
BRANCH  14  15
ATOM     15  C   UNL     1       4.569  49.187  10.763  1.00  0.00    -0.000 C 
BRANCH  15  16
ATOM     16  C   UNL     1       5.714  49.996  10.112  1.00  0.00    -0.000 C 
BRANCH  16  17
ATOM     17  C   UNL     1       6.373  49.256   8.940  1.00  0.00    -0.003 C 
ATOM     18  C   UNL     1       6.873  47.880   9.369  1.00  0.00     0.004 C 
ENDBRANCH  16  17
ENDBRANCH  15  16
ENDBRANCH  14  15
ENDBRANCH  13  14
ENDBRANCH  12  13
ENDBRANCH  11  12
ENDBRANCH   1  11
TORSDOF 14
ENDMDL
MODEL 7
REMARK VINA RESULT:    -4.670      3.290      6.361
REMARK INTER + INTRA:         -10.657
REMARK INTER:                  -8.826
REMARK INTRA:                  -1.831
REMARK UNBOUND:                -2.165
REMARK SMILES CCCCCCCCCCCCCCCC(=O)[O-]
REMARK SMILES IDX 9 1 10 2 11 3 12 4 13 5 14 6 15 7 16 8 17 9 18 10 8 11 7 12
REMARK SMILES IDX 6 13 5 14 4 15 3 16 2 17 1 18
REMARK H PARENT
REMARK Flexibility Score: inf
ROOT
ATOM      1  C   UNL     1       5.010  47.079  10.079  1.00  0.00     0.000 C 
ENDROOT
BRANCH   1   2
ATOM      2  C   UNL     1       6.182  47.553   9.205  1.00  0.00     0.000 C 
BRANCH   2   3
ATOM      3  C   UNL     1       6.380  49.076   9.255  1.00  0.00     0.000 C 
BRANCH   3   4
ATOM      4  C   UNL     1       5.457  49.761  10.273  1.00  0.00     0.000 C 
BRANCH   4   5
ATOM      5  C   UNL     1       4.532  50.770   9.582  1.00  0.00     0.000 C 
BRANCH   5   6
ATOM      6  C   UNL     1       3.066  50.530   9.972  1.00  0.00     0.006 C 
BRANCH   6   7
ATOM      7  C   UNL     1       2.410  49.434   9.121  1.00  0.00     0.053 C 
BRANCH   7   8
ATOM      8  C   UNL     1       2.788  49.551   7.675  1.00  0.00     0.041 C 
ATOM      9  O   UNL     1       2.334  50.497   6.977  1.00  0.00    -0.550 OA
ATOM     10  O   UNL     1       3.614  48.599   7.091  1.00  0.00    -0.550 OA
ENDBRANCH   7   8
ENDBRANCH   6   7
ENDBRANCH   5   6
ENDBRANCH   4   5
ENDBRANCH   3   4
ENDBRANCH   2   3
ENDBRANCH   1   2
BRANCH   1  11
ATOM     11  C   UNL     1       4.261  45.920   9.410  1.00  0.00     0.000 C 
BRANCH  11  12
ATOM     12  C   UNL     1       4.465  44.610  10.183  1.00  0.00    -0.000 C 
BRANCH  12  13
ATOM     13  C   UNL     1       3.798  44.629  11.577  1.00  0.00    -0.000 C 
BRANCH  13  14
ATOM     14  C   UNL     1       3.124  43.299  11.957  1.00  0.00    -0.000 C 
BRANCH  14  15
ATOM     15  C   UNL     1       1.757  43.058  11.290  1.00  0.00    -0.000 C 
BRANCH  15  16
ATOM     16  C   UNL     1       0.841  44.303  11.287  1.00  0.00    -0.000 C 
BRANCH  16  17
ATOM     17  C   UNL     1       0.524  44.804   9.871  1.00  0.00    -0.003 C 
ATOM     18  C   UNL     1       1.140  43.892   8.814  1.00  0.00     0.004 C 
ENDBRANCH  16  17
ENDBRANCH  15  16
ENDBRANCH  14  15
ENDBRANCH  13  14
ENDBRANCH  12  13
ENDBRANCH  11  12
ENDBRANCH   1  11
TORSDOF 14
ENDMDL
MODEL 8
REMARK VINA RESULT:    -4.666      1.874      3.407
REMARK INTER + INTRA:         -10.650
REMARK INTER:                  -8.726
REMARK INTRA:                  -1.924
REMARK UNBOUND:                -2.165
REMARK SMILES CCCCCCCCCCCCCCCC(=O)[O-]
REMARK SMILES IDX 9 1 10 2 11 3 12 4 13 5 14 6 15 7 16 8 17 9 18 10 8 11 7 12
REMARK SMILES IDX 6 13 5 14 4 15 3 16 2 17 1 18
REMARK H PARENT
REMARK Flexibility Score: inf
ROOT
ATOM      1  C   UNL     1       2.977  47.313   8.815  1.00  0.00     0.000 C 
ENDROOT
BRANCH   1   2
ATOM      2  C   UNL     1       3.976  46.195   9.151  1.00  0.00     0.000 C 
BRANCH   2   3
ATOM      3  C   UNL     1       4.293  46.114  10.653  1.00  0.00     0.000 C 
BRANCH   3   4
ATOM      4  C   UNL     1       4.198  44.683  11.202  1.00  0.00     0.000 C 
BRANCH   4   5
ATOM      5  C   UNL     1       3.871  43.687  10.083  1.00  0.00     0.000 C 
BRANCH   5   6
ATOM      6  C   UNL     1       2.521  43.000  10.334  1.00  0.00     0.006 C 
BRANCH   6   7
ATOM      7  C   UNL     1       1.694  43.718  11.408  1.00  0.00     0.053 C 
BRANCH   7   8
ATOM      8  C   UNL     1       0.572  44.511  10.809  1.00  0.00     0.041 C 
ATOM      9  O   UNL     1       0.595  44.818   9.588  1.00  0.00    -0.550 OA
ATOM     10  O   UNL     1      -0.482  44.938  11.607  1.00  0.00    -0.550 OA
ENDBRANCH   7   8
ENDBRANCH   6   7
ENDBRANCH   5   6
ENDBRANCH   4   5
ENDBRANCH   3   4
ENDBRANCH   2   3
ENDBRANCH   1   2
BRANCH   1  11
ATOM     11  C   UNL     1       3.397  48.060   7.544  1.00  0.00     0.000 C 
BRANCH  11  12
ATOM     12  C   UNL     1       2.626  49.379   7.397  1.00  0.00    -0.000 C 
BRANCH  12  13
ATOM     13  C   UNL     1       3.476  50.613   7.775  1.00  0.00    -0.000 C 
BRANCH  13  14
ATOM     14  C   UNL     1       3.734  50.746   9.287  1.00  0.00    -0.000 C 
BRANCH  14  15
ATOM     15  C   UNL     1       5.215  50.904   9.674  1.00  0.00    -0.000 C 
BRANCH  15  16
ATOM     16  C   UNL     1       5.889  49.581  10.104  1.00  0.00    -0.000 C 
BRANCH  16  17
ATOM     17  C   UNL     1       6.662  48.910   8.961  1.00  0.00    -0.003 C 
ATOM     18  C   UNL     1       7.343  47.629   9.434  1.00  0.00     0.004 C 
ENDBRANCH  16  17
ENDBRANCH  15  16
ENDBRANCH  14  15
ENDBRANCH  13  14
ENDBRANCH  12  13
ENDBRANCH  11  12
ENDBRANCH   1  11
TORSDOF 14
ENDMDL
MODEL 9
REMARK VINA RESULT:    -4.604      1.807      3.321
REMARK INTER + INTRA:         -10.537
REMARK INTER:                  -8.403
REMARK INTRA:                  -2.134
REMARK UNBOUND:                -2.165
REMARK SMILES CCCCCCCCCCCCCCCC(=O)[O-]
REMARK SMILES IDX 9 1 10 2 11 3 12 4 13 5 14 6 15 7 16 8 17 9 18 10 8 11 7 12
REMARK SMILES IDX 6 13 5 14 4 15 3 16 2 17 1 18
REMARK H PARENT
REMARK Flexibility Score: inf
ROOT
ATOM      1  C   UNL     1       3.585  47.033   8.483  1.00  0.00     0.000 C 
ENDROOT
BRANCH   1   2
ATOM      2  C   UNL     1       2.840  47.442   9.763  1.00  0.00     0.000 C 
BRANCH   2   3
ATOM      3  C   UNL     1       1.526  46.669   9.957  1.00  0.00     0.000 C 
BRANCH   3   4
ATOM      4  C   UNL     1       1.329  45.564   8.909  1.00  0.00     0.000 C 
BRANCH   4   5
ATOM      5  C   UNL     1       0.832  44.269   9.564  1.00  0.00     0.000 C 
BRANCH   5   6
ATOM      6  C   UNL     1       1.173  44.243  11.061  1.00  0.00     0.006 C 
BRANCH   6   7
ATOM      7  C   UNL     1       2.270  43.223  11.390  1.00  0.00     0.053 C 
BRANCH   7   8
ATOM      8  C   UNL     1       3.634  43.842  11.357  1.00  0.00     0.041 C 
ATOM      9  O   UNL     1       4.126  44.345  12.402  1.00  0.00    -0.550 OA
ATOM     10  O   UNL     1       4.348  43.892  10.167  1.00  0.00    -0.550 OA
ENDBRANCH   7   8
ENDBRANCH   6   7
ENDBRANCH   5   6
ENDBRANCH   4   5
ENDBRANCH   3   4
ENDBRANCH   2   3
ENDBRANCH   1   2
BRANCH   1  11
ATOM     11  C   UNL     1       3.575  48.172   7.456  1.00  0.00     0.000 C 
BRANCH  11  12
ATOM     12  C   UNL     1       2.562  49.258   7.844  1.00  0.00    -0.000 C 
BRANCH  12  13
ATOM     13  C   UNL     1       3.128  50.687   7.682  1.00  0.00    -0.000 C 
BRANCH  13  14
ATOM     14  C   UNL     1       4.559  50.850   8.223  1.00  0.00    -0.000 C 
BRANCH  14  15
ATOM     15  C   UNL     1       4.677  50.779   9.757  1.00  0.00    -0.000 C 
BRANCH  15  16
ATOM     16  C   UNL     1       5.739  49.770  10.251  1.00  0.00    -0.000 C 
BRANCH  16  17
ATOM     17  C   UNL     1       6.584  49.190   9.108  1.00  0.00    -0.003 C 
ATOM     18  C   UNL     1       7.036  47.768   9.425  1.00  0.00     0.004 C 
ENDBRANCH  16  17
ENDBRANCH  15  16
ENDBRANCH  14  15
ENDBRANCH  13  14
ENDBRANCH  12  13
ENDBRANCH  11  12
ENDBRANCH   1  11
TORSDOF 14
ENDMDL
