MODEL 1
REMARK VINA RESULT:    -3.804      0.000      0.000
REMARK INTER + INTRA:          -7.708
REMARK INTER:                  -5.805
REMARK INTRA:                  -1.902
REMARK UNBOUND:                -1.902
REMARK SMILES OC[C@@H]1O[C@H](O[C@@]2(CO)O[C@H](CO)[C@H](O)[C@@H]2O)[C@H](O)[C@@H](O)[C@H]1O
REMARK SMILES IDX 6 1 5 2 3 3 22 4 4 5 20 6 18 7 2 8 1 9 23 11 21 13 19 15
REMARK SMILES IDX 7 17 16 18 10 19 14 20 11 21 8 22 9 23 17 25 15 27 12 29
REMARK SMILES IDX 13 30
REMARK H PARENT 1 10 23 12 21 14 19 16 9 24 17 26 15 28 13 31
REMARK Flexibility Score: inf
ROOT
ATOM      1  O   UNL     1      29.957   6.568   1.617  1.00  0.00    -0.313 OA
ENDROOT
BRANCH   1   2
ATOM      2  C   UNL     1      31.307   6.520   2.070  1.00  0.00     0.285 C 
ATOM      3  C   UNL     1      32.073   4.621   0.803  1.00  0.00     0.178 C 
ATOM      4  C   UNL     1      32.944   5.519  -0.105  1.00  0.00     0.177 C 
ATOM      5  O   UNL     1      31.803   5.184   2.085  1.00  0.00    -0.341 OA
ATOM      6  C   UNL     1      32.366   6.939  -0.179  1.00  0.00     0.179 C 
ATOM      7  C   UNL     1      32.182   7.479   1.238  1.00  0.00     0.202 C 
BRANCH   3   8
ATOM      8  C   UNL     1      30.806   4.101   0.105  1.00  0.00     0.191 C 
BRANCH   8   9
ATOM      9  O   UNL     1      29.928   3.571   1.059  1.00  0.00    -0.394 OA
ATOM     10  H   UNL     1      30.487   3.039   1.683  1.00  0.00     0.210 HD
ENDBRANCH   8   9
ENDBRANCH   3   8
BRANCH   4  11
ATOM     11  O   UNL     1      34.252   5.551   0.409  1.00  0.00    -0.387 OA
ATOM     12  H   UNL     1      34.394   6.457   0.790  1.00  0.00     0.211 HD
ENDBRANCH   4  11
BRANCH   6  13
ATOM     13  O   UNL     1      33.230   7.785  -0.894  1.00  0.00    -0.387 OA
ATOM     14  H   UNL     1      33.678   7.222  -1.579  1.00  0.00     0.211 HD
ENDBRANCH   6  13
BRANCH   7  15
ATOM     15  O   UNL     1      31.586   8.749   1.178  1.00  0.00    -0.385 OA
ATOM     16  H   UNL     1      31.991   9.220   0.403  1.00  0.00     0.211 HD
ENDBRANCH   7  15
ENDBRANCH   1   2
BRANCH   1  17
ATOM     17  C   UNL     1      28.996   6.628   2.670  1.00  0.00     0.224 C 
ATOM     18  C   UNL     1      29.509   7.493   3.849  1.00  0.00     0.208 C 
ATOM     19  O   UNL     1      28.688   5.333   3.160  1.00  0.00    -0.337 OA
ATOM     20  C   UNL     1      28.933   6.790   5.056  1.00  0.00     0.180 C 
ATOM     21  C   UNL     1      28.840   5.342   4.565  1.00  0.00     0.179 C 
BRANCH  17  22
ATOM     22  C   UNL     1      27.696   7.220   2.077  1.00  0.00     0.225 C 
BRANCH  22  23
ATOM     23  O   UNL     1      27.992   8.182   1.100  1.00  0.00    -0.391 OA
ATOM     24  H   UNL     1      27.641   7.842   0.237  1.00  0.00     0.210 HD
ENDBRANCH  22  23
ENDBRANCH  17  22
BRANCH  18  25
ATOM     25  O   UNL     1      29.099   8.837   3.765  1.00  0.00    -0.385 OA
ATOM     26  H   UNL     1      29.261   9.125   2.829  1.00  0.00     0.211 HD
ENDBRANCH  18  25
BRANCH  20  27
ATOM     27  O   UNL     1      27.661   7.301   5.377  1.00  0.00    -0.387 OA
ATOM     28  H   UNL     1      27.049   6.522   5.445  1.00  0.00     0.211 HD
ENDBRANCH  20  27
BRANCH  21  29
ATOM     29  C   UNL     1      27.710   4.532   5.213  1.00  0.00     0.191 C 
BRANCH  29  30
ATOM     30  O   UNL     1      26.505   4.764   4.538  1.00  0.00    -0.394 OA
ATOM     31  H   UNL     1      26.125   5.592   4.931  1.00  0.00     0.210 HD
ENDBRANCH  29  30
ENDBRANCH  21  29
ENDBRANCH   1  17
TORSDOF 13
ENDMDL
MODEL 2
REMARK VINA RESULT:    -3.722      1.191      5.951
REMARK INTER + INTRA:          -7.583
REMARK INTER:                  -5.990
REMARK INTRA:                  -1.592
REMARK UNBOUND:                -1.902
REMARK SMILES OC[C@@H]1O[C@H](O[C@@]2(CO)O[C@H](CO)[C@H](O)[C@@H]2O)[C@H](O)[C@@H](O)[C@H]1O
REMARK SMILES IDX 6 1 5 2 3 3 22 4 4 5 20 6 18 7 2 8 1 9 23 11 21 13 19 15
REMARK SMILES IDX 7 17 16 18 10 19 14 20 11 21 8 22 9 23 17 25 15 27 12 29
REMARK SMILES IDX 13 30
REMARK H PARENT 1 10 23 12 21 14 19 16 9 24 17 26 15 28 13 31
REMARK Flexibility Score: inf
ROOT
ATOM      1  O   UNL     1      30.116   6.246   2.605  1.00  0.00    -0.313 OA
ENDROOT
BRANCH   1   2
ATOM      2  C   UNL     1      29.909   6.953   3.823  1.00  0.00     0.285 C 
ATOM      3  C   UNL     1      27.666   7.739   3.436  1.00  0.00     0.178 C 
ATOM      4  C   UNL     1      27.093   6.769   4.495  1.00  0.00     0.177 C 
ATOM      5  O   UNL     1      29.039   8.067   3.635  1.00  0.00    -0.341 OA
ATOM      6  C   UNL     1      27.993   5.535   4.642  1.00  0.00     0.179 C 
ATOM      7  C   UNL     1      29.424   5.989   4.924  1.00  0.00     0.202 C 
BRANCH   3   8
ATOM      8  C   UNL     1      27.362   7.308   1.993  1.00  0.00     0.191 C 
BRANCH   8   9
ATOM      9  O   UNL     1      28.020   8.164   1.100  1.00  0.00    -0.394 OA
ATOM     10  H   UNL     1      27.406   8.928   0.946  1.00  0.00     0.210 HD
ENDBRANCH   8   9
ENDBRANCH   3   8
BRANCH   4  11
ATOM     11  O   UNL     1      26.990   7.446   5.724  1.00  0.00    -0.387 OA
ATOM     12  H   UNL     1      27.912   7.682   6.006  1.00  0.00     0.211 HD
ENDBRANCH   4  11
BRANCH   6  13
ATOM     13  O   UNL     1      27.544   4.722   5.697  1.00  0.00    -0.387 OA
ATOM     14  H   UNL     1      28.152   4.890   6.465  1.00  0.00     0.211 HD
ENDBRANCH   6  13
BRANCH   7  15
ATOM     15  O   UNL     1      30.264   4.865   4.988  1.00  0.00    -0.385 OA
ATOM     16  H   UNL     1      30.970   5.072   5.654  1.00  0.00     0.211 HD
ENDBRANCH   7  15
ENDBRANCH   1   2
BRANCH   1  17
ATOM     17  C   UNL     1      31.413   6.432   2.041  1.00  0.00     0.224 C 
ATOM     18  C   UNL     1      31.364   7.389   0.824  1.00  0.00     0.208 C 
ATOM     19  O   UNL     1      31.974   5.198   1.623  1.00  0.00    -0.337 OA
ATOM     20  C   UNL     1      32.419   6.819  -0.095  1.00  0.00     0.180 C 
ATOM     21  C   UNL     1      32.399   5.335   0.282  1.00  0.00     0.179 C 
BRANCH  17  22
ATOM     22  C   UNL     1      32.325   7.001   3.152  1.00  0.00     0.225 C 
BRANCH  22  23
ATOM     23  O   UNL     1      33.508   6.254   3.250  1.00  0.00    -0.391 OA
ATOM     24  H   UNL     1      34.147   6.626   2.588  1.00  0.00     0.210 HD
ENDBRANCH  22  23
ENDBRANCH  17  22
BRANCH  18  25
ATOM     25  O   UNL     1      31.619   8.730   1.166  1.00  0.00    -0.385 OA
ATOM     26  H   UNL     1      31.585   9.250   0.321  1.00  0.00     0.211 HD
ENDBRANCH  18  25
BRANCH  20  27
ATOM     27  O   UNL     1      33.678   7.393   0.167  1.00  0.00    -0.387 OA
ATOM     28  H   UNL     1      33.587   8.368   0.005  1.00  0.00     0.211 HD
ENDBRANCH  20  27
BRANCH  21  29
ATOM     29  C   UNL     1      33.743   4.621   0.089  1.00  0.00     0.191 C 
BRANCH  29  30
ATOM     30  O   UNL     1      34.531   4.762   1.240  1.00  0.00    -0.394 OA
ATOM     31  H   UNL     1      34.776   3.843   1.519  1.00  0.00     0.210 HD
ENDBRANCH  29  30
ENDBRANCH  21  29
ENDBRANCH   1  17
TORSDOF 13
ENDMDL
MODEL 3
REMARK VINA RESULT:    -3.718      1.707      5.505
REMARK INTER + INTRA:          -7.577
REMARK INTER:                  -5.704
REMARK INTRA:                  -1.873
REMARK UNBOUND:                -1.902
REMARK SMILES OC[C@@H]1O[C@H](O[C@@]2(CO)O[C@H](CO)[C@H](O)[C@@H]2O)[C@H](O)[C@@H](O)[C@H]1O
REMARK SMILES IDX 6 1 5 2 3 3 22 4 4 5 20 6 18 7 2 8 1 9 23 11 21 13 19 15
REMARK SMILES IDX 7 17 16 18 10 19 14 20 11 21 8 22 9 23 17 25 15 27 12 29
REMARK SMILES IDX 13 30
REMARK H PARENT 1 10 23 12 21 14 19 16 9 24 17 26 15 28 13 31
REMARK Flexibility Score: inf
ROOT
ATOM      1  O   UNL     1      29.897   6.321   2.321  1.00  0.00    -0.313 OA
ENDROOT
BRANCH   1   2
ATOM      2  C   UNL     1      28.930   6.808   1.397  1.00  0.00     0.285 C 
ATOM      3  C   UNL     1      27.395   4.953   1.431  1.00  0.00     0.178 C 
ATOM      4  C   UNL     1      26.337   5.783   2.194  1.00  0.00     0.177 C 
ATOM      5  O   UNL     1      28.315   5.742   0.679  1.00  0.00    -0.341 OA
ATOM      6  C   UNL     1      27.008   6.885   3.025  1.00  0.00     0.179 C 
ATOM      7  C   UNL     1      27.913   7.715   2.118  1.00  0.00     0.202 C 
BRANCH   3   8
ATOM      8  C   UNL     1      28.093   3.905   2.311  1.00  0.00     0.191 C 
BRANCH   8   9
ATOM      9  O   UNL     1      29.245   3.442   1.663  1.00  0.00    -0.394 OA
ATOM     10  H   UNL     1      29.396   2.518   1.993  1.00  0.00     0.210 HD
ENDBRANCH   8   9
ENDBRANCH   3   8
BRANCH   4  11
ATOM     11  O   UNL     1      25.445   6.348   1.265  1.00  0.00    -0.387 OA
ATOM     12  H   UNL     1      25.740   7.283   1.108  1.00  0.00     0.211 HD
ENDBRANCH   4  11
BRANCH   6  13
ATOM     13  O   UNL     1      26.039   7.718   3.610  1.00  0.00    -0.387 OA
ATOM     14  H   UNL     1      26.374   7.952   4.515  1.00  0.00     0.211 HD
ENDBRANCH   6  13
BRANCH   7  15
ATOM     15  O   UNL     1      28.584   8.679   2.888  1.00  0.00    -0.385 OA
ATOM     16  H   UNL     1      29.556   8.530   2.751  1.00  0.00     0.211 HD
ENDBRANCH   7  15
ENDBRANCH   1   2
BRANCH   1  17
ATOM     17  C   UNL     1      31.245   6.456   1.874  1.00  0.00     0.224 C 
ATOM     18  C   UNL     1      31.348   7.459   0.697  1.00  0.00     0.208 C 
ATOM     19  O   UNL     1      31.774   5.209   1.452  1.00  0.00    -0.337 OA
ATOM     20  C   UNL     1      32.445   6.866  -0.155  1.00  0.00     0.180 C 
ATOM     21  C   UNL     1      32.317   5.372   0.157  1.00  0.00     0.179 C 
BRANCH  17  22
ATOM     22  C   UNL     1      32.089   6.932   3.078  1.00  0.00     0.225 C 
BRANCH  22  23
ATOM     23  O   UNL     1      33.284   6.201   3.163  1.00  0.00    -0.391 OA
ATOM     24  H   UNL     1      33.353   5.654   2.339  1.00  0.00     0.210 HD
ENDBRANCH  22  23
ENDBRANCH  17  22
BRANCH  18  25
ATOM     25  O   UNL     1      31.643   8.770   1.115  1.00  0.00    -0.385 OA
ATOM     26  H   UNL     1      32.597   8.773   1.388  1.00  0.00     0.211 HD
ENDBRANCH  18  25
BRANCH  20  27
ATOM     27  O   UNL     1      33.706   7.359   0.232  1.00  0.00    -0.387 OA
ATOM     28  H   UNL     1      34.300   6.572   0.342  1.00  0.00     0.211 HD
ENDBRANCH  20  27
BRANCH  21  29
ATOM     29  C   UNL     1      33.633   4.593   0.045  1.00  0.00     0.191 C 
BRANCH  29  30
ATOM     30  O   UNL     1      34.384   4.748   1.218  1.00  0.00    -0.394 OA
ATOM     31  H   UNL     1      34.198   5.667   1.543  1.00  0.00     0.210 HD
ENDBRANCH  29  30
ENDBRANCH  21  29
ENDBRANCH   1  17
TORSDOF 13
ENDMDL
MODEL 4
REMARK VINA RESULT:    -3.707      1.268      1.795
REMARK INTER + INTRA:          -7.560
REMARK INTER:                  -5.771
REMARK INTRA:                  -1.789
REMARK UNBOUND:                -1.902
REMARK SMILES OC[C@@H]1O[C@H](O[C@@]2(CO)O[C@H](CO)[C@H](O)[C@@H]2O)[C@H](O)[C@@H](O)[C@H]1O
REMARK SMILES IDX 6 1 5 2 3 3 22 4 4 5 20 6 18 7 2 8 1 9 23 11 21 13 19 15
REMARK SMILES IDX 7 17 16 18 10 19 14 20 11 21 8 22 9 23 17 25 15 27 12 29
REMARK SMILES IDX 13 30
REMARK H PARENT 1 10 23 12 21 14 19 16 9 24 17 26 15 28 13 31
REMARK Flexibility Score: inf
ROOT
ATOM      1  O   UNL     1      30.059   6.398   1.535  1.00  0.00    -0.313 OA
ENDROOT
BRANCH   1   2
ATOM      2  C   UNL     1      31.410   6.376   1.984  1.00  0.00     0.285 C 
ATOM      3  C   UNL     1      32.230   4.545   0.651  1.00  0.00     0.178 C 
ATOM      4  C   UNL     1      33.072   5.500  -0.226  1.00  0.00     0.177 C 
ATOM      5  O   UNL     1      31.946   5.055   1.952  1.00  0.00    -0.341 OA
ATOM      6  C   UNL     1      32.451   6.904  -0.250  1.00  0.00     0.179 C 
ATOM      7  C   UNL     1      32.254   7.388   1.185  1.00  0.00     0.202 C 
BRANCH   3   8
ATOM      8  C   UNL     1      30.978   4.012  -0.063  1.00  0.00     0.191 C 
BRANCH   8   9
ATOM      9  O   UNL     1      30.177   3.317   0.852  1.00  0.00    -0.394 OA
ATOM     10  H   UNL     1      29.872   2.496   0.385  1.00  0.00     0.210 HD
ENDBRANCH   8   9
ENDBRANCH   3   8
BRANCH   4  11
ATOM     11  O   UNL     1      34.380   5.554   0.287  1.00  0.00    -0.387 OA
ATOM     12  H   UNL     1      34.304   5.678   1.269  1.00  0.00     0.211 HD
ENDBRANCH   4  11
BRANCH   6  13
ATOM     13  O   UNL     1      33.287   7.799  -0.936  1.00  0.00    -0.387 OA
ATOM     14  H   UNL     1      33.756   8.338  -0.245  1.00  0.00     0.211 HD
ENDBRANCH   6  13
BRANCH   7  15
ATOM     15  O   UNL     1      31.620   8.641   1.169  1.00  0.00    -0.385 OA
ATOM     16  H   UNL     1      30.646   8.469   1.080  1.00  0.00     0.211 HD
ENDBRANCH   7  15
ENDBRANCH   1   2
BRANCH   1  17
ATOM     17  C   UNL     1      29.113   6.696   2.561  1.00  0.00     0.224 C 
ATOM     18  C   UNL     1      28.313   7.981   2.230  1.00  0.00     0.208 C 
ATOM     19  O   UNL     1      29.753   6.872   3.815  1.00  0.00    -0.337 OA
ATOM     20  C   UNL     1      28.101   8.604   3.590  1.00  0.00     0.180 C 
ATOM     21  C   UNL     1      29.325   8.103   4.362  1.00  0.00     0.179 C 
BRANCH  17  22
ATOM     22  C   UNL     1      28.170   5.478   2.691  1.00  0.00     0.225 C 
BRANCH  22  23
ATOM     23  O   UNL     1      27.864   4.953   1.427  1.00  0.00    -0.391 OA
ATOM     24  H   UNL     1      28.309   4.069   1.360  1.00  0.00     0.210 HD
ENDBRANCH  22  23
ENDBRANCH  17  22
BRANCH  18  25
ATOM     25  O   UNL     1      27.100   7.719   1.566  1.00  0.00    -0.385 OA
ATOM     26  H   UNL     1      26.612   8.582   1.516  1.00  0.00     0.211 HD
ENDBRANCH  18  25
BRANCH  20  27
ATOM     27  O   UNL     1      26.907   8.142   4.175  1.00  0.00    -0.387 OA
ATOM     28  H   UNL     1      26.239   8.070   3.444  1.00  0.00     0.211 HD
ENDBRANCH  20  27
BRANCH  21  29
ATOM     29  C   UNL     1      29.094   7.946   5.870  1.00  0.00     0.191 C 
BRANCH  29  30
ATOM     30  O   UNL     1      28.505   6.704   6.139  1.00  0.00    -0.394 OA
ATOM     31  H   UNL     1      27.739   6.888   6.743  1.00  0.00     0.210 HD
ENDBRANCH  29  30
ENDBRANCH  21  29
ENDBRANCH   1  17
TORSDOF 13
ENDMDL
MODEL 5
REMARK VINA RESULT:    -3.705      7.785     11.651
REMARK INTER + INTRA:          -7.557
REMARK INTER:                  -5.964
REMARK INTRA:                  -1.593
REMARK UNBOUND:                -1.902
REMARK SMILES OC[C@@H]1O[C@H](O[C@@]2(CO)O[C@H](CO)[C@H](O)[C@@H]2O)[C@H](O)[C@@H](O)[C@H]1O
REMARK SMILES IDX 6 1 5 2 3 3 22 4 4 5 20 6 18 7 2 8 1 9 23 11 21 13 19 15
REMARK SMILES IDX 7 17 16 18 10 19 14 20 11 21 8 22 9 23 17 25 15 27 12 29
REMARK SMILES IDX 13 30
REMARK H PARENT 1 10 23 12 21 14 19 16 9 24 17 26 15 28 13 31
REMARK Flexibility Score: inf
ROOT
ATOM      1  O   UNL     1      39.640   6.390  -2.100  1.00  0.00    -0.313 OA
ENDROOT
BRANCH   1   2
ATOM      2  C   UNL     1      38.818   6.740  -0.991  1.00  0.00     0.285 C 
ATOM      3  C   UNL     1      36.884   5.401  -1.506  1.00  0.00     0.178 C 
ATOM      4  C   UNL     1      37.180   4.440  -0.332  1.00  0.00     0.177 C 
ATOM      5  O   UNL     1      37.436   6.705  -1.338  1.00  0.00    -0.341 OA
ATOM      6  C   UNL     1      38.680   4.423  -0.008  1.00  0.00     0.179 C 
ATOM      7  C   UNL     1      39.157   5.855   0.225  1.00  0.00     0.202 C 
BRANCH   3   8
ATOM      8  C   UNL     1      37.205   4.794  -2.881  1.00  0.00     0.191 C 
BRANCH   8   9
ATOM      9  O   UNL     1      37.105   5.785  -3.866  1.00  0.00    -0.394 OA
ATOM     10  H   UNL     1      37.276   6.648  -3.408  1.00  0.00     0.210 HD
ENDBRANCH   8   9
ENDBRANCH   3   8
BRANCH   4  11
ATOM     11  O   UNL     1      36.443   4.855   0.792  1.00  0.00    -0.387 OA
ATOM     12  H   UNL     1      37.079   4.916   1.552  1.00  0.00     0.211 HD
ENDBRANCH   4  11
BRANCH   6  13
ATOM     13  O   UNL     1      38.926   3.655   1.141  1.00  0.00    -0.387 OA
ATOM     14  H   UNL     1      38.139   3.771   1.736  1.00  0.00     0.211 HD
ENDBRANCH   6  13
BRANCH   7  15
ATOM     15  O   UNL     1      40.543   5.852   0.450  1.00  0.00    -0.385 OA
ATOM     16  H   UNL     1      40.931   6.552  -0.137  1.00  0.00     0.211 HD
ENDBRANCH   7  15
ENDBRANCH   1   2
BRANCH   1  17
ATOM     17  C   UNL     1      40.566   7.407  -2.478  1.00  0.00     0.224 C 
ATOM     18  C   UNL     1      41.947   6.803  -2.838  1.00  0.00     0.208 C 
ATOM     19  O   UNL     1      40.745   8.353  -1.436  1.00  0.00    -0.337 OA
ATOM     20  C   UNL     1      42.913   7.857  -2.348  1.00  0.00     0.180 C 
ATOM     21  C   UNL     1      42.130   8.492  -1.194  1.00  0.00     0.179 C 
BRANCH  17  22
ATOM     22  C   UNL     1      39.962   8.159  -3.686  1.00  0.00     0.225 C 
BRANCH  22  23
ATOM     23  O   UNL     1      39.288   7.269  -4.535  1.00  0.00    -0.391 OA
ATOM     24  H   UNL     1      38.590   7.788  -5.011  1.00  0.00     0.210 HD
ENDBRANCH  22  23
ENDBRANCH  17  22
BRANCH  18  25
ATOM     25  O   UNL     1      42.092   6.541  -4.213  1.00  0.00    -0.385 OA
ATOM     26  H   UNL     1      41.922   7.398  -4.684  1.00  0.00     0.211 HD
ENDBRANCH  18  25
BRANCH  20  27
ATOM     27  O   UNL     1      43.183   8.800  -3.358  1.00  0.00    -0.387 OA
ATOM     28  H   UNL     1      43.778   9.486  -2.957  1.00  0.00     0.211 HD
ENDBRANCH  20  27
BRANCH  21  29
ATOM     29  C   UNL     1      42.467   9.967  -0.946  1.00  0.00     0.191 C 
BRANCH  29  30
ATOM     30  O   UNL     1      41.644  10.484   0.064  1.00  0.00    -0.394 OA
ATOM     31  H   UNL     1      41.989  10.111   0.916  1.00  0.00     0.210 HD
ENDBRANCH  29  30
ENDBRANCH  21  29
ENDBRANCH   1  17
TORSDOF 13
ENDMDL
MODEL 6
REMARK VINA RESULT:    -3.691     11.887     13.926
REMARK INTER + INTRA:          -7.535
REMARK INTER:                  -6.042
REMARK INTRA:                  -1.493
REMARK UNBOUND:                -1.902
REMARK SMILES OC[C@@H]1O[C@H](O[C@@]2(CO)O[C@H](CO)[C@H](O)[C@@H]2O)[C@H](O)[C@@H](O)[C@H]1O
REMARK SMILES IDX 6 1 5 2 3 3 22 4 4 5 20 6 18 7 2 8 1 9 23 11 21 13 19 15
REMARK SMILES IDX 7 17 16 18 10 19 14 20 11 21 8 22 9 23 17 25 15 27 12 29
REMARK SMILES IDX 13 30
REMARK H PARENT 1 10 23 12 21 14 19 16 9 24 17 26 15 28 13 31
REMARK Flexibility Score: inf
ROOT
ATOM      1  O   UNL     1      41.362   7.984   7.963  1.00  0.00    -0.313 OA
ENDROOT
BRANCH   1   2
ATOM      2  C   UNL     1      40.486   8.756   8.779  1.00  0.00     0.285 C 
ATOM      3  C   UNL     1      41.084  10.959   8.013  1.00  0.00     0.178 C 
ATOM      4  C   UNL     1      39.729  11.125   7.287  1.00  0.00     0.177 C 
ATOM      5  O   UNL     1      41.052  10.026   9.091  1.00  0.00    -0.341 OA
ATOM      6  C   UNL     1      39.158   9.757   6.886  1.00  0.00     0.179 C 
ATOM      7  C   UNL     1      39.097   8.860   8.120  1.00  0.00     0.202 C 
BRANCH   3   8
ATOM      8  C   UNL     1      42.259  10.715   7.053  1.00  0.00     0.191 C 
BRANCH   8   9
ATOM      9  O   UNL     1      43.377  10.286   7.780  1.00  0.00    -0.394 OA
ATOM     10  H   UNL     1      43.632  11.044   8.368  1.00  0.00     0.210 HD
ENDBRANCH   8   9
ENDBRANCH   3   8
BRANCH   4  11
ATOM     11  O   UNL     1      38.835  11.795   8.141  1.00  0.00    -0.387 OA
ATOM     12  H   UNL     1      39.045  11.508   9.067  1.00  0.00     0.211 HD
ENDBRANCH   4  11
BRANCH   6  13
ATOM     13  O   UNL     1      37.868   9.902   6.349  1.00  0.00    -0.387 OA
ATOM     14  H   UNL     1      37.956  10.487   5.550  1.00  0.00     0.211 HD
ENDBRANCH   6  13
BRANCH   7  15
ATOM     15  O   UNL     1      38.643   7.585   7.745  1.00  0.00    -0.385 OA
ATOM     16  H   UNL     1      38.991   7.413   6.831  1.00  0.00     0.211 HD
ENDBRANCH   7  15
ENDBRANCH   1   2
BRANCH   1  17
ATOM     17  C   UNL     1      42.155   7.047   8.689  1.00  0.00     0.224 C 
ATOM     18  C   UNL     1      41.480   5.653   8.729  1.00  0.00     0.208 C 
ATOM     19  O   UNL     1      42.373   7.482  10.022  1.00  0.00    -0.337 OA
ATOM     20  C   UNL     1      41.860   5.135  10.097  1.00  0.00     0.180 C 
ATOM     21  C   UNL     1      42.011   6.432  10.897  1.00  0.00     0.179 C 
BRANCH  17  22
ATOM     22  C   UNL     1      43.535   6.971   7.997  1.00  0.00     0.225 C 
BRANCH  22  23
ATOM     23  O   UNL     1      43.431   7.334   6.646  1.00  0.00    -0.391 OA
ATOM     24  H   UNL     1      43.293   6.500   6.127  1.00  0.00     0.210 HD
ENDBRANCH  22  23
ENDBRANCH  17  22
BRANCH  18  25
ATOM     25  O   UNL     1      41.911   4.802   7.695  1.00  0.00    -0.385 OA
ATOM     26  H   UNL     1      42.081   3.916   8.109  1.00  0.00     0.211 HD
ENDBRANCH  18  25
BRANCH  20  27
ATOM     27  O   UNL     1      43.074   4.424  10.046  1.00  0.00    -0.387 OA
ATOM     28  H   UNL     1      43.473   4.603   9.154  1.00  0.00     0.211 HD
ENDBRANCH  20  27
BRANCH  21  29
ATOM     29  C   UNL     1      43.022   6.345  12.047  1.00  0.00     0.191 C 
BRANCH  29  30
ATOM     30  O   UNL     1      44.322   6.534  11.559  1.00  0.00    -0.394 OA
ATOM     31  H   UNL     1      44.882   6.753  12.348  1.00  0.00     0.210 HD
ENDBRANCH  29  30
ENDBRANCH  21  29
ENDBRANCH   1  17
TORSDOF 13
ENDMDL
MODEL 7
REMARK VINA RESULT:    -3.644      6.605      8.932
REMARK INTER + INTRA:          -7.463
REMARK INTER:                  -5.585
REMARK INTRA:                  -1.878
REMARK UNBOUND:                -1.902
REMARK SMILES OC[C@@H]1O[C@H](O[C@@]2(CO)O[C@H](CO)[C@H](O)[C@@H]2O)[C@H](O)[C@@H](O)[C@H]1O
REMARK SMILES IDX 6 1 5 2 3 3 22 4 4 5 20 6 18 7 2 8 1 9 23 11 21 13 19 15
REMARK SMILES IDX 7 17 16 18 10 19 14 20 11 21 8 22 9 23 17 25 15 27 12 29
REMARK SMILES IDX 13 30
REMARK H PARENT 1 10 23 12 21 14 19 16 9 24 17 26 15 28 13 31
REMARK Flexibility Score: inf
ROOT
ATOM      1  O   UNL     1      36.928   6.330  -2.301  1.00  0.00    -0.313 OA
ENDROOT
BRANCH   1   2
ATOM      2  C   UNL     1      37.655   5.129  -2.059  1.00  0.00     0.285 C 
ATOM      3  C   UNL     1      39.757   5.741  -3.062  1.00  0.00     0.178 C 
ATOM      4  C   UNL     1      40.443   5.834  -1.679  1.00  0.00     0.177 C 
ATOM      5  O   UNL     1      38.615   4.888  -3.084  1.00  0.00    -0.341 OA
ATOM      6  C   UNL     1      39.417   6.167  -0.586  1.00  0.00     0.179 C 
ATOM      7  C   UNL     1      38.274   5.157  -0.647  1.00  0.00     0.202 C 
BRANCH   3   8
ATOM      8  C   UNL     1      39.484   7.115  -3.695  1.00  0.00     0.191 C 
BRANCH   8   9
ATOM      9  O   UNL     1      38.717   6.951  -4.855  1.00  0.00    -0.394 OA
ATOM     10  H   UNL     1      37.878   7.460  -4.706  1.00  0.00     0.210 HD
ENDBRANCH   8   9
ENDBRANCH   3   8
BRANCH   4  11
ATOM     11  O   UNL     1      41.070   4.606  -1.400  1.00  0.00    -0.387 OA
ATOM     12  H   UNL     1      40.587   4.198  -0.635  1.00  0.00     0.211 HD
ENDBRANCH   4  11
BRANCH   6  13
ATOM     13  O   UNL     1      40.018   6.118   0.682  1.00  0.00    -0.387 OA
ATOM     14  H   UNL     1      40.433   7.008   0.836  1.00  0.00     0.211 HD
ENDBRANCH   6  13
BRANCH   7  15
ATOM     15  O   UNL     1      37.299   5.500   0.303  1.00  0.00    -0.385 OA
ATOM     16  H   UNL     1      37.548   5.043   1.148  1.00  0.00     0.211 HD
ENDBRANCH   7  15
ENDBRANCH   1   2
BRANCH   1  17
ATOM     17  C   UNL     1      35.559   6.119  -2.640  1.00  0.00     0.224 C 
ATOM     18  C   UNL     1      35.070   4.728  -2.162  1.00  0.00     0.208 C 
ATOM     19  O   UNL     1      35.355   6.212  -4.041  1.00  0.00    -0.337 OA
ATOM     20  C   UNL     1      34.101   4.321  -3.248  1.00  0.00     0.180 C 
ATOM     21  C   UNL     1      34.666   5.055  -4.468  1.00  0.00     0.179 C 
BRANCH  17  22
ATOM     22  C   UNL     1      34.737   7.249  -1.978  1.00  0.00     0.225 C 
BRANCH  22  23
ATOM     23  O   UNL     1      35.316   7.631  -0.759  1.00  0.00    -0.391 OA
ATOM     24  H   UNL     1      36.240   7.270  -0.746  1.00  0.00     0.210 HD
ENDBRANCH  22  23
ENDBRANCH  17  22
BRANCH  18  25
ATOM     25  O   UNL     1      34.467   4.763  -0.891  1.00  0.00    -0.385 OA
ATOM     26  H   UNL     1      33.538   5.087  -1.026  1.00  0.00     0.211 HD
ENDBRANCH  18  25
BRANCH  20  27
ATOM     27  O   UNL     1      32.797   4.761  -2.949  1.00  0.00    -0.387 OA
ATOM     28  H   UNL     1      32.248   4.602  -3.761  1.00  0.00     0.211 HD
ENDBRANCH  20  27
BRANCH  21  29
ATOM     29  C   UNL     1      33.611   5.436  -5.514  1.00  0.00     0.191 C 
BRANCH  29  30
ATOM     30  O   UNL     1      32.858   6.528  -5.060  1.00  0.00    -0.394 OA
ATOM     31  H   UNL     1      32.500   6.971  -5.872  1.00  0.00     0.210 HD
ENDBRANCH  29  30
ENDBRANCH  21  29
ENDBRANCH   1  17
TORSDOF 13
ENDMDL
MODEL 8
REMARK VINA RESULT:    -3.637      9.896     12.812
REMARK INTER + INTRA:          -7.452
REMARK INTER:                  -5.598
REMARK INTRA:                  -1.854
REMARK UNBOUND:                -1.902
REMARK SMILES OC[C@@H]1O[C@H](O[C@@]2(CO)O[C@H](CO)[C@H](O)[C@@H]2O)[C@H](O)[C@@H](O)[C@H]1O
REMARK SMILES IDX 6 1 5 2 3 3 22 4 4 5 20 6 18 7 2 8 1 9 23 11 21 13 19 15
REMARK SMILES IDX 7 17 16 18 10 19 14 20 11 21 8 22 9 23 17 25 15 27 12 29
REMARK SMILES IDX 13 30
REMARK H PARENT 1 10 23 12 21 14 19 16 9 24 17 26 15 28 13 31
REMARK Flexibility Score: inf
ROOT
ATOM      1  O   UNL     1      40.682   7.823  -1.820  1.00  0.00    -0.313 OA
ENDROOT
BRANCH   1   2
ATOM      2  C   UNL     1      40.821   6.683  -2.663  1.00  0.00     0.285 C 
ATOM      3  C   UNL     1      39.696   5.052  -1.295  1.00  0.00     0.178 C 
ATOM      4  C   UNL     1      38.498   4.993  -2.270  1.00  0.00     0.177 C 
ATOM      5  O   UNL     1      40.913   5.483  -1.901  1.00  0.00    -0.341 OA
ATOM      6  C   UNL     1      38.356   6.315  -3.036  1.00  0.00     0.179 C 
ATOM      7  C   UNL     1      39.686   6.650  -3.706  1.00  0.00     0.202 C 
BRANCH   3   8
ATOM      8  C   UNL     1      39.382   5.807   0.006  1.00  0.00     0.191 C 
BRANCH   8   9
ATOM      9  O   UNL     1      40.549   5.931   0.770  1.00  0.00    -0.394 OA
ATOM     10  H   UNL     1      40.497   6.818   1.212  1.00  0.00     0.210 HD
ENDBRANCH   8   9
ENDBRANCH   3   8
BRANCH   4  11
ATOM     11  O   UNL     1      38.694   3.928  -3.167  1.00  0.00    -0.387 OA
ATOM     12  H   UNL     1      38.697   3.092  -2.632  1.00  0.00     0.211 HD
ENDBRANCH   4  11
BRANCH   6  13
ATOM     13  O   UNL     1      37.353   6.212  -4.013  1.00  0.00    -0.387 OA
ATOM     14  H   UNL     1      36.597   5.720  -3.596  1.00  0.00     0.211 HD
ENDBRANCH   6  13
BRANCH   7  15
ATOM     15  O   UNL     1      39.583   7.895  -4.348  1.00  0.00    -0.385 OA
ATOM     16  H   UNL     1      39.552   7.713  -5.323  1.00  0.00     0.211 HD
ENDBRANCH   7  15
ENDBRANCH   1   2
BRANCH   1  17
ATOM     17  C   UNL     1      41.751   8.761  -1.934  1.00  0.00     0.224 C 
ATOM     18  C   UNL     1      41.362  10.131  -1.324  1.00  0.00     0.208 C 
ATOM     19  O   UNL     1      42.119   8.958  -3.290  1.00  0.00    -0.337 OA
ATOM     20  C   UNL     1      42.070  11.114  -2.228  1.00  0.00     0.180 C 
ATOM     21  C   UNL     1      42.120  10.347  -3.553  1.00  0.00     0.179 C 
BRANCH  17  22
ATOM     22  C   UNL     1      42.975   8.161  -1.205  1.00  0.00     0.225 C 
BRANCH  22  23
ATOM     23  O   UNL     1      42.581   7.525  -0.019  1.00  0.00    -0.391 OA
ATOM     24  H   UNL     1      42.071   6.714  -0.276  1.00  0.00     0.210 HD
ENDBRANCH  22  23
ENDBRANCH  17  22
BRANCH  18  25
ATOM     25  O   UNL     1      41.751  10.266   0.022  1.00  0.00    -0.385 OA
ATOM     26  H   UNL     1      42.595  10.789   0.022  1.00  0.00     0.211 HD
ENDBRANCH  18  25
BRANCH  20  27
ATOM     27  O   UNL     1      43.365  11.393  -1.753  1.00  0.00    -0.387 OA
ATOM     28  H   UNL     1      43.952  11.471  -2.550  1.00  0.00     0.211 HD
ENDBRANCH  20  27
BRANCH  21  29
ATOM     29  C   UNL     1      43.318  10.706  -4.440  1.00  0.00     0.191 C 
BRANCH  29  30
ATOM     30  O   UNL     1      44.419   9.907  -4.105  1.00  0.00    -0.394 OA
ATOM     31  H   UNL     1      44.137   8.970  -4.265  1.00  0.00     0.210 HD
ENDBRANCH  29  30
ENDBRANCH  21  29
ENDBRANCH   1  17
TORSDOF 13
ENDMDL
MODEL 9
REMARK VINA RESULT:    -3.633      8.072     12.019
REMARK INTER + INTRA:          -7.447
REMARK INTER:                  -5.407
REMARK INTRA:                  -2.040
REMARK UNBOUND:                -1.902
REMARK SMILES OC[C@@H]1O[C@H](O[C@@]2(CO)O[C@H](CO)[C@H](O)[C@@H]2O)[C@H](O)[C@@H](O)[C@H]1O
REMARK SMILES IDX 6 1 5 2 3 3 22 4 4 5 20 6 18 7 2 8 1 9 23 11 21 13 19 15
REMARK SMILES IDX 7 17 16 18 10 19 14 20 11 21 8 22 9 23 17 25 15 27 12 29
REMARK SMILES IDX 13 30
REMARK H PARENT 1 10 23 12 21 14 19 16 9 24 17 26 15 28 13 31
REMARK Flexibility Score: inf
ROOT
ATOM      1  O   UNL     1      40.214   6.597  -2.110  1.00  0.00    -0.313 OA
ENDROOT
BRANCH   1   2
ATOM      2  C   UNL     1      39.229   6.963  -1.149  1.00  0.00     0.285 C 
ATOM      3  C   UNL     1      37.369   5.690  -1.998  1.00  0.00     0.178 C 
ATOM      4  C   UNL     1      37.436   4.709  -0.805  1.00  0.00     0.177 C 
ATOM      5  O   UNL     1      37.924   6.975  -1.722  1.00  0.00    -0.341 OA
ATOM      6  C   UNL     1      38.860   4.642  -0.237  1.00  0.00     0.179 C 
ATOM      7  C   UNL     1      39.334   6.056   0.094  1.00  0.00     0.202 C 
BRANCH   3   8
ATOM      8  C   UNL     1      37.897   5.086  -3.309  1.00  0.00     0.191 C 
BRANCH   8   9
ATOM      9  O   UNL     1      38.204   6.115  -4.209  1.00  0.00    -0.394 OA
ATOM     10  H   UNL     1      37.875   5.814  -5.096  1.00  0.00     0.210 HD
ENDBRANCH   8   9
ENDBRANCH   3   8
BRANCH   4  11
ATOM     11  O   UNL     1      36.534   5.137   0.186  1.00  0.00    -0.387 OA
ATOM     12  H   UNL     1      36.683   6.110   0.316  1.00  0.00     0.211 HD
ENDBRANCH   4  11
BRANCH   6  13
ATOM     13  O   UNL     1      38.888   3.855   0.927  1.00  0.00    -0.387 OA
ATOM     14  H   UNL     1      38.731   2.917   0.640  1.00  0.00     0.211 HD
ENDBRANCH   6  13
BRANCH   7  15
ATOM     15  O   UNL     1      40.662   6.007   0.547  1.00  0.00    -0.385 OA
ATOM     16  H   UNL     1      40.995   6.942   0.563  1.00  0.00     0.211 HD
ENDBRANCH   7  15
ENDBRANCH   1   2
BRANCH   1  17
ATOM     17  C   UNL     1      41.038   7.681  -2.535  1.00  0.00     0.224 C 
ATOM     18  C   UNL     1      40.942   8.877  -1.555  1.00  0.00     0.208 C 
ATOM     19  O   UNL     1      40.673   8.128  -3.831  1.00  0.00    -0.337 OA
ATOM     20  C   UNL     1      41.058  10.073  -2.472  1.00  0.00     0.180 C 
ATOM     21  C   UNL     1      40.477   9.526  -3.780  1.00  0.00     0.179 C 
BRANCH  17  22
ATOM     22  C   UNL     1      42.490   7.155  -2.621  1.00  0.00     0.225 C 
BRANCH  22  23
ATOM     23  O   UNL     1      42.771   6.303  -1.542  1.00  0.00    -0.391 OA
ATOM     24  H   UNL     1      41.901   6.011  -1.164  1.00  0.00     0.210 HD
ENDBRANCH  22  23
ENDBRANCH  17  22
BRANCH  18  25
ATOM     25  O   UNL     1      41.943   8.861  -0.566  1.00  0.00    -0.385 OA
ATOM     26  H   UNL     1      42.638   8.224  -0.877  1.00  0.00     0.211 HD
ENDBRANCH  18  25
BRANCH  20  27
ATOM     27  O   UNL     1      42.403  10.454  -2.634  1.00  0.00    -0.387 OA
ATOM     28  H   UNL     1      42.956   9.680  -2.351  1.00  0.00     0.211 HD
ENDBRANCH  20  27
BRANCH  21  29
ATOM     29  C   UNL     1      41.055  10.177  -5.042  1.00  0.00     0.191 C 
BRANCH  29  30
ATOM     30  O   UNL     1      42.257   9.551  -5.397  1.00  0.00    -0.394 OA
ATOM     31  H   UNL     1      42.705  10.160  -6.039  1.00  0.00     0.210 HD
ENDBRANCH  29  30
ENDBRANCH  21  29
ENDBRANCH   1  17
TORSDOF 13
ENDMDL
