MODEL 1
REMARK VINA RESULT:    -4.860      0.000      0.000
REMARK INTER + INTRA:          -5.002
REMARK INTER:                  -5.002
REMARK INTRA:                   0.000
REMARK UNBOUND:                 0.000
REMARK SMILES Oc1ccc2[nH]ccc2c1
REMARK SMILES IDX 3 1 4 2 5 3 9 4 8 5 7 6 6 7 10 8 2 9 1 11
REMARK H PARENT 6 10 1 12
REMARK Flexibility Score: inf
ROOT
ATOM      1  C   UNL     1      17.663 -22.345 -26.368  1.00  0.00     0.048 A 
ATOM      2  C   UNL     1      17.609 -23.743 -26.221  1.00  0.00     0.030 A 
ATOM      3  C   UNL     1      18.432 -24.328 -25.260  1.00  0.00     0.046 A 
ATOM      4  C   UNL     1      19.272 -23.581 -24.479  1.00  0.00     0.003 A 
ATOM      5  C   UNL     1      19.939 -24.448 -23.643  1.00  0.00     0.028 A 
ATOM      6  C   UNL     1      19.457 -25.711 -23.969  1.00  0.00     0.083 A 
ATOM      7  N   UNL     1      18.536 -25.633 -24.958  1.00  0.00    -0.361 N 
ATOM      8  C   UNL     1      19.350 -22.195 -24.600  1.00  0.00     0.056 A 
ATOM      9  C   UNL     1      18.529 -21.569 -25.563  1.00  0.00     0.116 A 
ATOM     10  H   UNL     1      18.016 -26.427 -25.394  1.00  0.00     0.166 HD
ENDROOT
BRANCH   9  11
ATOM     11  O   UNL     1      18.564 -20.187 -25.730  1.00  0.00    -0.508 OA
ATOM     12  H   UNL     1      19.380 -19.721 -26.107  1.00  0.00     0.293 HD
ENDBRANCH   9  11
TORSDOF 1
ENDMDL
MODEL 2
REMARK VINA RESULT:    -4.764     11.275     12.552
REMARK INTER + INTRA:          -4.903
REMARK INTER:                  -4.903
REMARK INTRA:                   0.000
REMARK UNBOUND:                 0.000
REMARK SMILES Oc1ccc2[nH]ccc2c1
REMARK SMILES IDX 3 1 4 2 5 3 9 4 8 5 7 6 6 7 10 8 2 9 1 11
REMARK H PARENT 6 10 1 12
REMARK Flexibility Score: inf
ROOT
ATOM      1  C   UNL     1      19.265 -24.630 -11.228  1.00  0.00     0.048 A 
ATOM      2  C   UNL     1      20.481 -25.284 -11.495  1.00  0.00     0.030 A 
ATOM      3  C   UNL     1      20.991 -25.207 -12.790  1.00  0.00     0.046 A 
ATOM      4  C   UNL     1      20.341 -24.521 -13.780  1.00  0.00     0.003 A 
ATOM      5  C   UNL     1      21.097 -24.636 -14.926  1.00  0.00     0.028 A 
ATOM      6  C   UNL     1      22.196 -25.407 -14.561  1.00  0.00     0.083 A 
ATOM      7  N   UNL     1      22.127 -25.753 -13.255  1.00  0.00    -0.361 N 
ATOM      8  C   UNL     1      19.135 -23.862 -13.549  1.00  0.00     0.056 A 
ATOM      9  C   UNL     1      18.591 -23.919 -12.249  1.00  0.00     0.116 A 
ATOM     10  H   UNL     1      22.817 -26.328 -12.722  1.00  0.00     0.166 HD
ENDROOT
BRANCH   9  11
ATOM     11  O   UNL     1      17.388 -23.280 -11.959  1.00  0.00    -0.508 OA
ATOM     12  H   UNL     1      16.930 -23.398 -11.062  1.00  0.00     0.293 HD
ENDBRANCH   9  11
TORSDOF 1
ENDMDL
MODEL 3
REMARK VINA RESULT:    -4.742      2.691      4.313
REMARK INTER + INTRA:          -4.880
REMARK INTER:                  -4.880
REMARK INTRA:                   0.000
REMARK UNBOUND:                 0.000
REMARK SMILES Oc1ccc2[nH]ccc2c1
REMARK SMILES IDX 3 1 4 2 5 3 9 4 8 5 7 6 6 7 10 8 2 9 1 11
REMARK H PARENT 6 10 1 12
REMARK Flexibility Score: inf
ROOT
ATOM      1  C   UNL     1      19.227 -23.483 -25.033  1.00  0.00     0.048 A 
ATOM      2  C   UNL     1      19.041 -22.094 -25.167  1.00  0.00     0.030 A 
ATOM      3  C   UNL     1      17.863 -21.651 -25.765  1.00  0.00     0.046 A 
ATOM      4  C   UNL     1      16.909 -22.525 -26.212  1.00  0.00     0.003 A 
ATOM      5  C   UNL     1      15.882 -21.777 -26.745  1.00  0.00     0.028 A 
ATOM      6  C   UNL     1      16.277 -20.453 -26.588  1.00  0.00     0.083 A 
ATOM      7  N   UNL     1      17.488 -20.380 -25.989  1.00  0.00    -0.361 N 
ATOM      8  C   UNL     1      17.062 -23.905 -26.095  1.00  0.00     0.056 A 
ATOM      9  C   UNL     1      18.243 -24.388 -25.494  1.00  0.00     0.116 A 
ATOM     10  H   UNL     1      18.019 -19.513 -25.751  1.00  0.00     0.166 HD
ENDROOT
BRANCH   9  11
ATOM     11  O   UNL     1      18.452 -25.758 -25.350  1.00  0.00    -0.508 OA
ATOM     12  H   UNL     1      17.716 -26.428 -25.542  1.00  0.00     0.293 HD
ENDBRANCH   9  11
TORSDOF 1
ENDMDL
MODEL 4
REMARK VINA RESULT:    -4.694     14.534     15.704
REMARK INTER + INTRA:          -4.831
REMARK INTER:                  -4.831
REMARK INTRA:                   0.000
REMARK UNBOUND:                 0.000
REMARK SMILES Oc1ccc2[nH]ccc2c1
REMARK SMILES IDX 3 1 4 2 5 3 9 4 8 5 7 6 6 7 10 8 2 9 1 11
REMARK H PARENT 6 10 1 12
REMARK Flexibility Score: inf
ROOT
ATOM      1  C   UNL     1      25.221 -15.002 -15.122  1.00  0.00     0.048 A 
ATOM      2  C   UNL     1      25.325 -14.381 -13.864  1.00  0.00     0.030 A 
ATOM      3  C   UNL     1      24.348 -13.451 -13.516  1.00  0.00     0.046 A 
ATOM      4  C   UNL     1      23.316 -13.140 -14.360  1.00  0.00     0.003 A 
ATOM      5  C   UNL     1      22.535 -12.199 -13.727  1.00  0.00     0.028 A 
ATOM      6  C   UNL     1      23.150 -11.981 -12.499  1.00  0.00     0.083 A 
ATOM      7  N   UNL     1      24.257 -12.748 -12.374  1.00  0.00    -0.361 N 
ATOM      8  C   UNL     1      23.184 -13.736 -15.612  1.00  0.00     0.056 A 
ATOM      9  C   UNL     1      24.156 -14.684 -15.997  1.00  0.00     0.116 A 
ATOM     10  H   UNL     1      24.907 -12.784 -11.557  1.00  0.00     0.166 HD
ENDROOT
BRANCH   9  11
ATOM     11  O   UNL     1      24.077 -15.313 -17.237  1.00  0.00    -0.508 OA
ATOM     12  H   UNL     1      23.433 -16.078 -17.401  1.00  0.00     0.293 HD
ENDBRANCH   9  11
TORSDOF 1
ENDMDL
MODEL 5
REMARK VINA RESULT:    -4.676     11.875     13.240
REMARK INTER + INTRA:          -4.813
REMARK INTER:                  -4.813
REMARK INTRA:                   0.000
REMARK UNBOUND:                 0.000
REMARK SMILES Oc1ccc2[nH]ccc2c1
REMARK SMILES IDX 3 1 4 2 5 3 9 4 8 5 7 6 6 7 10 8 2 9 1 11
REMARK H PARENT 6 10 1 12
REMARK Flexibility Score: inf
ROOT
ATOM      1  C   UNL     1      20.299 -25.482 -10.635  1.00  0.00     0.048 A 
ATOM      2  C   UNL     1      19.245 -24.904 -11.366  1.00  0.00     0.030 A 
ATOM      3  C   UNL     1      19.464 -24.626 -12.714  1.00  0.00     0.046 A 
ATOM      4  C   UNL     1      20.660 -24.900 -13.321  1.00  0.00     0.003 A 
ATOM      5  C   UNL     1      20.553 -24.511 -14.637  1.00  0.00     0.028 A 
ATOM      6  C   UNL     1      19.262 -24.007 -14.764  1.00  0.00     0.083 A 
ATOM      7  N   UNL     1      18.601 -24.080 -13.586  1.00  0.00    -0.361 N 
ATOM      8  C   UNL     1      21.724 -25.472 -12.626  1.00  0.00     0.056 A 
ATOM      9  C   UNL     1      21.536 -25.767 -11.259  1.00  0.00     0.116 A 
ATOM     10  H   UNL     1      17.620 -23.772 -13.398  1.00  0.00     0.166 HD
ENDROOT
BRANCH   9  11
ATOM     11  O   UNL     1      22.563 -26.340 -10.513  1.00  0.00    -0.508 OA
ATOM     12  H   UNL     1      23.208 -27.005 -10.924  1.00  0.00     0.293 HD
ENDBRANCH   9  11
TORSDOF 1
ENDMDL
MODEL 6
REMARK VINA RESULT:    -4.663     11.200     12.570
REMARK INTER + INTRA:          -4.799
REMARK INTER:                  -4.799
REMARK INTRA:                   0.000
REMARK UNBOUND:                 0.000
REMARK SMILES Oc1ccc2[nH]ccc2c1
REMARK SMILES IDX 3 1 4 2 5 3 9 4 8 5 7 6 6 7 10 8 2 9 1 11
REMARK H PARENT 6 10 1 12
REMARK Flexibility Score: inf
ROOT
ATOM      1  C   UNL     1      21.089 -25.347 -11.535  1.00  0.00     0.048 A 
ATOM      2  C   UNL     1      21.727 -25.273 -12.787  1.00  0.00     0.030 A 
ATOM      3  C   UNL     1      21.005 -24.741 -13.854  1.00  0.00     0.046 A 
ATOM      4  C   UNL     1      19.718 -24.300 -13.703  1.00  0.00     0.003 A 
ATOM      5  C   UNL     1      19.294 -23.839 -14.930  1.00  0.00     0.028 A 
ATOM      6  C   UNL     1      20.375 -24.029 -15.784  1.00  0.00     0.083 A 
ATOM      7  N   UNL     1      21.419 -24.580 -15.122  1.00  0.00    -0.361 N 
ATOM      8  C   UNL     1      19.058 -24.358 -12.478  1.00  0.00     0.056 A 
ATOM      9  C   UNL     1      19.759 -24.892 -11.376  1.00  0.00     0.116 A 
ATOM     10  H   UNL     1      22.352 -24.829 -15.518  1.00  0.00     0.166 HD
ENDROOT
BRANCH   9  11
ATOM     11  O   UNL     1      19.152 -24.976 -10.125  1.00  0.00    -0.508 OA
ATOM     12  H   UNL     1      19.682 -25.217  -9.296  1.00  0.00     0.293 HD
ENDBRANCH   9  11
TORSDOF 1
ENDMDL
MODEL 7
REMARK VINA RESULT:    -4.662     11.185     12.418
REMARK INTER + INTRA:          -4.798
REMARK INTER:                  -4.798
REMARK INTRA:                   0.000
REMARK UNBOUND:                 0.000
REMARK SMILES Oc1ccc2[nH]ccc2c1
REMARK SMILES IDX 3 1 4 2 5 3 9 4 8 5 7 6 6 7 10 8 2 9 1 11
REMARK H PARENT 6 10 1 12
REMARK Flexibility Score: inf
ROOT
ATOM      1  C   UNL     1      18.595 -24.249 -12.335  1.00  0.00     0.048 A 
ATOM      2  C   UNL     1      18.890 -24.031 -13.693  1.00  0.00     0.030 A 
ATOM      3  C   UNL     1      20.164 -24.370 -14.144  1.00  0.00     0.046 A 
ATOM      4  C   UNL     1      21.109 -24.898 -13.305  1.00  0.00     0.003 A 
ATOM      5  C   UNL     1      22.245 -25.118 -14.051  1.00  0.00     0.028 A 
ATOM      6  C   UNL     1      21.923 -24.702 -15.338  1.00  0.00     0.083 A 
ATOM      7  N   UNL     1      20.650 -24.246 -15.390  1.00  0.00    -0.361 N 
ATOM      8  C   UNL     1      20.849 -25.126 -11.956  1.00  0.00     0.056 A 
ATOM      9  C   UNL     1      19.568 -24.794 -11.465  1.00  0.00     0.116 A 
ATOM     10  H   UNL     1      20.152 -23.873 -16.229  1.00  0.00     0.166 HD
ENDROOT
BRANCH   9  11
ATOM     11  O   UNL     1      19.250 -25.000 -10.125  1.00  0.00    -0.508 OA
ATOM     12  H   UNL     1      19.110 -25.932  -9.752  1.00  0.00     0.293 HD
ENDBRANCH   9  11
TORSDOF 1
ENDMDL
MODEL 8
REMARK VINA RESULT:    -4.545      2.603      3.644
REMARK INTER + INTRA:          -4.678
REMARK INTER:                  -4.678
REMARK INTRA:                   0.000
REMARK UNBOUND:                 0.000
REMARK SMILES Oc1ccc2[nH]ccc2c1
REMARK SMILES IDX 3 1 4 2 5 3 9 4 8 5 7 6 6 7 10 8 2 9 1 11
REMARK H PARENT 6 10 1 12
REMARK Flexibility Score: inf
ROOT
ATOM      1  C   UNL     1      17.331 -25.053 -25.551  1.00  0.00     0.048 A 
ATOM      2  C   UNL     1      16.725 -23.845 -25.944  1.00  0.00     0.030 A 
ATOM      3  C   UNL     1      17.426 -22.662 -25.718  1.00  0.00     0.046 A 
ATOM      4  C   UNL     1      18.664 -22.659 -25.132  1.00  0.00     0.003 A 
ATOM      5  C   UNL     1      19.079 -21.348 -25.052  1.00  0.00     0.028 A 
ATOM      6  C   UNL     1      18.043 -20.604 -25.608  1.00  0.00     0.083 A 
ATOM      7  N   UNL     1      17.036 -21.411 -26.013  1.00  0.00    -0.361 N 
ATOM      8  C   UNL     1      19.291 -23.837 -24.731  1.00  0.00     0.056 A 
ATOM      9  C   UNL     1      18.610 -25.053 -24.946  1.00  0.00     0.116 A 
ATOM     10  H   UNL     1      16.140 -21.118 -26.463  1.00  0.00     0.166 HD
ENDROOT
BRANCH   9  11
ATOM     11  O   UNL     1      19.187 -26.263 -24.566  1.00  0.00    -0.508 OA
ATOM     12  H   UNL     1      20.006 -26.628 -25.037  1.00  0.00     0.293 HD
ENDBRANCH   9  11
TORSDOF 1
ENDMDL
MODEL 9
REMARK VINA RESULT:    -4.543     13.264     14.355
REMARK INTER + INTRA:          -4.676
REMARK INTER:                  -4.676
REMARK INTRA:                   0.000
REMARK UNBOUND:                 0.000
REMARK SMILES Oc1ccc2[nH]ccc2c1
REMARK SMILES IDX 3 1 4 2 5 3 9 4 8 5 7 6 6 7 10 8 2 9 1 11
REMARK H PARENT 6 10 1 12
REMARK Flexibility Score: inf
ROOT
ATOM      1  C   UNL     1      28.163 -16.903 -17.638  1.00  0.00     0.048 A 
ATOM      2  C   UNL     1      26.804 -16.688 -17.934  1.00  0.00     0.030 A 
ATOM      3  C   UNL     1      26.050 -15.949 -17.026  1.00  0.00     0.046 A 
ATOM      4  C   UNL     1      26.598 -15.441 -15.879  1.00  0.00     0.003 A 
ATOM      5  C   UNL     1      25.601 -14.769 -15.207  1.00  0.00     0.028 A 
ATOM      6  C   UNL     1      24.469 -14.908 -16.003  1.00  0.00     0.083 A 
ATOM      7  N   UNL     1      24.748 -15.629 -17.113  1.00  0.00    -0.361 N 
ATOM      8  C   UNL     1      27.940 -15.634 -15.556  1.00  0.00     0.056 A 
ATOM      9  C   UNL     1      28.733 -16.379 -16.454  1.00  0.00     0.116 A 
ATOM     10  H   UNL     1      24.084 -15.885 -17.878  1.00  0.00     0.166 HD
ENDROOT
BRANCH   9  11
ATOM     11  O   UNL     1      30.081 -16.606 -16.186  1.00  0.00    -0.508 OA
ATOM     12  H   UNL     1      30.567 -16.095 -15.458  1.00  0.00     0.293 HD
ENDBRANCH   9  11
TORSDOF 1
ENDMDL
