MODEL 1
REMARK VINA RESULT:    -3.951      0.000      0.000
REMARK INTER + INTRA:          -9.321
REMARK INTER:                  -7.184
REMARK INTRA:                  -2.136
REMARK UNBOUND:                -2.136
REMARK SMILES CCCCCCCCCCCCCCCC(=O)[O-]
REMARK SMILES IDX 9 1 10 2 11 3 12 4 13 5 14 6 15 7 16 8 17 9 18 10 8 11 7 12
REMARK SMILES IDX 6 13 5 14 4 15 3 16 2 17 1 18
REMARK H PARENT
REMARK Flexibility Score: inf
ROOT
ATOM      1  C   UNL     1      27.192  30.267 -14.754  1.00  0.00     0.000 C 
ENDROOT
BRANCH   1   2
ATOM      2  C   UNL     1      27.550  30.528 -13.283  1.00  0.00     0.000 C 
BRANCH   2   3
ATOM      3  C   UNL     1      29.008  30.166 -12.946  1.00  0.00     0.000 C 
BRANCH   3   4
ATOM      4  C   UNL     1      29.336  30.124 -11.443  1.00  0.00     0.000 C 
BRANCH   4   5
ATOM      5  C   UNL     1      28.115  30.421 -10.554  1.00  0.00     0.000 C 
BRANCH   5   6
ATOM      6  C   UNL     1      27.744  29.231  -9.645  1.00  0.00     0.006 C 
BRANCH   6   7
ATOM      7  C   UNL     1      26.284  28.777  -9.795  1.00  0.00     0.053 C 
BRANCH   7   8
ATOM      8  C   UNL     1      26.056  27.990 -11.047  1.00  0.00     0.041 C 
ATOM      9  O   UNL     1      26.964  27.243 -11.498  1.00  0.00    -0.550 OA
ATOM     10  O   UNL     1      24.853  28.104 -11.732  1.00  0.00    -0.550 OA
ENDBRANCH   7   8
ENDBRANCH   6   7
ENDBRANCH   5   6
ENDBRANCH   4   5
ENDBRANCH   3   4
ENDBRANCH   2   3
ENDBRANCH   1   2
BRANCH   1  11
ATOM     11  C   UNL     1      26.154  29.146 -14.877  1.00  0.00     0.000 C 
BRANCH  11  12
ATOM     12  C   UNL     1      24.960  29.593 -15.732  1.00  0.00    -0.000 C 
BRANCH  12  13
ATOM     13  C   UNL     1      23.634  29.576 -14.954  1.00  0.00    -0.000 C 
BRANCH  13  14
ATOM     14  C   UNL     1      22.974  30.962 -14.876  1.00  0.00    -0.000 C 
BRANCH  14  15
ATOM     15  C   UNL     1      23.988  32.071 -15.191  1.00  0.00    -0.000 C 
BRANCH  15  16
ATOM     16  C   UNL     1      24.554  32.744 -13.928  1.00  0.00    -0.000 C 
BRANCH  16  17
ATOM     17  C   UNL     1      23.822  32.386 -12.622  1.00  0.00    -0.003 C 
ATOM     18  C   UNL     1      24.709  31.645 -11.624  1.00  0.00     0.004 C 
ENDBRANCH  16  17
ENDBRANCH  15  16
ENDBRANCH  14  15
ENDBRANCH  13  14
ENDBRANCH  12  13
ENDBRANCH  11  12
ENDBRANCH   1  11
TORSDOF 14
ENDMDL
MODEL 2
REMARK VINA RESULT:    -3.903      1.542      2.479
REMARK INTER + INTRA:          -9.234
REMARK INTER:                  -7.178
REMARK INTRA:                  -2.056
REMARK UNBOUND:                -2.136
REMARK SMILES CCCCCCCCCCCCCCCC(=O)[O-]
REMARK SMILES IDX 9 1 10 2 11 3 12 4 13 5 14 6 15 7 16 8 17 9 18 10 8 11 7 12
REMARK SMILES IDX 6 13 5 14 4 15 3 16 2 17 1 18
REMARK H PARENT
REMARK Flexibility Score: inf
ROOT
ATOM      1  C   UNL     1      29.045  30.477 -13.083  1.00  0.00     0.000 C 
ENDROOT
BRANCH   1   2
ATOM      2  C   UNL     1      29.273  30.003 -11.640  1.00  0.00     0.000 C 
BRANCH   2   3
ATOM      3  C   UNL     1      28.075  30.293 -10.716  1.00  0.00     0.000 C 
BRANCH   3   4
ATOM      4  C   UNL     1      27.526  29.069  -9.960  1.00  0.00     0.000 C 
BRANCH   4   5
ATOM      5  C   UNL     1      26.284  28.457 -10.632  1.00  0.00     0.000 C 
BRANCH   5   6
ATOM      6  C   UNL     1      26.622  27.208 -11.471  1.00  0.00     0.006 C 
BRANCH   6   7
ATOM      7  C   UNL     1      25.686  27.003 -12.672  1.00  0.00     0.053 C 
BRANCH   7   8
ATOM      8  C   UNL     1      26.395  26.422 -13.855  1.00  0.00     0.041 C 
ATOM      9  O   UNL     1      27.466  25.778 -13.698  1.00  0.00    -0.550 OA
ATOM     10  O   UNL     1      25.889  26.617 -15.135  1.00  0.00    -0.550 OA
ENDBRANCH   7   8
ENDBRANCH   6   7
ENDBRANCH   5   6
ENDBRANCH   4   5
ENDBRANCH   3   4
ENDBRANCH   2   3
ENDBRANCH   1   2
BRANCH   1  11
ATOM     11  C   UNL     1      27.823  29.788 -13.701  1.00  0.00     0.000 C 
BRANCH  11  12
ATOM     12  C   UNL     1      26.855  30.818 -14.300  1.00  0.00    -0.000 C 
BRANCH  12  13
ATOM     13  C   UNL     1      25.570  30.177 -14.848  1.00  0.00    -0.000 C 
BRANCH  13  14
ATOM     14  C   UNL     1      24.374  31.142 -14.839  1.00  0.00    -0.000 C 
BRANCH  14  15
ATOM     15  C   UNL     1      24.734  32.455 -14.129  1.00  0.00    -0.000 C 
BRANCH  15  16
ATOM     16  C   UNL     1      24.048  32.604 -12.760  1.00  0.00    -0.000 C 
BRANCH  16  17
ATOM     17  C   UNL     1      24.643  31.730 -11.640  1.00  0.00    -0.003 C 
ATOM     18  C   UNL     1      23.606  30.828 -10.972  1.00  0.00     0.004 C 
ENDBRANCH  16  17
ENDBRANCH  15  16
ENDBRANCH  14  15
ENDBRANCH  13  14
ENDBRANCH  12  13
ENDBRANCH  11  12
ENDBRANCH   1  11
TORSDOF 14
ENDMDL
MODEL 3
REMARK VINA RESULT:    -3.877      2.291      3.932
REMARK INTER + INTRA:          -9.186
REMARK INTER:                  -6.712
REMARK INTRA:                  -2.474
REMARK UNBOUND:                -2.136
REMARK SMILES CCCCCCCCCCCCCCCC(=O)[O-]
REMARK SMILES IDX 9 1 10 2 11 3 12 4 13 5 14 6 15 7 16 8 17 9 18 10 8 11 7 12
REMARK SMILES IDX 6 13 5 14 4 15 3 16 2 17 1 18
REMARK H PARENT
REMARK Flexibility Score: inf
ROOT
ATOM      1  C   UNL     1      27.864  30.258 -10.818  1.00  0.00     0.000 C 
ENDROOT
BRANCH   1   2
ATOM      2  C   UNL     1      27.045  29.096 -10.237  1.00  0.00     0.000 C 
BRANCH   2   3
ATOM      3  C   UNL     1      26.965  27.884 -11.185  1.00  0.00     0.000 C 
BRANCH   3   4
ATOM      4  C   UNL     1      25.571  27.614 -11.778  1.00  0.00     0.000 C 
BRANCH   4   5
ATOM      5  C   UNL     1      25.627  27.086 -13.223  1.00  0.00     0.000 C 
BRANCH   5   6
ATOM      6  C   UNL     1      26.951  26.359 -13.534  1.00  0.00     0.006 C 
BRANCH   6   7
ATOM      7  C   UNL     1      26.786  24.847 -13.748  1.00  0.00     0.053 C 
BRANCH   7   8
ATOM      8  C   UNL     1      27.275  24.048 -12.581  1.00  0.00     0.041 C 
ATOM      9  O   UNL     1      28.199  23.206 -12.733  1.00  0.00    -0.550 OA
ATOM     10  O   UNL     1      26.690  24.212 -11.331  1.00  0.00    -0.550 OA
ENDBRANCH   7   8
ENDBRANCH   6   7
ENDBRANCH   5   6
ENDBRANCH   4   5
ENDBRANCH   3   4
ENDBRANCH   2   3
ENDBRANCH   1   2
BRANCH   1  11
ATOM     11  C   UNL     1      28.904  29.748 -11.823  1.00  0.00     0.000 C 
BRANCH  11  12
ATOM     12  C   UNL     1      28.786  30.492 -13.161  1.00  0.00    -0.000 C 
BRANCH  12  13
ATOM     13  C   UNL     1      27.578  30.031 -13.992  1.00  0.00    -0.000 C 
BRANCH  13  14
ATOM     14  C   UNL     1      26.568  31.159 -14.248  1.00  0.00    -0.000 C 
BRANCH  14  15
ATOM     15  C   UNL     1      25.137  30.694 -13.941  1.00  0.00    -0.000 C 
BRANCH  15  16
ATOM     16  C   UNL     1      24.337  31.720 -13.118  1.00  0.00    -0.000 C 
BRANCH  16  17
ATOM     17  C   UNL     1      24.608  31.686 -11.603  1.00  0.00    -0.003 C 
ATOM     18  C   UNL     1      23.695  30.717 -10.854  1.00  0.00     0.004 C 
ENDBRANCH  16  17
ENDBRANCH  15  16
ENDBRANCH  14  15
ENDBRANCH  13  14
ENDBRANCH  12  13
ENDBRANCH  11  12
ENDBRANCH   1  11
TORSDOF 14
ENDMDL
MODEL 4
REMARK VINA RESULT:    -3.865      3.231      5.191
REMARK INTER + INTRA:          -9.164
REMARK INTER:                  -7.312
REMARK INTRA:                  -1.852
REMARK UNBOUND:                -2.136
REMARK SMILES CCCCCCCCCCCCCCCC(=O)[O-]
REMARK SMILES IDX 9 1 10 2 11 3 12 4 13 5 14 6 15 7 16 8 17 9 18 10 8 11 7 12
REMARK SMILES IDX 6 13 5 14 4 15 3 16 2 17 1 18
REMARK H PARENT
REMARK Flexibility Score: inf
ROOT
ATOM      1  C   UNL     1      26.283  28.998 -10.277  1.00  0.00     0.000 C 
ENDROOT
BRANCH   1   2
ATOM      2  C   UNL     1      26.292  27.491 -10.570  1.00  0.00     0.000 C 
BRANCH   2   3
ATOM      3  C   UNL     1      25.916  27.160 -12.026  1.00  0.00     0.000 C 
BRANCH   3   4
ATOM      4  C   UNL     1      27.104  26.813 -12.942  1.00  0.00     0.000 C 
BRANCH   4   5
ATOM      5  C   UNL     1      27.056  25.366 -13.464  1.00  0.00     0.000 C 
BRANCH   5   6
ATOM      6  C   UNL     1      27.082  24.327 -12.324  1.00  0.00     0.006 C 
BRANCH   6   7
ATOM      7  C   UNL     1      27.876  23.057 -12.669  1.00  0.00     0.053 C 
BRANCH   7   8
ATOM      8  C   UNL     1      27.456  21.881 -11.845  1.00  0.00     0.041 C 
ATOM      9  O   UNL     1      26.393  21.263 -12.119  1.00  0.00    -0.550 OA
ATOM     10  O   UNL     1      28.223  21.484 -10.756  1.00  0.00    -0.550 OA
ENDBRANCH   7   8
ENDBRANCH   6   7
ENDBRANCH   5   6
ENDBRANCH   4   5
ENDBRANCH   3   4
ENDBRANCH   2   3
ENDBRANCH   1   2
BRANCH   1  11
ATOM     11  C   UNL     1      27.659  29.473  -9.794  1.00  0.00     0.000 C 
BRANCH  11  12
ATOM     12  C   UNL     1      28.269  30.482 -10.778  1.00  0.00    -0.000 C 
BRANCH  12  13
ATOM     13  C   UNL     1      28.900  29.806 -12.006  1.00  0.00    -0.000 C 
BRANCH  13  14
ATOM     14  C   UNL     1      28.700  30.613 -13.297  1.00  0.00    -0.000 C 
BRANCH  14  15
ATOM     15  C   UNL     1      27.463  30.123 -14.064  1.00  0.00    -0.000 C 
BRANCH  15  16
ATOM     16  C   UNL     1      26.333  31.167 -14.110  1.00  0.00    -0.000 C 
BRANCH  16  17
ATOM     17  C   UNL     1      25.100  30.824 -13.255  1.00  0.00    -0.003 C 
ATOM     18  C   UNL     1      24.847  31.834 -12.138  1.00  0.00     0.004 C 
ENDBRANCH  16  17
ENDBRANCH  15  16
ENDBRANCH  14  15
ENDBRANCH  13  14
ENDBRANCH  12  13
ENDBRANCH  11  12
ENDBRANCH   1  11
TORSDOF 14
ENDMDL
MODEL 5
REMARK VINA RESULT:    -3.836      1.697      3.873
REMARK INTER + INTRA:          -9.112
REMARK INTER:                  -6.377
REMARK INTRA:                  -2.735
REMARK UNBOUND:                -2.136
REMARK SMILES CCCCCCCCCCCCCCCC(=O)[O-]
REMARK SMILES IDX 9 1 10 2 11 3 12 4 13 5 14 6 15 7 16 8 17 9 18 10 8 11 7 12
REMARK SMILES IDX 6 13 5 14 4 15 3 16 2 17 1 18
REMARK H PARENT
REMARK Flexibility Score: inf
ROOT
ATOM      1  C   UNL     1      23.133  30.135 -15.269  1.00  0.00     0.000 C 
ENDROOT
BRANCH   1   2
ATOM      2  C   UNL     1      24.634  30.156 -15.594  1.00  0.00     0.000 C 
BRANCH   2   3
ATOM      3  C   UNL     1      25.351  28.850 -15.205  1.00  0.00     0.000 C 
BRANCH   3   4
ATOM      4  C   UNL     1      26.468  29.008 -14.158  1.00  0.00     0.000 C 
BRANCH   4   5
ATOM      5  C   UNL     1      27.073  30.424 -14.137  1.00  0.00     0.000 C 
BRANCH   5   6
ATOM      6  C   UNL     1      28.328  30.516 -13.246  1.00  0.00     0.006 C 
BRANCH   6   7
ATOM      7  C   UNL     1      28.478  29.336 -12.273  1.00  0.00     0.053 C 
BRANCH   7   8
ATOM      8  C   UNL     1      28.257  29.739 -10.849  1.00  0.00     0.041 C 
ATOM      9  O   UNL     1      27.710  28.941 -10.043  1.00  0.00    -0.550 OA
ATOM     10  O   UNL     1      28.627  31.008 -10.419  1.00  0.00    -0.550 OA
ENDBRANCH   7   8
ENDBRANCH   6   7
ENDBRANCH   5   6
ENDBRANCH   4   5
ENDBRANCH   3   4
ENDBRANCH   2   3
ENDBRANCH   1   2
BRANCH   1  11
ATOM     11  C   UNL     1      22.742  31.335 -14.399  1.00  0.00     0.000 C 
BRANCH  11  12
ATOM     12  C   UNL     1      23.857  32.390 -14.384  1.00  0.00    -0.000 C 
BRANCH  12  13
ATOM     13  C   UNL     1      24.326  32.737 -12.962  1.00  0.00    -0.000 C 
BRANCH  13  14
ATOM     14  C   UNL     1      23.741  31.798 -11.897  1.00  0.00    -0.000 C 
BRANCH  14  15
ATOM     15  C   UNL     1      24.825  30.870 -11.328  1.00  0.00    -0.000 C 
BRANCH  15  16
ATOM     16  C   UNL     1      24.248  29.592 -10.694  1.00  0.00    -0.000 C 
BRANCH  16  17
ATOM     17  C   UNL     1      24.304  28.343 -11.592  1.00  0.00    -0.003 C 
ATOM     18  C   UNL     1      22.953  27.992 -12.212  1.00  0.00     0.004 C 
ENDBRANCH  16  17
ENDBRANCH  15  16
ENDBRANCH  14  15
ENDBRANCH  13  14
ENDBRANCH  12  13
ENDBRANCH  11  12
ENDBRANCH   1  11
TORSDOF 14
ENDMDL
MODEL 6
REMARK VINA RESULT:    -3.811      2.007      5.294
REMARK INTER + INTRA:          -9.066
REMARK INTER:                  -6.679
REMARK INTRA:                  -2.387
REMARK UNBOUND:                -2.136
REMARK SMILES CCCCCCCCCCCCCCCC(=O)[O-]
REMARK SMILES IDX 9 1 10 2 11 3 12 4 13 5 14 6 15 7 16 8 17 9 18 10 8 11 7 12
REMARK SMILES IDX 6 13 5 14 4 15 3 16 2 17 1 18
REMARK H PARENT
REMARK Flexibility Score: inf
ROOT
ATOM      1  C   UNL     1      29.280  30.164 -11.496  1.00  0.00     0.000 C 
ENDROOT
BRANCH   1   2
ATOM      2  C   UNL     1      29.000  30.170 -13.006  1.00  0.00     0.000 C 
BRANCH   2   3
ATOM      3  C   UNL     1      27.575  30.643 -13.351  1.00  0.00     0.000 C 
BRANCH   3   4
ATOM      4  C   UNL     1      27.055  30.189 -14.726  1.00  0.00     0.000 C 
BRANCH   4   5
ATOM      5  C   UNL     1      25.579  30.558 -14.960  1.00  0.00     0.000 C 
BRANCH   5   6
ATOM      6  C   UNL     1      24.974  31.345 -13.780  1.00  0.00     0.006 C 
BRANCH   6   7
ATOM      7  C   UNL     1      23.662  32.064 -14.130  1.00  0.00     0.053 C 
BRANCH   7   8
ATOM      8  C   UNL     1      22.465  31.386 -13.541  1.00  0.00     0.041 C 
ATOM      9  O   UNL     1      21.392  31.314 -14.196  1.00  0.00    -0.550 OA
ATOM     10  O   UNL     1      22.524  30.861 -12.255  1.00  0.00    -0.550 OA
ENDBRANCH   7   8
ENDBRANCH   6   7
ENDBRANCH   5   6
ENDBRANCH   4   5
ENDBRANCH   3   4
ENDBRANCH   2   3
ENDBRANCH   1   2
BRANCH   1  11
ATOM     11  C   UNL     1      28.044  30.607 -10.705  1.00  0.00     0.000 C 
BRANCH  11  12
ATOM     12  C   UNL     1      27.606  29.520  -9.714  1.00  0.00    -0.000 C 
BRANCH  12  13
ATOM     13  C   UNL     1      26.965  28.307 -10.408  1.00  0.00    -0.000 C 
BRANCH  13  14
ATOM     14  C   UNL     1      25.695  28.674 -11.191  1.00  0.00    -0.000 C 
BRANCH  14  15
ATOM     15  C   UNL     1      25.507  27.743 -12.398  1.00  0.00    -0.000 C 
BRANCH  15  16
ATOM     16  C   UNL     1      26.785  26.968 -12.762  1.00  0.00    -0.000 C 
BRANCH  16  17
ATOM     17  C   UNL     1      26.770  26.316 -14.157  1.00  0.00    -0.003 C 
ATOM     18  C   UNL     1      25.609  26.794 -15.027  1.00  0.00     0.004 C 
ENDBRANCH  16  17
ENDBRANCH  15  16
ENDBRANCH  14  15
ENDBRANCH  13  14
ENDBRANCH  12  13
ENDBRANCH  11  12
ENDBRANCH   1  11
TORSDOF 14
ENDMDL
MODEL 7
REMARK VINA RESULT:    -3.741      2.300      4.670
REMARK INTER + INTRA:          -8.939
REMARK INTER:                  -6.459
REMARK INTRA:                  -2.480
REMARK UNBOUND:                -2.136
REMARK SMILES CCCCCCCCCCCCCCCC(=O)[O-]
REMARK SMILES IDX 9 1 10 2 11 3 12 4 13 5 14 6 15 7 16 8 17 9 18 10 8 11 7 12
REMARK SMILES IDX 6 13 5 14 4 15 3 16 2 17 1 18
REMARK H PARENT
REMARK Flexibility Score: inf
ROOT
ATOM      1  C   UNL     1      27.444  28.796 -10.010  1.00  0.00     0.000 C 
ENDROOT
BRANCH   1   2
ATOM      2  C   UNL     1      25.939  28.488 -10.004  1.00  0.00     0.000 C 
BRANCH   2   3
ATOM      3  C   UNL     1      25.546  27.393 -11.012  1.00  0.00     0.000 C 
BRANCH   3   4
ATOM      4  C   UNL     1      26.720  26.779 -11.796  1.00  0.00     0.000 C 
BRANCH   4   5
ATOM      5  C   UNL     1      26.545  25.273 -12.057  1.00  0.00     0.000 C 
BRANCH   5   6
ATOM      6  C   UNL     1      26.576  24.927 -13.560  1.00  0.00     0.006 C 
BRANCH   6   7
ATOM      7  C   UNL     1      26.413  26.151 -14.475  1.00  0.00     0.053 C 
BRANCH   7   8
ATOM      8  C   UNL     1      25.110  26.142 -15.211  1.00  0.00     0.041 C 
ATOM      9  O   UNL     1      24.519  27.225 -15.464  1.00  0.00    -0.550 OA
ATOM     10  O   UNL     1      24.533  24.937 -15.593  1.00  0.00    -0.550 OA
ENDBRANCH   7   8
ENDBRANCH   6   7
ENDBRANCH   5   6
ENDBRANCH   4   5
ENDBRANCH   3   4
ENDBRANCH   2   3
ENDBRANCH   1   2
BRANCH   1  11
ATOM     11  C   UNL     1      27.698  30.296 -10.204  1.00  0.00     0.000 C 
BRANCH  11  12
ATOM     12  C   UNL     1      28.808  30.536 -11.237  1.00  0.00    -0.000 C 
BRANCH  12  13
ATOM     13  C   UNL     1      28.613  29.713 -12.521  1.00  0.00    -0.000 C 
BRANCH  13  14
ATOM     14  C   UNL     1      28.046  30.546 -13.680  1.00  0.00    -0.000 C 
BRANCH  14  15
ATOM     15  C   UNL     1      26.821  29.859 -14.302  1.00  0.00    -0.000 C 
BRANCH  15  16
ATOM     16  C   UNL     1      25.546  30.027 -13.457  1.00  0.00    -0.000 C 
BRANCH  16  17
ATOM     17  C   UNL     1      25.304  31.452 -12.928  1.00  0.00    -0.003 C 
ATOM     18  C   UNL     1      24.484  31.480 -11.639  1.00  0.00     0.004 C 
ENDBRANCH  16  17
ENDBRANCH  15  16
ENDBRANCH  14  15
ENDBRANCH  13  14
ENDBRANCH  12  13
ENDBRANCH  11  12
ENDBRANCH   1  11
TORSDOF 14
ENDMDL
MODEL 8
REMARK VINA RESULT:    -3.706      2.870      4.859
REMARK INTER + INTRA:          -8.876
REMARK INTER:                  -6.830
REMARK INTRA:                  -2.045
REMARK UNBOUND:                -2.136
REMARK SMILES CCCCCCCCCCCCCCCC(=O)[O-]
REMARK SMILES IDX 9 1 10 2 11 3 12 4 13 5 14 6 15 7 16 8 17 9 18 10 8 11 7 12
REMARK SMILES IDX 6 13 5 14 4 15 3 16 2 17 1 18
REMARK H PARENT
REMARK Flexibility Score: inf
ROOT
ATOM      1  C   UNL     1      25.242  29.750 -14.622  1.00  0.00     0.000 C 
ENDROOT
BRANCH   1   2
ATOM      2  C   UNL     1      26.205  30.859 -14.171  1.00  0.00     0.000 C 
BRANCH   2   3
ATOM      3  C   UNL     1      27.682  30.513 -14.431  1.00  0.00     0.000 C 
BRANCH   3   4
ATOM      4  C   UNL     1      28.581  30.519 -13.181  1.00  0.00     0.000 C 
BRANCH   4   5
ATOM      5  C   UNL     1      28.370  29.285 -12.285  1.00  0.00     0.000 C 
BRANCH   5   6
ATOM      6  C   UNL     1      28.080  29.663 -10.819  1.00  0.00     0.006 C 
BRANCH   6   7
ATOM      7  C   UNL     1      26.629  29.395 -10.390  1.00  0.00     0.053 C 
BRANCH   7   8
ATOM      8  C   UNL     1      26.544  28.531  -9.171  1.00  0.00     0.041 C 
ATOM      9  O   UNL     1      25.969  27.412  -9.227  1.00  0.00    -0.550 OA
ATOM     10  O   UNL     1      27.073  28.975  -7.965  1.00  0.00    -0.550 OA
ENDBRANCH   7   8
ENDBRANCH   6   7
ENDBRANCH   5   6
ENDBRANCH   4   5
ENDBRANCH   3   4
ENDBRANCH   2   3
ENDBRANCH   1   2
BRANCH   1  11
ATOM     11  C   UNL     1      25.962  28.720 -15.500  1.00  0.00     0.000 C 
BRANCH  11  12
ATOM     12  C   UNL     1      25.851  27.311 -14.898  1.00  0.00    -0.000 C 
BRANCH  12  13
ATOM     13  C   UNL     1      25.518  27.332 -13.397  1.00  0.00    -0.000 C 
BRANCH  13  14
ATOM     14  C   UNL     1      26.265  26.246 -12.608  1.00  0.00    -0.000 C 
BRANCH  14  15
ATOM     15  C   UNL     1      27.308  25.545 -13.491  1.00  0.00    -0.000 C 
BRANCH  15  16
ATOM     16  C   UNL     1      27.407  24.034 -13.217  1.00  0.00    -0.000 C 
BRANCH  16  17
ATOM     17  C   UNL     1      26.705  23.141 -14.256  1.00  0.00    -0.003 C 
ATOM     18  C   UNL     1      25.189  23.089 -14.071  1.00  0.00     0.004 C 
ENDBRANCH  16  17
ENDBRANCH  15  16
ENDBRANCH  14  15
ENDBRANCH  13  14
ENDBRANCH  12  13
ENDBRANCH  11  12
ENDBRANCH   1  11
TORSDOF 14
ENDMDL
MODEL 9
REMARK VINA RESULT:    -3.700      3.107      5.655
REMARK INTER + INTRA:          -8.865
REMARK INTER:                  -7.127
REMARK INTRA:                  -1.738
REMARK UNBOUND:                -2.136
REMARK SMILES CCCCCCCCCCCCCCCC(=O)[O-]
REMARK SMILES IDX 9 1 10 2 11 3 12 4 13 5 14 6 15 7 16 8 17 9 18 10 8 11 7 12
REMARK SMILES IDX 6 13 5 14 4 15 3 16 2 17 1 18
REMARK H PARENT
REMARK Flexibility Score: inf
ROOT
ATOM      1  C   UNL     1      26.306  28.886 -10.269  1.00  0.00     0.000 C 
ENDROOT
BRANCH   1   2
ATOM      2  C   UNL     1      27.750  29.300  -9.949  1.00  0.00     0.000 C 
BRANCH   2   3
ATOM      3  C   UNL     1      28.305  30.348 -10.931  1.00  0.00     0.000 C 
BRANCH   3   4
ATOM      4  C   UNL     1      28.877  29.774 -12.240  1.00  0.00     0.000 C 
BRANCH   4   5
ATOM      5  C   UNL     1      28.316  30.469 -13.494  1.00  0.00     0.000 C 
BRANCH   5   6
ATOM      6  C   UNL     1      26.846  30.094 -13.769  1.00  0.00     0.006 C 
BRANCH   6   7
ATOM      7  C   UNL     1      26.022  31.240 -14.376  1.00  0.00     0.053 C 
BRANCH   7   8
ATOM      8  C   UNL     1      25.069  31.842 -13.393  1.00  0.00     0.041 C 
ATOM      9  O   UNL     1      25.198  31.608 -12.162  1.00  0.00    -0.550 OA
ATOM     10  O   UNL     1      24.019  32.637 -13.837  1.00  0.00    -0.550 OA
ENDBRANCH   7   8
ENDBRANCH   6   7
ENDBRANCH   5   6
ENDBRANCH   4   5
ENDBRANCH   3   4
ENDBRANCH   2   3
ENDBRANCH   1   2
BRANCH   1  11
ATOM     11  C   UNL     1      26.208  27.375 -10.511  1.00  0.00     0.000 C 
BRANCH  11  12
ATOM     12  C   UNL     1      25.836  27.075 -11.971  1.00  0.00    -0.000 C 
BRANCH  12  13
ATOM     13  C   UNL     1      26.995  26.447 -12.761  1.00  0.00    -0.000 C 
BRANCH  13  14
ATOM     14  C   UNL     1      26.643  26.201 -14.237  1.00  0.00    -0.000 C 
BRANCH  14  15
ATOM     15  C   UNL     1      25.229  25.617 -14.374  1.00  0.00    -0.000 C 
BRANCH  15  16
ATOM     16  C   UNL     1      25.229  24.144 -14.818  1.00  0.00    -0.000 C 
BRANCH  16  17
ATOM     17  C   UNL     1      26.489  23.351 -14.427  1.00  0.00    -0.003 C 
ATOM     18  C   UNL     1      26.210  22.254 -13.401  1.00  0.00     0.004 C 
ENDBRANCH  16  17
ENDBRANCH  15  16
ENDBRANCH  14  15
ENDBRANCH  13  14
ENDBRANCH  12  13
ENDBRANCH  11  12
ENDBRANCH   1  11
TORSDOF 14
ENDMDL
