MODEL 1
REMARK VINA RESULT:    -3.165      0.000      0.000
REMARK INTER + INTRA:          -4.731
REMARK INTER:                  -4.275
REMARK INTRA:                  -0.456
REMARK UNBOUND:                -0.456
REMARK SMILES CCCCCCCC(=O)[O-]
REMARK SMILES IDX 5 1 6 2 7 3 8 4 9 5 10 6 4 7 3 8 2 9 1 10
REMARK H PARENT
REMARK Flexibility Score: inf
ROOT
ATOM      1  C   UNL     1      17.061 -22.223  23.441  1.00  0.00     0.000 C 
ENDROOT
BRANCH   1   2
ATOM      2  C   UNL     1      16.563 -22.751  24.794  1.00  0.00     0.006 C 
BRANCH   2   3
ATOM      3  C   UNL     1      16.592 -21.673  25.885  1.00  0.00     0.053 C 
BRANCH   3   4
ATOM      4  C   UNL     1      15.225 -21.130  26.169  1.00  0.00     0.041 C 
ATOM      5  O   UNL     1      15.003 -19.894  26.074  1.00  0.00    -0.550 OA
ATOM      6  O   UNL     1      14.189 -21.992  26.505  1.00  0.00    -0.550 OA
ENDBRANCH   3   4
ENDBRANCH   2   3
ENDBRANCH   1   2
BRANCH   1   7
ATOM      7  C   UNL     1      17.993 -21.019  23.628  1.00  0.00     0.000 C 
BRANCH   7   8
ATOM      8  C   UNL     1      17.505 -19.814  22.811  1.00  0.00    -0.000 C 
BRANCH   8   9
ATOM      9  C   UNL     1      15.981 -19.813  22.613  1.00  0.00    -0.003 C 
ATOM     10  C   UNL     1      15.504 -18.685  21.699  1.00  0.00     0.004 C 
ENDBRANCH   8   9
ENDBRANCH   7   8
ENDBRANCH   1   7
TORSDOF 6
ENDMDL
MODEL 2
REMARK VINA RESULT:    -3.154      1.415      2.454
REMARK INTER + INTRA:          -4.716
REMARK INTER:                  -4.056
REMARK INTRA:                  -0.660
REMARK UNBOUND:                -0.456
REMARK SMILES CCCCCCCC(=O)[O-]
REMARK SMILES IDX 5 1 6 2 7 3 8 4 9 5 10 6 4 7 3 8 2 9 1 10
REMARK H PARENT
REMARK Flexibility Score: inf
ROOT
ATOM      1  C   UNL     1      16.612 -21.637  25.886  1.00  0.00     0.000 C 
ENDROOT
BRANCH   1   2
ATOM      2  C   UNL     1      15.272 -21.420  26.606  1.00  0.00     0.006 C 
BRANCH   2   3
ATOM      3  C   UNL     1      14.713 -20.010  26.378  1.00  0.00     0.053 C 
BRANCH   3   4
ATOM      4  C   UNL     1      13.495 -20.027  25.505  1.00  0.00     0.041 C 
ATOM      5  O   UNL     1      13.314 -20.971  24.691  1.00  0.00    -0.550 OA
ATOM      6  O   UNL     1      12.545 -19.021  25.615  1.00  0.00    -0.550 OA
ENDBRANCH   3   4
ENDBRANCH   2   3
ENDBRANCH   1   2
BRANCH   1   7
ATOM      7  C   UNL     1      16.481 -22.696  24.785  1.00  0.00     0.000 C 
BRANCH   7   8
ATOM      8  C   UNL     1      16.561 -22.053  23.393  1.00  0.00    -0.000 C 
BRANCH   8   9
ATOM      9  C   UNL     1      17.081 -20.608  23.439  1.00  0.00    -0.003 C 
ATOM     10  C   UNL     1      16.168 -19.627  22.703  1.00  0.00     0.004 C 
ENDBRANCH   8   9
ENDBRANCH   7   8
ENDBRANCH   1   7
TORSDOF 6
ENDMDL
MODEL 3
REMARK VINA RESULT:    -3.149      1.638      2.424
REMARK INTER + INTRA:          -4.709
REMARK INTER:                  -4.485
REMARK INTRA:                  -0.224
REMARK UNBOUND:                -0.456
REMARK SMILES CCCCCCCC(=O)[O-]
REMARK SMILES IDX 5 1 6 2 7 3 8 4 9 5 10 6 4 7 3 8 2 9 1 10
REMARK H PARENT
REMARK Flexibility Score: inf
ROOT
ATOM      1  C   UNL     1      16.963 -22.782  24.769  1.00  0.00     0.000 C 
ENDROOT
BRANCH   1   2
ATOM      2  C   UNL     1      16.514 -21.709  25.773  1.00  0.00     0.006 C 
BRANCH   2   3
ATOM      3  C   UNL     1      15.089 -21.951  26.284  1.00  0.00     0.053 C 
BRANCH   3   4
ATOM      4  C   UNL     1      14.705 -20.971  27.351  1.00  0.00     0.041 C 
ATOM      5  O   UNL     1      14.696 -21.323  28.559  1.00  0.00    -0.550 OA
ATOM      6  O   UNL     1      14.390 -19.661  27.013  1.00  0.00    -0.550 OA
ENDBRANCH   3   4
ENDBRANCH   2   3
ENDBRANCH   1   2
BRANCH   1   7
ATOM      7  C   UNL     1      17.252 -22.165  23.396  1.00  0.00     0.000 C 
BRANCH   7   8
ATOM      8  C   UNL     1      17.816 -20.744  23.539  1.00  0.00    -0.000 C 
BRANCH   8   9
ATOM      9  C   UNL     1      19.341 -20.694  23.354  1.00  0.00    -0.003 C 
ATOM     10  C   UNL     1      19.828 -19.350  22.813  1.00  0.00     0.004 C 
ENDBRANCH   8   9
ENDBRANCH   7   8
ENDBRANCH   1   7
TORSDOF 6
ENDMDL
MODEL 4
REMARK VINA RESULT:    -3.110      3.005      4.603
REMARK INTER + INTRA:          -4.657
REMARK INTER:                  -4.217
REMARK INTRA:                  -0.440
REMARK UNBOUND:                -0.456
REMARK SMILES CCCCCCCC(=O)[O-]
REMARK SMILES IDX 5 1 6 2 7 3 8 4 9 5 10 6 4 7 3 8 2 9 1 10
REMARK H PARENT
REMARK Flexibility Score: inf
ROOT
ATOM      1  C   UNL     1      20.166 -22.860  25.097  1.00  0.00     0.000 C 
ENDROOT
BRANCH   1   2
ATOM      2  C   UNL     1      18.775 -22.230  24.925  1.00  0.00     0.006 C 
BRANCH   2   3
ATOM      3  C   UNL     1      18.697 -21.324  23.690  1.00  0.00     0.053 C 
BRANCH   3   4
ATOM      4  C   UNL     1      17.412 -20.555  23.643  1.00  0.00     0.041 C 
ATOM      5  O   UNL     1      16.526 -20.751  24.516  1.00  0.00    -0.550 OA
ATOM      6  O   UNL     1      17.207 -19.600  22.656  1.00  0.00    -0.550 OA
ENDBRANCH   3   4
ENDBRANCH   2   3
ENDBRANCH   1   2
BRANCH   1   7
ATOM      7  C   UNL     1      20.357 -24.043  24.140  1.00  0.00     0.000 C 
BRANCH   7   8
ATOM      8  C   UNL     1      19.441 -25.214  24.525  1.00  0.00    -0.000 C 
BRANCH   8   9
ATOM      9  C   UNL     1      18.474 -25.602  23.396  1.00  0.00    -0.003 C 
ATOM     10  C   UNL     1      18.643 -24.737  22.147  1.00  0.00     0.004 C 
ENDBRANCH   8   9
ENDBRANCH   7   8
ENDBRANCH   1   7
TORSDOF 6
ENDMDL
MODEL 5
REMARK VINA RESULT:    -3.100      2.008      3.673
REMARK INTER + INTRA:          -4.643
REMARK INTER:                  -4.006
REMARK INTRA:                  -0.637
REMARK UNBOUND:                -0.456
REMARK SMILES CCCCCCCC(=O)[O-]
REMARK SMILES IDX 5 1 6 2 7 3 8 4 9 5 10 6 4 7 3 8 2 9 1 10
REMARK H PARENT
REMARK Flexibility Score: inf
ROOT
ATOM      1  C   UNL     1      17.517 -21.835  25.019  1.00  0.00     0.000 C 
ENDROOT
BRANCH   1   2
ATOM      2  C   UNL     1      17.813 -21.475  23.555  1.00  0.00     0.006 C 
BRANCH   2   3
ATOM      3  C   UNL     1      17.369 -20.049  23.207  1.00  0.00     0.053 C 
BRANCH   3   4
ATOM      4  C   UNL     1      15.974 -20.017  22.660  1.00  0.00     0.041 C 
ATOM      5  O   UNL     1      15.352 -18.925  22.577  1.00  0.00    -0.550 OA
ATOM      6  O   UNL     1      15.376 -21.187  22.211  1.00  0.00    -0.550 OA
ENDBRANCH   3   4
ENDBRANCH   2   3
ENDBRANCH   1   2
BRANCH   1   7
ATOM      7  C   UNL     1      16.459 -22.941  25.112  1.00  0.00     0.000 C 
BRANCH   7   8
ATOM      8  C   UNL     1      15.102 -22.369  25.547  1.00  0.00    -0.000 C 
BRANCH   8   9
ATOM      9  C   UNL     1      15.241 -21.250  26.591  1.00  0.00    -0.003 C 
ATOM     10  C   UNL     1      14.540 -19.958  26.171  1.00  0.00     0.004 C 
ENDBRANCH   8   9
ENDBRANCH   7   8
ENDBRANCH   1   7
TORSDOF 6
ENDMDL
MODEL 6
REMARK VINA RESULT:    -3.088      2.966      4.591
REMARK INTER + INTRA:          -4.627
REMARK INTER:                  -4.254
REMARK INTRA:                  -0.373
REMARK UNBOUND:                -0.456
REMARK SMILES CCCCCCCC(=O)[O-]
REMARK SMILES IDX 5 1 6 2 7 3 8 4 9 5 10 6 4 7 3 8 2 9 1 10
REMARK H PARENT
REMARK Flexibility Score: inf
ROOT
ATOM      1  C   UNL     1      17.235 -22.987  24.466  1.00  0.00     0.000 C 
ENDROOT
BRANCH   1   2
ATOM      2  C   UNL     1      16.646 -22.174  23.303  1.00  0.00     0.006 C 
BRANCH   2   3
ATOM      3  C   UNL     1      16.366 -20.718  23.695  1.00  0.00     0.053 C 
BRANCH   3   4
ATOM      4  C   UNL     1      16.976 -19.752  22.725  1.00  0.00     0.041 C 
ATOM      5  O   UNL     1      18.226 -19.620  22.665  1.00  0.00    -0.550 OA
ATOM      6  O   UNL     1      16.164 -19.025  21.863  1.00  0.00    -0.550 OA
ENDBRANCH   3   4
ENDBRANCH   2   3
ENDBRANCH   1   2
BRANCH   1   7
ATOM      7  C   UNL     1      18.336 -22.199  25.187  1.00  0.00     0.000 C 
BRANCH   7   8
ATOM      8  C   UNL     1      19.665 -22.287  24.423  1.00  0.00    -0.000 C 
BRANCH   8   9
ATOM      9  C   UNL     1      20.690 -23.192  25.125  1.00  0.00    -0.003 C 
ATOM     10  C   UNL     1      20.610 -24.647  24.662  1.00  0.00     0.004 C 
ENDBRANCH   8   9
ENDBRANCH   7   8
ENDBRANCH   1   7
TORSDOF 6
ENDMDL
MODEL 7
REMARK VINA RESULT:    -3.086      2.246      3.177
REMARK INTER + INTRA:          -4.624
REMARK INTER:                  -4.321
REMARK INTRA:                  -0.303
REMARK UNBOUND:                -0.456
REMARK SMILES CCCCCCCC(=O)[O-]
REMARK SMILES IDX 5 1 6 2 7 3 8 4 9 5 10 6 4 7 3 8 2 9 1 10
REMARK H PARENT
REMARK Flexibility Score: inf
ROOT
ATOM      1  C   UNL     1      17.826 -19.614  22.524  1.00  0.00     0.000 C 
ENDROOT
BRANCH   1   2
ATOM      2  C   UNL     1      18.916 -20.373  23.296  1.00  0.00     0.006 C 
BRANCH   2   3
ATOM      3  C   UNL     1      18.478 -21.794  23.673  1.00  0.00     0.053 C 
BRANCH   3   4
ATOM      4  C   UNL     1      18.623 -22.051  25.142  1.00  0.00     0.041 C 
ATOM      5  O   UNL     1      19.710 -22.488  25.603  1.00  0.00    -0.550 OA
ATOM      6  O   UNL     1      17.571 -21.774  26.005  1.00  0.00    -0.550 OA
ENDBRANCH   3   4
ENDBRANCH   2   3
ENDBRANCH   1   2
BRANCH   1   7
ATOM      7  C   UNL     1      16.427 -20.049  22.975  1.00  0.00     0.000 C 
BRANCH   7   8
ATOM      8  C   UNL     1      15.339 -19.249  22.243  1.00  0.00    -0.000 C 
BRANCH   8   9
ATOM      9  C   UNL     1      15.793 -18.769  20.856  1.00  0.00    -0.003 C 
ATOM     10  C   UNL     1      15.343 -17.341  20.548  1.00  0.00     0.004 C 
ENDBRANCH   8   9
ENDBRANCH   7   8
ENDBRANCH   1   7
TORSDOF 6
ENDMDL
MODEL 8
REMARK VINA RESULT:    -3.070      2.222      3.377
REMARK INTER + INTRA:          -4.603
REMARK INTER:                  -4.037
REMARK INTRA:                  -0.566
REMARK UNBOUND:                -0.456
REMARK SMILES CCCCCCCC(=O)[O-]
REMARK SMILES IDX 5 1 6 2 7 3 8 4 9 5 10 6 4 7 3 8 2 9 1 10
REMARK H PARENT
REMARK Flexibility Score: inf
ROOT
ATOM      1  C   UNL     1      16.750 -19.655  22.412  1.00  0.00     0.000 C 
ENDROOT
BRANCH   1   2
ATOM      2  C   UNL     1      17.879 -20.213  23.292  1.00  0.00     0.006 C 
BRANCH   2   3
ATOM      3  C   UNL     1      17.635 -21.673  23.694  1.00  0.00     0.053 C 
BRANCH   3   4
ATOM      4  C   UNL     1      17.941 -21.911  25.141  1.00  0.00     0.041 C 
ATOM      5  O   UNL     1      17.060 -21.702  26.016  1.00  0.00    -0.550 OA
ATOM      6  O   UNL     1      19.186 -22.397  25.519  1.00  0.00    -0.550 OA
ENDBRANCH   3   4
ENDBRANCH   2   3
ENDBRANCH   1   2
BRANCH   1   7
ATOM      7  C   UNL     1      15.500 -20.540  22.494  1.00  0.00     0.000 C 
BRANCH   7   8
ATOM      8  C   UNL     1      14.371 -19.827  23.252  1.00  0.00    -0.000 C 
BRANCH   8   9
ATOM      9  C   UNL     1      14.038 -20.507  24.589  1.00  0.00    -0.003 C 
ATOM     10  C   UNL     1      13.868 -22.021  24.458  1.00  0.00     0.004 C 
ENDBRANCH   8   9
ENDBRANCH   7   8
ENDBRANCH   1   7
TORSDOF 6
ENDMDL
MODEL 9
REMARK VINA RESULT:    -3.036      4.665      5.272
REMARK INTER + INTRA:          -4.556
REMARK INTER:                  -4.269
REMARK INTRA:                  -0.287
REMARK UNBOUND:                -0.456
REMARK SMILES CCCCCCCC(=O)[O-]
REMARK SMILES IDX 5 1 6 2 7 3 8 4 9 5 10 6 4 7 3 8 2 9 1 10
REMARK H PARENT
REMARK Flexibility Score: inf
ROOT
ATOM      1  C   UNL     1      19.370 -21.860  24.058  1.00  0.00     0.000 C 
ENDROOT
BRANCH   1   2
ATOM      2  C   UNL     1      20.142 -22.469  25.238  1.00  0.00     0.006 C 
BRANCH   2   3
ATOM      3  C   UNL     1      20.618 -23.897  24.945  1.00  0.00     0.053 C 
BRANCH   3   4
ATOM      4  C   UNL     1      22.113 -23.998  24.948  1.00  0.00     0.041 C 
ATOM      5  O   UNL     1      22.683 -24.971  24.387  1.00  0.00    -0.550 OA
ATOM      6  O   UNL     1      22.877 -23.000  25.539  1.00  0.00    -0.550 OA
ENDBRANCH   3   4
ENDBRANCH   2   3
ENDBRANCH   1   2
BRANCH   1   7
ATOM      7  C   UNL     1      18.293 -22.825  23.547  1.00  0.00     0.000 C 
BRANCH   7   8
ATOM      8  C   UNL     1      16.983 -22.081  23.253  1.00  0.00    -0.000 C 
BRANCH   8   9
ATOM      9  C   UNL     1      17.046 -20.597  23.646  1.00  0.00    -0.003 C 
ATOM     10  C   UNL     1      16.693 -19.663  22.489  1.00  0.00     0.004 C 
ENDBRANCH   8   9
ENDBRANCH   7   8
ENDBRANCH   1   7
TORSDOF 6
ENDMDL
