MODEL 1
REMARK VINA RESULT:    -3.859      0.000      0.000
REMARK INTER + INTRA:          -4.704
REMARK INTER:                  -4.536
REMARK INTRA:                  -0.167
REMARK UNBOUND:                -0.167
REMARK SMILES O=C([O-])CCC(=O)[O-]
REMARK SMILES IDX 4 1 2 2 1 3 3 4 5 5 6 6 7 7 8 8
REMARK H PARENT
REMARK Flexibility Score: inf
ROOT
ATOM      1  C   UNL     1      47.808  -7.368  25.237  1.00  0.00     0.059 C 
ENDROOT
BRANCH   1   2
ATOM      2  C   UNL     1      48.067  -5.924  24.936  1.00  0.00     0.042 C 
ATOM      3  O   UNL     1      48.398  -5.567  23.774  1.00  0.00    -0.550 OA
ATOM      4  O   UNL     1      47.906  -4.967  25.930  1.00  0.00    -0.550 OA
ENDBRANCH   1   2
BRANCH   1   5
ATOM      5  C   UNL     1      46.530  -7.550  26.062  1.00  0.00     0.059 C 
BRANCH   5   6
ATOM      6  C   UNL     1      45.304  -7.252  25.253  1.00  0.00     0.042 C 
ATOM      7  O   UNL     1      44.998  -7.981  24.273  1.00  0.00    -0.550 OA
ATOM      8  O   UNL     1      44.478  -6.193  25.608  1.00  0.00    -0.550 OA
ENDBRANCH   5   6
ENDBRANCH   1   5
TORSDOF 3
ENDMDL
MODEL 2
REMARK VINA RESULT:    -3.852      0.058      3.275
REMARK INTER + INTRA:          -4.695
REMARK INTER:                  -4.527
REMARK INTRA:                  -0.168
REMARK UNBOUND:                -0.167
REMARK SMILES O=C([O-])CCC(=O)[O-]
REMARK SMILES IDX 4 1 2 2 1 3 3 4 5 5 6 6 7 7 8 8
REMARK H PARENT
REMARK Flexibility Score: inf
ROOT
ATOM      1  C   UNL     1      46.534  -7.543  26.043  1.00  0.00     0.059 C 
ENDROOT
BRANCH   1   2
ATOM      2  C   UNL     1      45.311  -7.279  25.219  1.00  0.00     0.042 C 
ATOM      3  O   UNL     1      45.001  -8.054  24.276  1.00  0.00    -0.550 OA
ATOM      4  O   UNL     1      44.491  -6.198  25.519  1.00  0.00    -0.550 OA
ENDBRANCH   1   2
BRANCH   1   5
ATOM      5  C   UNL     1      47.816  -7.335  25.228  1.00  0.00     0.059 C 
BRANCH   5   6
ATOM      6  C   UNL     1      48.045  -5.886  24.924  1.00  0.00     0.042 C 
ATOM      7  O   UNL     1      48.381  -5.526  23.764  1.00  0.00    -0.550 OA
ATOM      8  O   UNL     1      47.848  -4.928  25.911  1.00  0.00    -0.550 OA
ENDBRANCH   5   6
ENDBRANCH   1   5
TORSDOF 3
ENDMDL
MODEL 3
REMARK VINA RESULT:    -3.673      1.930      2.416
REMARK INTER + INTRA:          -4.485
REMARK INTER:                  -4.371
REMARK INTRA:                  -0.114
REMARK UNBOUND:                -0.167
REMARK SMILES O=C([O-])CCC(=O)[O-]
REMARK SMILES IDX 4 1 2 2 1 3 3 4 5 5 6 6 7 7 8 8
REMARK H PARENT
REMARK Flexibility Score: inf
ROOT
ATOM      1  C   UNL     1      48.929  -7.480  25.011  1.00  0.00     0.059 C 
ENDROOT
BRANCH   1   2
ATOM      2  C   UNL     1      49.371  -6.136  25.502  1.00  0.00     0.042 C 
ATOM      3  O   UNL     1      48.535  -5.203  25.637  1.00  0.00    -0.550 OA
ATOM      4  O   UNL     1      50.700  -5.925  25.848  1.00  0.00    -0.550 OA
ENDBRANCH   1   2
BRANCH   1   5
ATOM      5  C   UNL     1      48.578  -7.447  23.519  1.00  0.00     0.059 C 
BRANCH   5   6
ATOM      6  C   UNL     1      47.096  -7.429  23.302  1.00  0.00     0.042 C 
ATOM      7  O   UNL     1      46.623  -7.544  22.141  1.00  0.00    -0.550 OA
ATOM      8  O   UNL     1      46.235  -7.325  24.389  1.00  0.00    -0.550 OA
ENDBRANCH   5   6
ENDBRANCH   1   5
TORSDOF 3
ENDMDL
MODEL 4
REMARK VINA RESULT:    -3.654      2.227      3.174
REMARK INTER + INTRA:          -4.463
REMARK INTER:                  -4.375
REMARK INTRA:                  -0.088
REMARK UNBOUND:                -0.167
REMARK SMILES O=C([O-])CCC(=O)[O-]
REMARK SMILES IDX 4 1 2 2 1 3 3 4 5 5 6 6 7 7 8 8
REMARK H PARENT
REMARK Flexibility Score: inf
ROOT
ATOM      1  C   UNL     1      48.541  -6.752  23.457  1.00  0.00     0.059 C 
ENDROOT
BRANCH   1   2
ATOM      2  C   UNL     1      48.249  -7.645  22.291  1.00  0.00     0.042 C 
ATOM      3  O   UNL     1      47.082  -8.080  22.102  1.00  0.00    -0.550 OA
ATOM      4  O   UNL     1      49.257  -7.967  21.391  1.00  0.00    -0.550 OA
ENDBRANCH   1   2
BRANCH   1   5
ATOM      5  C   UNL     1      48.310  -7.472  24.790  1.00  0.00     0.059 C 
BRANCH   5   6
ATOM      6  C   UNL     1      47.078  -6.972  25.480  1.00  0.00     0.042 C 
ATOM      7  O   UNL     1      46.936  -5.743  25.714  1.00  0.00    -0.550 OA
ATOM      8  O   UNL     1      46.067  -7.860  25.828  1.00  0.00    -0.550 OA
ENDBRANCH   5   6
ENDBRANCH   1   5
TORSDOF 3
ENDMDL
MODEL 5
REMARK VINA RESULT:    -3.648      1.756      3.944
REMARK INTER + INTRA:          -4.455
REMARK INTER:                  -4.370
REMARK INTRA:                  -0.085
REMARK UNBOUND:                -0.167
REMARK SMILES O=C([O-])CCC(=O)[O-]
REMARK SMILES IDX 4 1 2 2 1 3 3 4 5 5 6 6 7 7 8 8
REMARK H PARENT
REMARK Flexibility Score: inf
ROOT
ATOM      1  C   UNL     1      44.922  -5.935  26.066  1.00  0.00     0.059 C 
ENDROOT
BRANCH   1   2
ATOM      2  C   UNL     1      45.256  -7.347  25.694  1.00  0.00     0.042 C 
ATOM      3  O   UNL     1      45.634  -8.163  26.575  1.00  0.00    -0.550 OA
ATOM      4  O   UNL     1      45.112  -7.772  24.379  1.00  0.00    -0.550 OA
ENDBRANCH   1   2
BRANCH   1   5
ATOM      5  C   UNL     1      45.924  -5.367  27.077  1.00  0.00     0.059 C 
BRANCH   5   6
ATOM      6  C   UNL     1      46.942  -4.493  26.411  1.00  0.00     0.042 C 
ATOM      7  O   UNL     1      46.984  -3.260  26.665  1.00  0.00    -0.550 OA
ATOM      8  O   UNL     1      47.871  -5.047  25.539  1.00  0.00    -0.550 OA
ENDBRANCH   5   6
ENDBRANCH   1   5
TORSDOF 3
ENDMDL
MODEL 6
REMARK VINA RESULT:    -3.640      1.712      2.394
REMARK INTER + INTRA:          -4.446
REMARK INTER:                  -4.352
REMARK INTRA:                  -0.094
REMARK UNBOUND:                -0.167
REMARK SMILES O=C([O-])CCC(=O)[O-]
REMARK SMILES IDX 4 1 2 2 1 3 3 4 5 5 6 6 7 7 8 8
REMARK H PARENT
REMARK Flexibility Score: inf
ROOT
ATOM      1  C   UNL     1      45.962  -5.355  27.022  1.00  0.00     0.059 C 
ENDROOT
BRANCH   1   2
ATOM      2  C   UNL     1      47.020  -4.519  26.369  1.00  0.00     0.042 C 
ATOM      3  O   UNL     1      47.027  -3.269  26.523  1.00  0.00    -0.550 OA
ATOM      4  O   UNL     1      48.022  -5.125  25.621  1.00  0.00    -0.550 OA
ENDBRANCH   1   2
BRANCH   1   5
ATOM      5  C   UNL     1      44.971  -5.911  25.995  1.00  0.00     0.059 C 
BRANCH   5   6
ATOM      6  C   UNL     1      45.302  -7.323  25.619  1.00  0.00     0.042 C 
ATOM      7  O   UNL     1      45.751  -8.121  26.483  1.00  0.00    -0.550 OA
ATOM      8  O   UNL     1      45.075  -7.768  24.322  1.00  0.00    -0.550 OA
ENDBRANCH   5   6
ENDBRANCH   1   5
TORSDOF 3
ENDMDL
MODEL 7
REMARK VINA RESULT:    -3.639      2.335      3.880
REMARK INTER + INTRA:          -4.445
REMARK INTER:                  -4.362
REMARK INTRA:                  -0.083
REMARK UNBOUND:                -0.167
REMARK SMILES O=C([O-])CCC(=O)[O-]
REMARK SMILES IDX 4 1 2 2 1 3 3 4 5 5 6 6 7 7 8 8
REMARK H PARENT
REMARK Flexibility Score: inf
ROOT
ATOM      1  C   UNL     1      47.816  -7.382  24.460  1.00  0.00     0.059 C 
ENDROOT
BRANCH   1   2
ATOM      2  C   UNL     1      47.873  -7.493  22.966  1.00  0.00     0.042 C 
ATOM      3  O   UNL     1      48.981  -7.622  22.382  1.00  0.00    -0.550 OA
ATOM      4  O   UNL     1      46.699  -7.494  22.224  1.00  0.00    -0.550 OA
ENDBRANCH   1   2
BRANCH   1   5
ATOM      5  C   UNL     1      49.218  -7.293  25.071  1.00  0.00     0.059 C 
BRANCH   5   6
ATOM      6  C   UNL     1      49.493  -5.929  25.625  1.00  0.00     0.042 C 
ATOM      7  O   UNL     1      50.677  -5.553  25.830  1.00  0.00    -0.550 OA
ATOM      8  O   UNL     1      48.441  -5.056  25.876  1.00  0.00    -0.550 OA
ENDBRANCH   5   6
ENDBRANCH   1   5
TORSDOF 3
ENDMDL
MODEL 8
REMARK VINA RESULT:    -3.636      1.695      2.262
REMARK INTER + INTRA:          -4.441
REMARK INTER:                  -4.320
REMARK INTRA:                  -0.121
REMARK UNBOUND:                -0.167
REMARK SMILES O=C([O-])CCC(=O)[O-]
REMARK SMILES IDX 4 1 2 2 1 3 3 4 5 5 6 6 7 7 8 8
REMARK H PARENT
REMARK Flexibility Score: inf
ROOT
ATOM      1  C   UNL     1      46.969  -7.356  24.195  1.00  0.00     0.059 C 
ENDROOT
BRANCH   1   2
ATOM      2  C   UNL     1      48.458  -7.490  24.087  1.00  0.00     0.042 C 
ATOM      3  O   UNL     1      49.021  -7.424  22.963  1.00  0.00    -0.550 OA
ATOM      4  O   UNL     1      49.226  -7.647  25.234  1.00  0.00    -0.550 OA
ENDBRANCH   1   2
BRANCH   1   5
ATOM      5  C   UNL     1      46.517  -7.255  25.656  1.00  0.00     0.059 C 
BRANCH   5   6
ATOM      6  C   UNL     1      46.193  -5.842  26.035  1.00  0.00     0.042 C 
ATOM      7  O   UNL     1      47.117  -5.025  26.290  1.00  0.00    -0.550 OA
ATOM      8  O   UNL     1      44.871  -5.417  26.067  1.00  0.00    -0.550 OA
ENDBRANCH   5   6
ENDBRANCH   1   5
TORSDOF 3
ENDMDL
MODEL 9
REMARK VINA RESULT:    -3.622      1.882      2.947
REMARK INTER + INTRA:          -4.425
REMARK INTER:                  -4.337
REMARK INTRA:                  -0.087
REMARK UNBOUND:                -0.167
REMARK SMILES O=C([O-])CCC(=O)[O-]
REMARK SMILES IDX 4 1 2 2 1 3 3 4 5 5 6 6 7 7 8 8
REMARK H PARENT
REMARK Flexibility Score: inf
ROOT
ATOM      1  C   UNL     1      47.242  -7.266  25.063  1.00  0.00     0.059 C 
ENDROOT
BRANCH   1   2
ATOM      2  C   UNL     1      47.090  -5.868  25.579  1.00  0.00     0.042 C 
ATOM      3  O   UNL     1      48.089  -5.104  25.646  1.00  0.00    -0.550 OA
ATOM      4  O   UNL     1      45.837  -5.397  25.950  1.00  0.00    -0.550 OA
ENDBRANCH   1   2
BRANCH   1   5
ATOM      5  C   UNL     1      48.445  -7.391  24.123  1.00  0.00     0.059 C 
BRANCH   5   6
ATOM      6  C   UNL     1      48.016  -7.516  22.692  1.00  0.00     0.042 C 
ATOM      7  O   UNL     1      48.866  -7.750  21.793  1.00  0.00    -0.550 OA
ATOM      8  O   UNL     1      46.671  -7.416  22.358  1.00  0.00    -0.550 OA
ENDBRANCH   5   6
ENDBRANCH   1   5
TORSDOF 3
ENDMDL
