MODEL 1
REMARK VINA RESULT:    -4.749      0.000      0.000
REMARK INTER + INTRA:         -11.735
REMARK INTER:                  -8.913
REMARK INTRA:                  -2.821
REMARK UNBOUND:                -2.821
REMARK SMILES CCCCCCCCC=CCCCCCCCC(=O)[O-]
REMARK SMILES IDX 10 1 9 2 11 3 12 4 13 5 14 6 15 7 16 8 17 9 18 10 19 11
REMARK SMILES IDX 20 12 8 13 7 14 6 15 5 16 4 17 3 18 2 19 1 20
REMARK H PARENT
REMARK Flexibility Score: inf
ROOT
ATOM      1  C   UNL     1      12.883  43.992  29.345  1.00  0.00    -0.031 C 
ATOM      2  C   UNL     1      14.227  43.911  29.377  1.00  0.00    -0.031 C 
ENDROOT
BRANCH   1   3
ATOM      3  C   UNL     1      12.094  44.793  28.336  1.00  0.00     0.027 C 
BRANCH   3   4
ATOM      4  C   UNL     1      10.579  44.649  28.542  1.00  0.00     0.004 C 
BRANCH   4   5
ATOM      5  C   UNL     1      10.210  44.478  30.026  1.00  0.00     0.000 C 
BRANCH   5   6
ATOM      6  C   UNL     1       9.215  45.544  30.513  1.00  0.00     0.000 C 
BRANCH   6   7
ATOM      7  C   UNL     1       8.991  46.657  29.478  1.00  0.00     0.000 C 
BRANCH   7   8
ATOM      8  C   UNL     1       8.900  48.029  30.159  1.00  0.00     0.006 C 
BRANCH   8   9
ATOM      9  C   UNL     1       9.558  49.113  29.301  1.00  0.00     0.053 C 
BRANCH   9  10
ATOM     10  C   UNL     1       8.676  50.317  29.211  1.00  0.00     0.041 C 
ATOM     11  O   UNL     1       8.416  50.830  28.090  1.00  0.00    -0.550 OA
ATOM     12  O   UNL     1       8.096  50.841  30.359  1.00  0.00    -0.550 OA
ENDBRANCH   9  10
ENDBRANCH   8   9
ENDBRANCH   7   8
ENDBRANCH   6   7
ENDBRANCH   5   6
ENDBRANCH   4   5
ENDBRANCH   3   4
ENDBRANCH   1   3
BRANCH   2  13
ATOM     13  C   UNL     1      15.148  44.529  28.356  1.00  0.00     0.027 C 
BRANCH  13  14
ATOM     14  C   UNL     1      15.880  45.738  28.947  1.00  0.00     0.004 C 
BRANCH  14  15
ATOM     15  C   UNL     1      15.297  47.051  28.402  1.00  0.00     0.000 C 
BRANCH  15  16
ATOM     16  C   UNL     1      15.627  48.259  29.294  1.00  0.00     0.000 C 
BRANCH  16  17
ATOM     17  C   UNL     1      14.385  48.819  30.009  1.00  0.00    -0.000 C 
BRANCH  17  18
ATOM     18  C   UNL     1      13.127  47.963  29.780  1.00  0.00    -0.000 C 
BRANCH  18  19
ATOM     19  C   UNL     1      12.518  47.348  31.053  1.00  0.00    -0.003 C 
ATOM     20  C   UNL     1      13.530  46.553  31.877  1.00  0.00     0.004 C 
ENDBRANCH  18  19
ENDBRANCH  17  18
ENDBRANCH  16  17
ENDBRANCH  15  16
ENDBRANCH  14  15
ENDBRANCH  13  14
ENDBRANCH   2  13
TORSDOF 15
ENDMDL
MODEL 2
REMARK VINA RESULT:    -4.715      2.807      6.027
REMARK INTER + INTRA:         -11.670
REMARK INTER:                  -9.402
REMARK INTRA:                  -2.268
REMARK UNBOUND:                -2.821
REMARK SMILES CCCCCCCCC=CCCCCCCCC(=O)[O-]
REMARK SMILES IDX 10 1 9 2 11 3 12 4 13 5 14 6 15 7 16 8 17 9 18 10 19 11
REMARK SMILES IDX 20 12 8 13 7 14 6 15 5 16 4 17 3 18 2 19 1 20
REMARK H PARENT
REMARK Flexibility Score: inf
ROOT
ATOM      1  C   UNL     1      13.170  48.124  29.398  1.00  0.00    -0.031 C 
ATOM      2  C   UNL     1      11.989  47.780  29.946  1.00  0.00    -0.031 C 
ENDROOT
BRANCH   1   3
ATOM      3  C   UNL     1      13.513  47.982  27.934  1.00  0.00     0.027 C 
BRANCH   3   4
ATOM      4  C   UNL     1      15.026  47.851  27.705  1.00  0.00     0.004 C 
BRANCH   4   5
ATOM      5  C   UNL     1      15.693  46.943  28.752  1.00  0.00     0.000 C 
BRANCH   5   6
ATOM      6  C   UNL     1      15.596  45.452  28.388  1.00  0.00     0.000 C 
BRANCH   6   7
ATOM      7  C   UNL     1      14.641  44.680  29.310  1.00  0.00     0.000 C 
BRANCH   7   8
ATOM      8  C   UNL     1      13.390  44.225  28.548  1.00  0.00     0.006 C 
BRANCH   8   9
ATOM      9  C   UNL     1      12.204  44.044  29.498  1.00  0.00     0.053 C 
BRANCH   9  10
ATOM     10  C   UNL     1      10.964  43.711  28.731  1.00  0.00     0.041 C 
ATOM     11  O   UNL     1       9.836  43.786  29.286  1.00  0.00    -0.550 OA
ATOM     12  O   UNL     1      11.049  43.372  27.387  1.00  0.00    -0.550 OA
ENDBRANCH   9  10
ENDBRANCH   8   9
ENDBRANCH   7   8
ENDBRANCH   6   7
ENDBRANCH   5   6
ENDBRANCH   4   5
ENDBRANCH   3   4
ENDBRANCH   1   3
BRANCH   2  13
ATOM     13  C   UNL     1      10.794  47.290  29.168  1.00  0.00     0.027 C 
BRANCH  13  14
ATOM     14  C   UNL     1       9.546  47.252  30.057  1.00  0.00     0.004 C 
BRANCH  14  15
ATOM     15  C   UNL     1       8.471  48.216  29.533  1.00  0.00     0.000 C 
BRANCH  15  16
ATOM     16  C   UNL     1       9.025  49.622  29.252  1.00  0.00     0.000 C 
BRANCH  16  17
ATOM     17  C   UNL     1       8.231  50.724  29.975  1.00  0.00    -0.000 C 
BRANCH  17  18
ATOM     18  C   UNL     1       9.070  51.475  31.024  1.00  0.00    -0.000 C 
BRANCH  18  19
ATOM     19  C   UNL     1      10.129  50.619  31.743  1.00  0.00    -0.003 C 
ATOM     20  C   UNL     1       9.553  49.792  32.892  1.00  0.00     0.004 C 
ENDBRANCH  18  19
ENDBRANCH  17  18
ENDBRANCH  16  17
ENDBRANCH  15  16
ENDBRANCH  14  15
ENDBRANCH  13  14
ENDBRANCH   2  13
TORSDOF 15
ENDMDL
MODEL 3
REMARK VINA RESULT:    -4.694      0.957      3.344
REMARK INTER + INTRA:         -11.632
REMARK INTER:                  -9.054
REMARK INTRA:                  -2.578
REMARK UNBOUND:                -2.821
REMARK SMILES CCCCCCCCC=CCCCCCCCC(=O)[O-]
REMARK SMILES IDX 10 1 9 2 11 3 12 4 13 5 14 6 15 7 16 8 17 9 18 10 19 11
REMARK SMILES IDX 20 12 8 13 7 14 6 15 5 16 4 17 3 18 2 19 1 20
REMARK H PARENT
REMARK Flexibility Score: inf
ROOT
ATOM      1  C   UNL     1      12.958  47.904  28.593  1.00  0.00    -0.031 C 
ATOM      2  C   UNL     1      14.033  47.430  27.934  1.00  0.00    -0.031 C 
ENDROOT
BRANCH   1   3
ATOM      3  C   UNL     1      12.895  48.127  30.085  1.00  0.00     0.027 C 
BRANCH   3   4
ATOM      4  C   UNL     1      12.074  47.042  30.796  1.00  0.00     0.004 C 
BRANCH   4   5
ATOM      5  C   UNL     1      11.357  47.583  32.046  1.00  0.00     0.000 C 
BRANCH   5   6
ATOM      6  C   UNL     1       9.882  47.925  31.779  1.00  0.00     0.000 C 
BRANCH   6   7
ATOM      7  C   UNL     1       9.314  47.177  30.563  1.00  0.00     0.000 C 
BRANCH   7   8
ATOM      8  C   UNL     1       8.584  48.140  29.619  1.00  0.00     0.006 C 
BRANCH   8   9
ATOM      9  C   UNL     1       9.500  49.287  29.187  1.00  0.00     0.053 C 
BRANCH   9  10
ATOM     10  C   UNL     1       8.758  50.586  29.204  1.00  0.00     0.041 C 
ATOM     11  O   UNL     1       7.991  50.864  30.163  1.00  0.00    -0.550 OA
ATOM     12  O   UNL     1       8.956  51.513  28.189  1.00  0.00    -0.550 OA
ENDBRANCH   9  10
ENDBRANCH   8   9
ENDBRANCH   7   8
ENDBRANCH   6   7
ENDBRANCH   5   6
ENDBRANCH   4   5
ENDBRANCH   3   4
ENDBRANCH   1   3
BRANCH   2  13
ATOM     13  C   UNL     1      15.368  47.138  28.569  1.00  0.00     0.027 C 
BRANCH  13  14
ATOM     14  C   UNL     1      15.737  45.660  28.402  1.00  0.00     0.004 C 
BRANCH  14  15
ATOM     15  C   UNL     1      14.814  44.767  29.245  1.00  0.00     0.000 C 
BRANCH  15  16
ATOM     16  C   UNL     1      14.290  43.553  28.460  1.00  0.00     0.000 C 
BRANCH  16  17
ATOM     17  C   UNL     1      12.799  43.283  28.722  1.00  0.00    -0.000 C 
BRANCH  17  18
ATOM     18  C   UNL     1      11.873  44.256  27.970  1.00  0.00    -0.000 C 
BRANCH  18  19
ATOM     19  C   UNL     1      10.508  44.500  28.637  1.00  0.00    -0.003 C 
ATOM     20  C   UNL     1      10.385  43.839  30.009  1.00  0.00     0.004 C 
ENDBRANCH  18  19
ENDBRANCH  17  18
ENDBRANCH  16  17
ENDBRANCH  15  16
ENDBRANCH  14  15
ENDBRANCH  13  14
ENDBRANCH   2  13
TORSDOF 15
ENDMDL
MODEL 4
REMARK VINA RESULT:    -4.634      3.738      6.345
REMARK INTER + INTRA:         -11.519
REMARK INTER:                  -9.143
REMARK INTRA:                  -2.376
REMARK UNBOUND:                -2.821
REMARK SMILES CCCCCCCCC=CCCCCCCCC(=O)[O-]
REMARK SMILES IDX 10 1 9 2 11 3 12 4 13 5 14 6 15 7 16 8 17 9 18 10 19 11
REMARK SMILES IDX 20 12 8 13 7 14 6 15 5 16 4 17 3 18 2 19 1 20
REMARK H PARENT
REMARK Flexibility Score: inf
ROOT
ATOM      1  C   UNL     1      10.634  48.313  31.980  1.00  0.00    -0.031 C 
ATOM      2  C   UNL     1      10.909  48.516  30.678  1.00  0.00    -0.031 C 
ENDROOT
BRANCH   1   3
ATOM      3  C   UNL     1       9.445  47.539  32.497  1.00  0.00     0.027 C 
BRANCH   3   4
ATOM      4  C   UNL     1       9.796  46.075  32.798  1.00  0.00     0.004 C 
BRANCH   4   5
ATOM      5  C   UNL     1       9.035  45.097  31.886  1.00  0.00     0.000 C 
BRANCH   5   6
ATOM      6  C   UNL     1       9.914  44.540  30.754  1.00  0.00     0.000 C 
BRANCH   6   7
ATOM      7  C   UNL     1      11.413  44.742  31.019  1.00  0.00     0.000 C 
BRANCH   7   8
ATOM      8  C   UNL     1      12.230  44.530  29.738  1.00  0.00     0.006 C 
BRANCH   8   9
ATOM      9  C   UNL     1      11.314  44.292  28.535  1.00  0.00     0.053 C 
BRANCH   9  10
ATOM     10  C   UNL     1      11.805  43.135  27.723  1.00  0.00     0.041 C 
ATOM     11  O   UNL     1      11.016  42.513  26.964  1.00  0.00    -0.550 OA
ATOM     12  O   UNL     1      13.147  42.778  27.764  1.00  0.00    -0.550 OA
ENDBRANCH   9  10
ENDBRANCH   8   9
ENDBRANCH   7   8
ENDBRANCH   6   7
ENDBRANCH   5   6
ENDBRANCH   4   5
ENDBRANCH   3   4
ENDBRANCH   1   3
BRANCH   2  13
ATOM     13  C   UNL     1      10.127  47.922  29.533  1.00  0.00     0.027 C 
BRANCH  13  14
ATOM     14  C   UNL     1       8.681  48.428  29.545  1.00  0.00     0.004 C 
BRANCH  14  15
ATOM     15  C   UNL     1       8.617  49.915  29.165  1.00  0.00     0.000 C 
BRANCH  15  16
ATOM     16  C   UNL     1       8.094  50.795  30.312  1.00  0.00     0.000 C 
BRANCH  16  17
ATOM     17  C   UNL     1       9.121  51.848  30.762  1.00  0.00    -0.000 C 
BRANCH  17  18
ATOM     18  C   UNL     1       9.380  51.821  32.279  1.00  0.00    -0.000 C 
BRANCH  18  19
ATOM     19  C   UNL     1       8.118  51.686  33.150  1.00  0.00    -0.003 C 
ATOM     20  C   UNL     1       8.288  50.695  34.301  1.00  0.00     0.004 C 
ENDBRANCH  18  19
ENDBRANCH  17  18
ENDBRANCH  16  17
ENDBRANCH  15  16
ENDBRANCH  14  15
ENDBRANCH  13  14
ENDBRANCH   2  13
TORSDOF 15
ENDMDL
MODEL 5
REMARK VINA RESULT:    -4.609      1.878      3.916
REMARK INTER + INTRA:         -11.472
REMARK INTER:                  -9.943
REMARK INTRA:                  -1.529
REMARK UNBOUND:                -2.821
REMARK SMILES CCCCCCCCC=CCCCCCCCC(=O)[O-]
REMARK SMILES IDX 10 1 9 2 11 3 12 4 13 5 14 6 15 7 16 8 17 9 18 10 19 11
REMARK SMILES IDX 20 12 8 13 7 14 6 15 5 16 4 17 3 18 2 19 1 20
REMARK H PARENT
REMARK Flexibility Score: inf
ROOT
ATOM      1  C   UNL     1      10.200  44.553  31.349  1.00  0.00    -0.031 C 
ATOM      2  C   UNL     1      10.880  43.982  30.337  1.00  0.00    -0.031 C 
ENDROOT
BRANCH   1   3
ATOM      3  C   UNL     1       9.003  45.458  31.177  1.00  0.00     0.027 C 
BRANCH   3   4
ATOM      4  C   UNL     1       9.409  46.933  31.040  1.00  0.00     0.004 C 
BRANCH   4   5
ATOM      5  C   UNL     1       9.072  47.499  29.650  1.00  0.00     0.000 C 
BRANCH   5   6
ATOM      6  C   UNL     1       9.697  48.884  29.410  1.00  0.00     0.000 C 
BRANCH   6   7
ATOM      7  C   UNL     1       8.662  49.929  28.969  1.00  0.00     0.000 C 
BRANCH   7   8
ATOM      8  C   UNL     1       8.204  50.783  30.157  1.00  0.00     0.006 C 
BRANCH   8   9
ATOM      9  C   UNL     1       9.320  50.924  31.196  1.00  0.00     0.053 C 
BRANCH   9  10
ATOM     10  C   UNL     1       8.819  51.643  32.408  1.00  0.00     0.041 C 
ATOM     11  O   UNL     1       9.343  51.429  33.533  1.00  0.00    -0.550 OA
ATOM     12  O   UNL     1       7.811  52.591  32.287  1.00  0.00    -0.550 OA
ENDBRANCH   9  10
ENDBRANCH   8   9
ENDBRANCH   7   8
ENDBRANCH   6   7
ENDBRANCH   5   6
ENDBRANCH   4   5
ENDBRANCH   3   4
ENDBRANCH   1   3
BRANCH   2  13
ATOM     13  C   UNL     1      10.496  44.080  28.883  1.00  0.00     0.027 C 
BRANCH  13  14
ATOM     14  C   UNL     1      11.741  44.228  28.001  1.00  0.00     0.004 C 
BRANCH  14  15
ATOM     15  C   UNL     1      12.679  43.023  28.170  1.00  0.00     0.000 C 
BRANCH  15  16
ATOM     16  C   UNL     1      14.159  43.432  28.240  1.00  0.00     0.000 C 
BRANCH  16  17
ATOM     17  C   UNL     1      14.372  44.738  29.024  1.00  0.00    -0.000 C 
BRANCH  17  18
ATOM     18  C   UNL     1      15.572  45.554  28.511  1.00  0.00    -0.000 C 
BRANCH  18  19
ATOM     19  C   UNL     1      15.274  47.037  28.223  1.00  0.00    -0.003 C 
ATOM     20  C   UNL     1      13.778  47.348  28.173  1.00  0.00     0.004 C 
ENDBRANCH  18  19
ENDBRANCH  17  18
ENDBRANCH  16  17
ENDBRANCH  15  16
ENDBRANCH  14  15
ENDBRANCH  13  14
ENDBRANCH   2  13
TORSDOF 15
ENDMDL
MODEL 6
REMARK VINA RESULT:    -4.597      3.144      5.404
REMARK INTER + INTRA:         -11.450
REMARK INTER:                  -8.656
REMARK INTRA:                  -2.794
REMARK UNBOUND:                -2.821
REMARK SMILES CCCCCCCCC=CCCCCCCCC(=O)[O-]
REMARK SMILES IDX 10 1 9 2 11 3 12 4 13 5 14 6 15 7 16 8 17 9 18 10 19 11
REMARK SMILES IDX 20 12 8 13 7 14 6 15 5 16 4 17 3 18 2 19 1 20
REMARK H PARENT
REMARK Flexibility Score: inf
ROOT
ATOM      1  C   UNL     1       9.044  45.711  30.327  1.00  0.00    -0.031 C 
ATOM      2  C   UNL     1       9.368  46.764  29.552  1.00  0.00    -0.031 C 
ENDROOT
BRANCH   1   3
ATOM      3  C   UNL     1      10.004  44.620  30.739  1.00  0.00     0.027 C 
BRANCH   3   4
ATOM      4  C   UNL     1      10.670  44.918  32.091  1.00  0.00     0.004 C 
BRANCH   4   5
ATOM      5  C   UNL     1      12.083  44.317  32.185  1.00  0.00     0.000 C 
BRANCH   5   6
ATOM      6  C   UNL     1      12.813  44.308  30.832  1.00  0.00     0.000 C 
BRANCH   6   7
ATOM      7  C   UNL     1      13.648  43.037  30.620  1.00  0.00     0.000 C 
BRANCH   7   8
ATOM      8  C   UNL     1      13.762  42.697  29.129  1.00  0.00     0.006 C 
BRANCH   8   9
ATOM      9  C   UNL     1      12.914  43.649  28.281  1.00  0.00     0.053 C 
BRANCH   9  10
ATOM     10  C   UNL     1      11.845  42.894  27.557  1.00  0.00     0.041 C 
ATOM     11  O   UNL     1      10.689  43.382  27.446  1.00  0.00    -0.550 OA
ATOM     12  O   UNL     1      12.138  41.676  26.958  1.00  0.00    -0.550 OA
ENDBRANCH   9  10
ENDBRANCH   8   9
ENDBRANCH   7   8
ENDBRANCH   6   7
ENDBRANCH   5   6
ENDBRANCH   4   5
ENDBRANCH   3   4
ENDBRANCH   1   3
BRANCH   2  13
ATOM     13  C   UNL     1      10.758  47.067  29.054  1.00  0.00     0.027 C 
BRANCH  13  14
ATOM     14  C   UNL     1      11.529  47.907  30.077  1.00  0.00     0.004 C 
BRANCH  14  15
ATOM     15  C   UNL     1      13.042  47.831  29.820  1.00  0.00     0.000 C 
BRANCH  15  16
ATOM     16  C   UNL     1      13.377  47.259  28.433  1.00  0.00     0.000 C 
BRANCH  16  17
ATOM     17  C   UNL     1      14.885  47.286  28.133  1.00  0.00    -0.000 C 
BRANCH  17  18
ATOM     18  C   UNL     1      15.590  45.966  28.491  1.00  0.00    -0.000 C 
BRANCH  18  19
ATOM     19  C   UNL     1      16.400  45.996  29.800  1.00  0.00    -0.003 C 
ATOM     20  C   UNL     1      16.774  47.411  30.240  1.00  0.00     0.004 C 
ENDBRANCH  18  19
ENDBRANCH  17  18
ENDBRANCH  16  17
ENDBRANCH  15  16
ENDBRANCH  14  15
ENDBRANCH  13  14
ENDBRANCH   2  13
TORSDOF 15
ENDMDL
MODEL 7
REMARK VINA RESULT:    -4.539      3.568      6.564
REMARK INTER + INTRA:         -11.341
REMARK INTER:                  -8.741
REMARK INTRA:                  -2.600
REMARK UNBOUND:                -2.821
REMARK SMILES CCCCCCCCC=CCCCCCCCC(=O)[O-]
REMARK SMILES IDX 10 1 9 2 11 3 12 4 13 5 14 6 15 7 16 8 17 9 18 10 19 11
REMARK SMILES IDX 20 12 8 13 7 14 6 15 5 16 4 17 3 18 2 19 1 20
REMARK H PARENT
REMARK Flexibility Score: inf
ROOT
ATOM      1  C   UNL     1      12.906  47.766  28.600  1.00  0.00    -0.031 C 
ATOM      2  C   UNL     1      11.856  46.968  28.875  1.00  0.00    -0.031 C 
ENDROOT
BRANCH   1   3
ATOM      3  C   UNL     1      14.136  47.336  27.837  1.00  0.00     0.027 C 
BRANCH   3   4
ATOM      4  C   UNL     1      15.431  47.703  28.577  1.00  0.00     0.004 C 
BRANCH   4   5
ATOM      5  C   UNL     1      16.024  46.504  29.336  1.00  0.00     0.000 C 
BRANCH   5   6
ATOM      6  C   UNL     1      15.413  45.164  28.893  1.00  0.00     0.000 C 
BRANCH   6   7
ATOM      7  C   UNL     1      14.688  44.440  30.037  1.00  0.00     0.000 C 
BRANCH   7   8
ATOM      8  C   UNL     1      14.182  43.065  29.583  1.00  0.00     0.006 C 
BRANCH   8   9
ATOM      9  C   UNL     1      14.123  42.977  28.056  1.00  0.00     0.053 C 
BRANCH   9  10
ATOM     10  C   UNL     1      13.251  41.840  27.630  1.00  0.00     0.041 C 
ATOM     11  O   UNL     1      11.998  41.935  27.716  1.00  0.00    -0.550 OA
ATOM     12  O   UNL     1      13.818  40.694  27.086  1.00  0.00    -0.550 OA
ENDBRANCH   9  10
ENDBRANCH   8   9
ENDBRANCH   7   8
ENDBRANCH   6   7
ENDBRANCH   5   6
ENDBRANCH   4   5
ENDBRANCH   3   4
ENDBRANCH   1   3
BRANCH   2  13
ATOM     13  C   UNL     1      11.705  45.551  28.384  1.00  0.00     0.027 C 
BRANCH  13  14
ATOM     14  C   UNL     1      10.450  44.902  28.976  1.00  0.00     0.004 C 
BRANCH  14  15
ATOM     15  C   UNL     1      10.752  44.272  30.344  1.00  0.00     0.000 C 
BRANCH  15  16
ATOM     16  C   UNL     1       9.771  44.729  31.435  1.00  0.00     0.000 C 
BRANCH  16  17
ATOM     17  C   UNL     1       9.018  46.013  31.049  1.00  0.00    -0.000 C 
BRANCH  17  18
ATOM     18  C   UNL     1       9.555  47.262  31.771  1.00  0.00    -0.000 C 
BRANCH  18  19
ATOM     19  C   UNL     1       9.331  48.590  31.026  1.00  0.00    -0.003 C 
ATOM     20  C   UNL     1       8.807  48.397  29.603  1.00  0.00     0.004 C 
ENDBRANCH  18  19
ENDBRANCH  17  18
ENDBRANCH  16  17
ENDBRANCH  15  16
ENDBRANCH  14  15
ENDBRANCH  13  14
ENDBRANCH   2  13
TORSDOF 15
ENDMDL
MODEL 8
REMARK VINA RESULT:    -4.519      1.069      3.071
REMARK INTER + INTRA:         -11.304
REMARK INTER:                  -8.694
REMARK INTRA:                  -2.610
REMARK UNBOUND:                -2.821
REMARK SMILES CCCCCCCCC=CCCCCCCCC(=O)[O-]
REMARK SMILES IDX 10 1 9 2 11 3 12 4 13 5 14 6 15 7 16 8 17 9 18 10 19 11
REMARK SMILES IDX 20 12 8 13 7 14 6 15 5 16 4 17 3 18 2 19 1 20
REMARK H PARENT
REMARK Flexibility Score: inf
ROOT
ATOM      1  C   UNL     1      11.899  45.874  32.576  1.00  0.00    -0.031 C 
ATOM      2  C   UNL     1      12.884  46.541  31.945  1.00  0.00    -0.031 C 
ENDROOT
BRANCH   1   3
ATOM      3  C   UNL     1      10.559  46.465  32.944  1.00  0.00     0.027 C 
BRANCH   3   4
ATOM      4  C   UNL     1       9.391  45.587  32.470  1.00  0.00     0.004 C 
BRANCH   4   5
ATOM      5  C   UNL     1       9.728  44.824  31.177  1.00  0.00     0.000 C 
BRANCH   5   6
ATOM      6  C   UNL     1       9.008  45.403  29.947  1.00  0.00     0.000 C 
BRANCH   6   7
ATOM      7  C   UNL     1       9.645  46.709  29.452  1.00  0.00     0.000 C 
BRANCH   7   8
ATOM      8  C   UNL     1       8.652  47.874  29.545  1.00  0.00     0.006 C 
BRANCH   8   9
ATOM      9  C   UNL     1       9.345  49.150  30.030  1.00  0.00     0.053 C 
BRANCH   9  10
ATOM     10  C   UNL     1       8.521  50.353  29.697  1.00  0.00     0.041 C 
ATOM     11  O   UNL     1       8.062  51.080  30.616  1.00  0.00    -0.550 OA
ATOM     12  O   UNL     1       8.306  50.703  28.370  1.00  0.00    -0.550 OA
ENDBRANCH   9  10
ENDBRANCH   8   9
ENDBRANCH   7   8
ENDBRANCH   6   7
ENDBRANCH   5   6
ENDBRANCH   4   5
ENDBRANCH   3   4
ENDBRANCH   1   3
BRANCH   2  13
ATOM     13  C   UNL     1      12.767  47.951  31.424  1.00  0.00     0.027 C 
BRANCH  13  14
ATOM     14  C   UNL     1      13.083  48.004  29.926  1.00  0.00     0.004 C 
BRANCH  14  15
ATOM     15  C   UNL     1      14.412  48.731  29.672  1.00  0.00     0.000 C 
BRANCH  15  16
ATOM     16  C   UNL     1      15.522  47.782  29.192  1.00  0.00     0.000 C 
BRANCH  16  17
ATOM     17  C   UNL     1      14.976  46.617  28.349  1.00  0.00    -0.000 C 
BRANCH  17  18
ATOM     18  C   UNL     1      15.231  45.243  28.993  1.00  0.00    -0.000 C 
BRANCH  18  19
ATOM     19  C   UNL     1      14.213  44.151  28.617  1.00  0.00    -0.003 C 
ATOM     20  C   UNL     1      12.763  44.618  28.732  1.00  0.00     0.004 C 
ENDBRANCH  18  19
ENDBRANCH  17  18
ENDBRANCH  16  17
ENDBRANCH  15  16
ENDBRANCH  14  15
ENDBRANCH  13  14
ENDBRANCH   2  13
TORSDOF 15
ENDMDL
MODEL 9
REMARK VINA RESULT:    -4.493      3.820      5.725
REMARK INTER + INTRA:         -11.254
REMARK INTER:                  -8.763
REMARK INTRA:                  -2.490
REMARK UNBOUND:                -2.821
REMARK SMILES CCCCCCCCC=CCCCCCCCC(=O)[O-]
REMARK SMILES IDX 10 1 9 2 11 3 12 4 13 5 14 6 15 7 16 8 17 9 18 10 19 11
REMARK SMILES IDX 20 12 8 13 7 14 6 15 5 16 4 17 3 18 2 19 1 20
REMARK H PARENT
REMARK Flexibility Score: inf
ROOT
ATOM      1  C   UNL     1       9.401  47.451  30.434  1.00  0.00    -0.031 C 
ATOM      2  C   UNL     1      10.405  47.987  29.714  1.00  0.00    -0.031 C 
ENDROOT
BRANCH   1   3
ATOM      3  C   UNL     1       8.990  45.999  30.385  1.00  0.00     0.027 C 
BRANCH   3   4
ATOM      4  C   UNL     1       9.276  45.273  31.708  1.00  0.00     0.004 C 
BRANCH   4   5
ATOM      5  C   UNL     1      10.528  44.384  31.621  1.00  0.00     0.000 C 
BRANCH   5   6
ATOM      6  C   UNL     1      10.773  43.845  30.202  1.00  0.00     0.000 C 
BRANCH   6   7
ATOM      7  C   UNL     1      12.266  43.702  29.875  1.00  0.00     0.000 C 
BRANCH   7   8
ATOM      8  C   UNL     1      12.486  43.560  28.364  1.00  0.00     0.006 C 
BRANCH   8   9
ATOM      9  C   UNL     1      13.733  42.723  28.066  1.00  0.00     0.053 C 
BRANCH   9  10
ATOM     10  C   UNL     1      13.365  41.480  27.320  1.00  0.00     0.041 C 
ATOM     11  O   UNL     1      14.263  40.719  26.874  1.00  0.00    -0.550 OA
ATOM     12  O   UNL     1      12.028  41.134  27.163  1.00  0.00    -0.550 OA
ENDBRANCH   9  10
ENDBRANCH   8   9
ENDBRANCH   7   8
ENDBRANCH   6   7
ENDBRANCH   5   6
ENDBRANCH   4   5
ENDBRANCH   3   4
ENDBRANCH   1   3
BRANCH   2  13
ATOM     13  C   UNL     1      11.334  47.204  28.822  1.00  0.00     0.027 C 
BRANCH  13  14
ATOM     14  C   UNL     1      12.797  47.536  29.136  1.00  0.00     0.004 C 
BRANCH  14  15
ATOM     15  C   UNL     1      13.634  47.593  27.850  1.00  0.00     0.000 C 
BRANCH  15  16
ATOM     16  C   UNL     1      15.137  47.402  28.115  1.00  0.00     0.000 C 
BRANCH  16  17
ATOM     17  C   UNL     1      15.485  45.957  28.510  1.00  0.00    -0.000 C 
BRANCH  17  18
ATOM     18  C   UNL     1      16.147  45.859  29.896  1.00  0.00    -0.000 C 
BRANCH  18  19
ATOM     19  C   UNL     1      15.199  45.463  31.042  1.00  0.00    -0.003 C 
ATOM     20  C   UNL     1      15.526  44.097  31.645  1.00  0.00     0.004 C 
ENDBRANCH  18  19
ENDBRANCH  17  18
ENDBRANCH  16  17
ENDBRANCH  15  16
ENDBRANCH  14  15
ENDBRANCH  13  14
ENDBRANCH   2  13
TORSDOF 15
ENDMDL
