MODEL 1
REMARK VINA RESULT:    -7.763      0.000      0.000
REMARK INTER + INTRA:          -9.418
REMARK INTER:                  -9.124
REMARK INTRA:                  -0.294
REMARK UNBOUND:                -0.294
REMARK SMILES O=c1cc(-c2ccc(O)c(O)c2)oc2cc(O)cc(O)c12
REMARK SMILES IDX 4 1 3 2 2 3 1 4 21 5 19 6 18 7 16 8 15 9 14 10 13 11 5 12
REMARK SMILES IDX 6 13 7 14 8 15 12 16 10 17 9 18 11 20 20 22 17 24
REMARK H PARENT 9 19 11 21 20 23 17 25
REMARK Flexibility Score: inf
ROOT
ATOM      1  C   UNL     1      61.651 151.930   3.293  1.00  0.00     0.138 A 
ATOM      2  C   UNL     1      63.039 151.831   3.099  1.00  0.00     0.100 A 
ATOM      3  C   UNL     1      63.796 151.030   3.955  1.00  0.00     0.197 A 
ATOM      4  O   UNL     1      65.041 150.949   3.773  1.00  0.00    -0.289 OA
ATOM      5  C   UNL     1      63.160 150.335   5.002  1.00  0.00     0.107 A 
ATOM      6  C   UNL     1      63.852 149.502   5.913  1.00  0.00     0.134 A 
ATOM      7  C   UNL     1      63.145 148.848   6.933  1.00  0.00     0.093 A 
ATOM      8  C   UNL     1      61.764 149.012   7.060  1.00  0.00     0.123 A 
ATOM      9  C   UNL     1      61.074 149.835   6.164  1.00  0.00     0.094 A 
ATOM     10  C   UNL     1      61.760 150.493   5.140  1.00  0.00     0.146 A 
ATOM     11  O   UNL     1      61.082 151.268   4.299  1.00  0.00    -0.456 OA
ENDROOT
BRANCH   1  12
ATOM     12  C   UNL     1      60.795 152.767   2.416  1.00  0.00     0.021 A 
ATOM     13  C   UNL     1      59.501 153.117   2.841  1.00  0.00     0.016 A 
ATOM     14  C   UNL     1      58.674 153.898   2.031  1.00  0.00     0.051 A 
ATOM     15  C   UNL     1      59.120 154.335   0.778  1.00  0.00     0.157 A 
ATOM     16  C   UNL     1      61.233 153.199   1.148  1.00  0.00     0.062 A 
ATOM     17  C   UNL     1      60.400 153.983   0.335  1.00  0.00     0.158 A 
BRANCH  15  18
ATOM     18  O   UNL     1      58.298 155.115  -0.032  1.00  0.00    -0.504 OA
ATOM     19  H   UNL     1      57.313 155.238   0.173  1.00  0.00     0.293 HD
ENDBRANCH  15  18
BRANCH  17  20
ATOM     20  O   UNL     1      60.838 154.410  -0.918  1.00  0.00    -0.504 OA
ATOM     21  H   UNL     1      60.337 154.169  -1.766  1.00  0.00     0.293 HD
ENDBRANCH  17  20
ENDBRANCH   1  12
BRANCH   6  22
ATOM     22  O   UNL     1      65.232 149.319   5.812  1.00  0.00    -0.507 OA
ATOM     23  H   UNL     1      65.850 150.069   5.523  1.00  0.00     0.293 HD
ENDBRANCH   6  22
BRANCH   8  24
ATOM     24  O   UNL     1      61.086 148.353   8.083  1.00  0.00    -0.508 OA
ATOM     25  H   UNL     1      61.448 148.327   9.029  1.00  0.00     0.293 HD
ENDBRANCH   8  24
TORSDOF 5
ENDMDL
MODEL 2
REMARK VINA RESULT:    -7.178      1.357      2.790
REMARK INTER + INTRA:          -8.731
REMARK INTER:                  -8.419
REMARK INTRA:                  -0.312
REMARK UNBOUND:                -0.294
REMARK SMILES O=c1cc(-c2ccc(O)c(O)c2)oc2cc(O)cc(O)c12
REMARK SMILES IDX 4 1 3 2 2 3 1 4 21 5 19 6 18 7 16 8 15 9 14 10 13 11 5 12
REMARK SMILES IDX 6 13 7 14 8 15 12 16 10 17 9 18 11 20 20 22 17 24
REMARK H PARENT 9 19 11 21 20 23 17 25
REMARK Flexibility Score: inf
ROOT
ATOM      1  C   UNL     1      60.477 152.339   4.307  1.00  0.00     0.138 A 
ATOM      2  C   UNL     1      59.929 152.028   5.563  1.00  0.00     0.100 A 
ATOM      3  C   UNL     1      60.593 151.128   6.398  1.00  0.00     0.197 A 
ATOM      4  O   UNL     1      60.093 150.855   7.523  1.00  0.00    -0.289 OA
ATOM      5  C   UNL     1      61.801 150.542   5.969  1.00  0.00     0.107 A 
ATOM      6  C   UNL     1      62.537 149.622   6.753  1.00  0.00     0.134 A 
ATOM      7  C   UNL     1      63.729 149.079   6.251  1.00  0.00     0.093 A 
ATOM      8  C   UNL     1      64.195 149.435   4.983  1.00  0.00     0.123 A 
ATOM      9  C   UNL     1      63.472 150.343   4.203  1.00  0.00     0.094 A 
ATOM     10  C   UNL     1      62.283 150.897   4.687  1.00  0.00     0.146 A 
ATOM     11  O   UNL     1      61.614 151.759   3.928  1.00  0.00    -0.456 OA
ENDROOT
BRANCH   1  12
ATOM     12  C   UNL     1      59.815 153.286   3.376  1.00  0.00     0.021 A 
ATOM     13  C   UNL     1      58.890 154.219   3.878  1.00  0.00     0.016 A 
ATOM     14  C   UNL     1      58.248 155.115   3.021  1.00  0.00     0.051 A 
ATOM     15  C   UNL     1      58.512 155.091   1.647  1.00  0.00     0.157 A 
ATOM     16  C   UNL     1      60.065 153.258   1.989  1.00  0.00     0.062 A 
ATOM     17  C   UNL     1      59.419 154.159   1.130  1.00  0.00     0.158 A 
BRANCH  15  18
ATOM     18  O   UNL     1      57.875 155.985   0.789  1.00  0.00    -0.504 OA
ATOM     19  H   UNL     1      58.239 156.184  -0.136  1.00  0.00     0.293 HD
ENDBRANCH  15  18
BRANCH  17  20
ATOM     20  O   UNL     1      59.671 154.129  -0.241  1.00  0.00    -0.504 OA
ATOM     21  H   UNL     1      59.040 153.669  -0.887  1.00  0.00     0.293 HD
ENDBRANCH  17  20
ENDBRANCH   1  12
BRANCH   6  22
ATOM     22  O   UNL     1      62.096 149.247   8.023  1.00  0.00    -0.507 OA
ATOM     23  H   UNL     1      62.712 149.263   8.827  1.00  0.00     0.293 HD
ENDBRANCH   6  22
BRANCH   8  24
ATOM     24  O   UNL     1      65.382 148.879   4.508  1.00  0.00    -0.508 OA
ATOM     25  H   UNL     1      65.808 149.199   3.646  1.00  0.00     0.293 HD
ENDBRANCH   8  24
TORSDOF 5
ENDMDL
MODEL 3
REMARK VINA RESULT:    -6.908      2.310      6.861
REMARK INTER + INTRA:          -8.414
REMARK INTER:                  -8.150
REMARK INTRA:                  -0.264
REMARK UNBOUND:                -0.294
REMARK SMILES O=c1cc(-c2ccc(O)c(O)c2)oc2cc(O)cc(O)c12
REMARK SMILES IDX 4 1 3 2 2 3 1 4 21 5 19 6 18 7 16 8 15 9 14 10 13 11 5 12
REMARK SMILES IDX 6 13 7 14 8 15 12 16 10 17 9 18 11 20 20 22 17 24
REMARK H PARENT 9 19 11 21 20 23 17 25
REMARK Flexibility Score: inf
ROOT
ATOM      1  C   UNL     1      61.497 151.979   4.198  1.00  0.00     0.138 A 
ATOM      2  C   UNL     1      61.053 152.036   2.866  1.00  0.00     0.100 A 
ATOM      3  C   UNL     1      60.036 152.927   2.518  1.00  0.00     0.197 A 
ATOM      4  O   UNL     1      59.644 152.970   1.321  1.00  0.00    -0.289 OA
ATOM      5  C   UNL     1      59.466 153.753   3.508  1.00  0.00     0.107 A 
ATOM      6  C   UNL     1      58.433 154.682   3.241  1.00  0.00     0.134 A 
ATOM      7  C   UNL     1      57.916 155.465   4.283  1.00  0.00     0.093 A 
ATOM      8  C   UNL     1      58.409 155.335   5.584  1.00  0.00     0.123 A 
ATOM      9  C   UNL     1      59.429 154.417   5.855  1.00  0.00     0.094 A 
ATOM     10  C   UNL     1      59.959 153.630   4.829  1.00  0.00     0.146 A 
ATOM     11  O   UNL     1      60.930 152.766   5.110  1.00  0.00    -0.456 OA
ENDROOT
BRANCH   1  12
ATOM     12  C   UNL     1      62.573 151.051   4.626  1.00  0.00     0.021 A 
ATOM     13  C   UNL     1      63.909 151.489   4.619  1.00  0.00     0.016 A 
ATOM     14  C   UNL     1      64.940 150.633   5.010  1.00  0.00     0.051 A 
ATOM     15  C   UNL     1      64.656 149.321   5.408  1.00  0.00     0.157 A 
ATOM     16  C   UNL     1      62.296 149.725   5.015  1.00  0.00     0.062 A 
ATOM     17  C   UNL     1      63.332 148.865   5.407  1.00  0.00     0.158 A 
BRANCH  15  18
ATOM     18  O   UNL     1      65.682 148.464   5.801  1.00  0.00    -0.504 OA
ATOM     19  H   UNL     1      66.340 148.082   5.131  1.00  0.00     0.293 HD
ENDBRANCH  15  18
BRANCH  17  20
ATOM     20  O   UNL     1      63.054 147.555   5.792  1.00  0.00    -0.504 OA
ATOM     21  H   UNL     1      63.423 147.165   6.652  1.00  0.00     0.293 HD
ENDBRANCH  17  20
ENDBRANCH   1  12
BRANCH   6  22
ATOM     22  O   UNL     1      57.921 154.835   1.952  1.00  0.00    -0.507 OA
ATOM     23  H   UNL     1      57.960 155.722   1.464  1.00  0.00     0.293 HD
ENDBRANCH   6  22
BRANCH   8  24
ATOM     24  O   UNL     1      57.876 156.123   6.602  1.00  0.00    -0.508 OA
ATOM     25  H   UNL     1      56.918 156.011   6.914  1.00  0.00     0.293 HD
ENDBRANCH   8  24
TORSDOF 5
ENDMDL
MODEL 4
REMARK VINA RESULT:    -6.892      2.371      7.159
REMARK INTER + INTRA:          -8.394
REMARK INTER:                  -8.127
REMARK INTRA:                  -0.267
REMARK UNBOUND:                -0.294
REMARK SMILES O=c1cc(-c2ccc(O)c(O)c2)oc2cc(O)cc(O)c12
REMARK SMILES IDX 4 1 3 2 2 3 1 4 21 5 19 6 18 7 16 8 15 9 14 10 13 11 5 12
REMARK SMILES IDX 6 13 7 14 8 15 12 16 10 17 9 18 11 20 20 22 17 24
REMARK H PARENT 9 19 11 21 20 23 17 25
REMARK Flexibility Score: inf
ROOT
ATOM      1  C   UNL     1      61.486 152.260   5.256  1.00  0.00     0.138 A 
ATOM      2  C   UNL     1      61.055 153.031   6.348  1.00  0.00     0.100 A 
ATOM      3  C   UNL     1      60.041 153.972   6.167  1.00  0.00     0.197 A 
ATOM      4  O   UNL     1      59.662 154.659   7.154  1.00  0.00    -0.289 OA
ATOM      5  C   UNL     1      59.466 154.139   4.891  1.00  0.00     0.107 A 
ATOM      6  C   UNL     1      58.435 155.069   4.621  1.00  0.00     0.134 A 
ATOM      7  C   UNL     1      57.920 155.178   3.322  1.00  0.00     0.093 A 
ATOM      8  C   UNL     1      58.416 154.379   2.289  1.00  0.00     0.123 A 
ATOM      9  C   UNL     1      59.437 153.458   2.549  1.00  0.00     0.094 A 
ATOM     10  C   UNL     1      59.961 153.333   3.839  1.00  0.00     0.146 A 
ATOM     11  O   UNL     1      60.930 152.450   4.061  1.00  0.00    -0.456 OA
ENDROOT
BRANCH   1  12
ATOM     12  C   UNL     1      62.561 151.245   5.388  1.00  0.00     0.021 A 
ATOM     13  C   UNL     1      63.906 151.654   5.373  1.00  0.00     0.016 A 
ATOM     14  C   UNL     1      64.935 150.718   5.489  1.00  0.00     0.051 A 
ATOM     15  C   UNL     1      64.641 149.355   5.611  1.00  0.00     0.157 A 
ATOM     16  C   UNL     1      62.272 149.870   5.499  1.00  0.00     0.062 A 
ATOM     17  C   UNL     1      63.307 148.930   5.613  1.00  0.00     0.158 A 
BRANCH  15  18
ATOM     18  O   UNL     1      65.665 148.419   5.728  1.00  0.00    -0.504 OA
ATOM     19  H   UNL     1      66.626 148.652   5.505  1.00  0.00     0.293 HD
ENDBRANCH  15  18
BRANCH  17  20
ATOM     20  O   UNL     1      63.017 147.571   5.724  1.00  0.00    -0.504 OA
ATOM     21  H   UNL     1      63.323 146.904   5.025  1.00  0.00     0.293 HD
ENDBRANCH  17  20
ENDBRANCH   1  12
BRANCH   6  22
ATOM     22  O   UNL     1      57.919 155.882   5.632  1.00  0.00    -0.507 OA
ATOM     23  H   UNL     1      58.515 156.304   6.334  1.00  0.00     0.293 HD
ENDBRANCH   6  22
BRANCH   8  24
ATOM     24  O   UNL     1      57.888 154.508   1.006  1.00  0.00    -0.508 OA
ATOM     25  H   UNL     1      58.486 154.574   0.191  1.00  0.00     0.293 HD
ENDBRANCH   8  24
TORSDOF 5
ENDMDL
MODEL 5
REMARK VINA RESULT:    -5.965      1.793      3.428
REMARK INTER + INTRA:          -7.305
REMARK INTER:                  -7.008
REMARK INTRA:                  -0.297
REMARK UNBOUND:                -0.294
REMARK SMILES O=c1cc(-c2ccc(O)c(O)c2)oc2cc(O)cc(O)c12
REMARK SMILES IDX 4 1 3 2 2 3 1 4 21 5 19 6 18 7 16 8 15 9 14 10 13 11 5 12
REMARK SMILES IDX 6 13 7 14 8 15 12 16 10 17 9 18 11 20 20 22 17 24
REMARK H PARENT 9 19 11 21 20 23 17 25
REMARK Flexibility Score: inf
ROOT
ATOM      1  C   UNL     1      60.091 152.531   4.011  1.00  0.00     0.138 A 
ATOM      2  C   UNL     1      59.060 152.834   4.915  1.00  0.00     0.100 A 
ATOM      3  C   UNL     1      59.093 152.293   6.201  1.00  0.00     0.197 A 
ATOM      4  O   UNL     1      58.162 152.571   7.005  1.00  0.00    -0.289 OA
ATOM      5  C   UNL     1      60.156 151.448   6.574  1.00  0.00     0.107 A 
ATOM      6  C   UNL     1      60.266 150.858   7.855  1.00  0.00     0.134 A 
ATOM      7  C   UNL     1      61.355 150.023   8.146  1.00  0.00     0.093 A 
ATOM      8  C   UNL     1      62.331 149.764   7.181  1.00  0.00     0.123 A 
ATOM      9  C   UNL     1      62.228 150.343   5.911  1.00  0.00     0.094 A 
ATOM     10  C   UNL     1      61.152 151.180   5.604  1.00  0.00     0.146 A 
ATOM     11  O   UNL     1      61.076 151.720   4.391  1.00  0.00    -0.456 OA
ENDROOT
BRANCH   1  12
ATOM     12  C   UNL     1      60.109 153.075   2.631  1.00  0.00     0.021 A 
ATOM     13  C   UNL     1      61.204 152.803   1.792  1.00  0.00     0.016 A 
ATOM     14  C   UNL     1      61.248 153.310   0.492  1.00  0.00     0.051 A 
ATOM     15  C   UNL     1      60.202 154.106   0.008  1.00  0.00     0.157 A 
ATOM     16  C   UNL     1      59.066 153.887   2.141  1.00  0.00     0.062 A 
ATOM     17  C   UNL     1      59.111 154.397   0.835  1.00  0.00     0.158 A 
BRANCH  15  18
ATOM     18  O   UNL     1      60.241 154.612  -1.289  1.00  0.00    -0.504 OA
ATOM     19  H   UNL     1      59.489 154.443  -1.947  1.00  0.00     0.293 HD
ENDBRANCH  15  18
BRANCH  17  20
ATOM     20  O   UNL     1      58.077 155.199   0.355  1.00  0.00    -0.504 OA
ATOM     21  H   UNL     1      57.983 156.168   0.635  1.00  0.00     0.293 HD
ENDBRANCH  17  20
ENDBRANCH   1  12
BRANCH   6  22
ATOM     22  O   UNL     1      59.306 151.098   8.840  1.00  0.00    -0.507 OA
ATOM     23  H   UNL     1      58.437 150.579   8.874  1.00  0.00     0.293 HD
ENDBRANCH   6  22
BRANCH   8  24
ATOM     24  O   UNL     1      63.402 148.929   7.495  1.00  0.00    -0.508 OA
ATOM     25  H   UNL     1      63.418 147.958   7.208  1.00  0.00     0.293 HD
ENDBRANCH   8  24
TORSDOF 5
ENDMDL
MODEL 6
REMARK VINA RESULT:    -5.795      2.920      7.063
REMARK INTER + INTRA:          -7.105
REMARK INTER:                  -6.841
REMARK INTRA:                  -0.265
REMARK UNBOUND:                -0.294
REMARK SMILES O=c1cc(-c2ccc(O)c(O)c2)oc2cc(O)cc(O)c12
REMARK SMILES IDX 4 1 3 2 2 3 1 4 21 5 19 6 18 7 16 8 15 9 14 10 13 11 5 12
REMARK SMILES IDX 6 13 7 14 8 15 12 16 10 17 9 18 11 20 20 22 17 24
REMARK H PARENT 9 19 11 21 20 23 17 25
REMARK Flexibility Score: inf
ROOT
ATOM      1  C   UNL     1      60.722 151.818   5.950  1.00  0.00     0.138 A 
ATOM      2  C   UNL     1      60.877 152.596   7.110  1.00  0.00     0.100 A 
ATOM      3  C   UNL     1      60.385 153.901   7.132  1.00  0.00     0.197 A 
ATOM      4  O   UNL     1      60.529 154.591   8.177  1.00  0.00    -0.289 OA
ATOM      5  C   UNL     1      59.743 154.422   5.990  1.00  0.00     0.107 A 
ATOM      6  C   UNL     1      59.215 155.734   5.929  1.00  0.00     0.134 A 
ATOM      7  C   UNL     1      58.595 156.179   4.752  1.00  0.00     0.093 A 
ATOM      8  C   UNL     1      58.495 155.341   3.639  1.00  0.00     0.123 A 
ATOM      9  C   UNL     1      59.015 154.044   3.693  1.00  0.00     0.094 A 
ATOM     10  C   UNL     1      59.635 153.581   4.857  1.00  0.00     0.146 A 
ATOM     11  O   UNL     1      60.121 152.344   4.885  1.00  0.00    -0.456 OA
ENDROOT
BRANCH   1  12
ATOM     12  C   UNL     1      61.227 150.424   5.868  1.00  0.00     0.021 A 
ATOM     13  C   UNL     1      60.402 149.363   6.281  1.00  0.00     0.016 A 
ATOM     14  C   UNL     1      60.857 148.045   6.220  1.00  0.00     0.051 A 
ATOM     15  C   UNL     1      62.146 147.762   5.755  1.00  0.00     0.157 A 
ATOM     16  C   UNL     1      62.528 150.134   5.412  1.00  0.00     0.062 A 
ATOM     17  C   UNL     1      62.984 148.809   5.353  1.00  0.00     0.158 A 
BRANCH  15  18
ATOM     18  O   UNL     1      62.602 146.447   5.691  1.00  0.00    -0.504 OA
ATOM     19  H   UNL     1      63.269 146.151   4.987  1.00  0.00     0.293 HD
ENDBRANCH  15  18
BRANCH  17  20
ATOM     20  O   UNL     1      64.272 148.526   4.900  1.00  0.00    -0.504 OA
ATOM     21  H   UNL     1      64.970 149.254   4.795  1.00  0.00     0.293 HD
ENDBRANCH  17  20
ENDBRANCH   1  12
BRANCH   6  22
ATOM     22  O   UNL     1      59.301 156.594   7.024  1.00  0.00    -0.507 OA
ATOM     23  H   UNL     1      58.948 157.543   6.986  1.00  0.00     0.293 HD
ENDBRANCH   6  22
BRANCH   8  24
ATOM     24  O   UNL     1      57.875 155.809   2.481  1.00  0.00    -0.508 OA
ATOM     25  H   UNL     1      56.866 155.848   2.399  1.00  0.00     0.293 HD
ENDBRANCH   8  24
TORSDOF 5
ENDMDL
MODEL 7
REMARK VINA RESULT:    -5.753      2.441      4.019
REMARK INTER + INTRA:          -7.056
REMARK INTER:                  -6.793
REMARK INTRA:                  -0.263
REMARK UNBOUND:                -0.294
REMARK SMILES O=c1cc(-c2ccc(O)c(O)c2)oc2cc(O)cc(O)c12
REMARK SMILES IDX 4 1 3 2 2 3 1 4 21 5 19 6 18 7 16 8 15 9 14 10 13 11 5 12
REMARK SMILES IDX 6 13 7 14 8 15 12 16 10 17 9 18 11 20 20 22 17 24
REMARK H PARENT 9 19 11 21 20 23 17 25
REMARK Flexibility Score: inf
ROOT
ATOM      1  C   UNL     1      60.191 152.127   5.321  1.00  0.00     0.138 A 
ATOM      2  C   UNL     1      59.507 151.185   6.106  1.00  0.00     0.100 A 
ATOM      3  C   UNL     1      60.122 149.970   6.412  1.00  0.00     0.197 A 
ATOM      4  O   UNL     1      59.499 149.131   7.118  1.00  0.00    -0.289 OA
ATOM      5  C   UNL     1      61.417 149.704   5.927  1.00  0.00     0.107 A 
ATOM      6  C   UNL     1      62.112 148.500   6.191  1.00  0.00     0.134 A 
ATOM      7  C   UNL     1      63.398 148.310   5.666  1.00  0.00     0.093 A 
ATOM      8  C   UNL     1      64.001 149.297   4.882  1.00  0.00     0.123 A 
ATOM      9  C   UNL     1      63.320 150.489   4.617  1.00  0.00     0.094 A 
ATOM     10  C   UNL     1      62.037 150.698   5.133  1.00  0.00     0.146 A 
ATOM     11  O   UNL     1      61.410 151.840   4.869  1.00  0.00    -0.456 OA
ENDROOT
BRANCH   1  12
ATOM     12  C   UNL     1      59.587 153.434   4.961  1.00  0.00     0.021 A 
ATOM     13  C   UNL     1      58.984 153.597   3.702  1.00  0.00     0.016 A 
ATOM     14  C   UNL     1      58.416 154.819   3.338  1.00  0.00     0.051 A 
ATOM     15  C   UNL     1      58.448 155.904   4.221  1.00  0.00     0.157 A 
ATOM     16  C   UNL     1      59.628 154.535   5.841  1.00  0.00     0.062 A 
ATOM     17  C   UNL     1      59.058 155.763   5.473  1.00  0.00     0.158 A 
BRANCH  15  18
ATOM     18  O   UNL     1      57.881 157.125   3.862  1.00  0.00    -0.504 OA
ATOM     19  H   UNL     1      58.453 157.914   3.583  1.00  0.00     0.293 HD
ENDBRANCH  15  18
BRANCH  17  20
ATOM     20  O   UNL     1      59.099 156.849   6.346  1.00  0.00    -0.504 OA
ATOM     21  H   UNL     1      59.941 157.088   6.857  1.00  0.00     0.293 HD
ENDBRANCH  17  20
ENDBRANCH   1  12
BRANCH   6  22
ATOM     22  O   UNL     1      61.536 147.495   6.970  1.00  0.00    -0.507 OA
ATOM     23  H   UNL     1      60.548 147.496   7.195  1.00  0.00     0.293 HD
ENDBRANCH   6  22
BRANCH   8  24
ATOM     24  O   UNL     1      65.280 149.083   4.371  1.00  0.00    -0.508 OA
ATOM     25  H   UNL     1      65.479 148.307   3.750  1.00  0.00     0.293 HD
ENDBRANCH   8  24
TORSDOF 5
ENDMDL
MODEL 8
REMARK VINA RESULT:    -5.721      2.769      3.500
REMARK INTER + INTRA:          -7.018
REMARK INTER:                  -6.751
REMARK INTRA:                  -0.267
REMARK UNBOUND:                -0.294
REMARK SMILES O=c1cc(-c2ccc(O)c(O)c2)oc2cc(O)cc(O)c12
REMARK SMILES IDX 4 1 3 2 2 3 1 4 21 5 19 6 18 7 16 8 15 9 14 10 13 11 5 12
REMARK SMILES IDX 6 13 7 14 8 15 12 16 10 17 9 18 11 20 20 22 17 24
REMARK H PARENT 9 19 11 21 20 23 17 25
REMARK Flexibility Score: inf
ROOT
ATOM      1  C   UNL     1      60.291 152.014   5.389  1.00  0.00     0.138 A 
ATOM      2  C   UNL     1      61.536 151.644   4.853  1.00  0.00     0.100 A 
ATOM      3  C   UNL     1      62.050 150.375   5.123  1.00  0.00     0.197 A 
ATOM      4  O   UNL     1      63.168 150.053   4.638  1.00  0.00    -0.289 OA
ATOM      5  C   UNL     1      61.316 149.484   5.931  1.00  0.00     0.107 A 
ATOM      6  C   UNL     1      61.764 148.181   6.252  1.00  0.00     0.134 A 
ATOM      7  C   UNL     1      60.976 147.356   7.069  1.00  0.00     0.093 A 
ATOM      8  C   UNL     1      59.754 147.809   7.570  1.00  0.00     0.123 A 
ATOM      9  C   UNL     1      59.306 149.097   7.257  1.00  0.00     0.094 A 
ATOM     10  C   UNL     1      60.076 149.933   6.443  1.00  0.00     0.146 A 
ATOM     11  O   UNL     1      59.628 151.152   6.158  1.00  0.00    -0.456 OA
ENDROOT
BRANCH   1  12
ATOM     12  C   UNL     1      59.695 153.349   5.139  1.00  0.00     0.021 A 
ATOM     13  C   UNL     1      59.016 153.590   3.931  1.00  0.00     0.016 A 
ATOM     14  C   UNL     1      58.454 154.840   3.669  1.00  0.00     0.051 A 
ATOM     15  C   UNL     1      58.566 155.877   4.604  1.00  0.00     0.157 A 
ATOM     16  C   UNL     1      59.816 154.401   6.070  1.00  0.00     0.062 A 
ATOM     17  C   UNL     1      59.251 155.657   5.805  1.00  0.00     0.158 A 
BRANCH  15  18
ATOM     18  O   UNL     1      58.004 157.125   4.346  1.00  0.00    -0.504 OA
ATOM     19  H   UNL     1      57.017 157.303   4.492  1.00  0.00     0.293 HD
ENDBRANCH  15  18
BRANCH  17  20
ATOM     20  O   UNL     1      59.372 156.694   6.729  1.00  0.00    -0.504 OA
ATOM     21  H   UNL     1      59.636 156.518   7.692  1.00  0.00     0.293 HD
ENDBRANCH  17  20
ENDBRANCH   1  12
BRANCH   6  22
ATOM     22  O   UNL     1      62.981 147.700   5.767  1.00  0.00    -0.507 OA
ATOM     23  H   UNL     1      63.803 147.638   6.356  1.00  0.00     0.293 HD
ENDBRANCH   6  22
BRANCH   8  24
ATOM     24  O   UNL     1      58.991 146.971   8.380  1.00  0.00    -0.508 OA
ATOM     25  H   UNL     1      58.961 145.969   8.227  1.00  0.00     0.293 HD
ENDBRANCH   8  24
TORSDOF 5
ENDMDL
MODEL 9
REMARK VINA RESULT:    -5.668      3.094      3.686
REMARK INTER + INTRA:          -6.956
REMARK INTER:                  -6.688
REMARK INTRA:                  -0.268
REMARK UNBOUND:                -0.294
REMARK SMILES O=c1cc(-c2ccc(O)c(O)c2)oc2cc(O)cc(O)c12
REMARK SMILES IDX 4 1 3 2 2 3 1 4 21 5 19 6 18 7 16 8 15 9 14 10 13 11 5 12
REMARK SMILES IDX 6 13 7 14 8 15 12 16 10 17 9 18 11 20 20 22 17 24
REMARK H PARENT 9 19 11 21 20 23 17 25
REMARK Flexibility Score: inf
ROOT
ATOM      1  C   UNL     1      61.574 152.426   5.928  1.00  0.00     0.138 A 
ATOM      2  C   UNL     1      62.953 152.620   5.741  1.00  0.00     0.100 A 
ATOM      3  C   UNL     1      63.783 151.514   5.553  1.00  0.00     0.197 A 
ATOM      4  O   UNL     1      65.019 151.698   5.388  1.00  0.00    -0.289 OA
ATOM      5  C   UNL     1      63.227 150.219   5.557  1.00  0.00     0.107 A 
ATOM      6  C   UNL     1      63.996 149.045   5.373  1.00  0.00     0.134 A 
ATOM      7  C   UNL     1      63.367 147.792   5.395  1.00  0.00     0.093 A 
ATOM      8  C   UNL     1      61.989 147.689   5.600  1.00  0.00     0.123 A 
ATOM      9  C   UNL     1      61.223 148.846   5.783  1.00  0.00     0.094 A 
ATOM     10  C   UNL     1      61.831 150.104   5.762  1.00  0.00     0.146 A 
ATOM     11  O   UNL     1      61.083 151.189   5.936  1.00  0.00    -0.456 OA
ENDROOT
BRANCH   1  12
ATOM     12  C   UNL     1      60.643 153.564   6.134  1.00  0.00     0.021 A 
ATOM     13  C   UNL     1      60.641 154.243   7.365  1.00  0.00     0.016 A 
ATOM     14  C   UNL     1      59.770 155.311   7.586  1.00  0.00     0.051 A 
ATOM     15  C   UNL     1      58.879 155.715   6.585  1.00  0.00     0.157 A 
ATOM     16  C   UNL     1      59.734 153.968   5.135  1.00  0.00     0.062 A 
ATOM     17  C   UNL     1      58.859 155.040   5.359  1.00  0.00     0.158 A 
BRANCH  15  18
ATOM     18  O   UNL     1      58.009 156.782   6.801  1.00  0.00    -0.504 OA
ATOM     19  H   UNL     1      57.535 156.909   7.688  1.00  0.00     0.293 HD
ENDBRANCH  15  18
BRANCH  17  20
ATOM     20  O   UNL     1      57.962 155.437   4.368  1.00  0.00    -0.504 OA
ATOM     21  H   UNL     1      58.271 155.642   3.424  1.00  0.00     0.293 HD
ENDBRANCH  17  20
ENDBRANCH   1  12
BRANCH   6  22
ATOM     22  O   UNL     1      65.374 149.115   5.167  1.00  0.00    -0.507 OA
ATOM     23  H   UNL     1      65.785 149.792   4.535  1.00  0.00     0.293 HD
ENDBRANCH   6  22
BRANCH   8  24
ATOM     24  O   UNL     1      61.389 146.432   5.619  1.00  0.00    -0.508 OA
ATOM     25  H   UNL     1      60.497 146.263   5.169  1.00  0.00     0.293 HD
ENDBRANCH   8  24
TORSDOF 5
ENDMDL
