MODEL 1
REMARK VINA RESULT:    -4.489      0.000      0.000
REMARK INTER + INTRA:          -4.769
REMARK INTER:                  -4.751
REMARK INTRA:                  -0.018
REMARK UNBOUND:                -0.018
REMARK SMILES O=C([O-])c1cccnc1
REMARK SMILES IDX 4 1 5 2 9 3 6 4 8 5 7 6 2 7 1 8 3 9
REMARK H PARENT
REMARK Flexibility Score: inf
ROOT
ATOM      1  C   UNL     1     112.631 110.680 109.341  1.00  0.00     0.016 A 
ATOM      2  C   UNL     1     112.516 110.070 110.602  1.00  0.00     0.013 A 
ATOM      3  C   UNL     1     112.904 112.058 109.289  1.00  0.00     0.120 A 
ATOM      4  C   UNL     1     112.671 110.827 111.764  1.00  0.00     0.021 A 
ATOM      5  N   UNL     1     113.051 112.772 110.437  1.00  0.00    -0.264 NA
ATOM      6  C   UNL     1     112.941 112.192 111.660  1.00  0.00     0.111 A 
ENDROOT
BRANCH   1   7
ATOM      7  C   UNL     1     112.471 109.895 108.098  1.00  0.00     0.073 C 
ATOM      8  O   UNL     1     111.626 110.236 107.230  1.00  0.00    -0.545 OA
ATOM      9  O   UNL     1     113.255 108.770 107.870  1.00  0.00    -0.545 OA
ENDBRANCH   1   7
TORSDOF 1
ENDMDL
MODEL 2
REMARK VINA RESULT:    -4.483      4.642      5.326
REMARK INTER + INTRA:          -4.763
REMARK INTER:                  -4.743
REMARK INTRA:                  -0.020
REMARK UNBOUND:                -0.018
REMARK SMILES O=C([O-])c1cccnc1
REMARK SMILES IDX 4 1 5 2 9 3 6 4 8 5 7 6 2 7 1 8 3 9
REMARK H PARENT
REMARK Flexibility Score: inf
ROOT
ATOM      1  C   UNL     1     109.522 111.624 111.531  1.00  0.00     0.016 A 
ATOM      2  C   UNL     1     109.783 112.186 110.269  1.00  0.00     0.013 A 
ATOM      3  C   UNL     1     109.235 110.250 111.603  1.00  0.00     0.120 A 
ATOM      4  C   UNL     1     109.755 111.386 109.126  1.00  0.00     0.021 A 
ATOM      5  N   UNL     1     109.213 109.493 110.472  1.00  0.00    -0.264 NA
ATOM      6  C   UNL     1     109.464 110.027 109.249  1.00  0.00     0.111 A 
ENDROOT
BRANCH   1   7
ATOM      7  C   UNL     1     109.548 112.454 112.754  1.00  0.00     0.073 C 
ATOM      8  O   UNL     1     109.054 113.612 112.753  1.00  0.00    -0.545 OA
ATOM      9  O   UNL     1     110.119 111.965 113.924  1.00  0.00    -0.545 OA
ENDBRANCH   1   7
TORSDOF 1
ENDMDL
MODEL 3
REMARK VINA RESULT:    -4.482      4.046      4.880
REMARK INTER + INTRA:          -4.762
REMARK INTER:                  -4.744
REMARK INTRA:                  -0.019
REMARK UNBOUND:                -0.018
REMARK SMILES O=C([O-])c1cccnc1
REMARK SMILES IDX 4 1 5 2 9 3 6 4 8 5 7 6 2 7 1 8 3 9
REMARK H PARENT
REMARK Flexibility Score: inf
ROOT
ATOM      1  C   UNL     1     112.652 110.634 114.218  1.00  0.00     0.016 A 
ATOM      2  C   UNL     1     112.517 110.013 115.472  1.00  0.00     0.013 A 
ATOM      3  C   UNL     1     112.950 112.007 114.181  1.00  0.00     0.120 A 
ATOM      4  C   UNL     1     112.680 110.755 116.643  1.00  0.00     0.021 A 
ATOM      5  N   UNL     1     113.103 112.707 115.338  1.00  0.00    -0.264 NA
ATOM      6  C   UNL     1     112.976 112.117 116.554  1.00  0.00     0.111 A 
ENDROOT
BRANCH   1   7
ATOM      7  C   UNL     1     112.484 109.865 112.966  1.00  0.00     0.073 C 
ATOM      8  O   UNL     1     111.696 110.265 112.069  1.00  0.00    -0.545 OA
ATOM      9  O   UNL     1     113.197 108.689 112.762  1.00  0.00    -0.545 OA
ENDBRANCH   1   7
TORSDOF 1
ENDMDL
MODEL 4
REMARK VINA RESULT:    -4.479      3.575      3.865
REMARK INTER + INTRA:          -4.759
REMARK INTER:                  -4.735
REMARK INTRA:                  -0.024
REMARK UNBOUND:                -0.018
REMARK SMILES O=C([O-])c1cccnc1
REMARK SMILES IDX 4 1 5 2 9 3 6 4 8 5 7 6 2 7 1 8 3 9
REMARK H PARENT
REMARK Flexibility Score: inf
ROOT
ATOM      1  C   UNL     1     109.421 110.896 109.660  1.00  0.00     0.016 A 
ATOM      2  C   UNL     1     109.678 112.092 110.353  1.00  0.00     0.013 A 
ATOM      3  C   UNL     1     109.143 109.739 110.407  1.00  0.00     0.120 A 
ATOM      4  C   UNL     1     109.653 112.114 111.748  1.00  0.00     0.021 A 
ATOM      5  N   UNL     1     109.126 109.787 111.767  1.00  0.00    -0.264 NA
ATOM      6  C   UNL     1     109.373 110.937 112.446  1.00  0.00     0.111 A 
ENDROOT
BRANCH   1   7
ATOM      7  C   UNL     1     109.441 110.853 108.182  1.00  0.00     0.073 C 
ATOM      8  O   UNL     1     109.175 109.786 107.569  1.00  0.00    -0.545 OA
ATOM      9  O   UNL     1     109.752 111.993 107.449  1.00  0.00    -0.545 OA
ENDBRANCH   1   7
TORSDOF 1
ENDMDL
MODEL 5
REMARK VINA RESULT:    -4.474      5.609      6.493
REMARK INTER + INTRA:          -4.754
REMARK INTER:                  -4.730
REMARK INTRA:                  -0.024
REMARK UNBOUND:                -0.018
REMARK SMILES O=C([O-])c1cccnc1
REMARK SMILES IDX 4 1 5 2 9 3 6 4 8 5 7 6 2 7 1 8 3 9
REMARK H PARENT
REMARK Flexibility Score: inf
ROOT
ATOM      1  C   UNL     1     109.460 110.960 114.556  1.00  0.00     0.016 A 
ATOM      2  C   UNL     1     109.782 112.154 115.224  1.00  0.00     0.013 A 
ATOM      3  C   UNL     1     109.112 109.838 115.327  1.00  0.00     0.120 A 
ATOM      4  C   UNL     1     109.751 112.208 116.618  1.00  0.00     0.021 A 
ATOM      5  N   UNL     1     109.090 109.917 116.684  1.00  0.00    -0.264 NA
ATOM      6  C   UNL     1     109.399 111.066 117.339  1.00  0.00     0.111 A 
ENDROOT
BRANCH   1   7
ATOM      7  C   UNL     1     109.486 110.883 113.080  1.00  0.00     0.073 C 
ATOM      8  O   UNL     1     109.161 109.820 112.488  1.00  0.00    -0.545 OA
ATOM      9  O   UNL     1     109.869 111.985 112.324  1.00  0.00    -0.545 OA
ENDBRANCH   1   7
TORSDOF 1
ENDMDL
MODEL 6
REMARK VINA RESULT:    -4.471      2.663      3.493
REMARK INTER + INTRA:          -4.750
REMARK INTER:                  -4.731
REMARK INTRA:                  -0.019
REMARK UNBOUND:                -0.018
REMARK SMILES O=C([O-])c1cccnc1
REMARK SMILES IDX 4 1 5 2 9 3 6 4 8 5 7 6 2 7 1 8 3 9
REMARK H PARENT
REMARK Flexibility Score: inf
ROOT
ATOM      1  C   UNL     1     112.678 110.651 111.473  1.00  0.00     0.016 A 
ATOM      2  C   UNL     1     112.463 110.106 110.196  1.00  0.00     0.013 A 
ATOM      3  C   UNL     1     112.995 112.017 111.572  1.00  0.00     0.120 A 
ATOM      4  C   UNL     1     112.564 110.914 109.062  1.00  0.00     0.021 A 
ATOM      5  N   UNL     1     113.088 112.782 110.451  1.00  0.00    -0.264 NA
ATOM      6  C   UNL     1     112.882 112.266 109.212  1.00  0.00     0.111 A 
ENDROOT
BRANCH   1   7
ATOM      7  C   UNL     1     112.573 109.812 112.686  1.00  0.00     0.073 C 
ATOM      8  O   UNL     1     111.892 110.195 113.674  1.00  0.00    -0.545 OA
ATOM      9  O   UNL     1     113.225 108.585 112.751  1.00  0.00    -0.545 OA
ENDBRANCH   1   7
TORSDOF 1
ENDMDL
MODEL 7
REMARK VINA RESULT:    -4.456      5.479      6.394
REMARK INTER + INTRA:          -4.734
REMARK INTER:                  -4.717
REMARK INTRA:                  -0.018
REMARK UNBOUND:                -0.018
REMARK SMILES O=C([O-])c1cccnc1
REMARK SMILES IDX 4 1 5 2 9 3 6 4 8 5 7 6 2 7 1 8 3 9
REMARK H PARENT
REMARK Flexibility Score: inf
ROOT
ATOM      1  C   UNL     1     109.629 111.792 114.375  1.00  0.00     0.016 A 
ATOM      2  C   UNL     1     109.214 110.451 114.432  1.00  0.00     0.013 A 
ATOM      3  C   UNL     1     109.842 112.477 115.584  1.00  0.00     0.120 A 
ATOM      4  C   UNL     1     109.022 109.827 115.666  1.00  0.00     0.021 A 
ATOM      5  N   UNL     1     109.647 111.846 116.774  1.00  0.00    -0.264 NA
ATOM      6  C   UNL     1     109.246 110.550 116.839  1.00  0.00     0.111 A 
ENDROOT
BRANCH   1   7
ATOM      7  C   UNL     1     109.839 112.470 113.078  1.00  0.00     0.073 C 
ATOM      8  O   UNL     1     110.730 112.070 112.283  1.00  0.00    -0.545 OA
ATOM      9  O   UNL     1     109.053 113.558 112.718  1.00  0.00    -0.545 OA
ENDBRANCH   1   7
TORSDOF 1
ENDMDL
MODEL 8
REMARK VINA RESULT:    -4.417      7.248      8.304
REMARK INTER + INTRA:          -4.694
REMARK INTER:                  -4.673
REMARK INTRA:                  -0.020
REMARK UNBOUND:                -0.018
REMARK SMILES O=C([O-])c1cccnc1
REMARK SMILES IDX 4 1 5 2 9 3 6 4 8 5 7 6 2 7 1 8 3 9
REMARK H PARENT
REMARK Flexibility Score: inf
ROOT
ATOM      1  C   UNL     1     109.516 111.612 116.331  1.00  0.00     0.016 A 
ATOM      2  C   UNL     1     109.722 112.191 115.067  1.00  0.00     0.013 A 
ATOM      3  C   UNL     1     109.227 110.238 116.397  1.00  0.00     0.120 A 
ATOM      4  C   UNL     1     109.639 111.407 113.915  1.00  0.00     0.021 A 
ATOM      5  N   UNL     1     109.151 109.497 115.258  1.00  0.00    -0.264 NA
ATOM      6  C   UNL     1     109.348 110.047 114.032  1.00  0.00     0.111 A 
ENDROOT
BRANCH   1   7
ATOM      7  C   UNL     1     109.601 112.424 117.564  1.00  0.00     0.073 C 
ATOM      8  O   UNL     1     110.138 111.957 118.603  1.00  0.00    -0.545 OA
ATOM      9  O   UNL     1     109.090 113.716 117.591  1.00  0.00    -0.545 OA
ENDBRANCH   1   7
TORSDOF 1
ENDMDL
MODEL 9
REMARK VINA RESULT:    -4.397      3.465      3.811
REMARK INTER + INTRA:          -4.672
REMARK INTER:                  -4.652
REMARK INTRA:                  -0.020
REMARK UNBOUND:                -0.018
REMARK SMILES O=C([O-])c1cccnc1
REMARK SMILES IDX 4 1 5 2 9 3 6 4 8 5 7 6 2 7 1 8 3 9
REMARK H PARENT
REMARK Flexibility Score: inf
ROOT
ATOM      1  C   UNL     1     109.464 111.776 109.414  1.00  0.00     0.016 A 
ATOM      2  C   UNL     1     109.111 110.428 109.597  1.00  0.00     0.013 A 
ATOM      3  C   UNL     1     109.775 112.544 110.549  1.00  0.00     0.120 A 
ATOM      4  C   UNL     1     109.075 109.880 110.880  1.00  0.00     0.021 A 
ATOM      5  N   UNL     1     109.732 111.985 111.789  1.00  0.00    -0.264 NA
ATOM      6  C   UNL     1     109.392 110.684 111.976  1.00  0.00     0.111 A 
ENDROOT
BRANCH   1   7
ATOM      7  C   UNL     1     109.510 112.374 108.063  1.00  0.00     0.073 C 
ATOM      8  O   UNL     1     109.035 113.522 107.854  1.00  0.00    -0.545 OA
ATOM      9  O   UNL     1     110.080 111.677 107.003  1.00  0.00    -0.545 OA
ENDBRANCH   1   7
TORSDOF 1
ENDMDL
