MODEL 1
REMARK VINA RESULT:    -3.384      0.000      0.000
REMARK INTER + INTRA:          -6.410
REMARK INTER:                  -5.165
REMARK INTRA:                  -1.244
REMARK UNBOUND:                -1.244
REMARK SMILES CCCCCCCCCCC(=O)[O-]
REMARK SMILES IDX 7 1 8 2 9 3 10 4 11 5 12 6 13 7 6 8 5 9 4 10 3 11 2 12 1 13
REMARK H PARENT
REMARK Flexibility Score: inf
ROOT
ATOM      1  C   UNL     1      22.016  36.422  35.840  1.00  0.00     0.000 C 
ENDROOT
BRANCH   1   2
ATOM      2  C   UNL     1      21.895  37.911  35.458  1.00  0.00     0.000 C 
BRANCH   2   3
ATOM      3  C   UNL     1      20.917  38.207  34.307  1.00  0.00     0.006 C 
BRANCH   3   4
ATOM      4  C   UNL     1      19.596  37.437  34.436  1.00  0.00     0.053 C 
BRANCH   4   5
ATOM      5  C   UNL     1      19.355  36.607  33.216  1.00  0.00     0.041 C 
ATOM      6  O   UNL     1      18.313  35.906  33.121  1.00  0.00    -0.550 OA
ATOM      7  O   UNL     1      20.306  36.566  32.203  1.00  0.00    -0.550 OA
ENDBRANCH   4   5
ENDBRANCH   3   4
ENDBRANCH   2   3
ENDBRANCH   1   2
BRANCH   1   8
ATOM      8  C   UNL     1      22.006  36.129  37.354  1.00  0.00     0.000 C 
BRANCH   8   9
ATOM      9  C   UNL     1      22.439  37.303  38.253  1.00  0.00    -0.000 C 
BRANCH   9  10
ATOM     10  C   UNL     1      21.293  37.840  39.126  1.00  0.00    -0.000 C 
BRANCH  10  11
ATOM     11  C   UNL     1      19.911  37.332  38.676  1.00  0.00    -0.000 C 
BRANCH  11  12
ATOM     12  C   UNL     1      19.001  38.397  38.037  1.00  0.00    -0.003 C 
ATOM     13  C   UNL     1      19.699  39.743  37.842  1.00  0.00     0.004 C 
ENDBRANCH  11  12
ENDBRANCH  10  11
ENDBRANCH   9  10
ENDBRANCH   8   9
ENDBRANCH   1   8
TORSDOF 9
ENDMDL
MODEL 2
REMARK VINA RESULT:    -3.374      3.370      5.603
REMARK INTER + INTRA:          -6.393
REMARK INTER:                  -5.417
REMARK INTRA:                  -0.977
REMARK UNBOUND:                -1.244
REMARK SMILES CCCCCCCCCCC(=O)[O-]
REMARK SMILES IDX 7 1 8 2 9 3 10 4 11 5 12 6 13 7 6 8 5 9 4 10 3 11 2 12 1 13
REMARK H PARENT
REMARK Flexibility Score: inf
ROOT
ATOM      1  C   UNL     1      17.887  38.078  35.290  1.00  0.00     0.000 C 
ENDROOT
BRANCH   1   2
ATOM      2  C   UNL     1      18.705  38.907  36.300  1.00  0.00     0.000 C 
BRANCH   2   3
ATOM      3  C   UNL     1      18.950  38.219  37.655  1.00  0.00     0.006 C 
BRANCH   3   4
ATOM      4  C   UNL     1      19.640  39.137  38.672  1.00  0.00     0.053 C 
BRANCH   4   5
ATOM      5  C   UNL     1      19.743  38.460  40.002  1.00  0.00     0.041 C 
ATOM      6  O   UNL     1      18.905  37.579  40.331  1.00  0.00    -0.550 OA
ATOM      7  O   UNL     1      20.733  38.838  40.900  1.00  0.00    -0.550 OA
ENDBRANCH   4   5
ENDBRANCH   3   4
ENDBRANCH   2   3
ENDBRANCH   1   2
BRANCH   1   8
ATOM      8  C   UNL     1      18.477  38.008  33.867  1.00  0.00     0.000 C 
BRANCH   8   9
ATOM      9  C   UNL     1      19.015  36.627  33.446  1.00  0.00    -0.000 C 
BRANCH   9  10
ATOM     10  C   UNL     1      20.518  36.647  33.121  1.00  0.00    -0.000 C 
BRANCH  10  11
ATOM     11  C   UNL     1      21.333  37.499  34.112  1.00  0.00    -0.000 C 
BRANCH  11  12
ATOM     12  C   UNL     1      21.694  36.796  35.433  1.00  0.00    -0.003 C 
ATOM     13  C   UNL     1      22.412  37.712  36.423  1.00  0.00     0.004 C 
ENDBRANCH  11  12
ENDBRANCH  10  11
ENDBRANCH   9  10
ENDBRANCH   8   9
ENDBRANCH   1   8
TORSDOF 9
ENDMDL
MODEL 3
REMARK VINA RESULT:    -3.361      3.287      4.960
REMARK INTER + INTRA:          -6.374
REMARK INTER:                  -5.491
REMARK INTRA:                  -0.883
REMARK UNBOUND:                -1.244
REMARK SMILES CCCCCCCCCCC(=O)[O-]
REMARK SMILES IDX 7 1 8 2 9 3 10 4 11 5 12 6 13 7 6 8 5 9 4 10 3 11 2 12 1 13
REMARK H PARENT
REMARK Flexibility Score: inf
ROOT
ATOM      1  C   UNL     1      21.714  36.613  35.852  1.00  0.00     0.000 C 
ENDROOT
BRANCH   1   2
ATOM      2  C   UNL     1      21.723  37.323  37.221  1.00  0.00     0.000 C 
BRANCH   2   3
ATOM      3  C   UNL     1      20.818  38.565  37.311  1.00  0.00     0.006 C 
BRANCH   3   4
ATOM      4  C   UNL     1      19.400  38.234  37.794  1.00  0.00     0.053 C 
BRANCH   4   5
ATOM      5  C   UNL     1      19.327  38.304  39.286  1.00  0.00     0.041 C 
ATOM      6  O   UNL     1      18.640  37.465  39.927  1.00  0.00    -0.550 OA
ATOM      7  O   UNL     1      19.976  39.326  39.967  1.00  0.00    -0.550 OA
ENDBRANCH   4   5
ENDBRANCH   3   4
ENDBRANCH   2   3
ENDBRANCH   1   2
BRANCH   1   8
ATOM      8  C   UNL     1      21.546  37.539  34.631  1.00  0.00     0.000 C 
BRANCH   8   9
ATOM      9  C   UNL     1      20.752  36.938  33.456  1.00  0.00    -0.000 C 
BRANCH   9  10
ATOM     10  C   UNL     1      19.254  36.783  33.766  1.00  0.00    -0.000 C 
BRANCH  10  11
ATOM     11  C   UNL     1      18.561  38.129  34.052  1.00  0.00    -0.000 C 
BRANCH  11  12
ATOM     12  C   UNL     1      17.272  38.034  34.888  1.00  0.00    -0.003 C 
ATOM     13  C   UNL     1      16.048  37.644  34.061  1.00  0.00     0.004 C 
ENDBRANCH  11  12
ENDBRANCH  10  11
ENDBRANCH   9  10
ENDBRANCH   8   9
ENDBRANCH   1   8
TORSDOF 9
ENDMDL
MODEL 4
REMARK VINA RESULT:    -3.358      3.228      5.000
REMARK INTER + INTRA:          -6.370
REMARK INTER:                  -5.373
REMARK INTRA:                  -0.997
REMARK UNBOUND:                -1.244
REMARK SMILES CCCCCCCCCCC(=O)[O-]
REMARK SMILES IDX 7 1 8 2 9 3 10 4 11 5 12 6 13 7 6 8 5 9 4 10 3 11 2 12 1 13
REMARK H PARENT
REMARK Flexibility Score: inf
ROOT
ATOM      1  C   UNL     1      22.137  37.887  35.133  1.00  0.00     0.000 C 
ENDROOT
BRANCH   1   2
ATOM      2  C   UNL     1      21.869  36.535  35.824  1.00  0.00     0.000 C 
BRANCH   2   3
ATOM      3  C   UNL     1      22.441  36.410  37.247  1.00  0.00     0.006 C 
BRANCH   3   4
ATOM      4  C   UNL     1      21.373  36.589  38.335  1.00  0.00     0.053 C 
BRANCH   4   5
ATOM      5  C   UNL     1      21.693  37.775  39.189  1.00  0.00     0.041 C 
ATOM      6  O   UNL     1      21.170  38.893  38.942  1.00  0.00    -0.550 OA
ATOM      7  O   UNL     1      22.607  37.656  40.229  1.00  0.00    -0.550 OA
ENDBRANCH   4   5
ENDBRANCH   3   4
ENDBRANCH   2   3
ENDBRANCH   1   2
BRANCH   1   8
ATOM      8  C   UNL     1      21.250  38.187  33.908  1.00  0.00     0.000 C 
BRANCH   8   9
ATOM      9  C   UNL     1      20.626  36.952  33.232  1.00  0.00    -0.000 C 
BRANCH   9  10
ATOM     10  C   UNL     1      19.106  36.859  33.446  1.00  0.00    -0.000 C 
BRANCH  10  11
ATOM     11  C   UNL     1      18.489  38.185  33.926  1.00  0.00    -0.000 C 
BRANCH  11  12
ATOM     12  C   UNL     1      17.747  38.110  35.273  1.00  0.00    -0.003 C 
ATOM     13  C   UNL     1      18.635  38.456  36.467  1.00  0.00     0.004 C 
ENDBRANCH  11  12
ENDBRANCH  10  11
ENDBRANCH   9  10
ENDBRANCH   8   9
ENDBRANCH   1   8
TORSDOF 9
ENDMDL
MODEL 5
REMARK VINA RESULT:    -3.334      1.193      1.841
REMARK INTER + INTRA:          -6.333
REMARK INTER:                  -5.152
REMARK INTRA:                  -1.181
REMARK UNBOUND:                -1.244
REMARK SMILES CCCCCCCCCCC(=O)[O-]
REMARK SMILES IDX 7 1 8 2 9 3 10 4 11 5 12 6 13 7 6 8 5 9 4 10 3 11 2 12 1 13
REMARK H PARENT
REMARK Flexibility Score: inf
ROOT
ATOM      1  C   UNL     1      21.704  38.094  35.172  1.00  0.00     0.000 C 
ENDROOT
BRANCH   1   2
ATOM      2  C   UNL     1      20.366  38.859  35.203  1.00  0.00     0.000 C 
BRANCH   2   3
ATOM      3  C   UNL     1      19.163  38.040  35.703  1.00  0.00     0.006 C 
BRANCH   3   4
ATOM      4  C   UNL     1      18.021  37.975  34.681  1.00  0.00     0.053 C 
BRANCH   4   5
ATOM      5  C   UNL     1      18.496  37.358  33.405  1.00  0.00     0.041 C 
ATOM      6  O   UNL     1      18.785  36.133  33.362  1.00  0.00    -0.550 OA
ATOM      7  O   UNL     1      18.669  38.146  32.273  1.00  0.00    -0.550 OA
ENDBRANCH   4   5
ENDBRANCH   3   4
ENDBRANCH   2   3
ENDBRANCH   1   2
BRANCH   1   8
ATOM      8  C   UNL     1      21.626  36.614  35.596  1.00  0.00     0.000 C 
BRANCH   8   9
ATOM      9  C   UNL     1      22.349  36.269  36.912  1.00  0.00    -0.000 C 
BRANCH   9  10
ATOM     10  C   UNL     1      21.422  36.340  38.138  1.00  0.00    -0.000 C 
BRANCH  10  11
ATOM     11  C   UNL     1      21.667  37.592  39.000  1.00  0.00    -0.000 C 
BRANCH  11  12
ATOM     12  C   UNL     1      20.461  38.540  39.131  1.00  0.00    -0.003 C 
ATOM     13  C   UNL     1      19.149  37.807  39.407  1.00  0.00     0.004 C 
ENDBRANCH  11  12
ENDBRANCH  10  11
ENDBRANCH   9  10
ENDBRANCH   8   9
ENDBRANCH   1   8
TORSDOF 9
ENDMDL
MODEL 6
REMARK VINA RESULT:    -3.332      3.501      4.986
REMARK INTER + INTRA:          -6.329
REMARK INTER:                  -5.141
REMARK INTRA:                  -1.187
REMARK UNBOUND:                -1.244
REMARK SMILES CCCCCCCCCCC(=O)[O-]
REMARK SMILES IDX 7 1 8 2 9 3 10 4 11 5 12 6 13 7 6 8 5 9 4 10 3 11 2 12 1 13
REMARK H PARENT
REMARK Flexibility Score: inf
ROOT
ATOM      1  C   UNL     1      22.173  36.632  36.837  1.00  0.00     0.000 C 
ENDROOT
BRANCH   1   2
ATOM      2  C   UNL     1      21.503  37.699  37.725  1.00  0.00     0.000 C 
BRANCH   2   3
ATOM      3  C   UNL     1      20.099  37.328  38.235  1.00  0.00     0.006 C 
BRANCH   3   4
ATOM      4  C   UNL     1      19.274  38.554  38.647  1.00  0.00     0.053 C 
BRANCH   4   5
ATOM      5  C   UNL     1      19.929  39.266  39.788  1.00  0.00     0.041 C 
ATOM      6  O   UNL     1      20.229  40.484  39.687  1.00  0.00    -0.550 OA
ATOM      7  O   UNL     1      20.254  38.570  40.946  1.00  0.00    -0.550 OA
ENDBRANCH   4   5
ENDBRANCH   3   4
ENDBRANCH   2   3
ENDBRANCH   1   2
BRANCH   1   8
ATOM      8  C   UNL     1      21.712  36.616  35.365  1.00  0.00     0.000 C 
BRANCH   8   9
ATOM      9  C   UNL     1      21.679  37.993  34.673  1.00  0.00    -0.000 C 
BRANCH   9  10
ATOM     10  C   UNL     1      20.322  38.298  34.018  1.00  0.00    -0.000 C 
BRANCH  10  11
ATOM     11  C   UNL     1      19.186  37.406  34.552  1.00  0.00    -0.000 C 
BRANCH  11  12
ATOM     12  C   UNL     1      17.998  38.162  35.173  1.00  0.00    -0.003 C 
ATOM     13  C   UNL     1      18.161  39.681  35.121  1.00  0.00     0.004 C 
ENDBRANCH  11  12
ENDBRANCH  10  11
ENDBRANCH   9  10
ENDBRANCH   8   9
ENDBRANCH   1   8
TORSDOF 9
ENDMDL
MODEL 7
REMARK VINA RESULT:    -3.328      1.408      2.087
REMARK INTER + INTRA:          -6.323
REMARK INTER:                  -5.358
REMARK INTRA:                  -0.966
REMARK UNBOUND:                -1.244
REMARK SMILES CCCCCCCCCCC(=O)[O-]
REMARK SMILES IDX 7 1 8 2 9 3 10 4 11 5 12 6 13 7 6 8 5 9 4 10 3 11 2 12 1 13
REMARK H PARENT
REMARK Flexibility Score: inf
ROOT
ATOM      1  C   UNL     1      22.060  36.131  38.154  1.00  0.00     0.000 C 
ENDROOT
BRANCH   1   2
ATOM      2  C   UNL     1      22.034  36.230  36.615  1.00  0.00     0.000 C 
BRANCH   2   3
ATOM      3  C   UNL     1      21.111  37.326  36.052  1.00  0.00     0.006 C 
BRANCH   3   4
ATOM      4  C   UNL     1      20.856  37.172  34.547  1.00  0.00     0.053 C 
BRANCH   4   5
ATOM      5  C   UNL     1      19.390  37.039  34.277  1.00  0.00     0.041 C 
ATOM      6  O   UNL     1      18.982  36.281  33.357  1.00  0.00    -0.550 OA
ATOM      7  O   UNL     1      18.478  37.790  35.007  1.00  0.00    -0.550 OA
ENDBRANCH   4   5
ENDBRANCH   3   4
ENDBRANCH   2   3
ENDBRANCH   1   2
BRANCH   1   8
ATOM      8  C   UNL     1      23.119  37.009  38.851  1.00  0.00     0.000 C 
BRANCH   8   9
ATOM      9  C   UNL     1      22.577  37.942  39.951  1.00  0.00    -0.000 C 
BRANCH   9  10
ATOM     10  C   UNL     1      22.176  39.326  39.414  1.00  0.00    -0.000 C 
BRANCH  10  11
ATOM     11  C   UNL     1      20.681  39.635  39.617  1.00  0.00    -0.000 C 
BRANCH  11  12
ATOM     12  C   UNL     1      19.812  38.425  40.003  1.00  0.00    -0.003 C 
ATOM     13  C   UNL     1      18.748  38.093  38.957  1.00  0.00     0.004 C 
ENDBRANCH  11  12
ENDBRANCH  10  11
ENDBRANCH   9  10
ENDBRANCH   8   9
ENDBRANCH   1   8
TORSDOF 9
ENDMDL
MODEL 8
REMARK VINA RESULT:    -3.319      3.358      5.348
REMARK INTER + INTRA:          -6.309
REMARK INTER:                  -5.318
REMARK INTRA:                  -0.991
REMARK UNBOUND:                -1.244
REMARK SMILES CCCCCCCCCCC(=O)[O-]
REMARK SMILES IDX 7 1 8 2 9 3 10 4 11 5 12 6 13 7 6 8 5 9 4 10 3 11 2 12 1 13
REMARK H PARENT
REMARK Flexibility Score: inf
ROOT
ATOM      1  C   UNL     1      20.869  36.954  34.627  1.00  0.00     0.000 C 
ENDROOT
BRANCH   1   2
ATOM      2  C   UNL     1      20.698  38.097  35.647  1.00  0.00     0.000 C 
BRANCH   2   3
ATOM      3  C   UNL     1      20.032  37.687  36.973  1.00  0.00     0.006 C 
BRANCH   3   4
ATOM      4  C   UNL     1      19.348  38.862  37.683  1.00  0.00     0.053 C 
BRANCH   4   5
ATOM      5  C   UNL     1      19.350  38.651  39.164  1.00  0.00     0.041 C 
ATOM      6  O   UNL     1      19.915  39.482  39.922  1.00  0.00    -0.550 OA
ATOM      7  O   UNL     1      18.772  37.508  39.704  1.00  0.00    -0.550 OA
ENDBRANCH   4   5
ENDBRANCH   3   4
ENDBRANCH   2   3
ENDBRANCH   1   2
BRANCH   1   8
ATOM      8  C   UNL     1      20.046  37.100  33.331  1.00  0.00     0.000 C 
BRANCH   8   9
ATOM      9  C   UNL     1      18.755  36.261  33.277  1.00  0.00    -0.000 C 
BRANCH   9  10
ATOM     10  C   UNL     1      17.592  37.000  32.593  1.00  0.00    -0.000 C 
BRANCH  10  11
ATOM     11  C   UNL     1      16.477  37.399  33.577  1.00  0.00    -0.000 C 
BRANCH  11  12
ATOM     12  C   UNL     1      16.957  38.120  34.849  1.00  0.00    -0.003 C 
ATOM     13  C   UNL     1      17.359  39.573  34.600  1.00  0.00     0.004 C 
ENDBRANCH  11  12
ENDBRANCH  10  11
ENDBRANCH   9  10
ENDBRANCH   8   9
ENDBRANCH   1   8
TORSDOF 9
ENDMDL
MODEL 9
REMARK VINA RESULT:    -3.251      2.979      5.605
REMARK INTER + INTRA:          -6.206
REMARK INTER:                  -5.205
REMARK INTRA:                  -1.001
REMARK UNBOUND:                -1.244
REMARK SMILES CCCCCCCCCCC(=O)[O-]
REMARK SMILES IDX 7 1 8 2 9 3 10 4 11 5 12 6 13 7 6 8 5 9 4 10 3 11 2 12 1 13
REMARK H PARENT
REMARK Flexibility Score: inf
ROOT
ATOM      1  C   UNL     1      17.366  39.206  34.480  1.00  0.00     0.000 C 
ENDROOT
BRANCH   1   2
ATOM      2  C   UNL     1      18.541  39.452  35.448  1.00  0.00     0.000 C 
BRANCH   2   3
ATOM      3  C   UNL     1      18.636  38.455  36.617  1.00  0.00     0.006 C 
BRANCH   3   4
ATOM      4  C   UNL     1      20.070  38.281  37.134  1.00  0.00     0.053 C 
BRANCH   4   5
ATOM      5  C   UNL     1      20.091  37.364  38.316  1.00  0.00     0.041 C 
ATOM      6  O   UNL     1      19.204  37.455  39.205  1.00  0.00    -0.550 OA
ATOM      7  O   UNL     1      21.121  36.442  38.462  1.00  0.00    -0.550 OA
ENDBRANCH   4   5
ENDBRANCH   3   4
ENDBRANCH   2   3
ENDBRANCH   1   2
BRANCH   1   8
ATOM      8  C   UNL     1      16.804  37.770  34.480  1.00  0.00     0.000 C 
BRANCH   8   9
ATOM      9  C   UNL     1      17.108  36.946  33.214  1.00  0.00    -0.000 C 
BRANCH   9  10
ATOM     10  C   UNL     1      18.535  36.372  33.204  1.00  0.00    -0.000 C 
BRANCH  10  11
ATOM     11  C   UNL     1      19.428  37.010  32.124  1.00  0.00    -0.000 C 
BRANCH  11  12
ATOM     12  C   UNL     1      20.829  37.430  32.601  1.00  0.00    -0.003 C 
ATOM     13  C   UNL     1      21.110  37.042  34.052  1.00  0.00     0.004 C 
ENDBRANCH  11  12
ENDBRANCH  10  11
ENDBRANCH   9  10
ENDBRANCH   8   9
ENDBRANCH   1   8
TORSDOF 9
ENDMDL
