MODEL 1
REMARK VINA RESULT:    -5.257      0.000      0.000
REMARK INTER + INTRA:          -6.567
REMARK INTER:                  -6.487
REMARK INTRA:                  -0.080
REMARK UNBOUND:                -0.080
REMARK SMILES Oc1cc(O)c2cc(O)c(-c3cc(O)c(O)c(O)c3)[o+]c2c1
REMARK SMILES IDX 10 1 20 2 21 3 22 4 2 5 3 6 4 7 6 8 7 9 8 10 11 11 12 12
REMARK SMILES IDX 13 13 19 14 15 15 17 16 14 17 16 19 18 21 9 23 1 25 5 27
REMARK H PARENT 14 18 16 20 18 22 9 24 1 26 5 28
REMARK Flexibility Score: inf
ROOT
ATOM      1  C   UNL     1     -37.144  13.896   0.905  1.00  0.00     0.402 A 
ATOM      2  O   UNL     1     -36.119  13.049   0.846  1.00  0.00    -0.202 OA
ATOM      3  C   UNL     1     -34.871  13.431   0.597  1.00  0.00     0.368 A 
ATOM      4  C   UNL     1     -33.861  12.465   0.551  1.00  0.00     0.162 A 
ATOM      5  C   UNL     1     -32.540  12.839   0.288  1.00  0.00     0.128 A 
ATOM      6  C   UNL     1     -32.228  14.182   0.068  1.00  0.00     0.093 A 
ATOM      7  C   UNL     1     -33.222  15.169   0.109  1.00  0.00     0.136 A 
ATOM      8  C   UNL     1     -34.564  14.795   0.378  1.00  0.00     0.125 A 
ATOM      9  C   UNL     1     -35.622  15.716   0.451  1.00  0.00     0.078 A 
ATOM     10  C   UNL     1     -36.919  15.273   0.725  1.00  0.00     0.223 A 
ENDROOT
BRANCH   1  11
ATOM     11  C   UNL     1     -38.491  13.346   1.181  1.00  0.00     0.091 A 
ATOM     12  C   UNL     1     -38.657  12.412   2.216  1.00  0.00     0.068 A 
ATOM     13  C   UNL     1     -39.918  11.861   2.486  1.00  0.00     0.162 A 
ATOM     14  C   UNL     1     -39.600  13.697   0.393  1.00  0.00     0.068 A 
ATOM     15  C   UNL     1     -41.024  12.233   1.704  1.00  0.00     0.200 A 
ATOM     16  C   UNL     1     -40.862  13.147   0.656  1.00  0.00     0.162 A 
BRANCH  13  17
ATOM     17  O   UNL     1     -40.073  10.946   3.525  1.00  0.00    -0.504 OA
ATOM     18  H   UNL     1     -40.631  11.161   4.343  1.00  0.00     0.293 HD
ENDBRANCH  13  17
BRANCH  15  19
ATOM     19  O   UNL     1     -42.290  11.701   1.954  1.00  0.00    -0.502 OA
ATOM     20  H   UNL     1     -42.677  11.645   2.889  1.00  0.00     0.293 HD
ENDBRANCH  15  19
BRANCH  16  21
ATOM     21  O   UNL     1     -41.961  13.503  -0.125  1.00  0.00    -0.504 OA
ATOM     22  H   UNL     1     -42.617  12.809  -0.466  1.00  0.00     0.293 HD
ENDBRANCH  16  21
ENDBRANCH   1  11
BRANCH  10  23
ATOM     23  O   UNL     1     -37.962  16.191   0.847  1.00  0.00    -0.500 OA
ATOM     24  H   UNL     1     -38.461  16.318   1.721  1.00  0.00     0.294 HD
ENDBRANCH  10  23
BRANCH   5  25
ATOM     25  O   UNL     1     -31.528  11.882   0.241  1.00  0.00    -0.507 OA
ATOM     26  H   UNL     1     -31.340  11.271   1.026  1.00  0.00     0.293 HD
ENDBRANCH   5  25
BRANCH   7  27
ATOM     27  O   UNL     1     -32.828  16.489  -0.125  1.00  0.00    -0.507 OA
ATOM     28  H   UNL     1     -32.166  16.996   0.445  1.00  0.00     0.293 HD
ENDBRANCH   7  27
TORSDOF 7
ENDMDL
MODEL 2
REMARK VINA RESULT:    -4.886      2.797      8.629
REMARK INTER + INTRA:          -6.109
REMARK INTER:                  -6.328
REMARK INTRA:                   0.219
REMARK UNBOUND:                -0.080
REMARK SMILES Oc1cc(O)c2cc(O)c(-c3cc(O)c(O)c(O)c3)[o+]c2c1
REMARK SMILES IDX 10 1 20 2 21 3 22 4 2 5 3 6 4 7 6 8 7 9 8 10 11 11 12 12
REMARK SMILES IDX 13 13 19 14 15 15 17 16 14 17 16 19 18 21 9 23 1 25 5 27
REMARK H PARENT 14 18 16 20 18 22 9 24 1 26 5 28
REMARK Flexibility Score: inf
ROOT
ATOM      1  C   UNL     1     -40.768  12.518   2.773  1.00  0.00     0.402 A 
ATOM      2  O   UNL     1     -41.803  13.240   2.350  1.00  0.00    -0.202 OA
ATOM      3  C   UNL     1     -43.028  13.125   2.854  1.00  0.00     0.368 A 
ATOM      4  C   UNL     1     -44.052  13.925   2.340  1.00  0.00     0.162 A 
ATOM      5  C   UNL     1     -45.350  13.823   2.850  1.00  0.00     0.128 A 
ATOM      6  C   UNL     1     -45.625  12.916   3.875  1.00  0.00     0.093 A 
ATOM      7  C   UNL     1     -44.615  12.102   4.407  1.00  0.00     0.136 A 
ATOM      8  C   UNL     1     -43.296  12.204   3.895  1.00  0.00     0.125 A 
ATOM      9  C   UNL     1     -42.220  11.439   4.375  1.00  0.00     0.078 A 
ATOM     10  C   UNL     1     -40.945  11.598   3.824  1.00  0.00     0.223 A 
ENDROOT
BRANCH   1  11
ATOM     11  C   UNL     1     -39.455  12.731   2.125  1.00  0.00     0.091 A 
ATOM     12  C   UNL     1     -39.200  13.942   1.463  1.00  0.00     0.068 A 
ATOM     13  C   UNL     1     -37.971  14.162   0.824  1.00  0.00     0.162 A 
ATOM     14  C   UNL     1     -38.474  11.724   2.110  1.00  0.00     0.068 A 
ATOM     15  C   UNL     1     -36.990  13.156   0.831  1.00  0.00     0.200 A 
ATOM     16  C   UNL     1     -37.245  11.937   1.471  1.00  0.00     0.162 A 
BRANCH  13  17
ATOM     17  O   UNL     1     -37.724  15.373   0.182  1.00  0.00    -0.504 OA
ATOM     18  H   UNL     1     -38.477  15.950  -0.174  1.00  0.00     0.293 HD
ENDBRANCH  13  17
BRANCH  15  19
ATOM     19  O   UNL     1     -35.758  13.351   0.204  1.00  0.00    -0.502 OA
ATOM     20  H   UNL     1     -35.281  14.246   0.220  1.00  0.00     0.293 HD
ENDBRANCH  15  19
BRANCH  16  21
ATOM     21  O   UNL     1     -36.274  10.938   1.463  1.00  0.00    -0.504 OA
ATOM     22  H   UNL     1     -36.517   9.959   1.567  1.00  0.00     0.293 HD
ENDBRANCH  16  21
ENDBRANCH   1  11
BRANCH  10  23
ATOM     23  O   UNL     1     -39.867  10.875   4.333  1.00  0.00    -0.500 OA
ATOM     24  H   UNL     1     -39.220  11.283   5.000  1.00  0.00     0.294 HD
ENDBRANCH  10  23
BRANCH   5  25
ATOM     25  O   UNL     1     -46.375  14.618   2.343  1.00  0.00    -0.507 OA
ATOM     26  H   UNL     1     -46.894  15.255   2.935  1.00  0.00     0.293 HD
ENDBRANCH   5  25
BRANCH   7  27
ATOM     27  O   UNL     1     -44.973  11.218   5.429  1.00  0.00    -0.507 OA
ATOM     28  H   UNL     1     -45.113  10.227   5.302  1.00  0.00     0.293 HD
ENDBRANCH   7  27
TORSDOF 7
ENDMDL
MODEL 3
REMARK VINA RESULT:    -4.747      4.835      9.435
REMARK INTER + INTRA:          -5.937
REMARK INTER:                  -5.577
REMARK INTRA:                  -0.360
REMARK UNBOUND:                -0.080
REMARK SMILES Oc1cc(O)c2cc(O)c(-c3cc(O)c(O)c(O)c3)[o+]c2c1
REMARK SMILES IDX 10 1 20 2 21 3 22 4 2 5 3 6 4 7 6 8 7 9 8 10 11 11 12 12
REMARK SMILES IDX 13 13 19 14 15 15 17 16 14 17 16 19 18 21 9 23 1 25 5 27
REMARK H PARENT 14 18 16 20 18 22 9 24 1 26 5 28
REMARK Flexibility Score: inf
ROOT
ATOM      1  C   UNL     1     -43.503  12.903   1.674  1.00  0.00     0.402 A 
ATOM      2  O   UNL     1     -43.847  14.110   2.115  1.00  0.00    -0.202 OA
ATOM      3  C   UNL     1     -45.003  14.695   1.815  1.00  0.00     0.368 A 
ATOM      4  C   UNL     1     -45.272  15.968   2.324  1.00  0.00     0.162 A 
ATOM      5  C   UNL     1     -46.479  16.607   2.022  1.00  0.00     0.128 A 
ATOM      6  C   UNL     1     -47.417  15.971   1.207  1.00  0.00     0.093 A 
ATOM      7  C   UNL     1     -47.170  14.695   0.685  1.00  0.00     0.136 A 
ATOM      8  C   UNL     1     -45.948  14.041   0.990  1.00  0.00     0.125 A 
ATOM      9  C   UNL     1     -45.621  12.758   0.522  1.00  0.00     0.078 A 
ATOM     10  C   UNL     1     -44.399  12.175   0.870  1.00  0.00     0.223 A 
ENDROOT
BRANCH   1  11
ATOM     11  C   UNL     1     -42.182  12.363   2.070  1.00  0.00     0.091 A 
ATOM     12  C   UNL     1     -41.999  11.872   3.372  1.00  0.00     0.068 A 
ATOM     13  C   UNL     1     -40.753  11.374   3.779  1.00  0.00     0.162 A 
ATOM     14  C   UNL     1     -41.089  12.383   1.187  1.00  0.00     0.068 A 
ATOM     15  C   UNL     1     -39.672  11.380   2.883  1.00  0.00     0.200 A 
ATOM     16  C   UNL     1     -39.840  11.889   1.589  1.00  0.00     0.162 A 
BRANCH  13  17
ATOM     17  O   UNL     1     -40.587  10.875   5.069  1.00  0.00    -0.504 OA
ATOM     18  H   UNL     1     -40.201  11.444   5.813  1.00  0.00     0.293 HD
ENDBRANCH  13  17
BRANCH  15  19
ATOM     19  O   UNL     1     -38.423  10.887   3.262  1.00  0.00    -0.502 OA
ATOM     20  H   UNL     1     -37.816  10.397   2.614  1.00  0.00     0.293 HD
ENDBRANCH  15  19
BRANCH  16  21
ATOM     21  O   UNL     1     -38.761  11.905   0.708  1.00  0.00    -0.504 OA
ATOM     22  H   UNL     1     -37.838  12.202   1.005  1.00  0.00     0.293 HD
ENDBRANCH  16  21
ENDBRANCH   1  11
BRANCH  10  23
ATOM     23  O   UNL     1     -44.094  10.881   0.446  1.00  0.00    -0.500 OA
ATOM     24  H   UNL     1     -44.389  10.066   0.973  1.00  0.00     0.294 HD
ENDBRANCH  10  23
BRANCH   5  25
ATOM     25  O   UNL     1     -46.754  17.876   2.527  1.00  0.00    -0.507 OA
ATOM     26  H   UNL     1     -47.284  18.555   1.994  1.00  0.00     0.293 HD
ENDBRANCH   5  25
BRANCH   7  27
ATOM     27  O   UNL     1     -48.159  14.129  -0.125  1.00  0.00    -0.507 OA
ATOM     28  H   UNL     1     -48.098  13.212  -0.543  1.00  0.00     0.293 HD
ENDBRANCH   7  27
TORSDOF 7
ENDMDL
MODEL 4
REMARK VINA RESULT:    -4.534      4.359      7.093
REMARK INTER + INTRA:          -5.674
REMARK INTER:                  -5.324
REMARK INTRA:                  -0.350
REMARK UNBOUND:                -0.080
REMARK SMILES Oc1cc(O)c2cc(O)c(-c3cc(O)c(O)c(O)c3)[o+]c2c1
REMARK SMILES IDX 10 1 20 2 21 3 22 4 2 5 3 6 4 7 6 8 7 9 8 10 11 11 12 12
REMARK SMILES IDX 13 13 19 14 15 15 17 16 14 17 16 19 18 21 9 23 1 25 5 27
REMARK H PARENT 14 18 16 20 18 22 9 24 1 26 5 28
REMARK Flexibility Score: inf
ROOT
ATOM      1  C   UNL     1     -43.305  13.062   2.309  1.00  0.00     0.402 A 
ATOM      2  O   UNL     1     -42.349  12.874   1.402  1.00  0.00    -0.202 OA
ATOM      3  C   UNL     1     -41.173  12.323   1.686  1.00  0.00     0.368 A 
ATOM      4  C   UNL     1     -40.230  12.171   0.666  1.00  0.00     0.162 A 
ATOM      5  C   UNL     1     -38.984  11.597   0.937  1.00  0.00     0.128 A 
ATOM      6  C   UNL     1     -38.680  11.177   2.234  1.00  0.00     0.093 A 
ATOM      7  C   UNL     1     -39.608  11.319   3.274  1.00  0.00     0.136 A 
ATOM      8  C   UNL     1     -40.875  11.898   3.003  1.00  0.00     0.125 A 
ATOM      9  C   UNL     1     -41.871  12.067   3.979  1.00  0.00     0.078 A 
ATOM     10  C   UNL     1     -43.098  12.642   3.635  1.00  0.00     0.223 A 
ENDROOT
BRANCH   1  11
ATOM     11  C   UNL     1     -44.569  13.696   1.870  1.00  0.00     0.091 A 
ATOM     12  C   UNL     1     -45.481  12.957   1.100  1.00  0.00     0.068 A 
ATOM     13  C   UNL     1     -46.677  13.540   0.655  1.00  0.00     0.162 A 
ATOM     14  C   UNL     1     -44.853  15.042   2.162  1.00  0.00     0.068 A 
ATOM     15  C   UNL     1     -46.960  14.879   0.968  1.00  0.00     0.200 A 
ATOM     16  C   UNL     1     -46.045  15.629   1.718  1.00  0.00     0.162 A 
BRANCH  13  17
ATOM     17  O   UNL     1     -47.581  12.792  -0.096  1.00  0.00    -0.504 OA
ATOM     18  H   UNL     1     -47.814  13.043  -1.050  1.00  0.00     0.293 HD
ENDBRANCH  13  17
BRANCH  15  19
ATOM     19  O   UNL     1     -48.144  15.481   0.540  1.00  0.00    -0.502 OA
ATOM     20  H   UNL     1     -48.700  15.098  -0.216  1.00  0.00     0.293 HD
ENDBRANCH  15  19
BRANCH  16  21
ATOM     21  O   UNL     1     -46.325  16.962   2.014  1.00  0.00    -0.504 OA
ATOM     22  H   UNL     1     -45.586  17.644   2.144  1.00  0.00     0.293 HD
ENDBRANCH  16  21
ENDBRANCH   1  11
BRANCH  10  23
ATOM     23  O   UNL     1     -44.105  12.766   4.592  1.00  0.00    -0.500 OA
ATOM     24  H   UNL     1     -44.856  12.088   4.665  1.00  0.00     0.294 HD
ENDBRANCH  10  23
BRANCH   5  25
ATOM     25  O   UNL     1     -38.040  11.442  -0.075  1.00  0.00    -0.507 OA
ATOM     26  H   UNL     1     -37.528  12.232  -0.449  1.00  0.00     0.293 HD
ENDBRANCH   5  25
BRANCH   7  27
ATOM     27  O   UNL     1     -39.225  10.875   4.543  1.00  0.00    -0.507 OA
ATOM     28  H   UNL     1     -39.868  10.679   5.296  1.00  0.00     0.293 HD
ENDBRANCH   7  27
TORSDOF 7
ENDMDL
MODEL 5
REMARK VINA RESULT:    -4.441      1.616      1.881
REMARK INTER + INTRA:          -5.560
REMARK INTER:                  -5.182
REMARK INTRA:                  -0.378
REMARK UNBOUND:                -0.080
REMARK SMILES Oc1cc(O)c2cc(O)c(-c3cc(O)c(O)c(O)c3)[o+]c2c1
REMARK SMILES IDX 10 1 20 2 21 3 22 4 2 5 3 6 4 7 6 8 7 9 8 10 11 11 12 12
REMARK SMILES IDX 13 13 19 14 15 15 17 16 14 17 16 19 18 21 9 23 1 25 5 27
REMARK H PARENT 14 18 16 20 18 22 9 24 1 26 5 28
REMARK Flexibility Score: inf
ROOT
ATOM      1  C   UNL     1     -38.224  13.237   1.473  1.00  0.00     0.402 A 
ATOM      2  O   UNL     1     -37.267  12.399   1.865  1.00  0.00    -0.202 OA
ATOM      3  C   UNL     1     -35.970  12.667   1.751  1.00  0.00     0.368 A 
ATOM      4  C   UNL     1     -35.039  11.721   2.189  1.00  0.00     0.162 A 
ATOM      5  C   UNL     1     -33.669  11.976   2.079  1.00  0.00     0.128 A 
ATOM      6  C   UNL     1     -33.229  13.181   1.526  1.00  0.00     0.093 A 
ATOM      7  C   UNL     1     -34.142  14.145   1.080  1.00  0.00     0.136 A 
ATOM      8  C   UNL     1     -35.534  13.892   1.192  1.00  0.00     0.125 A 
ATOM      9  C   UNL     1     -36.520  14.805   0.784  1.00  0.00     0.078 A 
ATOM     10  C   UNL     1     -37.873  14.487   0.931  1.00  0.00     0.223 A 
ENDROOT
BRANCH   1  11
ATOM     11  C   UNL     1     -39.633  12.818   1.644  1.00  0.00     0.091 A 
ATOM     12  C   UNL     1     -40.312  13.145   2.828  1.00  0.00     0.068 A 
ATOM     13  C   UNL     1     -41.641  12.744   3.024  1.00  0.00     0.162 A 
ATOM     14  C   UNL     1     -40.293  12.051   0.668  1.00  0.00     0.068 A 
ATOM     15  C   UNL     1     -42.298  11.994   2.034  1.00  0.00     0.200 A 
ATOM     16  C   UNL     1     -41.620  11.645   0.860  1.00  0.00     0.162 A 
BRANCH  13  17
ATOM     17  O   UNL     1     -42.309  13.087   4.198  1.00  0.00    -0.504 OA
ATOM     18  H   UNL     1     -41.944  13.789   4.831  1.00  0.00     0.293 HD
ENDBRANCH  13  17
BRANCH  15  19
ATOM     19  O   UNL     1     -43.621  11.585   2.204  1.00  0.00    -0.502 OA
ATOM     20  H   UNL     1     -43.901  10.962   2.953  1.00  0.00     0.293 HD
ENDBRANCH  15  19
BRANCH  16  21
ATOM     21  O   UNL     1     -42.272  10.889  -0.113  1.00  0.00    -0.504 OA
ATOM     22  H   UNL     1     -43.233  11.075  -0.374  1.00  0.00     0.293 HD
ENDBRANCH  16  21
ENDBRANCH   1  11
BRANCH  10  23
ATOM     23  O   UNL     1     -38.853  15.412   0.571  1.00  0.00    -0.500 OA
ATOM     24  H   UNL     1     -39.159  15.518  -0.390  1.00  0.00     0.294 HD
ENDBRANCH  10  23
BRANCH   5  25
ATOM     25  O   UNL     1     -32.736  11.038   2.514  1.00  0.00    -0.507 OA
ATOM     26  H   UNL     1     -32.924  10.043   2.471  1.00  0.00     0.293 HD
ENDBRANCH   5  25
BRANCH   7  27
ATOM     27  O   UNL     1     -33.620  15.322   0.537  1.00  0.00    -0.507 OA
ATOM     28  H   UNL     1     -34.026  15.820  -0.242  1.00  0.00     0.293 HD
ENDBRANCH   7  27
TORSDOF 7
ENDMDL
MODEL 6
REMARK VINA RESULT:    -4.035      2.182      7.770
REMARK INTER + INTRA:          -5.059
REMARK INTER:                  -4.774
REMARK INTRA:                  -0.284
REMARK UNBOUND:                -0.080
REMARK SMILES Oc1cc(O)c2cc(O)c(-c3cc(O)c(O)c(O)c3)[o+]c2c1
REMARK SMILES IDX 10 1 20 2 21 3 22 4 2 5 3 6 4 7 6 8 7 9 8 10 11 11 12 12
REMARK SMILES IDX 13 13 19 14 15 15 17 16 14 17 16 19 18 21 9 23 1 25 5 27
REMARK H PARENT 14 18 16 20 18 22 9 24 1 26 5 28
REMARK Flexibility Score: inf
ROOT
ATOM      1  C   UNL     1     -38.879  12.738   1.510  1.00  0.00     0.402 A 
ATOM      2  O   UNL     1     -39.705  13.382   2.331  1.00  0.00    -0.202 OA
ATOM      3  C   UNL     1     -41.005  13.115   2.416  1.00  0.00     0.368 A 
ATOM      4  C   UNL     1     -41.792  13.849   3.308  1.00  0.00     0.162 A 
ATOM      5  C   UNL     1     -43.162  13.591   3.415  1.00  0.00     0.128 A 
ATOM      6  C   UNL     1     -43.746  12.598   2.626  1.00  0.00     0.093 A 
ATOM      7  C   UNL     1     -42.978  11.849   1.725  1.00  0.00     0.136 A 
ATOM      8  C   UNL     1     -41.587  12.104   1.614  1.00  0.00     0.125 A 
ATOM      9  C   UNL     1     -40.738  11.395   0.749  1.00  0.00     0.078 A 
ATOM     10  C   UNL     1     -39.375  11.701   0.698  1.00  0.00     0.223 A 
ENDROOT
BRANCH   1  11
ATOM     11  C   UNL     1     -37.453  13.134   1.500  1.00  0.00     0.091 A 
ATOM     12  C   UNL     1     -37.075  14.342   0.894  1.00  0.00     0.068 A 
ATOM     13  C   UNL     1     -35.728  14.731   0.854  1.00  0.00     0.162 A 
ATOM     14  C   UNL     1     -36.458  12.298   2.038  1.00  0.00     0.068 A 
ATOM     15  C   UNL     1     -34.744  13.898   1.412  1.00  0.00     0.200 A 
ATOM     16  C   UNL     1     -35.110  12.681   1.999  1.00  0.00     0.162 A 
BRANCH  13  17
ATOM     17  O   UNL     1     -35.367  15.939   0.262  1.00  0.00    -0.504 OA
ATOM     18  H   UNL     1     -35.286  16.792   0.802  1.00  0.00     0.293 HD
ENDBRANCH  13  17
BRANCH  15  19
ATOM     19  O   UNL     1     -33.397  14.264   1.387  1.00  0.00    -0.502 OA
ATOM     20  H   UNL     1     -32.850  14.249   0.534  1.00  0.00     0.293 HD
ENDBRANCH  15  19
BRANCH  16  21
ATOM     21  O   UNL     1     -34.128  11.852   2.539  1.00  0.00    -0.504 OA
ATOM     22  H   UNL     1     -33.812  11.019   2.055  1.00  0.00     0.293 HD
ENDBRANCH  16  21
ENDBRANCH   1  11
BRANCH  10  23
ATOM     23  O   UNL     1     -38.522  10.965  -0.125  1.00  0.00    -0.500 OA
ATOM     24  H   UNL     1     -37.696  10.504   0.241  1.00  0.00     0.294 HD
ENDBRANCH  10  23
BRANCH   5  25
ATOM     25  O   UNL     1     -43.953  14.318   4.302  1.00  0.00    -0.507 OA
ATOM     26  H   UNL     1     -43.543  14.922   5.005  1.00  0.00     0.293 HD
ENDBRANCH   5  25
BRANCH   7  27
ATOM     27  O   UNL     1     -43.640  10.875   0.971  1.00  0.00    -0.507 OA
ATOM     28  H   UNL     1     -43.932   9.978   1.329  1.00  0.00     0.293 HD
ENDBRANCH   7  27
TORSDOF 7
ENDMDL
MODEL 7
REMARK VINA RESULT:    -3.837     15.551     17.298
REMARK INTER + INTRA:          -4.814
REMARK INTER:                  -4.432
REMARK INTRA:                  -0.383
REMARK UNBOUND:                -0.080
REMARK SMILES Oc1cc(O)c2cc(O)c(-c3cc(O)c(O)c(O)c3)[o+]c2c1
REMARK SMILES IDX 10 1 20 2 21 3 22 4 2 5 3 6 4 7 6 8 7 9 8 10 11 11 12 12
REMARK SMILES IDX 13 13 19 14 15 15 17 16 14 17 16 19 18 21 9 23 1 25 5 27
REMARK H PARENT 14 18 16 20 18 22 9 24 1 26 5 28
REMARK Flexibility Score: inf
ROOT
ATOM      1  C   UNL     1     -38.263  16.164  17.440  1.00  0.00     0.402 A 
ATOM      2  O   UNL     1     -38.843  15.735  16.322  1.00  0.00    -0.202 OA
ATOM      3  C   UNL     1     -38.537  14.581  15.737  1.00  0.00     0.368 A 
ATOM      4  C   UNL     1     -39.200  14.218  14.562  1.00  0.00     0.162 A 
ATOM      5  C   UNL     1     -38.896  13.011  13.924  1.00  0.00     0.128 A 
ATOM      6  C   UNL     1     -37.923  12.166  14.463  1.00  0.00     0.093 A 
ATOM      7  C   UNL     1     -37.245  12.508  15.641  1.00  0.00     0.136 A 
ATOM      8  C   UNL     1     -37.552  13.730  16.293  1.00  0.00     0.125 A 
ATOM      9  C   UNL     1     -36.933  14.148  17.482  1.00  0.00     0.078 A 
ATOM     10  C   UNL     1     -37.292  15.364  18.070  1.00  0.00     0.223 A 
ENDROOT
BRANCH   1  11
ATOM     11  C   UNL     1     -38.684  17.473  17.989  1.00  0.00     0.091 A 
ATOM     12  C   UNL     1     -39.830  17.546  18.796  1.00  0.00     0.068 A 
ATOM     13  C   UNL     1     -40.262  18.776  19.313  1.00  0.00     0.162 A 
ATOM     14  C   UNL     1     -37.992  18.655  17.674  1.00  0.00     0.068 A 
ATOM     15  C   UNL     1     -39.552  19.950  19.009  1.00  0.00     0.200 A 
ATOM     16  C   UNL     1     -38.421  19.888  18.185  1.00  0.00     0.162 A 
BRANCH  13  17
ATOM     17  O   UNL     1     -41.392  18.835  20.125  1.00  0.00    -0.504 OA
ATOM     18  H   UNL     1     -41.823  17.998  20.499  1.00  0.00     0.293 HD
ENDBRANCH  13  17
BRANCH  15  19
ATOM     19  O   UNL     1     -39.960  21.186  19.512  1.00  0.00    -0.502 OA
ATOM     20  H   UNL     1     -40.934  21.398  19.697  1.00  0.00     0.293 HD
ENDBRANCH  15  19
BRANCH  16  21
ATOM     21  O   UNL     1     -37.729  21.057  17.875  1.00  0.00    -0.504 OA
ATOM     22  H   UNL     1     -37.901  21.563  17.014  1.00  0.00     0.293 HD
ENDBRANCH  16  21
ENDBRANCH   1  11
BRANCH  10  23
ATOM     23  O   UNL     1     -36.713  15.756  19.277  1.00  0.00    -0.500 OA
ATOM     24  H   UNL     1     -37.277  15.977  20.091  1.00  0.00     0.294 HD
ENDBRANCH  10  23
BRANCH   5  25
ATOM     25  O   UNL     1     -39.553  12.643  12.753  1.00  0.00    -0.507 OA
ATOM     26  H   UNL     1     -40.541  12.822  12.620  1.00  0.00     0.293 HD
ENDBRANCH   5  25
BRANCH   7  27
ATOM     27  O   UNL     1     -36.284  11.609  16.113  1.00  0.00    -0.507 OA
ATOM     28  H   UNL     1     -35.626  11.117  15.526  1.00  0.00     0.293 HD
ENDBRANCH   7  27
TORSDOF 7
ENDMDL
MODEL 8
REMARK VINA RESULT:    -2.338     14.399     16.184
REMARK INTER + INTRA:          -2.965
REMARK INTER:                  -2.775
REMARK INTRA:                  -0.190
REMARK UNBOUND:                -0.080
REMARK SMILES Oc1cc(O)c2cc(O)c(-c3cc(O)c(O)c(O)c3)[o+]c2c1
REMARK SMILES IDX 10 1 20 2 21 3 22 4 2 5 3 6 4 7 6 8 7 9 8 10 11 11 12 12
REMARK SMILES IDX 13 13 19 14 15 15 17 16 14 17 16 19 18 21 9 23 1 25 5 27
REMARK H PARENT 14 18 16 20 18 22 9 24 1 26 5 28
REMARK Flexibility Score: inf
ROOT
ATOM      1  C   UNL     1     -38.236  15.819  16.188  1.00  0.00     0.402 A 
ATOM      2  O   UNL     1     -38.081  16.134  14.904  1.00  0.00    -0.202 OA
ATOM      3  C   UNL     1     -38.195  15.251  13.917  1.00  0.00     0.368 A 
ATOM      4  C   UNL     1     -38.011  15.677  12.599  1.00  0.00     0.162 A 
ATOM      5  C   UNL     1     -38.122  14.769  11.542  1.00  0.00     0.128 A 
ATOM      6  C   UNL     1     -38.417  13.429  11.805  1.00  0.00     0.093 A 
ATOM      7  C   UNL     1     -38.606  12.977  13.117  1.00  0.00     0.136 A 
ATOM      8  C   UNL     1     -38.497  13.896  14.194  1.00  0.00     0.125 A 
ATOM      9  C   UNL     1     -38.683  13.535  15.538  1.00  0.00     0.078 A 
ATOM     10  C   UNL     1     -38.563  14.498  16.545  1.00  0.00     0.223 A 
ENDROOT
BRANCH   1  11
ATOM     11  C   UNL     1     -38.074  16.891  17.196  1.00  0.00     0.091 A 
ATOM     12  C   UNL     1     -37.083  16.769  18.181  1.00  0.00     0.068 A 
ATOM     13  C   UNL     1     -36.921  17.761  19.160  1.00  0.00     0.162 A 
ATOM     14  C   UNL     1     -38.929  18.007  17.220  1.00  0.00     0.068 A 
ATOM     15  C   UNL     1     -37.768  18.882  19.164  1.00  0.00     0.200 A 
ATOM     16  C   UNL     1     -38.774  19.000  18.197  1.00  0.00     0.162 A 
BRANCH  13  17
ATOM     17  O   UNL     1     -35.925  17.635  20.125  1.00  0.00    -0.504 OA
ATOM     18  H   UNL     1     -36.014  18.062  21.039  1.00  0.00     0.293 HD
ENDBRANCH  13  17
BRANCH  15  19
ATOM     19  O   UNL     1     -37.626  19.884  20.125  1.00  0.00    -0.502 OA
ATOM     20  H   UNL     1     -36.749  20.371  20.270  1.00  0.00     0.293 HD
ENDBRANCH  15  19
BRANCH  16  21
ATOM     21  O   UNL     1     -39.620  20.108  18.215  1.00  0.00    -0.504 OA
ATOM     22  H   UNL     1     -39.538  20.827  18.924  1.00  0.00     0.293 HD
ENDBRANCH  16  21
ENDBRANCH   1  11
BRANCH  10  23
ATOM     23  O   UNL     1     -38.797  14.152  17.876  1.00  0.00    -0.500 OA
ATOM     24  H   UNL     1     -38.934  13.188  18.159  1.00  0.00     0.294 HD
ENDBRANCH  10  23
BRANCH   5  25
ATOM     25  O   UNL     1     -37.940  15.187  10.226  1.00  0.00    -0.507 OA
ATOM     26  H   UNL     1     -37.382  14.652   9.572  1.00  0.00     0.293 HD
ENDBRANCH   5  25
BRANCH   7  27
ATOM     27  O   UNL     1     -38.896  11.621  13.295  1.00  0.00    -0.507 OA
ATOM     28  H   UNL     1     -38.214  10.880  13.230  1.00  0.00     0.293 HD
ENDBRANCH   7  27
TORSDOF 7
ENDMDL
