MODEL 1
REMARK VINA RESULT:    -3.580      0.000      0.000
REMARK INTER + INTRA:          -4.330
REMARK INTER:                  -4.208
REMARK INTRA:                  -0.122
REMARK UNBOUND:                -0.122
REMARK SMILES O=C([O-])CCC(=O)[O-]
REMARK SMILES IDX 4 1 2 2 1 3 3 4 5 5 6 6 7 7 8 8
REMARK H PARENT
REMARK Flexibility Score: inf
ROOT
ATOM      1  C   UNL     1       1.953  -0.676  14.574  1.00  0.00     0.059 C 
ENDROOT
BRANCH   1   2
ATOM      2  C   UNL     1       0.512  -0.822  14.190  1.00  0.00     0.042 C 
ATOM      3  O   UNL     1       0.120  -0.468  13.048  1.00  0.00    -0.550 OA
ATOM      4  O   UNL     1      -0.390  -1.387  15.083  1.00  0.00    -0.550 OA
ENDBRANCH   1   2
BRANCH   1   5
ATOM      5  C   UNL     1       2.773  -1.905  14.162  1.00  0.00     0.059 C 
BRANCH   5   6
ATOM      6  C   UNL     1       2.634  -3.018  15.154  1.00  0.00     0.042 C 
ATOM      7  O   UNL     1       2.381  -4.187  14.762  1.00  0.00    -0.550 OA
ATOM      8  O   UNL     1       2.743  -2.757  16.515  1.00  0.00    -0.550 OA
ENDBRANCH   5   6
ENDBRANCH   1   5
TORSDOF 3
ENDMDL
MODEL 2
REMARK VINA RESULT:    -3.566      0.147      3.483
REMARK INTER + INTRA:          -4.314
REMARK INTER:                  -4.192
REMARK INTRA:                  -0.122
REMARK UNBOUND:                -0.122
REMARK SMILES O=C([O-])CCC(=O)[O-]
REMARK SMILES IDX 4 1 2 2 1 3 3 4 5 5 6 6 7 7 8 8
REMARK H PARENT
REMARK Flexibility Score: inf
ROOT
ATOM      1  C   UNL     1       2.816  -2.076  14.190  1.00  0.00     0.059 C 
ENDROOT
BRANCH   1   2
ATOM      2  C   UNL     1       2.628  -3.169  15.198  1.00  0.00     0.042 C 
ATOM      3  O   UNL     1       2.357  -4.339  14.822  1.00  0.00    -0.550 OA
ATOM      4  O   UNL     1       2.791  -2.901  16.551  1.00  0.00    -0.550 OA
ENDBRANCH   1   2
BRANCH   1   5
ATOM      5  C   UNL     1       2.050  -0.808  14.585  1.00  0.00     0.059 C 
BRANCH   5   6
ATOM      6  C   UNL     1       0.600  -0.903  14.222  1.00  0.00     0.042 C 
ATOM      7  O   UNL     1       0.205  -0.524  13.089  1.00  0.00    -0.550 OA
ATOM      8  O   UNL     1      -0.321  -1.374  15.151  1.00  0.00    -0.550 OA
ENDBRANCH   5   6
ENDBRANCH   1   5
TORSDOF 3
ENDMDL
MODEL 3
REMARK VINA RESULT:    -3.559      0.104      3.624
REMARK INTER + INTRA:          -4.305
REMARK INTER:                  -4.200
REMARK INTRA:                  -0.105
REMARK UNBOUND:                -0.122
REMARK SMILES O=C([O-])CCC(=O)[O-]
REMARK SMILES IDX 4 1 2 2 1 3 3 4 5 5 6 6 7 7 8 8
REMARK H PARENT
REMARK Flexibility Score: inf
ROOT
ATOM      1  C   UNL     1       2.818  -1.818  14.299  1.00  0.00     0.059 C 
ENDROOT
BRANCH   1   2
ATOM      2  C   UNL     1       2.679  -2.959  15.259  1.00  0.00     0.042 C 
ATOM      3  O   UNL     1       2.808  -2.767  16.497  1.00  0.00    -0.550 OA
ATOM      4  O   UNL     1       2.368  -4.229  14.789  1.00  0.00    -0.550 OA
ENDBRANCH   1   2
BRANCH   1   5
ATOM      5  C   UNL     1       1.923  -0.637  14.694  1.00  0.00     0.059 C 
BRANCH   5   6
ATOM      6  C   UNL     1       0.504  -0.854  14.267  1.00  0.00     0.042 C 
ATOM      7  O   UNL     1      -0.319  -1.389  15.054  1.00  0.00    -0.550 OA
ATOM      8  O   UNL     1       0.101  -0.501  12.985  1.00  0.00    -0.550 OA
ENDBRANCH   5   6
ENDBRANCH   1   5
TORSDOF 3
ENDMDL
MODEL 4
REMARK VINA RESULT:    -3.534      0.143      1.622
REMARK INTER + INTRA:          -4.276
REMARK INTER:                  -4.184
REMARK INTRA:                  -0.092
REMARK UNBOUND:                -0.122
REMARK SMILES O=C([O-])CCC(=O)[O-]
REMARK SMILES IDX 4 1 2 2 1 3 3 4 5 5 6 6 7 7 8 8
REMARK H PARENT
REMARK Flexibility Score: inf
ROOT
ATOM      1  C   UNL     1       1.882  -0.668  14.662  1.00  0.00     0.059 C 
ENDROOT
BRANCH   1   2
ATOM      2  C   UNL     1       0.446  -0.788  14.252  1.00  0.00     0.042 C 
ATOM      3  O   UNL     1      -0.385  -1.356  15.009  1.00  0.00    -0.550 OA
ATOM      4  O   UNL     1       0.018  -0.237  13.051  1.00  0.00    -0.550 OA
ENDBRANCH   1   2
BRANCH   1   5
ATOM      5  C   UNL     1       2.689  -1.908  14.258  1.00  0.00     0.059 C 
BRANCH   5   6
ATOM      6  C   UNL     1       2.585  -2.992  15.286  1.00  0.00     0.042 C 
ATOM      7  O   UNL     1       2.765  -2.730  16.504  1.00  0.00    -0.550 OA
ATOM      8  O   UNL     1       2.330  -4.301  14.894  1.00  0.00    -0.550 OA
ENDBRANCH   5   6
ENDBRANCH   1   5
TORSDOF 3
ENDMDL
MODEL 5
REMARK VINA RESULT:    -3.472      7.386      8.741
REMARK INTER + INTRA:          -4.204
REMARK INTER:                  -4.014
REMARK INTRA:                  -0.190
REMARK UNBOUND:                -0.122
REMARK SMILES O=C([O-])CCC(=O)[O-]
REMARK SMILES IDX 4 1 2 2 1 3 3 4 5 5 6 6 7 7 8 8
REMARK H PARENT
REMARK Flexibility Score: inf
ROOT
ATOM      1  C   UNL     1       2.691   4.828   9.842  1.00  0.00     0.059 C 
ENDROOT
BRANCH   1   2
ATOM      2  C   UNL     1       3.148   5.876  10.810  1.00  0.00     0.042 C 
ATOM      3  O   UNL     1       3.761   5.548  11.859  1.00  0.00    -0.550 OA
ATOM      4  O   UNL     1       2.930   7.220  10.533  1.00  0.00    -0.550 OA
ENDBRANCH   1   2
BRANCH   1   5
ATOM      5  C   UNL     1       1.635   3.908  10.466  1.00  0.00     0.059 C 
BRANCH   5   6
ATOM      6  C   UNL     1       0.445   4.680  10.947  1.00  0.00     0.042 C 
ATOM      7  O   UNL     1       0.092   4.612  12.154  1.00  0.00    -0.550 OA
ATOM      8  O   UNL     1      -0.298   5.442  10.054  1.00  0.00    -0.550 OA
ENDBRANCH   5   6
ENDBRANCH   1   5
TORSDOF 3
ENDMDL
MODEL 6
REMARK VINA RESULT:    -3.462      7.413      8.546
REMARK INTER + INTRA:          -4.191
REMARK INTER:                  -4.015
REMARK INTRA:                  -0.176
REMARK UNBOUND:                -0.122
REMARK SMILES O=C([O-])CCC(=O)[O-]
REMARK SMILES IDX 4 1 2 2 1 3 3 4 5 5 6 6 7 7 8 8
REMARK H PARENT
REMARK Flexibility Score: inf
ROOT
ATOM      1  C   UNL     1       1.635   4.015  10.404  1.00  0.00     0.059 C 
ENDROOT
BRANCH   1   2
ATOM      2  C   UNL     1       0.392   4.697  10.888  1.00  0.00     0.042 C 
ATOM      3  O   UNL     1      -0.310   5.376  10.093  1.00  0.00    -0.550 OA
ATOM      4  O   UNL     1      -0.011   4.550  12.209  1.00  0.00    -0.550 OA
ENDBRANCH   1   2
BRANCH   1   5
ATOM      5  C   UNL     1       2.599   5.006   9.740  1.00  0.00     0.059 C 
BRANCH   5   6
ATOM      6  C   UNL     1       3.087   6.036  10.712  1.00  0.00     0.042 C 
ATOM      7  O   UNL     1       3.720   5.686  11.742  1.00  0.00    -0.550 OA
ATOM      8  O   UNL     1       2.806   7.381  10.500  1.00  0.00    -0.550 OA
ENDBRANCH   5   6
ENDBRANCH   1   5
TORSDOF 3
ENDMDL
MODEL 7
REMARK VINA RESULT:    -3.442      7.452      8.592
REMARK INTER + INTRA:          -4.168
REMARK INTER:                  -3.979
REMARK INTRA:                  -0.189
REMARK UNBOUND:                -0.122
REMARK SMILES O=C([O-])CCC(=O)[O-]
REMARK SMILES IDX 4 1 2 2 1 3 3 4 5 5 6 6 7 7 8 8
REMARK H PARENT
REMARK Flexibility Score: inf
ROOT
ATOM      1  C   UNL     1       1.655   3.985  10.357  1.00  0.00     0.059 C 
ENDROOT
BRANCH   1   2
ATOM      2  C   UNL     1       0.427   4.671  10.869  1.00  0.00     0.042 C 
ATOM      3  O   UNL     1       0.127   4.609  12.090  1.00  0.00    -0.550 OA
ATOM      4  O   UNL     1      -0.367   5.413  10.003  1.00  0.00    -0.550 OA
ENDBRANCH   1   2
BRANCH   1   5
ATOM      5  C   UNL     1       2.620   4.976   9.694  1.00  0.00     0.059 C 
BRANCH   5   6
ATOM      6  C   UNL     1       3.117   5.998  10.670  1.00  0.00     0.042 C 
ATOM      7  O   UNL     1       3.002   7.225  10.415  1.00  0.00    -0.550 OA
ATOM      8  O   UNL     1       3.745   5.594  11.842  1.00  0.00    -0.550 OA
ENDBRANCH   5   6
ENDBRANCH   1   5
TORSDOF 3
ENDMDL
MODEL 8
REMARK VINA RESULT:    -3.372      8.372      9.224
REMARK INTER + INTRA:          -4.086
REMARK INTER:                  -3.922
REMARK INTRA:                  -0.164
REMARK UNBOUND:                -0.122
REMARK SMILES O=C([O-])CCC(=O)[O-]
REMARK SMILES IDX 4 1 2 2 1 3 3 4 5 5 6 6 7 7 8 8
REMARK H PARENT
REMARK Flexibility Score: inf
ROOT
ATOM      1  C   UNL     1       3.071   5.212  10.219  1.00  0.00     0.059 C 
ENDROOT
BRANCH   1   2
ATOM      2  C   UNL     1       2.775   6.499  10.926  1.00  0.00     0.042 C 
ATOM      3  O   UNL     1       2.848   7.594  10.308  1.00  0.00    -0.550 OA
ATOM      4  O   UNL     1       2.381   6.486  12.258  1.00  0.00    -0.550 OA
ENDBRANCH   1   2
BRANCH   1   5
ATOM      5  C   UNL     1       1.856   4.276  10.222  1.00  0.00     0.059 C 
BRANCH   5   6
ATOM      6  C   UNL     1       0.764   4.787   9.333  1.00  0.00     0.042 C 
ATOM      7  O   UNL     1       0.881   4.715   8.082  1.00  0.00    -0.550 OA
ATOM      8  O   UNL     1      -0.365   5.378   9.887  1.00  0.00    -0.550 OA
ENDBRANCH   5   6
ENDBRANCH   1   5
TORSDOF 3
ENDMDL
MODEL 9
REMARK VINA RESULT:    -3.337      8.481      9.278
REMARK INTER + INTRA:          -4.045
REMARK INTER:                  -3.911
REMARK INTRA:                  -0.134
REMARK UNBOUND:                -0.122
REMARK SMILES O=C([O-])CCC(=O)[O-]
REMARK SMILES IDX 4 1 2 2 1 3 3 4 5 5 6 6 7 7 8 8
REMARK H PARENT
REMARK Flexibility Score: inf
ROOT
ATOM      1  C   UNL     1       1.909   4.389  10.149  1.00  0.00     0.059 C 
ENDROOT
BRANCH   1   2
ATOM      2  C   UNL     1       0.758   4.815   9.291  1.00  0.00     0.042 C 
ATOM      3  O   UNL     1      -0.253   5.359   9.809  1.00  0.00    -0.550 OA
ATOM      4  O   UNL     1       0.818   4.647   7.914  1.00  0.00    -0.550 OA
ENDBRANCH   1   2
BRANCH   1   5
ATOM      5  C   UNL     1       3.076   5.380  10.060  1.00  0.00     0.059 C 
BRANCH   5   6
ATOM      6  C   UNL     1       2.775   6.654  10.788  1.00  0.00     0.042 C 
ATOM      7  O   UNL     1       2.879   7.760  10.197  1.00  0.00    -0.550 OA
ATOM      8  O   UNL     1       2.418   6.621  12.130  1.00  0.00    -0.550 OA
ENDBRANCH   5   6
ENDBRANCH   1   5
TORSDOF 3
ENDMDL
