MODEL 1
REMARK VINA RESULT:    -5.034      0.000      0.000
REMARK INTER + INTRA:         -11.072
REMARK INTER:                  -9.744
REMARK INTRA:                  -1.329
REMARK UNBOUND:                -1.329
REMARK SMILES CCCCCC=CCC=CCCCCCCCCOC(C)=O
REMARK SMILES IDX 12 1 11 2 10 3 9 4 8 5 7 6 6 7 5 8 4 9 3 10 2 11 1 12 13 13
REMARK SMILES IDX 14 14 15 15 16 16 17 17 18 18 19 19 20 20 22 21 21 22
REMARK H PARENT
REMARK Flexibility Score: inf
ROOT
ATOM      1  C   UNL     1      72.407  52.606  25.386  1.00  0.00     0.004 C 
ENDROOT
BRANCH   1   2
ATOM      2  C   UNL     1      71.815  52.675  26.801  1.00  0.00     0.027 C 
BRANCH   2   3
ATOM      3  C   UNL     1      71.708  54.094  27.303  1.00  0.00    -0.031 C 
ATOM      4  C   UNL     1      70.563  54.799  27.361  1.00  0.00    -0.027 C 
BRANCH   4   5
ATOM      5  C   UNL     1      69.204  54.254  27.004  1.00  0.00     0.054 C 
BRANCH   5   6
ATOM      6  C   UNL     1      68.240  55.362  26.683  1.00  0.00    -0.027 C 
ATOM      7  C   UNL     1      68.669  56.593  26.367  1.00  0.00    -0.031 C 
BRANCH   7   8
ATOM      8  C   UNL     1      67.712  57.692  25.991  1.00  0.00     0.027 C 
BRANCH   8   9
ATOM      9  C   UNL     1      66.259  57.313  26.312  1.00  0.00     0.004 C 
BRANCH   9  10
ATOM     10  C   UNL     1      65.300  57.417  25.112  1.00  0.00     0.000 C 
BRANCH  10  11
ATOM     11  C   UNL     1      65.146  56.087  24.359  1.00  0.00    -0.003 C 
ATOM     12  C   UNL     1      66.032  56.055  23.118  1.00  0.00     0.004 C 
ENDBRANCH  10  11
ENDBRANCH   9  10
ENDBRANCH   8   9
ENDBRANCH   7   8
ENDBRANCH   5   6
ENDBRANCH   4   5
ENDBRANCH   2   3
ENDBRANCH   1   2
BRANCH   1  13
ATOM     13  C   UNL     1      72.228  51.219  24.747  1.00  0.00     0.000 C 
BRANCH  13  14
ATOM     14  C   UNL     1      71.269  51.248  23.537  1.00  0.00     0.000 C 
BRANCH  14  15
ATOM     15  C   UNL     1      70.339  50.022  23.457  1.00  0.00     0.000 C 
BRANCH  15  16
ATOM     16  C   UNL     1      69.334  50.046  22.291  1.00  0.00     0.003 C 
BRANCH  16  17
ATOM     17  C   UNL     1      69.835  50.754  21.017  1.00  0.00     0.042 C 
BRANCH  17  18
ATOM     18  C   UNL     1      68.857  51.795  20.463  1.00  0.00     0.233 C 
BRANCH  18  19
ATOM     19  O   UNL     1      68.346  51.370  19.203  1.00  0.00    -0.466 OA
BRANCH  19  20
ATOM     20  C   UNL     1      67.067  50.830  19.052  1.00  0.00     0.302 C 
ATOM     21  O   UNL     1      66.807  49.666  19.457  1.00  0.00    -0.253 OA
ATOM     22  C   UNL     1      65.987  51.656  18.437  1.00  0.00     0.139 C 
ENDBRANCH  19  20
ENDBRANCH  18  19
ENDBRANCH  17  18
ENDBRANCH  16  17
ENDBRANCH  15  16
ENDBRANCH  14  15
ENDBRANCH  13  14
ENDBRANCH   1  13
TORSDOF 16
ENDMDL
MODEL 2
REMARK VINA RESULT:    -4.941      3.020      5.882
REMARK INTER + INTRA:         -10.892
REMARK INTER:                  -8.037
REMARK INTRA:                  -2.855
REMARK UNBOUND:                -1.329
REMARK SMILES CCCCCC=CCC=CCCCCCCCCOC(C)=O
REMARK SMILES IDX 12 1 11 2 10 3 9 4 8 5 7 6 6 7 5 8 4 9 3 10 2 11 1 12 13 13
REMARK SMILES IDX 14 14 15 15 16 16 17 17 18 18 19 19 20 20 22 21 21 22
REMARK H PARENT
REMARK Flexibility Score: inf
ROOT
ATOM      1  C   UNL     1      71.015  53.691  26.555  1.00  0.00     0.004 C 
ENDROOT
BRANCH   1   2
ATOM      2  C   UNL     1      72.021  52.534  26.636  1.00  0.00     0.027 C 
BRANCH   2   3
ATOM      3  C   UNL     1      72.748  52.323  25.330  1.00  0.00    -0.031 C 
ATOM      4  C   UNL     1      72.734  51.177  24.625  1.00  0.00    -0.027 C 
BRANCH   4   5
ATOM      5  C   UNL     1      71.932  49.955  24.994  1.00  0.00     0.054 C 
BRANCH   5   6
ATOM      6  C   UNL     1      70.961  49.592  23.905  1.00  0.00    -0.027 C 
ATOM      7  C   UNL     1      70.301  50.533  23.214  1.00  0.00    -0.031 C 
BRANCH   7   8
ATOM      8  C   UNL     1      69.370  50.178  22.086  1.00  0.00     0.027 C 
BRANCH   8   9
ATOM      9  C   UNL     1      69.297  51.298  21.037  1.00  0.00     0.004 C 
BRANCH   9  10
ATOM     10  C   UNL     1      69.752  50.874  19.629  1.00  0.00     0.000 C 
BRANCH  10  11
ATOM     11  C   UNL     1      68.655  51.063  18.570  1.00  0.00    -0.003 C 
ATOM     12  C   UNL     1      67.379  50.325  18.964  1.00  0.00     0.004 C 
ENDBRANCH  10  11
ENDBRANCH   9  10
ENDBRANCH   8   9
ENDBRANCH   7   8
ENDBRANCH   5   6
ENDBRANCH   4   5
ENDBRANCH   2   3
ENDBRANCH   1   2
BRANCH   1  13
ATOM     13  C   UNL     1      70.127  53.603  25.303  1.00  0.00     0.000 C 
BRANCH  13  14
ATOM     14  C   UNL     1      70.232  54.864  24.417  1.00  0.00     0.000 C 
BRANCH  14  15
ATOM     15  C   UNL     1      70.467  54.553  22.927  1.00  0.00     0.000 C 
BRANCH  15  16
ATOM     16  C   UNL     1      71.941  54.576  22.485  1.00  0.00     0.003 C 
BRANCH  16  17
ATOM     17  C   UNL     1      72.347  53.447  21.517  1.00  0.00     0.042 C 
BRANCH  17  18
ATOM     18  C   UNL     1      73.031  53.945  20.240  1.00  0.00     0.233 C 
BRANCH  18  19
ATOM     19  O   UNL     1      72.129  54.739  19.473  1.00  0.00    -0.466 OA
BRANCH  19  20
ATOM     20  C   UNL     1      71.178  54.182  18.615  1.00  0.00     0.302 C 
ATOM     21  O   UNL     1      69.957  54.468  18.735  1.00  0.00    -0.253 OA
ATOM     22  C   UNL     1      71.619  53.267  17.522  1.00  0.00     0.139 C 
ENDBRANCH  19  20
ENDBRANCH  18  19
ENDBRANCH  17  18
ENDBRANCH  16  17
ENDBRANCH  15  16
ENDBRANCH  14  15
ENDBRANCH  13  14
ENDBRANCH   1  13
TORSDOF 16
ENDMDL
MODEL 3
REMARK VINA RESULT:    -4.878      3.044      8.294
REMARK INTER + INTRA:         -10.770
REMARK INTER:                  -9.045
REMARK INTRA:                  -1.724
REMARK UNBOUND:                -1.329
REMARK SMILES CCCCCC=CCC=CCCCCCCCCOC(C)=O
REMARK SMILES IDX 12 1 11 2 10 3 9 4 8 5 7 6 6 7 5 8 4 9 3 10 2 11 1 12 13 13
REMARK SMILES IDX 14 14 15 15 16 16 17 17 18 18 19 19 20 20 22 21 21 22
REMARK H PARENT
REMARK Flexibility Score: inf
ROOT
ATOM      1  C   UNL     1      65.448  56.084  23.822  1.00  0.00     0.004 C 
ENDROOT
BRANCH   1   2
ATOM      2  C   UNL     1      66.417  56.318  22.655  1.00  0.00     0.027 C 
BRANCH   2   3
ATOM      3  C   UNL     1      66.206  55.330  21.534  1.00  0.00    -0.031 C 
ATOM      4  C   UNL     1      67.192  54.801  20.786  1.00  0.00    -0.027 C 
BRANCH   4   5
ATOM      5  C   UNL     1      68.661  55.058  21.001  1.00  0.00     0.054 C 
BRANCH   5   6
ATOM      6  C   UNL     1      69.497  53.938  20.447  1.00  0.00    -0.027 C 
ATOM      7  C   UNL     1      69.296  52.665  20.818  1.00  0.00    -0.031 C 
BRANCH   7   8
ATOM      8  C   UNL     1      70.092  51.534  20.226  1.00  0.00     0.027 C 
BRANCH   8   9
ATOM      9  C   UNL     1      69.276  50.747  19.190  1.00  0.00     0.004 C 
BRANCH   9  10
ATOM     10  C   UNL     1      67.824  50.460  19.616  1.00  0.00     0.000 C 
BRANCH  10  11
ATOM     11  C   UNL     1      66.797  51.232  18.775  1.00  0.00    -0.003 C 
ATOM     12  C   UNL     1      67.482  52.046  17.682  1.00  0.00     0.004 C 
ENDBRANCH  10  11
ENDBRANCH   9  10
ENDBRANCH   8   9
ENDBRANCH   7   8
ENDBRANCH   5   6
ENDBRANCH   4   5
ENDBRANCH   2   3
ENDBRANCH   1   2
BRANCH   1  13
ATOM     13  C   UNL     1      65.286  57.333  24.704  1.00  0.00     0.000 C 
BRANCH  13  14
ATOM     14  C   UNL     1      66.070  57.222  26.030  1.00  0.00     0.000 C 
BRANCH  14  15
ATOM     15  C   UNL     1      67.527  57.714  25.928  1.00  0.00     0.000 C 
BRANCH  15  16
ATOM     16  C   UNL     1      68.593  56.621  26.128  1.00  0.00     0.003 C 
BRANCH  16  17
ATOM     17  C   UNL     1      68.051  55.269  26.634  1.00  0.00     0.042 C 
BRANCH  17  18
ATOM     18  C   UNL     1      69.024  54.517  27.546  1.00  0.00     0.233 C 
BRANCH  18  19
ATOM     19  O   UNL     1      69.935  53.745  26.768  1.00  0.00    -0.466 OA
BRANCH  19  20
ATOM     20  C   UNL     1      71.301  53.681  27.051  1.00  0.00     0.302 C 
ATOM     21  O   UNL     1      71.988  52.689  26.688  1.00  0.00    -0.253 OA
ATOM     22  C   UNL     1      71.960  54.815  27.761  1.00  0.00     0.139 C 
ENDBRANCH  19  20
ENDBRANCH  18  19
ENDBRANCH  17  18
ENDBRANCH  16  17
ENDBRANCH  15  16
ENDBRANCH  14  15
ENDBRANCH  13  14
ENDBRANCH   1  13
TORSDOF 16
ENDMDL
MODEL 4
REMARK VINA RESULT:    -4.848      2.885      6.874
REMARK INTER + INTRA:         -10.712
REMARK INTER:                  -9.051
REMARK INTRA:                  -1.660
REMARK UNBOUND:                -1.329
REMARK SMILES CCCCCC=CCC=CCCCCCCCCOC(C)=O
REMARK SMILES IDX 12 1 11 2 10 3 9 4 8 5 7 6 6 7 5 8 4 9 3 10 2 11 1 12 13 13
REMARK SMILES IDX 14 14 15 15 16 16 17 17 18 18 19 19 20 20 22 21 21 22
REMARK H PARENT
REMARK Flexibility Score: inf
ROOT
ATOM      1  C   UNL     1      71.602  54.648  27.707  1.00  0.00     0.004 C 
ENDROOT
BRANCH   1   2
ATOM      2  C   UNL     1      70.937  53.449  27.016  1.00  0.00     0.027 C 
BRANCH   2   3
ATOM      3  C   UNL     1      71.947  52.428  26.554  1.00  0.00    -0.031 C 
ATOM      4  C   UNL     1      72.101  52.029  25.277  1.00  0.00    -0.027 C 
BRANCH   4   5
ATOM      5  C   UNL     1      71.338  52.595  24.107  1.00  0.00     0.054 C 
BRANCH   5   6
ATOM      6  C   UNL     1      70.901  51.508  23.165  1.00  0.00    -0.027 C 
ATOM      7  C   UNL     1      70.145  51.775  22.090  1.00  0.00    -0.031 C 
BRANCH   7   8
ATOM      8  C   UNL     1      69.751  50.701  21.113  1.00  0.00     0.027 C 
BRANCH   8   9
ATOM      9  C   UNL     1      68.562  51.134  20.242  1.00  0.00     0.004 C 
BRANCH   9  10
ATOM     10  C   UNL     1      68.722  50.803  18.747  1.00  0.00     0.000 C 
BRANCH  10  11
ATOM     11  C   UNL     1      67.463  51.129  17.930  1.00  0.00    -0.003 C 
ATOM     12  C   UNL     1      66.287  51.461  18.844  1.00  0.00     0.004 C 
ENDBRANCH  10  11
ENDBRANCH   9  10
ENDBRANCH   8   9
ENDBRANCH   7   8
ENDBRANCH   5   6
ENDBRANCH   4   5
ENDBRANCH   2   3
ENDBRANCH   1   2
BRANCH   1  13
ATOM     13  C   UNL     1      72.249  55.614  26.699  1.00  0.00     0.000 C 
BRANCH  13  14
ATOM     14  C   UNL     1      71.248  56.659  26.161  1.00  0.00     0.000 C 
BRANCH  14  15
ATOM     15  C   UNL     1      70.618  56.271  24.810  1.00  0.00     0.000 C 
BRANCH  15  16
ATOM     16  C   UNL     1      69.103  55.998  24.856  1.00  0.00     0.003 C 
BRANCH  16  17
ATOM     17  C   UNL     1      68.464  56.119  26.254  1.00  0.00     0.042 C 
BRANCH  17  18
ATOM     18  C   UNL     1      67.173  56.943  26.273  1.00  0.00     0.233 C 
BRANCH  18  19
ATOM     19  O   UNL     1      66.769  57.260  24.944  1.00  0.00    -0.466 OA
BRANCH  19  20
ATOM     20  C   UNL     1      65.468  57.051  24.482  1.00  0.00     0.302 C 
ATOM     21  O   UNL     1      64.751  58.021  24.116  1.00  0.00    -0.253 OA
ATOM     22  C   UNL     1      64.934  55.662  24.387  1.00  0.00     0.139 C 
ENDBRANCH  19  20
ENDBRANCH  18  19
ENDBRANCH  17  18
ENDBRANCH  16  17
ENDBRANCH  15  16
ENDBRANCH  14  15
ENDBRANCH  13  14
ENDBRANCH   1  13
TORSDOF 16
ENDMDL
MODEL 5
REMARK VINA RESULT:    -4.788      2.646      7.029
REMARK INTER + INTRA:         -10.595
REMARK INTER:                  -9.307
REMARK INTRA:                  -1.288
REMARK UNBOUND:                -1.329
REMARK SMILES CCCCCC=CCC=CCCCCCCCCOC(C)=O
REMARK SMILES IDX 12 1 11 2 10 3 9 4 8 5 7 6 6 7 5 8 4 9 3 10 2 11 1 12 13 13
REMARK SMILES IDX 14 14 15 15 16 16 17 17 18 18 19 19 20 20 22 21 21 22
REMARK H PARENT
REMARK Flexibility Score: inf
ROOT
ATOM      1  C   UNL     1      71.999  52.093  26.493  1.00  0.00     0.004 C 
ENDROOT
BRANCH   1   2
ATOM      2  C   UNL     1      71.953  51.220  25.231  1.00  0.00     0.027 C 
BRANCH   2   3
ATOM      3  C   UNL     1      71.655  52.029  23.993  1.00  0.00    -0.031 C 
ATOM      4  C   UNL     1      70.917  51.593  22.955  1.00  0.00    -0.027 C 
BRANCH   4   5
ATOM      5  C   UNL     1      70.216  50.260  22.904  1.00  0.00     0.054 C 
BRANCH   5   6
ATOM      6  C   UNL     1      69.421  50.110  21.636  1.00  0.00    -0.027 C 
ATOM      7  C   UNL     1      68.984  51.179  20.954  1.00  0.00    -0.031 C 
BRANCH   7   8
ATOM      8  C   UNL     1      68.237  51.037  19.656  1.00  0.00     0.027 C 
BRANCH   8   9
ATOM      9  C   UNL     1      69.191  50.804  18.474  1.00  0.00     0.004 C 
BRANCH   9  10
ATOM     10  C   UNL     1      70.245  51.910  18.286  1.00  0.00     0.000 C 
BRANCH  10  11
ATOM     11  C   UNL     1      69.695  53.132  17.535  1.00  0.00    -0.003 C 
ATOM     12  C   UNL     1      70.792  53.819  16.728  1.00  0.00     0.004 C 
ENDBRANCH  10  11
ENDBRANCH   9  10
ENDBRANCH   8   9
ENDBRANCH   7   8
ENDBRANCH   5   6
ENDBRANCH   4   5
ENDBRANCH   2   3
ENDBRANCH   1   2
BRANCH   1  13
ATOM     13  C   UNL     1      71.398  53.489  26.257  1.00  0.00     0.000 C 
BRANCH  13  14
ATOM     14  C   UNL     1      71.040  54.205  27.577  1.00  0.00     0.000 C 
BRANCH  14  15
ATOM     15  C   UNL     1      69.525  54.301  27.837  1.00  0.00     0.000 C 
BRANCH  15  16
ATOM     16  C   UNL     1      68.690  54.772  26.631  1.00  0.00     0.003 C 
BRANCH  16  17
ATOM     17  C   UNL     1      68.947  56.228  26.193  1.00  0.00     0.042 C 
BRANCH  17  18
ATOM     18  C   UNL     1      67.727  56.906  25.563  1.00  0.00     0.233 C 
BRANCH  18  19
ATOM     19  O   UNL     1      67.424  56.309  24.305  1.00  0.00    -0.466 OA
BRANCH  19  20
ATOM     20  C   UNL     1      66.157  56.380  23.723  1.00  0.00     0.302 C 
ATOM     21  O   UNL     1      65.991  56.947  22.609  1.00  0.00    -0.253 OA
ATOM     22  C   UNL     1      64.994  55.749  24.410  1.00  0.00     0.139 C 
ENDBRANCH  19  20
ENDBRANCH  18  19
ENDBRANCH  17  18
ENDBRANCH  16  17
ENDBRANCH  15  16
ENDBRANCH  14  15
ENDBRANCH  13  14
ENDBRANCH   1  13
TORSDOF 16
ENDMDL
MODEL 6
REMARK VINA RESULT:    -4.786      1.967      5.241
REMARK INTER + INTRA:         -10.592
REMARK INTER:                  -7.344
REMARK INTRA:                  -3.249
REMARK UNBOUND:                -1.329
REMARK SMILES CCCCCC=CCC=CCCCCCCCCOC(C)=O
REMARK SMILES IDX 12 1 11 2 10 3 9 4 8 5 7 6 6 7 5 8 4 9 3 10 2 11 1 12 13 13
REMARK SMILES IDX 14 14 15 15 16 16 17 17 18 18 19 19 20 20 22 21 21 22
REMARK H PARENT
REMARK Flexibility Score: inf
ROOT
ATOM      1  C   UNL     1      69.282  56.122  24.648  1.00  0.00     0.004 C 
ENDROOT
BRANCH   1   2
ATOM      2  C   UNL     1      69.005  56.345  26.142  1.00  0.00     0.027 C 
BRANCH   2   3
ATOM      3  C   UNL     1      68.627  55.065  26.845  1.00  0.00    -0.031 C 
ATOM      4  C   UNL     1      69.478  54.308  27.562  1.00  0.00    -0.027 C 
BRANCH   4   5
ATOM      5  C   UNL     1      70.919  54.661  27.833  1.00  0.00     0.054 C 
BRANCH   5   6
ATOM      6  C   UNL     1      71.846  53.893  26.933  1.00  0.00    -0.027 C 
ATOM      7  C   UNL     1      71.624  52.604  26.634  1.00  0.00    -0.031 C 
BRANCH   7   8
ATOM      8  C   UNL     1      72.517  51.846  25.691  1.00  0.00     0.027 C 
BRANCH   8   9
ATOM      9  C   UNL     1      73.629  52.739  25.121  1.00  0.00     0.004 C 
BRANCH   9  10
ATOM     10  C   UNL     1      74.067  52.368  23.692  1.00  0.00     0.000 C 
BRANCH  10  11
ATOM     11  C   UNL     1      74.523  53.587  22.877  1.00  0.00    -0.003 C 
ATOM     12  C   UNL     1      74.051  53.487  21.430  1.00  0.00     0.004 C 
ENDBRANCH  10  11
ENDBRANCH   9  10
ENDBRANCH   8   9
ENDBRANCH   7   8
ENDBRANCH   5   6
ENDBRANCH   4   5
ENDBRANCH   2   3
ENDBRANCH   1   2
BRANCH   1  13
ATOM     13  C   UNL     1      70.776  56.256  24.307  1.00  0.00     0.000 C 
BRANCH  13  14
ATOM     14  C   UNL     1      71.260  55.150  23.345  1.00  0.00     0.000 C 
BRANCH  14  15
ATOM     15  C   UNL     1      70.380  53.886  23.365  1.00  0.00     0.000 C 
BRANCH  15  16
ATOM     16  C   UNL     1      70.556  52.955  22.151  1.00  0.00     0.003 C 
BRANCH  16  17
ATOM     17  C   UNL     1      70.730  51.463  22.497  1.00  0.00     0.042 C 
BRANCH  17  18
ATOM     18  C   UNL     1      69.670  50.555  21.865  1.00  0.00     0.233 C 
BRANCH  18  19
ATOM     19  O   UNL     1      68.890  51.287  20.924  1.00  0.00    -0.466 OA
BRANCH  19  20
ATOM     20  C   UNL     1      68.673  50.842  19.618  1.00  0.00     0.302 C 
ATOM     21  O   UNL     1      69.608  50.844  18.773  1.00  0.00    -0.253 OA
ATOM     22  C   UNL     1      67.328  50.326  19.230  1.00  0.00     0.139 C 
ENDBRANCH  19  20
ENDBRANCH  18  19
ENDBRANCH  17  18
ENDBRANCH  16  17
ENDBRANCH  15  16
ENDBRANCH  14  15
ENDBRANCH  13  14
ENDBRANCH   1  13
TORSDOF 16
ENDMDL
MODEL 7
REMARK VINA RESULT:    -4.784      3.120      7.528
REMARK INTER + INTRA:         -10.588
REMARK INTER:                  -7.516
REMARK INTRA:                  -3.072
REMARK UNBOUND:                -1.329
REMARK SMILES CCCCCC=CCC=CCCCCCCCCOC(C)=O
REMARK SMILES IDX 12 1 11 2 10 3 9 4 8 5 7 6 6 7 5 8 4 9 3 10 2 11 1 12 13 13
REMARK SMILES IDX 14 14 15 15 16 16 17 17 18 18 19 19 20 20 22 21 21 22
REMARK H PARENT
REMARK Flexibility Score: inf
ROOT
ATOM      1  C   UNL     1      71.048  53.615  17.927  1.00  0.00     0.004 C 
ENDROOT
BRANCH   1   2
ATOM      2  C   UNL     1      70.224  52.387  17.514  1.00  0.00     0.027 C 
BRANCH   2   3
ATOM      3  C   UNL     1      68.747  52.691  17.447  1.00  0.00    -0.031 C 
ATOM      4  C   UNL     1      67.776  51.850  17.848  1.00  0.00    -0.027 C 
BRANCH   4   5
ATOM      5  C   UNL     1      68.017  50.508  18.491  1.00  0.00     0.054 C 
BRANCH   5   6
ATOM      6  C   UNL     1      68.210  50.644  19.976  1.00  0.00    -0.027 C 
ATOM      7  C   UNL     1      69.423  50.532  20.537  1.00  0.00    -0.031 C 
BRANCH   7   8
ATOM      8  C   UNL     1      69.631  50.722  22.015  1.00  0.00     0.027 C 
BRANCH   8   9
ATOM      9  C   UNL     1      70.778  51.702  22.306  1.00  0.00     0.004 C 
BRANCH   9  10
ATOM     10  C   UNL     1      70.707  52.361  23.695  1.00  0.00     0.000 C 
BRANCH  10  11
ATOM     11  C   UNL     1      71.156  53.830  23.678  1.00  0.00    -0.003 C 
ATOM     12  C   UNL     1      72.627  53.950  23.290  1.00  0.00     0.004 C 
ENDBRANCH  10  11
ENDBRANCH   9  10
ENDBRANCH   8   9
ENDBRANCH   7   8
ENDBRANCH   5   6
ENDBRANCH   4   5
ENDBRANCH   2   3
ENDBRANCH   1   2
BRANCH   1  13
ATOM     13  C   UNL     1      71.373  53.619  19.430  1.00  0.00     0.000 C 
BRANCH  13  14
ATOM     14  C   UNL     1      71.151  55.003  20.076  1.00  0.00     0.000 C 
BRANCH  14  15
ATOM     15  C   UNL     1      69.673  55.437  20.114  1.00  0.00     0.000 C 
BRANCH  15  16
ATOM     16  C   UNL     1      68.745  54.501  20.910  1.00  0.00     0.003 C 
BRANCH  16  17
ATOM     17  C   UNL     1      67.317  54.369  20.346  1.00  0.00     0.042 C 
BRANCH  17  18
ATOM     18  C   UNL     1      66.234  54.945  21.264  1.00  0.00     0.233 C 
BRANCH  18  19
ATOM     19  O   UNL     1      66.791  55.935  22.124  1.00  0.00    -0.466 OA
BRANCH  19  20
ATOM     20  C   UNL     1      66.023  56.655  23.041  1.00  0.00     0.302 C 
ATOM     21  O   UNL     1      65.931  57.909  22.961  1.00  0.00    -0.253 OA
ATOM     22  C   UNL     1      65.274  55.926  24.106  1.00  0.00     0.139 C 
ENDBRANCH  19  20
ENDBRANCH  18  19
ENDBRANCH  17  18
ENDBRANCH  16  17
ENDBRANCH  15  16
ENDBRANCH  14  15
ENDBRANCH  13  14
ENDBRANCH   1  13
TORSDOF 16
ENDMDL
MODEL 8
REMARK VINA RESULT:    -4.737      2.747      5.324
REMARK INTER + INTRA:         -10.496
REMARK INTER:                  -9.068
REMARK INTRA:                  -1.428
REMARK UNBOUND:                -1.329
REMARK SMILES CCCCCC=CCC=CCCCCCCCCOC(C)=O
REMARK SMILES IDX 12 1 11 2 10 3 9 4 8 5 7 6 6 7 5 8 4 9 3 10 2 11 1 12 13 13
REMARK SMILES IDX 14 14 15 15 16 16 17 17 18 18 19 19 20 20 22 21 21 22
REMARK H PARENT
REMARK Flexibility Score: inf
ROOT
ATOM      1  C   UNL     1      69.376  49.831  22.052  1.00  0.00     0.004 C 
ENDROOT
BRANCH   1   2
ATOM      2  C   UNL     1      70.101  50.656  23.124  1.00  0.00     0.027 C 
BRANCH   2   3
ATOM      3  C   UNL     1      70.653  51.947  22.570  1.00  0.00    -0.031 C 
ATOM      4  C   UNL     1      71.823  52.499  22.941  1.00  0.00    -0.027 C 
BRANCH   4   5
ATOM      5  C   UNL     1      72.794  51.875  23.911  1.00  0.00     0.054 C 
BRANCH   5   6
ATOM      6  C   UNL     1      72.809  52.616  25.219  1.00  0.00    -0.027 C 
ATOM      7  C   UNL     1      71.703  52.734  25.969  1.00  0.00    -0.031 C 
BRANCH   7   8
ATOM      8  C   UNL     1      71.724  53.425  27.305  1.00  0.00     0.027 C 
BRANCH   8   9
ATOM      9  C   UNL     1      70.878  54.707  27.293  1.00  0.00     0.004 C 
BRANCH   9  10
ATOM     10  C   UNL     1      69.377  54.475  27.543  1.00  0.00     0.000 C 
BRANCH  10  11
ATOM     11  C   UNL     1      68.489  55.154  26.490  1.00  0.00    -0.003 C 
ATOM     12  C   UNL     1      69.275  55.444  25.214  1.00  0.00     0.004 C 
ENDBRANCH  10  11
ENDBRANCH   9  10
ENDBRANCH   8   9
ENDBRANCH   7   8
ENDBRANCH   5   6
ENDBRANCH   4   5
ENDBRANCH   2   3
ENDBRANCH   1   2
BRANCH   1  13
ATOM     13  C   UNL     1      69.390  50.523  20.678  1.00  0.00     0.000 C 
BRANCH  13  14
ATOM     14  C   UNL     1      68.003  50.511  20.000  1.00  0.00     0.000 C 
BRANCH  14  15
ATOM     15  C   UNL     1      68.062  50.695  18.471  1.00  0.00     0.000 C 
BRANCH  15  16
ATOM     16  C   UNL     1      68.274  52.146  18.003  1.00  0.00     0.003 C 
BRANCH  16  17
ATOM     17  C   UNL     1      69.680  52.452  17.449  1.00  0.00     0.042 C 
BRANCH  17  18
ATOM     18  C   UNL     1      70.563  53.250  18.413  1.00  0.00     0.233 C 
BRANCH  18  19
ATOM     19  O   UNL     1      71.052  54.427  17.775  1.00  0.00    -0.466 OA
BRANCH  19  20
ATOM     20  C   UNL     1      72.114  54.406  16.869  1.00  0.00     0.302 C 
ATOM     21  O   UNL     1      73.297  54.232  17.266  1.00  0.00    -0.253 OA
ATOM     22  C   UNL     1      71.841  54.557  15.410  1.00  0.00     0.139 C 
ENDBRANCH  19  20
ENDBRANCH  18  19
ENDBRANCH  17  18
ENDBRANCH  16  17
ENDBRANCH  15  16
ENDBRANCH  14  15
ENDBRANCH  13  14
ENDBRANCH   1  13
TORSDOF 16
ENDMDL
MODEL 9
REMARK VINA RESULT:    -4.679      3.530      7.542
REMARK INTER + INTRA:         -10.384
REMARK INTER:                  -7.717
REMARK INTRA:                  -2.668
REMARK UNBOUND:                -1.329
REMARK SMILES CCCCCC=CCC=CCCCCCCCCOC(C)=O
REMARK SMILES IDX 12 1 11 2 10 3 9 4 8 5 7 6 6 7 5 8 4 9 3 10 2 11 1 12 13 13
REMARK SMILES IDX 14 14 15 15 16 16 17 17 18 18 19 19 20 20 22 21 21 22
REMARK H PARENT
REMARK Flexibility Score: inf
ROOT
ATOM      1  C   UNL     1      69.266  50.147  21.065  1.00  0.00     0.004 C 
ENDROOT
BRANCH   1   2
ATOM      2  C   UNL     1      69.731  50.882  19.800  1.00  0.00     0.027 C 
BRANCH   2   3
ATOM      3  C   UNL     1      68.784  50.674  18.643  1.00  0.00    -0.031 C 
ATOM      4  C   UNL     1      67.613  51.319  18.489  1.00  0.00    -0.027 C 
BRANCH   4   5
ATOM      5  C   UNL     1      67.103  52.400  19.408  1.00  0.00     0.054 C 
BRANCH   5   6
ATOM      6  C   UNL     1      67.941  53.644  19.302  1.00  0.00    -0.027 C 
ATOM      7  C   UNL     1      68.480  54.219  20.388  1.00  0.00    -0.031 C 
BRANCH   7   8
ATOM      8  C   UNL     1      69.364  55.432  20.283  1.00  0.00     0.027 C 
BRANCH   8   9
ATOM      9  C   UNL     1      70.384  55.293  19.143  1.00  0.00     0.004 C 
BRANCH   9  10
ATOM     10  C   UNL     1      71.412  54.165  19.348  1.00  0.00     0.000 C 
BRANCH  10  11
ATOM     11  C   UNL     1      71.812  53.481  18.033  1.00  0.00    -0.003 C 
ATOM     12  C   UNL     1      70.674  53.535  17.018  1.00  0.00     0.004 C 
ENDBRANCH  10  11
ENDBRANCH   9  10
ENDBRANCH   8   9
ENDBRANCH   7   8
ENDBRANCH   5   6
ENDBRANCH   4   5
ENDBRANCH   2   3
ENDBRANCH   1   2
BRANCH   1  13
ATOM     13  C   UNL     1      70.092  50.541  22.302  1.00  0.00     0.000 C 
BRANCH  13  14
ATOM     14  C   UNL     1      70.402  52.052  22.345  1.00  0.00     0.000 C 
BRANCH  14  15
ATOM     15  C   UNL     1      71.878  52.371  22.654  1.00  0.00     0.000 C 
BRANCH  15  16
ATOM     16  C   UNL     1      72.095  53.487  23.692  1.00  0.00     0.003 C 
BRANCH  16  17
ATOM     17  C   UNL     1      71.206  54.732  23.503  1.00  0.00     0.042 C 
BRANCH  17  18
ATOM     18  C   UNL     1      70.139  54.899  24.589  1.00  0.00     0.233 C 
BRANCH  18  19
ATOM     19  O   UNL     1      70.327  53.933  25.619  1.00  0.00    -0.466 OA
BRANCH  19  20
ATOM     20  C   UNL     1      70.269  54.258  26.976  1.00  0.00     0.302 C 
ATOM     21  O   UNL     1      69.172  54.243  27.595  1.00  0.00    -0.253 OA
ATOM     22  C   UNL     1      71.525  54.593  27.708  1.00  0.00     0.139 C 
ENDBRANCH  19  20
ENDBRANCH  18  19
ENDBRANCH  17  18
ENDBRANCH  16  17
ENDBRANCH  15  16
ENDBRANCH  14  15
ENDBRANCH  13  14
ENDBRANCH   1  13
TORSDOF 16
ENDMDL
