MODEL 1
REMARK VINA RESULT:    -7.677      0.000      0.000
REMARK INTER + INTRA:         -12.411
REMARK INTER:                 -10.370
REMARK INTRA:                  -2.041
REMARK UNBOUND:                -2.041
REMARK SMILES CC[C@H](CC[C@@H](C)[C@H]1CC[C@@H]2[C@H]3CC(=O)C4=CC(=O)CC[C@@]4(C)[C@H]3CC[C@]21C)C(C)C
REMARK SMILES IDX 4 1 3 2 2 3 1 4 29 5 30 6 31 7 5 8 6 9 7 10 8 11 9 12 27 13
REMARK SMILES IDX 10 14 11 15 26 16 28 17 12 18 25 19 24 20 13 21 22 22 14 23
REMARK SMILES IDX 16 24 21 25 23 26 15 27 17 28 20 29 18 30 19 31
REMARK H PARENT
REMARK Flexibility Score: inf
ROOT
ATOM      1  C   UNL     1      13.707 -30.965  21.618  1.00  0.00     0.004 C 
ENDROOT
BRANCH   1   2
ATOM      2  C   UNL     1      13.786 -30.175  22.961  1.00  0.00    -0.009 C 
BRANCH   2   3
ATOM      3  C   UNL     1      15.019 -29.230  23.100  1.00  0.00     0.000 C 
ATOM      4  C   UNL     1      16.002 -29.177  21.926  1.00  0.00     0.004 C 
ENDBRANCH   2   3
BRANCH   2   5
ATOM      5  C   UNL     1      12.404 -29.657  23.486  1.00  0.00    -0.014 C 
ATOM      6  C   UNL     1      12.540 -28.382  24.334  1.00  0.00     0.007 C 
ATOM      7  C   UNL     1      11.308 -29.499  22.421  1.00  0.00     0.007 C 
ENDBRANCH   2   5
ENDBRANCH   1   2
BRANCH   1   8
ATOM      8  C   UNL     1      14.180 -32.435  21.658  1.00  0.00     0.004 C 
BRANCH   8   9
ATOM      9  C   UNL     1      15.256 -32.739  22.750  1.00  0.00    -0.011 C 
ATOM     10  C   UNL     1      14.636 -33.712  23.787  1.00  0.00     0.008 C 
BRANCH   9  11
ATOM     11  C   UNL     1      16.623 -33.286  22.182  1.00  0.00    -0.002 C 
ATOM     12  C   UNL     1      16.785 -33.071  20.645  1.00  0.00     0.005 C 
ATOM     13  C   UNL     1      17.979 -32.727  22.797  1.00  0.00    -0.026 C 
ATOM     14  C   UNL     1      18.162 -32.461  20.404  1.00  0.00     0.005 C 
ATOM     15  C   UNL     1      18.444 -31.752  21.709  1.00  0.00    -0.001 C 
ATOM     16  C   UNL     1      17.917 -31.880  24.111  1.00  0.00     0.007 C 
ATOM     17  C   UNL     1      18.972 -33.939  22.976  1.00  0.00     0.012 C 
ATOM     18  C   UNL     1      19.876 -31.150  21.888  1.00  0.00     0.004 C 
ATOM     19  C   UNL     1      19.129 -30.917  24.336  1.00  0.00     0.005 C 
ATOM     20  C   UNL     1      20.339 -31.170  23.392  1.00  0.00     0.003 C 
ATOM     21  C   UNL     1      19.867 -29.723  21.292  1.00  0.00     0.085 C 
ATOM     22  C   UNL     1      21.665 -30.339  23.675  1.00  0.00    -0.000 C 
ATOM     23  C   UNL     1      21.106 -28.953  21.582  1.00  0.00     0.159 C 
ATOM     24  C   UNL     1      21.694 -29.011  22.927  1.00  0.00     0.005 C 
ATOM     25  C   UNL     1      21.855 -30.081  25.205  1.00  0.00     0.020 C 
ATOM     26  C   UNL     1      22.874 -31.170  23.156  1.00  0.00     0.017 C 
ATOM     27  O   UNL     1      21.580 -28.184  20.701  1.00  0.00    -0.295 OA
ATOM     28  C   UNL     1      22.413 -27.965  23.382  1.00  0.00     0.055 C 
ATOM     29  C   UNL     1      23.097 -29.238  25.523  1.00  0.00     0.081 C 
ATOM     30  C   UNL     1      23.125 -28.007  24.670  1.00  0.00     0.156 C 
ATOM     31  O   UNL     1      23.795 -27.008  25.041  1.00  0.00    -0.295 OA
ENDBRANCH   9  11
ENDBRANCH   8   9
ENDBRANCH   1   8
TORSDOF 6
ENDMDL
MODEL 2
REMARK VINA RESULT:    -7.254      2.524      5.032
REMARK INTER + INTRA:         -11.840
REMARK INTER:                  -8.993
REMARK INTRA:                  -2.846
REMARK UNBOUND:                -2.041
REMARK SMILES CC[C@H](CC[C@@H](C)[C@H]1CC[C@@H]2[C@H]3CC(=O)C4=CC(=O)CC[C@@]4(C)[C@H]3CC[C@]21C)C(C)C
REMARK SMILES IDX 4 1 3 2 2 3 1 4 29 5 30 6 31 7 5 8 6 9 7 10 8 11 9 12 27 13
REMARK SMILES IDX 10 14 11 15 26 16 28 17 12 18 25 19 24 20 13 21 22 22 14 23
REMARK SMILES IDX 16 24 21 25 23 26 15 27 17 28 20 29 18 30 19 31
REMARK H PARENT
REMARK Flexibility Score: inf
ROOT
ATOM      1  C   UNL     1      17.213 -35.110  22.475  1.00  0.00     0.004 C 
ENDROOT
BRANCH   1   2
ATOM      2  C   UNL     1      17.889 -34.898  23.864  1.00  0.00    -0.009 C 
BRANCH   2   3
ATOM      3  C   UNL     1      16.903 -34.759  25.064  1.00  0.00     0.000 C 
ATOM      4  C   UNL     1      16.901 -35.880  26.109  1.00  0.00     0.004 C 
ENDBRANCH   2   3
BRANCH   2   5
ATOM      5  C   UNL     1      19.192 -35.739  24.083  1.00  0.00    -0.014 C 
ATOM      6  C   UNL     1      19.686 -36.402  22.787  1.00  0.00     0.007 C 
ATOM      7  C   UNL     1      20.338 -35.010  24.803  1.00  0.00     0.007 C 
ENDBRANCH   2   5
ENDBRANCH   1   2
BRANCH   1   8
ATOM      8  C   UNL     1      15.913 -34.318  22.217  1.00  0.00     0.004 C 
BRANCH   8   9
ATOM      9  C   UNL     1      16.007 -33.285  21.047  1.00  0.00    -0.011 C 
ATOM     10  C   UNL     1      14.702 -33.373  20.213  1.00  0.00     0.008 C 
BRANCH   9  11
ATOM     11  C   UNL     1      16.304 -31.806  21.508  1.00  0.00    -0.002 C 
ATOM     12  C   UNL     1      15.468 -31.364  22.750  1.00  0.00     0.005 C 
ATOM     13  C   UNL     1      17.798 -31.414  21.888  1.00  0.00    -0.026 C 
ATOM     14  C   UNL     1      16.426 -30.730  23.753  1.00  0.00     0.005 C 
ATOM     15  C   UNL     1      17.743 -31.394  23.420  1.00  0.00    -0.001 C 
ATOM     16  C   UNL     1      18.951 -32.409  21.530  1.00  0.00     0.007 C 
ATOM     17  C   UNL     1      18.100 -29.989  21.283  1.00  0.00     0.012 C 
ATOM     18  C   UNL     1      19.012 -30.844  24.149  1.00  0.00     0.004 C 
ATOM     19  C   UNL     1      20.246 -32.262  22.396  1.00  0.00     0.005 C 
ATOM     20  C   UNL     1      20.303 -30.968  23.257  1.00  0.00     0.003 C 
ATOM     21  C   UNL     1      19.148 -31.598  25.493  1.00  0.00     0.085 C 
ATOM     22  C   UNL     1      21.660 -30.673  24.033  1.00  0.00    -0.000 C 
ATOM     23  C   UNL     1      20.430 -31.326  26.196  1.00  0.00     0.159 C 
ATOM     24  C   UNL     1      21.682 -31.290  25.428  1.00  0.00     0.005 C 
ATOM     25  C   UNL     1      22.896 -31.176  23.221  1.00  0.00     0.020 C 
ATOM     26  C   UNL     1      21.780 -29.134  24.224  1.00  0.00     0.017 C 
ATOM     27  O   UNL     1      20.440 -31.228  27.454  1.00  0.00    -0.295 OA
ATOM     28  C   UNL     1      22.842 -31.610  26.035  1.00  0.00     0.055 C 
ATOM     29  C   UNL     1      24.226 -30.958  23.953  1.00  0.00     0.081 C 
ATOM     30  C   UNL     1      24.141 -31.480  25.355  1.00  0.00     0.156 C 
ATOM     31  O   UNL     1      25.198 -31.778  25.974  1.00  0.00    -0.295 OA
ENDBRANCH   9  11
ENDBRANCH   8   9
ENDBRANCH   1   8
TORSDOF 6
ENDMDL
MODEL 3
REMARK VINA RESULT:    -7.238      3.123      7.779
REMARK INTER + INTRA:         -11.818
REMARK INTER:                 -10.091
REMARK INTRA:                  -1.727
REMARK UNBOUND:                -2.041
REMARK SMILES CC[C@H](CC[C@@H](C)[C@H]1CC[C@@H]2[C@H]3CC(=O)C4=CC(=O)CC[C@@]4(C)[C@H]3CC[C@]21C)C(C)C
REMARK SMILES IDX 4 1 3 2 2 3 1 4 29 5 30 6 31 7 5 8 6 9 7 10 8 11 9 12 27 13
REMARK SMILES IDX 10 14 11 15 26 16 28 17 12 18 25 19 24 20 13 21 22 22 14 23
REMARK SMILES IDX 16 24 21 25 23 26 15 27 17 28 20 29 18 30 19 31
REMARK H PARENT
REMARK Flexibility Score: inf
ROOT
ATOM      1  C   UNL     1      21.523 -25.465  23.187  1.00  0.00     0.004 C 
ENDROOT
BRANCH   1   2
ATOM      2  C   UNL     1      21.308 -25.621  21.650  1.00  0.00    -0.009 C 
BRANCH   2   3
ATOM      3  C   UNL     1      19.832 -25.871  21.212  1.00  0.00     0.000 C 
ATOM      4  C   UNL     1      19.527 -27.182  20.478  1.00  0.00     0.004 C 
ENDBRANCH   2   3
BRANCH   2   5
ATOM      5  C   UNL     1      22.176 -24.654  20.776  1.00  0.00    -0.014 C 
ATOM      6  C   UNL     1      23.175 -23.842  21.616  1.00  0.00     0.007 C 
ATOM      7  C   UNL     1      22.867 -25.298  19.564  1.00  0.00     0.007 C 
ENDBRANCH   2   5
ENDBRANCH   1   2
BRANCH   1   8
ATOM      8  C   UNL     1      22.129 -26.681  23.921  1.00  0.00     0.004 C 
BRANCH   8   9
ATOM      9  C   UNL     1      22.510 -27.876  22.989  1.00  0.00    -0.011 C 
ATOM     10  C   UNL     1      23.946 -27.637  22.453  1.00  0.00     0.008 C 
BRANCH   9  11
ATOM     11  C   UNL     1      22.369 -29.296  23.661  1.00  0.00    -0.002 C 
ATOM     12  C   UNL     1      21.816 -29.239  25.120  1.00  0.00     0.005 C 
ATOM     13  C   UNL     1      21.461 -30.389  22.946  1.00  0.00    -0.026 C 
ATOM     14  C   UNL     1      20.690 -30.261  25.230  1.00  0.00     0.005 C 
ATOM     15  C   UNL     1      20.192 -30.363  23.806  1.00  0.00    -0.001 C 
ATOM     16  C   UNL     1      20.974 -30.121  21.483  1.00  0.00     0.007 C 
ATOM     17  C   UNL     1      22.208 -31.775  23.027  1.00  0.00     0.012 C 
ATOM     18  C   UNL     1      19.132 -31.473  23.507  1.00  0.00     0.004 C 
ATOM     19  C   UNL     1      19.681 -30.896  21.064  1.00  0.00     0.005 C 
ATOM     20  C   UNL     1      19.262 -32.031  22.042  1.00  0.00     0.003 C 
ATOM     21  C   UNL     1      17.733 -30.879  23.792  1.00  0.00     0.085 C 
ATOM     22  C   UNL     1      18.057 -32.966  21.593  1.00  0.00    -0.000 C 
ATOM     23  C   UNL     1      16.618 -31.757  23.350  1.00  0.00     0.159 C 
ATOM     24  C   UNL     1      16.702 -32.433  22.047  1.00  0.00     0.005 C 
ATOM     25  C   UNL     1      18.045 -33.170  20.044  1.00  0.00     0.020 C 
ATOM     26  C   UNL     1      18.242 -34.351  22.277  1.00  0.00     0.017 C 
ATOM     27  O   UNL     1      15.571 -31.833  24.051  1.00  0.00    -0.295 OA
ATOM     28  C   UNL     1      15.569 -32.740  21.385  1.00  0.00     0.055 C 
ATOM     29  C   UNL     1      16.868 -34.026  19.559  1.00  0.00     0.081 C 
ATOM     30  C   UNL     1      15.581 -33.519  20.135  1.00  0.00     0.156 C 
ATOM     31  O   UNL     1      14.493 -33.793  19.564  1.00  0.00    -0.295 OA
ENDBRANCH   9  11
ENDBRANCH   8   9
ENDBRANCH   1   8
TORSDOF 6
ENDMDL
MODEL 4
REMARK VINA RESULT:    -7.227      2.516      3.674
REMARK INTER + INTRA:         -11.803
REMARK INTER:                  -8.739
REMARK INTRA:                  -3.064
REMARK UNBOUND:                -2.041
REMARK SMILES CC[C@H](CC[C@@H](C)[C@H]1CC[C@@H]2[C@H]3CC(=O)C4=CC(=O)CC[C@@]4(C)[C@H]3CC[C@]21C)C(C)C
REMARK SMILES IDX 4 1 3 2 2 3 1 4 29 5 30 6 31 7 5 8 6 9 7 10 8 11 9 12 27 13
REMARK SMILES IDX 10 14 11 15 26 16 28 17 12 18 25 19 24 20 13 21 22 22 14 23
REMARK SMILES IDX 16 24 21 25 23 26 15 27 17 28 20 29 18 30 19 31
REMARK H PARENT
REMARK Flexibility Score: inf
ROOT
ATOM      1  C   UNL     1      15.815 -32.165  21.027  1.00  0.00     0.004 C 
ENDROOT
BRANCH   1   2
ATOM      2  C   UNL     1      17.340 -31.887  21.193  1.00  0.00    -0.009 C 
BRANCH   2   3
ATOM      3  C   UNL     1      18.257 -32.584  20.141  1.00  0.00     0.000 C 
ATOM      4  C   UNL     1      17.665 -33.763  19.361  1.00  0.00     0.004 C 
ENDBRANCH   2   3
BRANCH   2   5
ATOM      5  C   UNL     1      17.686 -30.416  21.606  1.00  0.00    -0.014 C 
ATOM      6  C   UNL     1      16.698 -29.849  22.637  1.00  0.00     0.007 C 
ATOM      7  C   UNL     1      19.140 -30.176  22.042  1.00  0.00     0.007 C 
ENDBRANCH   2   5
ENDBRANCH   1   2
BRANCH   1   8
ATOM      8  C   UNL     1      15.211 -33.251  21.945  1.00  0.00     0.004 C 
BRANCH   8   9
ATOM      9  C   UNL     1      15.637 -33.140  23.445  1.00  0.00    -0.011 C 
ATOM     10  C   UNL     1      14.354 -33.152  24.317  1.00  0.00     0.008 C 
BRANCH   9  11
ATOM     11  C   UNL     1      16.669 -34.238  23.911  1.00  0.00    -0.002 C 
ATOM     12  C   UNL     1      17.223 -35.105  22.737  1.00  0.00     0.005 C 
ATOM     13  C   UNL     1      17.971 -33.773  24.697  1.00  0.00    -0.026 C 
ATOM     14  C   UNL     1      18.741 -35.155  22.874  1.00  0.00     0.005 C 
ATOM     15  C   UNL     1      19.051 -33.874  23.613  1.00  0.00    -0.001 C 
ATOM     16  C   UNL     1      18.048 -32.300  25.220  1.00  0.00     0.007 C 
ATOM     17  C   UNL     1      18.217 -34.785  25.880  1.00  0.00     0.012 C 
ATOM     18  C   UNL     1      20.527 -33.674  24.089  1.00  0.00     0.004 C 
ATOM     19  C   UNL     1      19.496 -31.754  25.450  1.00  0.00     0.005 C 
ATOM     20  C   UNL     1      20.608 -32.841  25.421  1.00  0.00     0.003 C 
ATOM     21  C   UNL     1      21.312 -33.015  22.931  1.00  0.00     0.085 C 
ATOM     22  C   UNL     1      22.080 -32.382  25.812  1.00  0.00    -0.000 C 
ATOM     23  C   UNL     1      22.678 -32.575  23.318  1.00  0.00     0.159 C 
ATOM     24  C   UNL     1      22.882 -31.901  24.608  1.00  0.00     0.005 C 
ATOM     25  C   UNL     1      22.052 -31.262  26.902  1.00  0.00     0.020 C 
ATOM     26  C   UNL     1      22.833 -33.617  26.385  1.00  0.00     0.017 C 
ATOM     27  O   UNL     1      23.627 -32.696  22.494  1.00  0.00    -0.295 OA
ATOM     28  C   UNL     1      23.898 -31.026  24.745  1.00  0.00     0.055 C 
ATOM     29  C   UNL     1      23.450 -30.751  27.275  1.00  0.00     0.081 C 
ATOM     30  C   UNL     1      24.227 -30.408  26.041  1.00  0.00     0.156 C 
ATOM     31  O   UNL     1      25.197 -29.608  26.118  1.00  0.00    -0.295 OA
ENDBRANCH   9  11
ENDBRANCH   8   9
ENDBRANCH   1   8
TORSDOF 6
ENDMDL
MODEL 5
REMARK VINA RESULT:    -7.196      1.880      3.026
REMARK INTER + INTRA:         -11.761
REMARK INTER:                  -8.995
REMARK INTRA:                  -2.766
REMARK UNBOUND:                -2.041
REMARK SMILES CC[C@H](CC[C@@H](C)[C@H]1CC[C@@H]2[C@H]3CC(=O)C4=CC(=O)CC[C@@]4(C)[C@H]3CC[C@]21C)C(C)C
REMARK SMILES IDX 4 1 3 2 2 3 1 4 29 5 30 6 31 7 5 8 6 9 7 10 8 11 9 12 27 13
REMARK SMILES IDX 10 14 11 15 26 16 28 17 12 18 25 19 24 20 13 21 22 22 14 23
REMARK SMILES IDX 16 24 21 25 23 26 15 27 17 28 20 29 18 30 19 31
REMARK H PARENT
REMARK Flexibility Score: inf
ROOT
ATOM      1  C   UNL     1      16.088 -32.558  24.255  1.00  0.00     0.004 C 
ENDROOT
BRANCH   1   2
ATOM      2  C   UNL     1      16.046 -31.931  22.828  1.00  0.00    -0.009 C 
BRANCH   2   3
ATOM      3  C   UNL     1      16.796 -30.571  22.681  1.00  0.00     0.000 C 
ATOM      4  C   UNL     1      16.022 -29.402  22.061  1.00  0.00     0.004 C 
ENDBRANCH   2   3
BRANCH   2   5
ATOM      5  C   UNL     1      16.181 -32.969  21.663  1.00  0.00    -0.014 C 
ATOM      6  C   UNL     1      14.823 -33.334  21.042  1.00  0.00     0.007 C 
ATOM      7  C   UNL     1      17.209 -32.615  20.576  1.00  0.00     0.007 C 
ENDBRANCH   2   5
ENDBRANCH   1   2
BRANCH   1   8
ATOM      8  C   UNL     1      16.290 -34.087  24.326  1.00  0.00     0.004 C 
BRANCH   8   9
ATOM      9  C   UNL     1      17.368 -34.550  25.359  1.00  0.00    -0.011 C 
ATOM     10  C   UNL     1      16.868 -35.854  26.034  1.00  0.00     0.008 C 
BRANCH   9  11
ATOM     11  C   UNL     1      18.815 -34.725  24.755  1.00  0.00    -0.002 C 
ATOM     12  C   UNL     1      18.812 -35.132  23.248  1.00  0.00     0.005 C 
ATOM     13  C   UNL     1      19.821 -33.494  24.822  1.00  0.00    -0.026 C 
ATOM     14  C   UNL     1      19.782 -34.211  22.517  1.00  0.00     0.005 C 
ATOM     15  C   UNL     1      19.780 -32.971  23.381  1.00  0.00    -0.001 C 
ATOM     16  C   UNL     1      19.448 -32.266  25.717  1.00  0.00     0.007 C 
ATOM     17  C   UNL     1      21.244 -34.045  25.216  1.00  0.00     0.012 C 
ATOM     18  C   UNL     1      20.818 -31.859  23.021  1.00  0.00     0.004 C 
ATOM     19  C   UNL     1      20.134 -30.920  25.314  1.00  0.00     0.005 C 
ATOM     20  C   UNL     1      21.300 -31.069  24.294  1.00  0.00     0.003 C 
ATOM     21  C   UNL     1      20.174 -30.934  21.962  1.00  0.00     0.085 C 
ATOM     22  C   UNL     1      22.148 -29.764  23.968  1.00  0.00    -0.000 C 
ATOM     23  C   UNL     1      20.970 -29.711  21.682  1.00  0.00     0.159 C 
ATOM     24  C   UNL     1      21.575 -28.971  22.798  1.00  0.00     0.005 C 
ATOM     25  C   UNL     1      22.265 -28.837  25.220  1.00  0.00     0.020 C 
ATOM     26  C   UNL     1      23.577 -30.212  23.544  1.00  0.00     0.017 C 
ATOM     27  O   UNL     1      21.034 -29.267  20.502  1.00  0.00    -0.295 OA
ATOM     28  C   UNL     1      21.789 -27.646  22.677  1.00  0.00     0.055 C 
ATOM     29  C   UNL     1      23.033 -27.540  24.939  1.00  0.00     0.081 C 
ATOM     30  C   UNL     1      22.497 -26.871  23.710  1.00  0.00     0.156 C 
ATOM     31  O   UNL     1      22.685 -25.637  23.540  1.00  0.00    -0.295 OA
ENDBRANCH   9  11
ENDBRANCH   8   9
ENDBRANCH   1   8
TORSDOF 6
ENDMDL
MODEL 6
REMARK VINA RESULT:    -7.183      2.326      4.408
REMARK INTER + INTRA:         -11.743
REMARK INTER:                  -8.897
REMARK INTRA:                  -2.846
REMARK UNBOUND:                -2.041
REMARK SMILES CC[C@H](CC[C@@H](C)[C@H]1CC[C@@H]2[C@H]3CC(=O)C4=CC(=O)CC[C@@]4(C)[C@H]3CC[C@]21C)C(C)C
REMARK SMILES IDX 4 1 3 2 2 3 1 4 29 5 30 6 31 7 5 8 6 9 7 10 8 11 9 12 27 13
REMARK SMILES IDX 10 14 11 15 26 16 28 17 12 18 25 19 24 20 13 21 22 22 14 23
REMARK SMILES IDX 16 24 21 25 23 26 15 27 17 28 20 29 18 30 19 31
REMARK H PARENT
REMARK Flexibility Score: inf
ROOT
ATOM      1  C   UNL     1      15.562 -33.029  20.577  1.00  0.00     0.004 C 
ENDROOT
BRANCH   1   2
ATOM      2  C   UNL     1      16.915 -33.742  20.272  1.00  0.00    -0.009 C 
BRANCH   2   3
ATOM      3  C   UNL     1      18.188 -32.869  20.499  1.00  0.00     0.000 C 
ATOM      4  C   UNL     1      18.011 -31.347  20.477  1.00  0.00     0.004 C 
ENDBRANCH   2   3
BRANCH   2   5
ATOM      5  C   UNL     1      16.969 -35.242  20.720  1.00  0.00    -0.014 C 
ATOM      6  C   UNL     1      16.203 -36.168  19.760  1.00  0.00     0.007 C 
ATOM      7  C   UNL     1      18.371 -35.794  21.019  1.00  0.00     0.007 C 
ENDBRANCH   2   5
ENDBRANCH   1   2
BRANCH   1   8
ATOM      8  C   UNL     1      15.011 -33.187  22.011  1.00  0.00     0.004 C 
BRANCH   8   9
ATOM      9  C   UNL     1      15.586 -32.161  23.042  1.00  0.00    -0.011 C 
ATOM     10  C   UNL     1      14.420 -31.264  23.537  1.00  0.00     0.008 C 
BRANCH   9  11
ATOM     11  C   UNL     1      16.368 -32.816  24.245  1.00  0.00    -0.002 C 
ATOM     12  C   UNL     1      16.507 -34.366  24.124  1.00  0.00     0.005 C 
ATOM     13  C   UNL     1      17.847 -32.317  24.551  1.00  0.00    -0.026 C 
ATOM     14  C   UNL     1      17.967 -34.722  24.380  1.00  0.00     0.005 C 
ATOM     15  C   UNL     1      18.694 -33.460  23.977  1.00  0.00    -0.001 C 
ATOM     16  C   UNL     1      18.367 -31.023  23.842  1.00  0.00     0.007 C 
ATOM     17  C   UNL     1      18.006 -32.184  26.114  1.00  0.00     0.012 C 
ATOM     18  C   UNL     1      20.227 -33.402  24.280  1.00  0.00     0.004 C 
ATOM     19  C   UNL     1      19.923 -30.912  23.722  1.00  0.00     0.005 C 
ATOM     20  C   UNL     1      20.711 -31.937  24.587  1.00  0.00     0.003 C 
ATOM     21  C   UNL     1      20.970 -34.030  23.077  1.00  0.00     0.085 C 
ATOM     22  C   UNL     1      22.292 -31.773  24.642  1.00  0.00    -0.000 C 
ATOM     23  C   UNL     1      22.445 -33.852  23.135  1.00  0.00     0.159 C 
ATOM     24  C   UNL     1      23.000 -32.553  23.540  1.00  0.00     0.005 C 
ATOM     25  C   UNL     1      22.708 -30.269  24.567  1.00  0.00     0.020 C 
ATOM     26  C   UNL     1      22.790 -32.361  25.994  1.00  0.00     0.017 C 
ATOM     27  O   UNL     1      23.199 -34.784  22.742  1.00  0.00    -0.295 OA
ATOM     28  C   UNL     1      24.211 -32.178  23.082  1.00  0.00     0.055 C 
ATOM     29  C   UNL     1      24.228 -30.064  24.567  1.00  0.00     0.081 C 
ATOM     30  C   UNL     1      24.873 -30.946  23.542  1.00  0.00     0.156 C 
ATOM     31  O   UNL     1      26.013 -30.650  23.094  1.00  0.00    -0.295 OA
ENDBRANCH   9  11
ENDBRANCH   8   9
ENDBRANCH   1   8
TORSDOF 6
ENDMDL
MODEL 7
REMARK VINA RESULT:    -7.131      3.375      5.612
REMARK INTER + INTRA:         -11.673
REMARK INTER:                  -9.219
REMARK INTRA:                  -2.455
REMARK UNBOUND:                -2.041
REMARK SMILES CC[C@H](CC[C@@H](C)[C@H]1CC[C@@H]2[C@H]3CC(=O)C4=CC(=O)CC[C@@]4(C)[C@H]3CC[C@]21C)C(C)C
REMARK SMILES IDX 4 1 3 2 2 3 1 4 29 5 30 6 31 7 5 8 6 9 7 10 8 11 9 12 27 13
REMARK SMILES IDX 10 14 11 15 26 16 28 17 12 18 25 19 24 20 13 21 22 22 14 23
REMARK SMILES IDX 16 24 21 25 23 26 15 27 17 28 20 29 18 30 19 31
REMARK H PARENT
REMARK Flexibility Score: inf
ROOT
ATOM      1  C   UNL     1      15.738 -34.242  21.340  1.00  0.00     0.004 C 
ENDROOT
BRANCH   1   2
ATOM      2  C   UNL     1      17.283 -34.429  21.253  1.00  0.00    -0.009 C 
BRANCH   2   3
ATOM      3  C   UNL     1      17.784 -35.892  21.460  1.00  0.00     0.000 C 
ATOM      4  C   UNL     1      17.313 -36.947  20.453  1.00  0.00     0.004 C 
ENDBRANCH   2   3
BRANCH   2   5
ATOM      5  C   UNL     1      17.976 -33.569  20.142  1.00  0.00    -0.014 C 
ATOM      6  C   UNL     1      17.521 -33.963  18.727  1.00  0.00     0.007 C 
ATOM      7  C   UNL     1      17.906 -32.047  20.343  1.00  0.00     0.007 C 
ENDBRANCH   2   5
ENDBRANCH   1   2
BRANCH   1   8
ATOM      8  C   UNL     1      15.193 -33.632  22.650  1.00  0.00     0.004 C 
BRANCH   8   9
ATOM      9  C   UNL     1      16.105 -32.528  23.278  1.00  0.00    -0.011 C 
ATOM     10  C   UNL     1      15.248 -31.254  23.498  1.00  0.00     0.008 C 
BRANCH   9  11
ATOM     11  C   UNL     1      16.843 -32.969  24.601  1.00  0.00    -0.002 C 
ATOM     12  C   UNL     1      16.514 -34.432  25.035  1.00  0.00     0.005 C 
ATOM     13  C   UNL     1      18.431 -32.900  24.645  1.00  0.00    -0.026 C 
ATOM     14  C   UNL     1      17.833 -35.134  25.339  1.00  0.00     0.005 C 
ATOM     15  C   UNL     1      18.819 -34.374  24.481  1.00  0.00    -0.001 C 
ATOM     16  C   UNL     1      19.183 -32.145  23.500  1.00  0.00     0.007 C 
ATOM     17  C   UNL     1      18.857 -32.323  26.050  1.00  0.00     0.012 C 
ATOM     18  C   UNL     1      20.333 -34.715  24.678  1.00  0.00     0.004 C 
ATOM     19  C   UNL     1      20.669 -32.583  23.282  1.00  0.00     0.005 C 
ATOM     20  C   UNL     1      21.255 -33.466  24.421  1.00  0.00     0.003 C 
ATOM     21  C   UNL     1      20.674 -35.903  23.748  1.00  0.00     0.085 C 
ATOM     22  C   UNL     1      22.807 -33.809  24.347  1.00  0.00    -0.000 C 
ATOM     23  C   UNL     1      22.129 -36.198  23.676  1.00  0.00     0.159 C 
ATOM     24  C   UNL     1      23.087 -35.088  23.566  1.00  0.00     0.005 C 
ATOM     25  C   UNL     1      23.617 -32.628  23.722  1.00  0.00     0.020 C 
ATOM     26  C   UNL     1      23.316 -34.051  25.797  1.00  0.00     0.017 C 
ATOM     27  O   UNL     1      22.518 -37.396  23.609  1.00  0.00    -0.295 OA
ATOM     28  C   UNL     1      24.270 -35.291  22.953  1.00  0.00     0.055 C 
ATOM     29  C   UNL     1      25.114 -32.932  23.584  1.00  0.00     0.081 C 
ATOM     30  C   UNL     1      25.318 -34.258  22.914  1.00  0.00     0.156 C 
ATOM     31  O   UNL     1      26.412 -34.505  22.343  1.00  0.00    -0.295 OA
ENDBRANCH   9  11
ENDBRANCH   8   9
ENDBRANCH   1   8
TORSDOF 6
ENDMDL
MODEL 8
REMARK VINA RESULT:    -7.127      2.862      7.486
REMARK INTER + INTRA:         -11.668
REMARK INTER:                  -9.896
REMARK INTRA:                  -1.771
REMARK UNBOUND:                -2.041
REMARK SMILES CC[C@H](CC[C@@H](C)[C@H]1CC[C@@H]2[C@H]3CC(=O)C4=CC(=O)CC[C@@]4(C)[C@H]3CC[C@]21C)C(C)C
REMARK SMILES IDX 4 1 3 2 2 3 1 4 29 5 30 6 31 7 5 8 6 9 7 10 8 11 9 12 27 13
REMARK SMILES IDX 10 14 11 15 26 16 28 17 12 18 25 19 24 20 13 21 22 22 14 23
REMARK SMILES IDX 16 24 21 25 23 26 15 27 17 28 20 29 18 30 19 31
REMARK H PARENT
REMARK Flexibility Score: inf
ROOT
ATOM      1  C   UNL     1      22.704 -27.927  22.564  1.00  0.00     0.004 C 
ENDROOT
BRANCH   1   2
ATOM      2  C   UNL     1      21.791 -27.586  21.347  1.00  0.00    -0.009 C 
BRANCH   2   3
ATOM      3  C   UNL     1      20.952 -28.780  20.796  1.00  0.00     0.000 C 
ATOM      4  C   UNL     1      19.451 -28.788  21.104  1.00  0.00     0.004 C 
ENDBRANCH   2   3
BRANCH   2   5
ATOM      5  C   UNL     1      21.099 -26.184  21.432  1.00  0.00    -0.014 C 
ATOM      6  C   UNL     1      21.919 -25.174  22.253  1.00  0.00     0.007 C 
ATOM      7  C   UNL     1      20.660 -25.579  20.090  1.00  0.00     0.007 C 
ENDBRANCH   2   5
ENDBRANCH   1   2
BRANCH   1   8
ATOM      8  C   UNL     1      22.012 -28.583  23.778  1.00  0.00     0.004 C 
BRANCH   8   9
ATOM      9  C   UNL     1      22.642 -29.942  24.226  1.00  0.00    -0.011 C 
ATOM     10  C   UNL     1      23.986 -29.643  24.941  1.00  0.00     0.008 C 
BRANCH   9  11
ATOM     11  C   UNL     1      21.696 -30.836  25.117  1.00  0.00    -0.002 C 
ATOM     12  C   UNL     1      20.907 -30.024  26.192  1.00  0.00     0.005 C 
ATOM     13  C   UNL     1      20.580 -31.712  24.398  1.00  0.00    -0.026 C 
ATOM     14  C   UNL     1      19.443 -30.443  26.108  1.00  0.00     0.005 C 
ATOM     15  C   UNL     1      19.310 -30.899  24.673  1.00  0.00    -0.001 C 
ATOM     16  C   UNL     1      20.637 -31.874  22.843  1.00  0.00     0.007 C 
ATOM     17  C   UNL     1      20.544 -33.127  25.092  1.00  0.00     0.012 C 
ATOM     18  C   UNL     1      17.957 -31.574  24.271  1.00  0.00     0.004 C 
ATOM     19  C   UNL     1      19.273 -32.228  22.163  1.00  0.00     0.005 C 
ATOM     20  C   UNL     1      18.153 -32.661  23.150  1.00  0.00     0.003 C 
ATOM     21  C   UNL     1      16.979 -30.455  23.845  1.00  0.00     0.085 C 
ATOM     22  C   UNL     1      16.794 -33.193  22.517  1.00  0.00    -0.000 C 
ATOM     23  C   UNL     1      15.723 -30.968  23.238  1.00  0.00     0.159 C 
ATOM     24  C   UNL     1      15.786 -32.075  22.273  1.00  0.00     0.005 C 
ATOM     25  C   UNL     1      17.055 -33.961  21.181  1.00  0.00     0.020 C 
ATOM     26  C   UNL     1      16.139 -34.170  23.534  1.00  0.00     0.017 C 
ATOM     27  O   UNL     1      14.631 -30.384  23.481  1.00  0.00    -0.295 OA
ATOM     28  C   UNL     1      14.835 -32.183  21.324  1.00  0.00     0.055 C 
ATOM     29  C   UNL     1      15.768 -34.449  20.506  1.00  0.00     0.081 C 
ATOM     30  C   UNL     1      14.775 -33.331  20.405  1.00  0.00     0.156 C 
ATOM     31  O   UNL     1      13.855 -33.391  19.546  1.00  0.00    -0.295 OA
ENDBRANCH   9  11
ENDBRANCH   8   9
ENDBRANCH   1   8
TORSDOF 6
ENDMDL
MODEL 9
REMARK VINA RESULT:    -7.081      3.011      4.681
REMARK INTER + INTRA:         -11.605
REMARK INTER:                  -9.441
REMARK INTRA:                  -2.165
REMARK UNBOUND:                -2.041
REMARK SMILES CC[C@H](CC[C@@H](C)[C@H]1CC[C@@H]2[C@H]3CC(=O)C4=CC(=O)CC[C@@]4(C)[C@H]3CC[C@]21C)C(C)C
REMARK SMILES IDX 4 1 3 2 2 3 1 4 29 5 30 6 31 7 5 8 6 9 7 10 8 11 9 12 27 13
REMARK SMILES IDX 10 14 11 15 26 16 28 17 12 18 25 19 24 20 13 21 22 22 14 23
REMARK SMILES IDX 16 24 21 25 23 26 15 27 17 28 20 29 18 30 19 31
REMARK H PARENT
REMARK Flexibility Score: inf
ROOT
ATOM      1  C   UNL     1      15.477 -31.306  23.473  1.00  0.00     0.004 C 
ENDROOT
BRANCH   1   2
ATOM      2  C   UNL     1      16.880 -30.638  23.339  1.00  0.00    -0.009 C 
BRANCH   2   3
ATOM      3  C   UNL     1      18.027 -31.346  24.123  1.00  0.00     0.000 C 
ATOM      4  C   UNL     1      18.285 -30.888  25.562  1.00  0.00     0.004 C 
ENDBRANCH   2   3
BRANCH   2   5
ATOM      5  C   UNL     1      17.201 -30.094  21.905  1.00  0.00    -0.014 C 
ATOM      6  C   UNL     1      16.467 -28.779  21.599  1.00  0.00     0.007 C 
ATOM      7  C   UNL     1      18.694 -29.990  21.556  1.00  0.00     0.007 C 
ENDBRANCH   2   5
ENDBRANCH   1   2
BRANCH   1   8
ATOM      8  C   UNL     1      15.449 -32.850  23.460  1.00  0.00     0.004 C 
BRANCH   8   9
ATOM      9  C   UNL     1      14.956 -33.477  22.115  1.00  0.00    -0.011 C 
ATOM     10  C   UNL     1      14.261 -32.365  21.286  1.00  0.00     0.008 C 
BRANCH   9  11
ATOM     11  C   UNL     1      16.082 -34.205  21.285  1.00  0.00    -0.002 C 
ATOM     12  C   UNL     1      16.771 -33.280  20.233  1.00  0.00     0.005 C 
ATOM     13  C   UNL     1      17.295 -34.871  22.069  1.00  0.00    -0.026 C 
ATOM     14  C   UNL     1      18.279 -33.441  20.391  1.00  0.00     0.005 C 
ATOM     15  C   UNL     1      18.420 -33.855  21.838  1.00  0.00    -0.001 C 
ATOM     16  C   UNL     1      17.191 -35.026  23.623  1.00  0.00     0.007 C 
ATOM     17  C   UNL     1      17.604 -36.265  21.401  1.00  0.00     0.012 C 
ATOM     18  C   UNL     1      19.847 -34.285  22.313  1.00  0.00     0.004 C 
ATOM     19  C   UNL     1      18.561 -35.134  24.370  1.00  0.00     0.005 C 
ATOM     20  C   UNL     1      19.785 -35.379  23.442  1.00  0.00     0.003 C 
ATOM     21  C   UNL     1      20.599 -33.012  22.764  1.00  0.00     0.085 C 
ATOM     22  C   UNL     1      21.183 -35.665  24.146  1.00  0.00    -0.000 C 
ATOM     23  C   UNL     1      21.894 -33.297  23.437  1.00  0.00     0.159 C 
ATOM     24  C   UNL     1      21.974 -34.390  24.416  1.00  0.00     0.005 C 
ATOM     25  C   UNL     1      20.992 -36.454  25.482  1.00  0.00     0.020 C 
ATOM     26  C   UNL     1      22.043 -36.526  23.177  1.00  0.00     0.017 C 
ATOM     27  O   UNL     1      22.880 -32.537  23.233  1.00  0.00    -0.295 OA
ATOM     28  C   UNL     1      22.882 -34.325  25.409  1.00  0.00     0.055 C 
ATOM     29  C   UNL     1      22.310 -36.709  26.223  1.00  0.00     0.081 C 
ATOM     30  C   UNL     1      23.092 -35.437  26.351  1.00  0.00     0.156 C 
ATOM     31  O   UNL     1      23.966 -35.332  27.251  1.00  0.00    -0.295 OA
ENDBRANCH   9  11
ENDBRANCH   8   9
ENDBRANCH   1   8
TORSDOF 6
ENDMDL
