MODEL 1
REMARK VINA RESULT:     4.473      0.000      0.000
REMARK INTER + INTRA:           4.962
REMARK INTER:                   5.257
REMARK INTRA:                  -0.295
REMARK UNBOUND:                -0.295
REMARK SMILES O=c1cc(-c2ccc(O)c(O)c2)oc2cc(O)cc(O)c12
REMARK SMILES IDX 4 1 3 2 2 3 1 4 21 5 19 6 18 7 16 8 15 9 14 10 13 11 5 12
REMARK SMILES IDX 6 13 7 14 8 15 12 16 10 17 9 18 11 20 20 22 17 24
REMARK H PARENT 9 19 11 21 20 23 17 25
REMARK Flexibility Score: inf
ROOT
ATOM      1  C   UNL     1     -34.612 -36.091 -34.757  1.00  0.00     0.138 A 
ATOM      2  C   UNL     1     -35.741 -36.086 -33.926  1.00  0.00     0.100 A 
ATOM      3  C   UNL     1     -37.016 -36.071 -34.494  1.00  0.00     0.197 A 
ATOM      4  O   UNL     1     -38.008 -36.125 -33.724  1.00  0.00    -0.289 OA
ATOM      5  C   UNL     1     -37.159 -36.024 -35.902  1.00  0.00     0.107 A 
ATOM      6  C   UNL     1     -38.407 -35.972 -36.593  1.00  0.00     0.134 A 
ATOM      7  C   UNL     1     -38.424 -36.028 -37.992  1.00  0.00     0.093 A 
ATOM      8  C   UNL     1     -37.237 -36.078 -38.726  1.00  0.00     0.123 A 
ATOM      9  C   UNL     1     -36.013 -36.078 -38.064  1.00  0.00     0.094 A 
ATOM     10  C   UNL     1     -35.962 -36.058 -36.668  1.00  0.00     0.146 A 
ATOM     11  O   UNL     1     -34.773 -36.078 -36.075  1.00  0.00    -0.456 OA
ENDROOT
BRANCH   1  12
ATOM     12  C   UNL     1     -33.233 -36.103 -34.206  1.00  0.00     0.021 A 
ATOM     13  C   UNL     1     -32.102 -36.112 -35.040  1.00  0.00     0.016 A 
ATOM     14  C   UNL     1     -30.819 -36.113 -34.493  1.00  0.00     0.051 A 
ATOM     15  C   UNL     1     -30.631 -36.097 -33.107  1.00  0.00     0.157 A 
ATOM     16  C   UNL     1     -33.045 -36.072 -32.813  1.00  0.00     0.062 A 
ATOM     17  C   UNL     1     -31.760 -36.074 -32.256  1.00  0.00     0.158 A 
BRANCH  15  18
ATOM     18  O   UNL     1     -29.321 -36.101 -32.625  1.00  0.00    -0.504 OA
ATOM     19  H   UNL     1     -28.529 -35.747 -33.141  1.00  0.00     0.293 HD
ENDBRANCH  15  18
BRANCH  17  20
ATOM     20  O   UNL     1     -31.653 -36.051 -30.863  1.00  0.00    -0.504 OA
ATOM     21  H   UNL     1     -32.438 -35.936 -30.238  1.00  0.00     0.293 HD
ENDBRANCH  17  20
ENDBRANCH   1  12
BRANCH   6  22
ATOM     22  O   UNL     1     -39.647 -35.842 -35.960  1.00  0.00    -0.507 OA
ATOM     23  H   UNL     1     -40.454 -35.381 -36.354  1.00  0.00     0.293 HD
ENDBRANCH   6  22
BRANCH   8  24
ATOM     24  O   UNL     1     -37.265 -36.118 -40.119  1.00  0.00    -0.508 OA
ATOM     25  H   UNL     1     -36.593 -36.663 -40.647  1.00  0.00     0.293 HD
ENDBRANCH   8  24
TORSDOF 5
ENDMDL
MODEL 2
REMARK VINA RESULT:     5.391      1.253      2.859
REMARK INTER + INTRA:           6.041
REMARK INTER:                   6.360
REMARK INTRA:                  -0.319
REMARK UNBOUND:                -0.295
REMARK SMILES O=c1cc(-c2ccc(O)c(O)c2)oc2cc(O)cc(O)c12
REMARK SMILES IDX 4 1 3 2 2 3 1 4 21 5 19 6 18 7 16 8 15 9 14 10 13 11 5 12
REMARK SMILES IDX 6 13 7 14 8 15 12 16 10 17 9 18 11 20 20 22 17 24
REMARK H PARENT 9 19 11 21 20 23 17 25
REMARK Flexibility Score: inf
ROOT
ATOM      1  C   UNL     1     -34.477 -36.029 -34.759  1.00  0.00     0.138 A 
ATOM      2  C   UNL     1     -34.706 -36.002 -36.142  1.00  0.00     0.100 A 
ATOM      3  C   UNL     1     -36.014 -35.974 -36.626  1.00  0.00     0.197 A 
ATOM      4  O   UNL     1     -36.184 -35.893 -37.869  1.00  0.00    -0.289 OA
ATOM      5  C   UNL     1     -37.101 -36.009 -35.718  1.00  0.00     0.107 A 
ATOM      6  C   UNL     1     -38.478 -36.019 -36.096  1.00  0.00     0.134 A 
ATOM      7  C   UNL     1     -39.465 -35.955 -35.106  1.00  0.00     0.093 A 
ATOM      8  C   UNL     1     -39.128 -35.940 -33.751  1.00  0.00     0.123 A 
ATOM      9  C   UNL     1     -37.789 -35.981 -33.370  1.00  0.00     0.094 A 
ATOM     10  C   UNL     1     -36.779 -36.010 -34.334  1.00  0.00     0.146 A 
ATOM     11  O   UNL     1     -35.514 -36.030 -33.928  1.00  0.00    -0.456 OA
ENDROOT
BRANCH   1  12
ATOM     12  C   UNL     1     -33.106 -36.063 -34.191  1.00  0.00     0.021 A 
ATOM     13  C   UNL     1     -31.965 -36.100 -35.010  1.00  0.00     0.016 A 
ATOM     14  C   UNL     1     -30.689 -36.122 -34.447  1.00  0.00     0.051 A 
ATOM     15  C   UNL     1     -30.519 -36.099 -33.058  1.00  0.00     0.157 A 
ATOM     16  C   UNL     1     -32.935 -36.027 -32.795  1.00  0.00     0.062 A 
ATOM     17  C   UNL     1     -31.658 -36.049 -32.222  1.00  0.00     0.158 A 
BRANCH  15  18
ATOM     18  O   UNL     1     -29.215 -36.124 -32.559  1.00  0.00    -0.504 OA
ATOM     19  H   UNL     1     -28.457 -35.573 -32.934  1.00  0.00     0.293 HD
ENDBRANCH  15  18
BRANCH  17  20
ATOM     20  O   UNL     1     -31.568 -36.018 -30.828  1.00  0.00    -0.504 OA
ATOM     21  H   UNL     1     -31.877 -35.243 -30.259  1.00  0.00     0.293 HD
ENDBRANCH  17  20
ENDBRANCH   1  12
BRANCH   6  22
ATOM     22  O   UNL     1     -38.927 -36.112 -37.417  1.00  0.00    -0.507 OA
ATOM     23  H   UNL     1     -38.333 -36.108 -38.233  1.00  0.00     0.293 HD
ENDBRANCH   6  22
BRANCH   8  24
ATOM     24  O   UNL     1     -40.119 -35.892 -32.773  1.00  0.00    -0.508 OA
ATOM     25  H   UNL     1     -41.016 -35.454 -32.948  1.00  0.00     0.293 HD
ENDBRANCH   8  24
TORSDOF 5
ENDMDL
MODEL 3
REMARK VINA RESULT:     5.796     20.763     22.830
REMARK INTER + INTRA:           6.518
REMARK INTER:                   6.780
REMARK INTRA:                  -0.263
REMARK UNBOUND:                -0.295
REMARK SMILES O=c1cc(-c2ccc(O)c(O)c2)oc2cc(O)cc(O)c12
REMARK SMILES IDX 4 1 3 2 2 3 1 4 21 5 19 6 18 7 16 8 15 9 14 10 13 11 5 12
REMARK SMILES IDX 6 13 7 14 8 15 12 16 10 17 9 18 11 20 20 22 17 24
REMARK H PARENT 9 19 11 21 20 23 17 25
REMARK Flexibility Score: inf
ROOT
ATOM      1  C   UNL     1     -24.127 -17.086 -38.828  1.00  0.00     0.138 A 
ATOM      2  C   UNL     1     -23.759 -16.267 -39.905  1.00  0.00     0.100 A 
ATOM      3  C   UNL     1     -22.642 -16.598 -40.674  1.00  0.00     0.197 A 
ATOM      4  O   UNL     1     -22.372 -15.876 -41.667  1.00  0.00    -0.289 OA
ATOM      5  C   UNL     1     -21.869 -17.737 -40.339  1.00  0.00     0.107 A 
ATOM      6  C   UNL     1     -20.691 -18.153 -41.030  1.00  0.00     0.134 A 
ATOM      7  C   UNL     1     -20.067 -19.352 -40.667  1.00  0.00     0.093 A 
ATOM      8  C   UNL     1     -20.544 -20.121 -39.602  1.00  0.00     0.123 A 
ATOM      9  C   UNL     1     -21.662 -19.697 -38.890  1.00  0.00     0.094 A 
ATOM     10  C   UNL     1     -22.329 -18.524 -39.249  1.00  0.00     0.146 A 
ATOM     11  O   UNL     1     -23.404 -18.165 -38.554  1.00  0.00    -0.456 OA
ENDROOT
BRANCH   1  12
ATOM     12  C   UNL     1     -25.303 -16.779 -37.976  1.00  0.00     0.021 A 
ATOM     13  C   UNL     1     -25.167 -16.166 -36.718  1.00  0.00     0.016 A 
ATOM     14  C   UNL     1     -26.292 -15.881 -35.943  1.00  0.00     0.051 A 
ATOM     15  C   UNL     1     -27.576 -16.190 -36.405  1.00  0.00     0.157 A 
ATOM     16  C   UNL     1     -26.595 -17.077 -38.445  1.00  0.00     0.062 A 
ATOM     17  C   UNL     1     -27.729 -16.795 -37.674  1.00  0.00     0.158 A 
BRANCH  15  18
ATOM     18  O   UNL     1     -28.659 -15.880 -35.580  1.00  0.00    -0.504 OA
ATOM     19  H   UNL     1     -28.835 -14.961 -35.202  1.00  0.00     0.293 HD
ENDBRANCH  15  18
BRANCH  17  20
ATOM     20  O   UNL     1     -28.978 -17.128 -38.204  1.00  0.00    -0.504 OA
ATOM     21  H   UNL     1     -29.293 -18.075 -38.354  1.00  0.00     0.293 HD
ENDBRANCH  17  20
ENDBRANCH   1  12
BRANCH   6  22
ATOM     22  O   UNL     1     -20.085 -17.421 -42.055  1.00  0.00    -0.507 OA
ATOM     23  H   UNL     1     -20.061 -16.414 -42.114  1.00  0.00     0.293 HD
ENDBRANCH   6  22
BRANCH   8  24
ATOM     24  O   UNL     1     -19.906 -21.305 -39.240  1.00  0.00    -0.508 OA
ATOM     25  H   UNL     1     -19.127 -21.673 -39.773  1.00  0.00     0.293 HD
ENDBRANCH   8  24
TORSDOF 5
ENDMDL
MODEL 4
REMARK VINA RESULT:     6.363     21.436     23.862
REMARK INTER + INTRA:           7.184
REMARK INTER:                   7.479
REMARK INTRA:                  -0.294
REMARK UNBOUND:                -0.295
REMARK SMILES O=c1cc(-c2ccc(O)c(O)c2)oc2cc(O)cc(O)c12
REMARK SMILES IDX 4 1 3 2 2 3 1 4 21 5 19 6 18 7 16 8 15 9 14 10 13 11 5 12
REMARK SMILES IDX 6 13 7 14 8 15 12 16 10 17 9 18 11 20 20 22 17 24
REMARK H PARENT 9 19 11 21 20 23 17 25
REMARK Flexibility Score: inf
ROOT
ATOM      1  C   UNL     1     -20.030 -20.902 -27.076  1.00  0.00     0.138 A 
ATOM      2  C   UNL     1     -19.986 -22.223 -26.607  1.00  0.00     0.100 A 
ATOM      3  C   UNL     1     -20.013 -22.469 -25.234  1.00  0.00     0.197 A 
ATOM      4  O   UNL     1     -20.030 -23.666 -24.847  1.00  0.00    -0.289 OA
ATOM      5  C   UNL     1     -20.049 -21.385 -24.324  1.00  0.00     0.107 A 
ATOM      6  C   UNL     1     -20.046 -21.514 -22.902  1.00  0.00     0.134 A 
ATOM      7  C   UNL     1     -20.183 -20.370 -22.106  1.00  0.00     0.093 A 
ATOM      8  C   UNL     1     -20.266 -19.099 -22.678  1.00  0.00     0.123 A 
ATOM      9  C   UNL     1     -20.219 -18.958 -24.062  1.00  0.00     0.094 A 
ATOM     10  C   UNL     1     -20.118 -20.081 -24.886  1.00  0.00     0.146 A 
ATOM     11  O   UNL     1     -20.095 -19.903 -26.203  1.00  0.00    -0.456 OA
ENDROOT
BRANCH   1  12
ATOM     12  C   UNL     1     -20.000 -20.583 -28.525  1.00  0.00     0.021 A 
ATOM     13  C   UNL     1     -19.912 -19.260 -28.991  1.00  0.00     0.016 A 
ATOM     14  C   UNL     1     -19.876 -18.991 -30.360  1.00  0.00     0.051 A 
ATOM     15  C   UNL     1     -19.917 -20.031 -31.294  1.00  0.00     0.157 A 
ATOM     16  C   UNL     1     -20.028 -21.629 -29.465  1.00  0.00     0.062 A 
ATOM     17  C   UNL     1     -19.992 -21.368 -30.840  1.00  0.00     0.158 A 
BRANCH  15  18
ATOM     18  O   UNL     1     -19.879 -19.694 -32.648  1.00  0.00    -0.504 OA
ATOM     19  H   UNL     1     -20.679 -19.367 -33.172  1.00  0.00     0.293 HD
ENDBRANCH  15  18
BRANCH  17  20
ATOM     20  O   UNL     1     -20.032 -22.459 -31.712  1.00  0.00    -0.504 OA
ATOM     21  H   UNL     1     -19.473 -22.534 -32.549  1.00  0.00     0.293 HD
ENDBRANCH  17  20
ENDBRANCH   1  12
BRANCH   6  22
ATOM     22  O   UNL     1     -19.889 -22.727 -22.226  1.00  0.00    -0.507 OA
ATOM     23  H   UNL     1     -20.579 -23.148 -21.622  1.00  0.00     0.293 HD
ENDBRANCH   6  22
BRANCH   8  24
ATOM     24  O   UNL     1     -20.387 -17.966 -21.875  1.00  0.00    -0.508 OA
ATOM     25  H   UNL     1     -19.787 -17.819 -21.072  1.00  0.00     0.293 HD
ENDBRANCH   8  24
TORSDOF 5
ENDMDL
