MODEL 1
REMARK VINA RESULT:    -4.470      0.000      0.000
REMARK INTER + INTRA:          -4.470
REMARK INTER:                  -4.470
REMARK INTRA:                   0.000
REMARK UNBOUND:                 0.000
REMARK SMILES CC1=CC(=O)[C@H]2C[C@@H]1C2(C)C
REMARK SMILES IDX 1 1 2 2 3 3 4 4 5 5 6 6 7 7 8 8 9 9 10 10 11 11
REMARK H PARENT
REMARK Flexibility Score: inf
ROOT
ATOM      1  C   UNL     1      21.420  24.024  11.758  1.00  0.00     0.040 C 
ATOM      2  C   UNL     1      20.502  23.359  10.782  1.00  0.00    -0.066 C 
ATOM      3  C   UNL     1      20.943  22.365   9.960  1.00  0.00     0.047 C 
ATOM      4  C   UNL     1      19.935  21.800   9.005  1.00  0.00     0.159 C 
ATOM      5  O   UNL     1      20.230  20.906   8.169  1.00  0.00    -0.295 OA
ATOM      6  C   UNL     1      18.527  22.386   9.116  1.00  0.00     0.067 C 
ATOM      7  C   UNL     1      18.246  22.408  10.634  1.00  0.00     0.021 C 
ATOM      8  C   UNL     1      19.014  23.750  10.669  1.00  0.00     0.022 C 
ATOM      9  C   UNL     1      18.640  23.936   9.170  1.00  0.00    -0.019 C 
ATOM     10  C   UNL     1      19.668  24.635   8.236  1.00  0.00     0.012 C 
ATOM     11  C   UNL     1      17.267  24.633   8.986  1.00  0.00     0.012 C 
ENDROOT
TORSDOF 0
ENDMDL
MODEL 2
REMARK VINA RESULT:    -4.390      1.900      3.282
REMARK INTER + INTRA:          -4.390
REMARK INTER:                  -4.390
REMARK INTRA:                   0.000
REMARK UNBOUND:                 0.000
REMARK SMILES CC1=CC(=O)[C@H]2C[C@@H]1C2(C)C
REMARK SMILES IDX 1 1 2 2 3 3 4 4 5 5 6 6 7 7 8 8 9 9 10 10 11 11
REMARK H PARENT
REMARK Flexibility Score: inf
ROOT
ATOM      1  C   UNL     1      20.600  20.500   8.070  1.00  0.00     0.040 C 
ATOM      2  C   UNL     1      20.769  21.867   8.655  1.00  0.00    -0.066 C 
ATOM      3  C   UNL     1      20.965  22.047   9.991  1.00  0.00     0.047 C 
ATOM      4  C   UNL     1      21.089  23.465  10.458  1.00  0.00     0.159 C 
ATOM      5  O   UNL     1      21.235  23.763  11.672  1.00  0.00    -0.295 OA
ATOM      6  C   UNL     1      21.026  24.525   9.357  1.00  0.00     0.067 C 
ATOM      7  C   UNL     1      21.953  23.976   8.251  1.00  0.00     0.021 C 
ATOM      8  C   UNL     1      20.746  23.135   7.776  1.00  0.00     0.022 C 
ATOM      9  C   UNL     1      19.820  24.202   8.429  1.00  0.00    -0.019 C 
ATOM     10  C   UNL     1      18.493  23.722   9.083  1.00  0.00     0.012 C 
ATOM     11  C   UNL     1      19.491  25.369   7.463  1.00  0.00     0.012 C 
ENDROOT
TORSDOF 0
ENDMDL
MODEL 3
REMARK VINA RESULT:    -4.316      1.059      3.154
REMARK INTER + INTRA:          -4.316
REMARK INTER:                  -4.316
REMARK INTRA:                   0.000
REMARK UNBOUND:                 0.000
REMARK SMILES CC1=CC(=O)[C@H]2C[C@@H]1C2(C)C
REMARK SMILES IDX 1 1 2 2 3 3 4 4 5 5 6 6 7 7 8 8 9 9 10 10 11 11
REMARK H PARENT
REMARK Flexibility Score: inf
ROOT
ATOM      1  C   UNL     1      17.226  24.742   8.880  1.00  0.00     0.040 C 
ATOM      2  C   UNL     1      18.440  23.875   8.991  1.00  0.00    -0.066 C 
ATOM      3  C   UNL     1      18.337  22.541   9.248  1.00  0.00     0.047 C 
ATOM      4  C   UNL     1      19.627  21.787   9.366  1.00  0.00     0.159 C 
ATOM      5  O   UNL     1      19.664  20.559   9.639  1.00  0.00    -0.295 OA
ATOM      6  C   UNL     1      20.892  22.614   9.132  1.00  0.00     0.067 C 
ATOM      7  C   UNL     1      20.575  23.439   7.866  1.00  0.00     0.021 C 
ATOM      8  C   UNL     1      19.863  24.442   8.803  1.00  0.00     0.022 C 
ATOM      9  C   UNL     1      20.780  23.931   9.951  1.00  0.00    -0.019 C 
ATOM     10  C   UNL     1      20.188  23.859  11.388  1.00  0.00     0.012 C 
ATOM     11  C   UNL     1      22.125  24.699  10.018  1.00  0.00     0.012 C 
ENDROOT
TORSDOF 0
ENDMDL
MODEL 4
REMARK VINA RESULT:    -4.307      1.749      2.998
REMARK INTER + INTRA:          -4.307
REMARK INTER:                  -4.307
REMARK INTRA:                   0.000
REMARK UNBOUND:                 0.000
REMARK SMILES CC1=CC(=O)[C@H]2C[C@@H]1C2(C)C
REMARK SMILES IDX 1 1 2 2 3 3 4 4 5 5 6 6 7 7 8 8 9 9 10 10 11 11
REMARK H PARENT
REMARK Flexibility Score: inf
ROOT
ATOM      1  C   UNL     1      21.865  23.760  11.621  1.00  0.00     0.040 C 
ATOM      2  C   UNL     1      20.966  23.905  10.434  1.00  0.00    -0.066 C 
ATOM      3  C   UNL     1      19.645  23.577  10.500  1.00  0.00     0.047 C 
ATOM      4  C   UNL     1      18.858  23.738   9.235  1.00  0.00     0.159 C 
ATOM      5  O   UNL     1      17.640  23.432   9.159  1.00  0.00    -0.295 OA
ATOM      6  C   UNL     1      19.638  24.298   8.045  1.00  0.00     0.067 C 
ATOM      7  C   UNL     1      20.429  25.486   8.637  1.00  0.00     0.021 C 
ATOM      8  C   UNL     1      21.483  24.448   9.085  1.00  0.00     0.022 C 
ATOM      9  C   UNL     1      20.986  23.530   7.932  1.00  0.00    -0.019 C 
ATOM     10  C   UNL     1      20.981  21.992   8.166  1.00  0.00     0.012 C 
ATOM     11  C   UNL     1      21.715  23.814   6.594  1.00  0.00     0.012 C 
ENDROOT
TORSDOF 0
ENDMDL
MODEL 5
REMARK VINA RESULT:    -4.302      7.635      9.078
REMARK INTER + INTRA:          -4.302
REMARK INTER:                  -4.302
REMARK INTRA:                   0.000
REMARK UNBOUND:                 0.000
REMARK SMILES CC1=CC(=O)[C@H]2C[C@@H]1C2(C)C
REMARK SMILES IDX 1 1 2 2 3 3 4 4 5 5 6 6 7 7 8 8 9 9 10 10 11 11
REMARK H PARENT
REMARK Flexibility Score: inf
ROOT
ATOM      1  C   UNL     1      16.547  20.940  14.731  1.00  0.00     0.040 C 
ATOM      2  C   UNL     1      16.596  19.805  15.705  1.00  0.00    -0.066 C 
ATOM      3  C   UNL     1      17.528  19.764  16.698  1.00  0.00     0.047 C 
ATOM      4  C   UNL     1      17.494  18.560  17.590  1.00  0.00     0.159 C 
ATOM      5  O   UNL     1      18.326  18.388  18.518  1.00  0.00    -0.295 OA
ATOM      6  C   UNL     1      16.378  17.557  17.293  1.00  0.00     0.067 C 
ATOM      7  C   UNL     1      15.121  18.435  17.106  1.00  0.00     0.021 C 
ATOM      8  C   UNL     1      15.588  18.639  15.646  1.00  0.00     0.022 C 
ATOM      9  C   UNL     1      16.351  17.288  15.762  1.00  0.00    -0.019 C 
ATOM     10  C   UNL     1      17.706  17.142  15.013  1.00  0.00     0.012 C 
ATOM     11  C   UNL     1      15.460  16.073  15.393  1.00  0.00     0.012 C 
ENDROOT
TORSDOF 0
ENDMDL
MODEL 6
REMARK VINA RESULT:    -4.298      7.595      8.969
REMARK INTER + INTRA:          -4.298
REMARK INTER:                  -4.298
REMARK INTRA:                   0.000
REMARK UNBOUND:                 0.000
REMARK SMILES CC1=CC(=O)[C@H]2C[C@@H]1C2(C)C
REMARK SMILES IDX 1 1 2 2 3 3 4 4 5 5 6 6 7 7 8 8 9 9 10 10 11 11
REMARK H PARENT
REMARK Flexibility Score: inf
ROOT
ATOM      1  C   UNL     1      18.372  18.955  18.640  1.00  0.00     0.040 C 
ATOM      2  C   UNL     1      17.582  18.942  17.370  1.00  0.00    -0.066 C 
ATOM      3  C   UNL     1      17.153  20.098  16.790  1.00  0.00     0.047 C 
ATOM      4  C   UNL     1      16.344  19.950  15.537  1.00  0.00     0.159 C 
ATOM      5  O   UNL     1      15.859  20.940  14.930  1.00  0.00    -0.295 OA
ATOM      6  C   UNL     1      16.148  18.514  15.049  1.00  0.00     0.067 C 
ATOM      7  C   UNL     1      17.554  17.884  15.158  1.00  0.00     0.021 C 
ATOM      8  C   UNL     1      17.228  17.625  16.646  1.00  0.00     0.022 C 
ATOM      9  C   UNL     1      15.721  17.635  16.259  1.00  0.00    -0.019 C 
ATOM     10  C   UNL     1      14.704  18.224  17.278  1.00  0.00     0.012 C 
ATOM     11  C   UNL     1      15.215  16.236  15.822  1.00  0.00     0.012 C 
ENDROOT
TORSDOF 0
ENDMDL
MODEL 7
REMARK VINA RESULT:    -4.212      7.987      9.564
REMARK INTER + INTRA:          -4.212
REMARK INTER:                  -4.212
REMARK INTRA:                   0.000
REMARK UNBOUND:                 0.000
REMARK SMILES CC1=CC(=O)[C@H]2C[C@@H]1C2(C)C
REMARK SMILES IDX 1 1 2 2 3 3 4 4 5 5 6 6 7 7 8 8 9 9 10 10 11 11
REMARK H PARENT
REMARK Flexibility Score: inf
ROOT
ATOM      1  C   UNL     1      13.760  17.472  17.505  1.00  0.00     0.040 C 
ATOM      2  C   UNL     1      15.103  17.773  16.917  1.00  0.00    -0.066 C 
ATOM      3  C   UNL     1      15.744  16.873  16.119  1.00  0.00     0.047 C 
ATOM      4  C   UNL     1      17.097  17.279  15.618  1.00  0.00     0.159 C 
ATOM      5  O   UNL     1      17.804  16.520  14.905  1.00  0.00    -0.295 OA
ATOM      6  C   UNL     1      17.557  18.677  16.033  1.00  0.00     0.067 C 
ATOM      7  C   UNL     1      16.323  19.571  15.781  1.00  0.00     0.021 C 
ATOM      8  C   UNL     1      15.818  19.116  17.169  1.00  0.00     0.022 C 
ATOM      9  C   UNL     1      17.301  18.849  17.557  1.00  0.00    -0.019 C 
ATOM     10  C   UNL     1      17.610  17.650  18.498  1.00  0.00     0.012 C 
ATOM     11  C   UNL     1      17.996  20.110  18.133  1.00  0.00     0.012 C 
ENDROOT
TORSDOF 0
ENDMDL
MODEL 8
REMARK VINA RESULT:    -4.185      1.770      2.474
REMARK INTER + INTRA:          -4.185
REMARK INTER:                  -4.185
REMARK INTRA:                   0.000
REMARK UNBOUND:                 0.000
REMARK SMILES CC1=CC(=O)[C@H]2C[C@@H]1C2(C)C
REMARK SMILES IDX 1 1 2 2 3 3 4 4 5 5 6 6 7 7 8 8 9 9 10 10 11 11
REMARK H PARENT
REMARK Flexibility Score: inf
ROOT
ATOM      1  C   UNL     1      22.119  24.627  11.273  1.00  0.00     0.040 C 
ATOM      2  C   UNL     1      21.672  23.932  10.026  1.00  0.00    -0.066 C 
ATOM      3  C   UNL     1      22.083  24.350   8.796  1.00  0.00     0.047 C 
ATOM      4  C   UNL     1      21.541  23.591   7.623  1.00  0.00     0.159 C 
ATOM      5  O   UNL     1      21.815  23.904   6.436  1.00  0.00    -0.295 OA
ATOM      6  C   UNL     1      20.632  22.411   7.970  1.00  0.00     0.067 C 
ATOM      7  C   UNL     1      21.381  21.678   9.105  1.00  0.00     0.021 C 
ATOM      8  C   UNL     1      20.742  22.702  10.071  1.00  0.00     0.022 C 
ATOM      9  C   UNL     1      19.597  22.880   9.032  1.00  0.00    -0.019 C 
ATOM     10  C   UNL     1      18.963  24.291   8.872  1.00  0.00     0.012 C 
ATOM     11  C   UNL     1      18.453  21.854   9.233  1.00  0.00     0.012 C 
ENDROOT
TORSDOF 0
ENDMDL
MODEL 9
REMARK VINA RESULT:    -4.175      3.279      5.027
REMARK INTER + INTRA:          -4.175
REMARK INTER:                  -4.175
REMARK INTRA:                   0.000
REMARK UNBOUND:                 0.000
REMARK SMILES CC1=CC(=O)[C@H]2C[C@@H]1C2(C)C
REMARK SMILES IDX 1 1 2 2 3 3 4 4 5 5 6 6 7 7 8 8 9 9 10 10 11 11
REMARK H PARENT
REMARK Flexibility Score: inf
ROOT
ATOM      1  C   UNL     1      20.948  21.478   8.027  1.00  0.00     0.040 C 
ATOM      2  C   UNL     1      19.912  20.553   8.583  1.00  0.00    -0.066 C 
ATOM      3  C   UNL     1      19.060  20.954   9.567  1.00  0.00     0.047 C 
ATOM      4  C   UNL     1      18.088  19.925  10.061  1.00  0.00     0.159 C 
ATOM      5  O   UNL     1      17.276  20.162  10.993  1.00  0.00    -0.295 OA
ATOM      6  C   UNL     1      18.152  18.571   9.354  1.00  0.00     0.067 C 
ATOM      7  C   UNL     1      18.224  18.931   7.854  1.00  0.00     0.021 C 
ATOM      8  C   UNL     1      19.745  19.112   8.059  1.00  0.00     0.022 C 
ATOM      9  C   UNL     1      19.641  18.132   9.263  1.00  0.00    -0.019 C 
ATOM     10  C   UNL     1      20.561  18.378  10.493  1.00  0.00     0.012 C 
ATOM     11  C   UNL     1      19.793  16.650   8.833  1.00  0.00     0.012 C 
ENDROOT
TORSDOF 0
ENDMDL
