MODEL 1
REMARK VINA RESULT:    -3.731      0.000      0.000
REMARK INTER + INTRA:          -5.520
REMARK INTER:                  -5.039
REMARK INTRA:                  -0.481
REMARK UNBOUND:                -0.481
REMARK SMILES O=C[C@@H](O)[C@@H](O)[C@H](O)CO
REMARK SMILES IDX 7 1 9 2 10 3 5 5 3 6 2 7 1 8 4 9 6 11 8 13
REMARK H PARENT 10 4 4 10 6 12 8 14
REMARK Flexibility Score: inf
ROOT
ATOM      1  C   UNL     1      26.576 -12.441 -20.355  1.00  0.00     0.171 C 
ENDROOT
BRANCH   1   2
ATOM      2  C   UNL     1      27.995 -12.900 -20.759  1.00  0.00     0.190 C 
BRANCH   2   3
ATOM      3  O   UNL     1      27.954 -13.949 -21.687  1.00  0.00    -0.394 OA
ATOM      4  H   UNL     1      28.292 -13.575 -22.542  1.00  0.00     0.210 HD
ENDBRANCH   2   3
ENDBRANCH   1   2
BRANCH   1   5
ATOM      5  C   UNL     1      26.530 -11.259 -19.344  1.00  0.00     0.181 C 
BRANCH   5   6
ATOM      6  C   UNL     1      26.791 -11.648 -17.864  1.00  0.00     0.209 C 
BRANCH   6   7
ATOM      7  C   UNL     1      26.898 -10.424 -16.991  1.00  0.00     0.258 C 
ATOM      8  O   UNL     1      27.959  -9.829 -16.876  1.00  0.00    -0.300 OA
ENDBRANCH   6   7
BRANCH   6   9
ATOM      9  O   UNL     1      25.799 -12.505 -17.359  1.00  0.00    -0.383 OA
ATOM     10  H   UNL     1      25.772 -12.388 -16.373  1.00  0.00     0.211 HD
ENDBRANCH   6   9
ENDBRANCH   5   6
BRANCH   5  11
ATOM     11  O   UNL     1      27.469 -10.284 -19.727  1.00  0.00    -0.387 OA
ATOM     12  H   UNL     1      27.728  -9.791 -18.904  1.00  0.00     0.211 HD
ENDBRANCH   5  11
ENDBRANCH   1   5
BRANCH   1  13
ATOM     13  O   UNL     1      25.761 -13.513 -19.942  1.00  0.00    -0.388 OA
ATOM     14  H   UNL     1      24.820 -13.306 -20.172  1.00  0.00     0.211 HD
ENDBRANCH   1  13
TORSDOF 8
ENDMDL
MODEL 2
REMARK VINA RESULT:    -3.683      1.194      1.935
REMARK INTER + INTRA:          -5.455
REMARK INTER:                  -5.178
REMARK INTRA:                  -0.278
REMARK UNBOUND:                -0.481
REMARK SMILES O=C[C@@H](O)[C@@H](O)[C@H](O)CO
REMARK SMILES IDX 7 1 9 2 10 3 5 5 3 6 2 7 1 8 4 9 6 11 8 13
REMARK H PARENT 10 4 4 10 6 12 8 14
REMARK Flexibility Score: inf
ROOT
ATOM      1  C   UNL     1      26.652 -12.453 -19.819  1.00  0.00     0.171 C 
ENDROOT
BRANCH   1   2
ATOM      2  C   UNL     1      27.971 -12.733 -20.575  1.00  0.00     0.190 C 
BRANCH   2   3
ATOM      3  O   UNL     1      27.766 -13.573 -21.678  1.00  0.00    -0.394 OA
ATOM      4  H   UNL     1      26.850 -13.943 -21.576  1.00  0.00     0.210 HD
ENDBRANCH   2   3
ENDBRANCH   1   2
BRANCH   1   5
ATOM      5  C   UNL     1      26.824 -12.002 -18.340  1.00  0.00     0.181 C 
BRANCH   5   6
ATOM      6  C   UNL     1      26.892 -10.467 -18.124  1.00  0.00     0.209 C 
BRANCH   6   7
ATOM      7  C   UNL     1      25.511  -9.875 -17.988  1.00  0.00     0.258 C 
ATOM      8  O   UNL     1      25.005  -9.717 -16.887  1.00  0.00    -0.300 OA
ENDBRANCH   6   7
BRANCH   6   9
ATOM      9  O   UNL     1      27.666 -10.124 -17.002  1.00  0.00    -0.383 OA
ATOM     10  H   UNL     1      28.603 -10.400 -17.186  1.00  0.00     0.211 HD
ENDBRANCH   6   9
ENDBRANCH   5   6
BRANCH   5  11
ATOM     11  O   UNL     1      25.767 -12.520 -17.570  1.00  0.00    -0.387 OA
ATOM     12  H   UNL     1      25.702 -11.963 -16.751  1.00  0.00     0.211 HD
ENDBRANCH   5  11
ENDBRANCH   1   5
BRANCH   1  13
ATOM     13  O   UNL     1      25.728 -13.509 -19.939  1.00  0.00    -0.388 OA
ATOM     14  H   UNL     1      25.701 -14.008 -19.085  1.00  0.00     0.211 HD
ENDBRANCH   1  13
TORSDOF 8
ENDMDL
MODEL 3
REMARK VINA RESULT:    -3.654     12.906     14.984
REMARK INTER + INTRA:          -5.416
REMARK INTER:                  -4.908
REMARK INTRA:                  -0.508
REMARK UNBOUND:                -0.481
REMARK SMILES O=C[C@@H](O)[C@@H](O)[C@H](O)CO
REMARK SMILES IDX 7 1 9 2 10 3 5 5 3 6 2 7 1 8 4 9 6 11 8 13
REMARK H PARENT 10 4 4 10 6 12 8 14
REMARK Flexibility Score: inf
ROOT
ATOM      1  C   UNL     1      27.440 -12.153 -34.085  1.00  0.00     0.171 C 
ENDROOT
BRANCH   1   2
ATOM      2  C   UNL     1      27.691 -11.112 -35.200  1.00  0.00     0.190 C 
BRANCH   2   3
ATOM      3  O   UNL     1      27.155 -11.530 -36.425  1.00  0.00    -0.394 OA
ATOM      4  H   UNL     1      27.658 -12.345 -36.684  1.00  0.00     0.210 HD
ENDBRANCH   2   3
ENDBRANCH   1   2
BRANCH   1   5
ATOM      5  C   UNL     1      28.666 -12.447 -33.172  1.00  0.00     0.181 C 
BRANCH   5   6
ATOM      6  C   UNL     1      28.491 -13.646 -32.203  1.00  0.00     0.209 C 
BRANCH   6   7
ATOM      7  C   UNL     1      29.217 -14.866 -32.710  1.00  0.00     0.258 C 
ATOM      8  O   UNL     1      28.804 -15.481 -33.681  1.00  0.00    -0.300 OA
ENDBRANCH   6   7
BRANCH   6   9
ATOM      9  O   UNL     1      28.926 -13.343 -30.902  1.00  0.00    -0.383 OA
ATOM     10  H   UNL     1      28.514 -12.478 -30.639  1.00  0.00     0.211 HD
ENDBRANCH   6   9
ENDBRANCH   5   6
BRANCH   5  11
ATOM     11  O   UNL     1      29.798 -12.677 -33.975  1.00  0.00    -0.387 OA
ATOM     12  H   UNL     1      29.831 -13.652 -34.160  1.00  0.00     0.211 HD
ENDBRANCH   5  11
ENDBRANCH   1   5
BRANCH   1  13
ATOM     13  O   UNL     1      26.857 -13.337 -34.575  1.00  0.00    -0.388 OA
ATOM     14  H   UNL     1      27.470 -14.094 -34.392  1.00  0.00     0.211 HD
ENDBRANCH   1  13
TORSDOF 8
ENDMDL
MODEL 4
REMARK VINA RESULT:    -3.647     17.605     19.255
REMARK INTER + INTRA:          -5.407
REMARK INTER:                  -4.770
REMARK INTRA:                  -0.637
REMARK UNBOUND:                -0.481
REMARK SMILES O=C[C@@H](O)[C@@H](O)[C@H](O)CO
REMARK SMILES IDX 7 1 9 2 10 3 5 5 3 6 2 7 1 8 4 9 6 11 8 13
REMARK H PARENT 10 4 4 10 6 12 8 14
REMARK Flexibility Score: inf
ROOT
ATOM      1  C   UNL     1      36.730  -7.186 -33.502  1.00  0.00     0.171 C 
ENDROOT
BRANCH   1   2
ATOM      2  C   UNL     1      36.756  -8.731 -33.492  1.00  0.00     0.190 C 
BRANCH   2   3
ATOM      3  O   UNL     1      37.231  -9.247 -34.705  1.00  0.00    -0.394 OA
ATOM      4  H   UNL     1      36.466  -9.722 -35.122  1.00  0.00     0.210 HD
ENDBRANCH   2   3
ENDBRANCH   1   2
BRANCH   1   5
ATOM      5  C   UNL     1      37.796  -6.516 -34.416  1.00  0.00     0.181 C 
BRANCH   5   6
ATOM      6  C   UNL     1      37.746  -4.965 -34.457  1.00  0.00     0.209 C 
BRANCH   6   7
ATOM      7  C   UNL     1      38.787  -4.363 -33.548  1.00  0.00     0.258 C 
ATOM      8  O   UNL     1      38.577  -4.242 -32.351  1.00  0.00    -0.300 OA
ENDBRANCH   6   7
BRANCH   6   9
ATOM      9  O   UNL     1      37.909  -4.465 -35.760  1.00  0.00    -0.383 OA
ATOM     10  H   UNL     1      38.427  -5.136 -36.279  1.00  0.00     0.211 HD
ENDBRANCH   6   9
ENDBRANCH   5   6
BRANCH   5  11
ATOM     11  O   UNL     1      39.080  -6.915 -34.002  1.00  0.00    -0.387 OA
ATOM     12  H   UNL     1      39.419  -6.213 -33.387  1.00  0.00     0.211 HD
ENDBRANCH   5  11
ENDBRANCH   1   5
BRANCH   1  13
ATOM     13  O   UNL     1      36.737  -6.639 -32.204  1.00  0.00    -0.388 OA
ATOM     14  H   UNL     1      36.949  -5.673 -32.266  1.00  0.00     0.211 HD
ENDBRANCH   1  13
TORSDOF 8
ENDMDL
MODEL 5
REMARK VINA RESULT:    -3.637      1.167      2.137
REMARK INTER + INTRA:          -5.394
REMARK INTER:                  -4.812
REMARK INTRA:                  -0.581
REMARK UNBOUND:                -0.481
REMARK SMILES O=C[C@@H](O)[C@@H](O)[C@H](O)CO
REMARK SMILES IDX 7 1 9 2 10 3 5 5 3 6 2 7 1 8 4 9 6 11 8 13
REMARK H PARENT 10 4 4 10 6 12 8 14
REMARK Flexibility Score: inf
ROOT
ATOM      1  C   UNL     1      26.626 -12.121 -19.529  1.00  0.00     0.171 C 
ENDROOT
BRANCH   1   2
ATOM      2  C   UNL     1      28.003 -12.010 -20.223  1.00  0.00     0.190 C 
BRANCH   2   3
ATOM      3  O   UNL     1      28.491 -10.697 -20.193  1.00  0.00    -0.394 OA
ATOM      4  H   UNL     1      28.044 -10.254 -19.426  1.00  0.00     0.210 HD
ENDBRANCH   2   3
ENDBRANCH   1   2
BRANCH   1   5
ATOM      5  C   UNL     1      26.638 -11.848 -17.997  1.00  0.00     0.181 C 
BRANCH   5   6
ATOM      6  C   UNL     1      26.348 -10.379 -17.588  1.00  0.00     0.209 C 
BRANCH   6   7
ATOM      7  C   UNL     1      27.528  -9.770 -16.875  1.00  0.00     0.258 C 
ATOM      8  O   UNL     1      28.501  -9.376 -17.500  1.00  0.00    -0.300 OA
ENDBRANCH   6   7
BRANCH   6   9
ATOM      9  O   UNL     1      25.998  -9.583 -18.692  1.00  0.00    -0.383 OA
ATOM     10  H   UNL     1      26.614  -8.802 -18.708  1.00  0.00     0.211 HD
ENDBRANCH   6   9
ENDBRANCH   5   6
BRANCH   5  11
ATOM     11  O   UNL     1      25.698 -12.685 -17.368  1.00  0.00    -0.387 OA
ATOM     12  H   UNL     1      26.035 -12.867 -16.452  1.00  0.00     0.211 HD
ENDBRANCH   5  11
ENDBRANCH   1   5
BRANCH   1  13
ATOM     13  O   UNL     1      25.962 -13.323 -19.840  1.00  0.00    -0.388 OA
ATOM     14  H   UNL     1      25.765 -13.338 -20.811  1.00  0.00     0.211 HD
ENDBRANCH   1  13
TORSDOF 8
ENDMDL
MODEL 6
REMARK VINA RESULT:    -3.581      1.012      3.868
REMARK INTER + INTRA:          -5.318
REMARK INTER:                  -4.604
REMARK INTRA:                  -0.714
REMARK UNBOUND:                -0.481
REMARK SMILES O=C[C@@H](O)[C@@H](O)[C@H](O)CO
REMARK SMILES IDX 7 1 9 2 10 3 5 5 3 6 2 7 1 8 4 9 6 11 8 13
REMARK H PARENT 10 4 4 10 6 12 8 14
REMARK Flexibility Score: inf
ROOT
ATOM      1  C   UNL     1      26.586 -11.434 -17.901  1.00  0.00     0.171 C 
ENDROOT
BRANCH   1   2
ATOM      2  C   UNL     1      25.734 -10.154 -18.060  1.00  0.00     0.190 C 
BRANCH   2   3
ATOM      3  O   UNL     1      26.512  -8.996 -17.927  1.00  0.00    -0.394 OA
ATOM      4  H   UNL     1      27.026  -8.909 -18.772  1.00  0.00     0.210 HD
ENDBRANCH   2   3
ENDBRANCH   1   2
BRANCH   1   5
ATOM      5  C   UNL     1      27.365 -11.868 -19.176  1.00  0.00     0.181 C 
BRANCH   5   6
ATOM      6  C   UNL     1      26.486 -12.438 -20.321  1.00  0.00     0.209 C 
BRANCH   6   7
ATOM      7  C   UNL     1      27.329 -12.840 -21.505  1.00  0.00     0.258 C 
ATOM      8  O   UNL     1      28.484 -13.208 -21.354  1.00  0.00    -0.300 OA
ENDBRANCH   6   7
BRANCH   6   9
ATOM      9  O   UNL     1      25.711 -13.531 -19.899  1.00  0.00    -0.383 OA
ATOM     10  H   UNL     1      25.591 -13.455 -18.915  1.00  0.00     0.211 HD
ENDBRANCH   6   9
ENDBRANCH   5   6
BRANCH   5  11
ATOM     11  O   UNL     1      28.095 -10.772 -19.671  1.00  0.00    -0.387 OA
ATOM     12  H   UNL     1      28.154 -10.882 -20.656  1.00  0.00     0.211 HD
ENDBRANCH   5  11
ENDBRANCH   1   5
BRANCH   1  13
ATOM     13  O   UNL     1      25.856 -12.501 -17.346  1.00  0.00    -0.388 OA
ATOM     14  H   UNL     1      26.426 -13.311 -17.342  1.00  0.00     0.211 HD
ENDBRANCH   1  13
TORSDOF 8
ENDMDL
MODEL 7
REMARK VINA RESULT:    -3.544      2.530      4.244
REMARK INTER + INTRA:          -5.268
REMARK INTER:                  -4.560
REMARK INTRA:                  -0.708
REMARK UNBOUND:                -0.481
REMARK SMILES O=C[C@@H](O)[C@@H](O)[C@H](O)CO
REMARK SMILES IDX 7 1 9 2 10 3 5 5 3 6 2 7 1 8 4 9 6 11 8 13
REMARK H PARENT 10 4 4 10 6 12 8 14
REMARK Flexibility Score: inf
ROOT
ATOM      1  C   UNL     1      29.561 -12.802 -22.112  1.00  0.00     0.171 C 
ENDROOT
BRANCH   1   2
ATOM      2  C   UNL     1      30.900 -13.535 -22.354  1.00  0.00     0.190 C 
BRANCH   2   3
ATOM      3  O   UNL     1      31.144 -14.502 -21.370  1.00  0.00    -0.394 OA
ATOM      4  H   UNL     1      30.562 -15.275 -21.592  1.00  0.00     0.210 HD
ENDBRANCH   2   3
ENDBRANCH   1   2
BRANCH   1   5
ATOM      5  C   UNL     1      28.593 -13.510 -21.121  1.00  0.00     0.181 C 
BRANCH   5   6
ATOM      6  C   UNL     1      27.371 -12.663 -20.677  1.00  0.00     0.209 C 
BRANCH   6   7
ATOM      7  C   UNL     1      26.116 -13.105 -21.386  1.00  0.00     0.258 C 
ATOM      8  O   UNL     1      25.919 -12.802 -22.553  1.00  0.00    -0.300 OA
ENDBRANCH   6   7
BRANCH   6   9
ATOM      9  O   UNL     1      27.171 -12.712 -19.287  1.00  0.00    -0.383 OA
ATOM     10  H   UNL     1      26.999 -11.784 -18.973  1.00  0.00     0.211 HD
ENDBRANCH   6   9
ENDBRANCH   5   6
BRANCH   5  11
ATOM     11  O   UNL     1      28.128 -14.705 -21.699  1.00  0.00    -0.387 OA
ATOM     12  H   UNL     1      27.808 -14.482 -22.613  1.00  0.00     0.211 HD
ENDBRANCH   5  11
ENDBRANCH   1   5
BRANCH   1  13
ATOM     13  O   UNL     1      28.914 -12.453 -23.313  1.00  0.00    -0.388 OA
ATOM     14  H   UNL     1      28.230 -11.763 -23.119  1.00  0.00     0.211 HD
ENDBRANCH   1  13
TORSDOF 8
ENDMDL
MODEL 8
REMARK VINA RESULT:    -3.497      1.075      4.160
REMARK INTER + INTRA:          -5.204
REMARK INTER:                  -4.479
REMARK INTRA:                  -0.725
REMARK UNBOUND:                -0.481
REMARK SMILES O=C[C@@H](O)[C@@H](O)[C@H](O)CO
REMARK SMILES IDX 7 1 9 2 10 3 5 5 3 6 2 7 1 8 4 9 6 11 8 13
REMARK H PARENT 10 4 4 10 6 12 8 14
REMARK Flexibility Score: inf
ROOT
ATOM      1  C   UNL     1      26.278 -10.972 -18.993  1.00  0.00     0.171 C 
ENDROOT
BRANCH   1   2
ATOM      2  C   UNL     1      26.611 -11.443 -17.559  1.00  0.00     0.190 C 
BRANCH   2   3
ATOM      3  O   UNL     1      25.814 -12.530 -17.175  1.00  0.00    -0.394 OA
ATOM      4  H   UNL     1      24.907 -12.162 -17.008  1.00  0.00     0.210 HD
ENDBRANCH   2   3
ENDBRANCH   1   2
BRANCH   1   5
ATOM      5  C   UNL     1      26.648 -11.981 -20.119  1.00  0.00     0.181 C 
BRANCH   5   6
ATOM      6  C   UNL     1      28.165 -12.277 -20.264  1.00  0.00     0.209 C 
BRANCH   6   7
ATOM      7  C   UNL     1      28.437 -13.141 -21.470  1.00  0.00     0.258 C 
ATOM      8  O   UNL     1      28.314 -14.355 -21.409  1.00  0.00    -0.300 OA
ENDBRANCH   6   7
BRANCH   6   9
ATOM      9  O   UNL     1      28.928 -11.101 -20.343  1.00  0.00    -0.383 OA
ATOM     10  H   UNL     1      28.474 -10.488 -20.980  1.00  0.00     0.211 HD
ENDBRANCH   6   9
ENDBRANCH   5   6
BRANCH   5  11
ATOM     11  O   UNL     1      25.971 -13.194 -19.896  1.00  0.00    -0.387 OA
ATOM     12  H   UNL     1      25.184 -12.989 -19.325  1.00  0.00     0.211 HD
ENDBRANCH   5  11
ENDBRANCH   1   5
BRANCH   1  13
ATOM     13  O   UNL     1      26.773  -9.682 -19.264  1.00  0.00    -0.388 OA
ATOM     14  H   UNL     1      26.258  -9.024 -18.733  1.00  0.00     0.211 HD
ENDBRANCH   1  13
TORSDOF 8
ENDMDL
MODEL 9
REMARK VINA RESULT:    -3.453      1.399      2.030
REMARK INTER + INTRA:          -5.145
REMARK INTER:                  -4.625
REMARK INTRA:                  -0.520
REMARK UNBOUND:                -0.481
REMARK SMILES O=C[C@@H](O)[C@@H](O)[C@H](O)CO
REMARK SMILES IDX 7 1 9 2 10 3 5 5 3 6 2 7 1 8 4 9 6 11 8 13
REMARK H PARENT 10 4 4 10 6 12 8 14
REMARK Flexibility Score: inf
ROOT
ATOM      1  C   UNL     1      27.519 -11.746 -19.695  1.00  0.00     0.171 C 
ENDROOT
BRANCH   1   2
ATOM      2  C   UNL     1      26.628 -12.598 -20.628  1.00  0.00     0.190 C 
BRANCH   2   3
ATOM      3  O   UNL     1      25.789 -13.452 -19.901  1.00  0.00    -0.394 OA
ATOM      4  H   UNL     1      26.025 -13.324 -18.946  1.00  0.00     0.210 HD
ENDBRANCH   2   3
ENDBRANCH   1   2
BRANCH   1   5
ATOM      5  C   UNL     1      26.764 -10.657 -18.880  1.00  0.00     0.181 C 
BRANCH   5   6
ATOM      6  C   UNL     1      26.528 -11.000 -17.385  1.00  0.00     0.209 C 
BRANCH   6   7
ATOM      7  C   UNL     1      25.257 -10.369 -16.875  1.00  0.00     0.258 C 
ATOM      8  O   UNL     1      24.925  -9.251 -17.240  1.00  0.00    -0.300 OA
ENDBRANCH   6   7
BRANCH   6   9
ATOM      9  O   UNL     1      26.491 -12.386 -17.159  1.00  0.00    -0.383 OA
ATOM     10  H   UNL     1      27.404 -12.674 -16.893  1.00  0.00     0.211 HD
ENDBRANCH   6   9
ENDBRANCH   5   6
BRANCH   5  11
ATOM     11  O   UNL     1      27.472  -9.444 -18.958  1.00  0.00    -0.387 OA
ATOM     12  H   UNL     1      28.244  -9.516 -18.337  1.00  0.00     0.211 HD
ENDBRANCH   5  11
ENDBRANCH   1   5
BRANCH   1  13
ATOM     13  O   UNL     1      28.642 -11.216 -20.359  1.00  0.00    -0.388 OA
ATOM     14  H   UNL     1      29.038 -10.502 -19.798  1.00  0.00     0.211 HD
ENDBRANCH   1  13
TORSDOF 8
ENDMDL
