MODEL 1
REMARK VINA RESULT:    -5.761      0.000      0.000
REMARK INTER + INTRA:          -7.190
REMARK INTER:                  -6.939
REMARK INTRA:                  -0.251
REMARK UNBOUND:                -0.251
REMARK SMILES O=c1c(O)c(-c2ccc(O)c(O)c2)oc2cc(O)cc(O)c12
REMARK SMILES IDX 5 1 3 2 2 3 1 4 22 5 20 6 19 7 17 8 16 9 15 10 14 11 6 12
REMARK SMILES IDX 7 13 8 14 9 15 13 16 11 17 10 18 12 20 4 22 21 24 18 26
REMARK H PARENT 10 19 12 21 4 23 21 25 18 27
REMARK Flexibility Score: inf
ROOT
ATOM      1  C   UNL     1      20.936  39.530   4.789  1.00  0.00     0.180 A 
ATOM      2  C   UNL     1      20.576  40.416   5.819  1.00  0.00     0.208 A 
ATOM      3  C   UNL     1      20.537  39.944   7.141  1.00  0.00     0.238 A 
ATOM      4  O   UNL     1      20.161  40.727   8.051  1.00  0.00    -0.285 OA
ATOM      5  C   UNL     1      20.873  38.597   7.418  1.00  0.00     0.111 A 
ATOM      6  C   UNL     1      20.904  38.022   8.725  1.00  0.00     0.134 A 
ATOM      7  C   UNL     1      21.123  36.647   8.869  1.00  0.00     0.093 A 
ATOM      8  C   UNL     1      21.376  35.838   7.762  1.00  0.00     0.123 A 
ATOM      9  C   UNL     1      21.406  36.400   6.485  1.00  0.00     0.094 A 
ATOM     10  C   UNL     1      21.155  37.762   6.306  1.00  0.00     0.146 A 
ATOM     11  O   UNL     1      21.182  38.255   5.074  1.00  0.00    -0.452 OA
ENDROOT
BRANCH   1  12
ATOM     12  C   UNL     1      21.026  39.959   3.375  1.00  0.00     0.025 A 
ATOM     13  C   UNL     1      22.093  40.774   2.967  1.00  0.00     0.016 A 
ATOM     14  C   UNL     1      22.187  41.208   1.642  1.00  0.00     0.051 A 
ATOM     15  C   UNL     1      21.205  40.847   0.710  1.00  0.00     0.157 A 
ATOM     16  C   UNL     1      20.031  39.616   2.441  1.00  0.00     0.062 A 
ATOM     17  C   UNL     1      20.124  40.053   1.111  1.00  0.00     0.158 A 
BRANCH  15  18
ATOM     18  O   UNL     1      21.295  41.276  -0.613  1.00  0.00    -0.504 OA
ATOM     19  H   UNL     1      21.188  40.632  -1.388  1.00  0.00     0.293 HD
ENDBRANCH  15  18
BRANCH  17  20
ATOM     20  O   UNL     1      19.141  39.707   0.185  1.00  0.00    -0.504 OA
ATOM     21  H   UNL     1      18.430  39.018   0.399  1.00  0.00     0.293 HD
ENDBRANCH  17  20
ENDBRANCH   1  12
BRANCH   2  22
ATOM     22  O   UNL     1      20.228  41.736   5.520  1.00  0.00    -0.502 OA
ATOM     23  H   UNL     1      19.332  42.133   5.777  1.00  0.00     0.293 HD
ENDBRANCH   2  22
BRANCH   6  24
ATOM     24  O   UNL     1      20.756  38.758   9.904  1.00  0.00    -0.507 OA
ATOM     25  H   UNL     1      20.306  38.419  10.741  1.00  0.00     0.293 HD
ENDBRANCH   6  24
BRANCH   8  26
ATOM     26  O   UNL     1      21.605  34.476   7.944  1.00  0.00    -0.508 OA
ATOM     27  H   UNL     1      22.527  34.073   7.829  1.00  0.00     0.293 HD
ENDBRANCH   8  26
TORSDOF 6
ENDMDL
MODEL 2
REMARK VINA RESULT:    -5.485      1.520      6.708
REMARK INTER + INTRA:          -6.858
REMARK INTER:                  -6.746
REMARK INTRA:                  -0.112
REMARK UNBOUND:                -0.251
REMARK SMILES O=c1c(O)c(-c2ccc(O)c(O)c2)oc2cc(O)cc(O)c12
REMARK SMILES IDX 5 1 3 2 2 3 1 4 22 5 20 6 19 7 17 8 16 9 15 10 14 11 6 12
REMARK SMILES IDX 7 13 8 14 9 15 13 16 11 17 10 18 12 20 4 22 21 24 18 26
REMARK H PARENT 10 19 12 21 4 23 21 25 18 27
REMARK Flexibility Score: inf
ROOT
ATOM      1  C   UNL     1      20.466  39.268   5.388  1.00  0.00     0.180 A 
ATOM      2  C   UNL     1      19.350  40.122   5.429  1.00  0.00     0.208 A 
ATOM      3  C   UNL     1      19.098  40.966   4.336  1.00  0.00     0.238 A 
ATOM      4  O   UNL     1      18.129  41.767   4.402  1.00  0.00    -0.285 OA
ATOM      5  C   UNL     1      19.955  40.935   3.210  1.00  0.00     0.111 A 
ATOM      6  C   UNL     1      19.772  41.720   2.031  1.00  0.00     0.134 A 
ATOM      7  C   UNL     1      20.755  41.705   1.033  1.00  0.00     0.093 A 
ATOM      8  C   UNL     1      21.879  40.887   1.140  1.00  0.00     0.123 A 
ATOM      9  C   UNL     1      22.038  40.072   2.262  1.00  0.00     0.094 A 
ATOM     10  C   UNL     1      21.094  40.092   3.291  1.00  0.00     0.146 A 
ATOM     11  O   UNL     1      21.288  39.310   4.346  1.00  0.00    -0.452 OA
ENDROOT
BRANCH   1  12
ATOM     12  C   UNL     1      20.782  38.331   6.490  1.00  0.00     0.025 A 
ATOM     13  C   UNL     1      21.086  38.840   7.763  1.00  0.00     0.016 A 
ATOM     14  C   UNL     1      21.407  37.975   8.813  1.00  0.00     0.051 A 
ATOM     15  C   UNL     1      21.445  36.590   8.600  1.00  0.00     0.157 A 
ATOM     16  C   UNL     1      20.842  36.942   6.276  1.00  0.00     0.062 A 
ATOM     17  C   UNL     1      21.166  36.074   7.329  1.00  0.00     0.158 A 
BRANCH  15  18
ATOM     18  O   UNL     1      21.764  35.724   9.645  1.00  0.00    -0.504 OA
ATOM     19  H   UNL     1      21.130  35.575  10.422  1.00  0.00     0.293 HD
ENDBRANCH  15  18
BRANCH  17  20
ATOM     20  O   UNL     1      21.218  34.697   7.117  1.00  0.00    -0.504 OA
ATOM     21  H   UNL     1      21.499  34.057   7.850  1.00  0.00     0.293 HD
ENDBRANCH  17  20
ENDBRANCH   1  12
BRANCH   2  22
ATOM     22  O   UNL     1      18.529  40.151   6.560  1.00  0.00    -0.502 OA
ATOM     23  H   UNL     1      18.620  40.858   7.280  1.00  0.00     0.293 HD
ENDBRANCH   2  22
BRANCH   6  24
ATOM     24  O   UNL     1      18.640  42.500   1.781  1.00  0.00    -0.507 OA
ATOM     25  H   UNL     1      18.645  43.503   1.676  1.00  0.00     0.293 HD
ENDBRANCH   6  24
BRANCH   8  26
ATOM     26  O   UNL     1      22.828  40.886   0.121  1.00  0.00    -0.508 OA
ATOM     27  H   UNL     1      23.817  40.786   0.318  1.00  0.00     0.293 HD
ENDBRANCH   8  26
TORSDOF 6
ENDMDL
MODEL 3
REMARK VINA RESULT:    -5.408      1.209      2.938
REMARK INTER + INTRA:          -6.765
REMARK INTER:                  -6.453
REMARK INTRA:                  -0.312
REMARK UNBOUND:                -0.251
REMARK SMILES O=c1c(O)c(-c2ccc(O)c(O)c2)oc2cc(O)cc(O)c12
REMARK SMILES IDX 5 1 3 2 2 3 1 4 22 5 20 6 19 7 17 8 16 9 15 10 14 11 6 12
REMARK SMILES IDX 7 13 8 14 9 15 13 16 11 17 10 18 12 20 4 22 21 24 18 26
REMARK H PARENT 10 19 12 21 4 23 21 25 18 27
REMARK Flexibility Score: inf
ROOT
ATOM      1  C   UNL     1      20.937  39.299   4.771  1.00  0.00     0.180 A 
ATOM      2  C   UNL     1      21.404  38.026   5.140  1.00  0.00     0.208 A 
ATOM      3  C   UNL     1      21.294  37.621   6.480  1.00  0.00     0.238 A 
ATOM      4  O   UNL     1      21.763  36.503   6.815  1.00  0.00    -0.285 OA
ATOM      5  C   UNL     1      20.705  38.489   7.431  1.00  0.00     0.111 A 
ATOM      6  C   UNL     1      20.507  38.168   8.808  1.00  0.00     0.134 A 
ATOM      7  C   UNL     1      20.034  39.152   9.686  1.00  0.00     0.093 A 
ATOM      8  C   UNL     1      19.690  40.422   9.226  1.00  0.00     0.123 A 
ATOM      9  C   UNL     1      19.824  40.728   7.871  1.00  0.00     0.094 A 
ATOM     10  C   UNL     1      20.327  39.780   6.978  1.00  0.00     0.146 A 
ATOM     11  O   UNL     1      20.449  40.115   5.699  1.00  0.00    -0.452 OA
ENDROOT
BRANCH   1  12
ATOM     12  C   UNL     1      20.995  39.785   3.374  1.00  0.00     0.025 A 
ATOM     13  C   UNL     1      21.994  40.698   3.001  1.00  0.00     0.016 A 
ATOM     14  C   UNL     1      22.056  41.186   1.693  1.00  0.00     0.051 A 
ATOM     15  C   UNL     1      21.108  40.780   0.743  1.00  0.00     0.157 A 
ATOM     16  C   UNL     1      20.034  39.396   2.422  1.00  0.00     0.062 A 
ATOM     17  C   UNL     1      20.094  39.887   1.110  1.00  0.00     0.158 A 
BRANCH  15  18
ATOM     18  O   UNL     1      21.167  41.262  -0.563  1.00  0.00    -0.504 OA
ATOM     19  H   UNL     1      20.366  41.213  -1.183  1.00  0.00     0.293 HD
ENDBRANCH  15  18
BRANCH  17  20
ATOM     20  O   UNL     1      19.145  39.496   0.167  1.00  0.00    -0.504 OA
ATOM     21  H   UNL     1      18.574  40.173  -0.324  1.00  0.00     0.293 HD
ENDBRANCH  17  20
ENDBRANCH   1  12
BRANCH   2  22
ATOM     22  O   UNL     1      22.002  37.194   4.189  1.00  0.00    -0.502 OA
ATOM     23  H   UNL     1      22.663  37.539   3.504  1.00  0.00     0.293 HD
ENDBRANCH   2  22
BRANCH   6  24
ATOM     24  O   UNL     1      20.731  36.901   9.353  1.00  0.00    -0.507 OA
ATOM     25  H   UNL     1      21.423  36.246   9.023  1.00  0.00     0.293 HD
ENDBRANCH   6  24
BRANCH   8  26
ATOM     26  O   UNL     1      19.208  41.371  10.124  1.00  0.00    -0.508 OA
ATOM     27  H   UNL     1      18.231  41.642  10.136  1.00  0.00     0.293 HD
ENDBRANCH   8  26
TORSDOF 6
ENDMDL
MODEL 4
REMARK VINA RESULT:    -5.164      3.775      6.315
REMARK INTER + INTRA:          -6.471
REMARK INTER:                  -6.729
REMARK INTRA:                   0.258
REMARK UNBOUND:                -0.251
REMARK SMILES O=c1c(O)c(-c2ccc(O)c(O)c2)oc2cc(O)cc(O)c12
REMARK SMILES IDX 5 1 3 2 2 3 1 4 22 5 20 6 19 7 17 8 16 9 15 10 14 11 6 12
REMARK SMILES IDX 7 13 8 14 9 15 13 16 11 17 10 18 12 20 4 22 21 24 18 26
REMARK H PARENT 10 19 12 21 4 23 21 25 18 27
REMARK Flexibility Score: inf
ROOT
ATOM      1  C   UNL     1      17.875  40.686   5.804  1.00  0.00     0.180 A 
ATOM      2  C   UNL     1      18.144  41.243   4.542  1.00  0.00     0.208 A 
ATOM      3  C   UNL     1      19.149  40.672   3.745  1.00  0.00     0.238 A 
ATOM      4  O   UNL     1      19.422  41.208   2.640  1.00  0.00    -0.285 OA
ATOM      5  C   UNL     1      19.861  39.541   4.214  1.00  0.00     0.111 A 
ATOM      6  C   UNL     1      20.873  38.858   3.474  1.00  0.00     0.134 A 
ATOM      7  C   UNL     1      21.603  37.832   4.088  1.00  0.00     0.093 A 
ATOM      8  C   UNL     1      21.314  37.422   5.389  1.00  0.00     0.123 A 
ATOM      9  C   UNL     1      20.287  38.044   6.100  1.00  0.00     0.094 A 
ATOM     10  C   UNL     1      19.566  39.094   5.528  1.00  0.00     0.146 A 
ATOM     11  O   UNL     1      18.605  39.666   6.242  1.00  0.00    -0.452 OA
ENDROOT
BRANCH   1  12
ATOM     12  C   UNL     1      16.813  41.217   6.689  1.00  0.00     0.025 A 
ATOM     13  C   UNL     1      16.573  42.599   6.728  1.00  0.00     0.016 A 
ATOM     14  C   UNL     1      15.590  43.125   7.571  1.00  0.00     0.051 A 
ATOM     15  C   UNL     1      14.844  42.275   8.400  1.00  0.00     0.157 A 
ATOM     16  C   UNL     1      16.076  40.371   7.538  1.00  0.00     0.062 A 
ATOM     17  C   UNL     1      15.091  40.897   8.386  1.00  0.00     0.158 A 
BRANCH  15  18
ATOM     18  O   UNL     1      13.862  42.794   9.241  1.00  0.00    -0.504 OA
ATOM     19  H   UNL     1      13.041  42.255   9.494  1.00  0.00     0.293 HD
ENDBRANCH  15  18
BRANCH  17  20
ATOM     20  O   UNL     1      14.357  40.057   9.221  1.00  0.00    -0.504 OA
ATOM     21  H   UNL     1      13.547  40.390   9.730  1.00  0.00     0.293 HD
ENDBRANCH  17  20
ENDBRANCH   1  12
BRANCH   2  22
ATOM     22  O   UNL     1      17.443  42.372   4.108  1.00  0.00    -0.502 OA
ATOM     23  H   UNL     1      17.349  43.205   4.676  1.00  0.00     0.293 HD
ENDBRANCH   2  22
BRANCH   6  24
ATOM     24  O   UNL     1      21.178  39.126   2.137  1.00  0.00    -0.507 OA
ATOM     25  H   UNL     1      20.609  39.684   1.518  1.00  0.00     0.293 HD
ENDBRANCH   6  24
BRANCH   8  26
ATOM     26  O   UNL     1      22.050  36.388   5.963  1.00  0.00    -0.508 OA
ATOM     27  H   UNL     1      22.498  35.677   5.395  1.00  0.00     0.293 HD
ENDBRANCH   8  26
TORSDOF 6
ENDMDL
MODEL 5
REMARK VINA RESULT:    -5.138      2.164      3.353
REMARK INTER + INTRA:          -6.440
REMARK INTER:                  -6.332
REMARK INTRA:                  -0.108
REMARK UNBOUND:                -0.251
REMARK SMILES O=c1c(O)c(-c2ccc(O)c(O)c2)oc2cc(O)cc(O)c12
REMARK SMILES IDX 5 1 3 2 2 3 1 4 22 5 20 6 19 7 17 8 16 9 15 10 14 11 6 12
REMARK SMILES IDX 7 13 8 14 9 15 13 16 11 17 10 18 12 20 4 22 21 24 18 26
REMARK H PARENT 10 19 12 21 4 23 21 25 18 27
REMARK Flexibility Score: inf
ROOT
ATOM      1  C   UNL     1      20.518  40.798   1.836  1.00  0.00     0.180 A 
ATOM      2  C   UNL     1      19.555  41.496   2.585  1.00  0.00     0.208 A 
ATOM      3  C   UNL     1      19.248  41.054   3.881  1.00  0.00     0.238 A 
ATOM      4  O   UNL     1      18.347  41.650   4.526  1.00  0.00    -0.285 OA
ATOM      5  C   UNL     1      19.918  39.927   4.419  1.00  0.00     0.111 A 
ATOM      6  C   UNL     1      19.713  39.415   5.735  1.00  0.00     0.134 A 
ATOM      7  C   UNL     1      20.334  38.218   6.115  1.00  0.00     0.093 A 
ATOM      8  C   UNL     1      21.201  37.551   5.250  1.00  0.00     0.123 A 
ATOM      9  C   UNL     1      21.454  38.075   3.981  1.00  0.00     0.094 A 
ATOM     10  C   UNL     1      20.822  39.248   3.561  1.00  0.00     0.146 A 
ATOM     11  O   UNL     1      21.081  39.706   2.343  1.00  0.00    -0.452 OA
ENDROOT
BRANCH   1  12
ATOM     12  C   UNL     1      20.914  41.219   0.473  1.00  0.00     0.025 A 
ATOM     13  C   UNL     1      22.238  41.617   0.231  1.00  0.00     0.016 A 
ATOM     14  C   UNL     1      22.630  42.038  -1.043  1.00  0.00     0.051 A 
ATOM     15  C   UNL     1      21.697  42.082  -2.089  1.00  0.00     0.157 A 
ATOM     16  C   UNL     1      19.977  41.284  -0.575  1.00  0.00     0.062 A 
ATOM     17  C   UNL     1      20.369  41.709  -1.853  1.00  0.00     0.158 A 
BRANCH  15  18
ATOM     18  O   UNL     1      22.084  42.500  -3.362  1.00  0.00    -0.504 OA
ATOM     19  H   UNL     1      22.339  43.463  -3.549  1.00  0.00     0.293 HD
ENDBRANCH  15  18
BRANCH  17  20
ATOM     20  O   UNL     1      19.441  41.767  -2.892  1.00  0.00    -0.504 OA
ATOM     21  H   UNL     1      19.428  41.073  -3.630  1.00  0.00     0.293 HD
ENDBRANCH  17  20
ENDBRANCH   1  12
BRANCH   2  22
ATOM     22  O   UNL     1      18.891  42.592   2.028  1.00  0.00    -0.502 OA
ATOM     23  H   UNL     1      19.378  43.426   1.722  1.00  0.00     0.293 HD
ENDBRANCH   2  22
BRANCH   6  24
ATOM     24  O   UNL     1      18.940  40.053   6.709  1.00  0.00    -0.507 OA
ATOM     25  H   UNL     1      17.934  40.113   6.697  1.00  0.00     0.293 HD
ENDBRANCH   6  24
BRANCH   8  26
ATOM     26  O   UNL     1      21.813  36.372   5.666  1.00  0.00    -0.508 OA
ATOM     27  H   UNL     1      22.810  36.226   5.560  1.00  0.00     0.293 HD
ENDBRANCH   8  26
TORSDOF 6
ENDMDL
MODEL 6
REMARK VINA RESULT:    -5.031      1.599      3.300
REMARK INTER + INTRA:          -6.312
REMARK INTER:                  -6.001
REMARK INTRA:                  -0.311
REMARK UNBOUND:                -0.251
REMARK SMILES O=c1c(O)c(-c2ccc(O)c(O)c2)oc2cc(O)cc(O)c12
REMARK SMILES IDX 5 1 3 2 2 3 1 4 22 5 20 6 19 7 17 8 16 9 15 10 14 11 6 12
REMARK SMILES IDX 7 13 8 14 9 15 13 16 11 17 10 18 12 20 4 22 21 24 18 26
REMARK H PARENT 10 19 12 21 4 23 21 25 18 27
REMARK Flexibility Score: inf
ROOT
ATOM      1  C   UNL     1      20.564  39.717   5.292  1.00  0.00     0.180 A 
ATOM      2  C   UNL     1      20.982  38.512   5.882  1.00  0.00     0.208 A 
ATOM      3  C   UNL     1      20.718  38.293   7.244  1.00  0.00     0.238 A 
ATOM      4  O   UNL     1      21.142  37.237   7.780  1.00  0.00    -0.285 OA
ATOM      5  C   UNL     1      20.025  39.275   7.994  1.00  0.00     0.111 A 
ATOM      6  C   UNL     1      19.670  39.141   9.370  1.00  0.00     0.134 A 
ATOM      7  C   UNL     1      19.101  40.229  10.045  1.00  0.00     0.093 A 
ATOM      8  C   UNL     1      18.816  41.421   9.379  1.00  0.00     0.123 A 
ATOM      9  C   UNL     1      19.105  41.541   8.019  1.00  0.00     0.094 A 
ATOM     10  C   UNL     1      19.706  40.487   7.327  1.00  0.00     0.146 A 
ATOM     11  O   UNL     1      19.975  40.646   6.037  1.00  0.00    -0.452 OA
ENDROOT
BRANCH   1  12
ATOM     12  C   UNL     1      20.784  40.009   3.857  1.00  0.00     0.025 A 
ATOM     13  C   UNL     1      21.818  40.880   3.480  1.00  0.00     0.016 A 
ATOM     14  C   UNL     1      22.031  41.186   2.132  1.00  0.00     0.051 A 
ATOM     15  C   UNL     1      21.201  40.638   1.145  1.00  0.00     0.157 A 
ATOM     16  C   UNL     1      19.941  39.477   2.864  1.00  0.00     0.062 A 
ATOM     17  C   UNL     1      20.152  39.786   1.512  1.00  0.00     0.158 A 
BRANCH  15  18
ATOM     18  O   UNL     1      21.410  40.938  -0.200  1.00  0.00    -0.504 OA
ATOM     19  H   UNL     1      21.862  40.282  -0.826  1.00  0.00     0.293 HD
ENDBRANCH  15  18
BRANCH  17  20
ATOM     20  O   UNL     1      19.320  39.253   0.529  1.00  0.00    -0.504 OA
ATOM     21  H   UNL     1      18.354  39.545   0.435  1.00  0.00     0.293 HD
ENDBRANCH  17  20
ENDBRANCH   1  12
BRANCH   2  22
ATOM     22  O   UNL     1      21.683  37.567   5.129  1.00  0.00    -0.502 OA
ATOM     23  H   UNL     1      22.518  37.108   5.473  1.00  0.00     0.293 HD
ENDBRANCH   2  22
BRANCH   6  24
ATOM     24  O   UNL     1      19.826  37.963  10.105  1.00  0.00    -0.507 OA
ATOM     25  H   UNL     1      20.097  37.074   9.715  1.00  0.00     0.293 HD
ENDBRANCH   6  24
BRANCH   8  26
ATOM     26  O   UNL     1      18.236  42.476  10.078  1.00  0.00    -0.508 OA
ATOM     27  H   UNL     1      17.898  42.362  11.026  1.00  0.00     0.293 HD
ENDBRANCH   8  26
TORSDOF 6
ENDMDL
MODEL 7
REMARK VINA RESULT:    -5.031      3.462      6.507
REMARK INTER + INTRA:          -6.311
REMARK INTER:                  -6.022
REMARK INTRA:                  -0.290
REMARK UNBOUND:                -0.251
REMARK SMILES O=c1c(O)c(-c2ccc(O)c(O)c2)oc2cc(O)cc(O)c12
REMARK SMILES IDX 5 1 3 2 2 3 1 4 22 5 20 6 19 7 17 8 16 9 15 10 14 11 6 12
REMARK SMILES IDX 7 13 8 14 9 15 13 16 11 17 10 18 12 20 4 22 21 24 18 26
REMARK H PARENT 10 19 12 21 4 23 21 25 18 27
REMARK Flexibility Score: inf
ROOT
ATOM      1  C   UNL     1      18.201  40.568   5.772  1.00  0.00     0.180 A 
ATOM      2  C   UNL     1      18.249  41.558   4.776  1.00  0.00     0.208 A 
ATOM      3  C   UNL     1      19.181  41.431   3.733  1.00  0.00     0.238 A 
ATOM      4  O   UNL     1      19.257  42.348   2.875  1.00  0.00    -0.285 OA
ATOM      5  C   UNL     1      20.042  40.307   3.691  1.00  0.00     0.111 A 
ATOM      6  C   UNL     1      20.998  40.057   2.660  1.00  0.00     0.134 A 
ATOM      7  C   UNL     1      21.887  38.983   2.789  1.00  0.00     0.093 A 
ATOM      8  C   UNL     1      21.812  38.113   3.876  1.00  0.00     0.123 A 
ATOM      9  C   UNL     1      20.843  38.314   4.860  1.00  0.00     0.094 A 
ATOM     10  C   UNL     1      19.966  39.398   4.778  1.00  0.00     0.146 A 
ATOM     11  O   UNL     1      19.066  39.560   5.740  1.00  0.00    -0.452 OA
ENDROOT
BRANCH   1  12
ATOM     12  C   UNL     1      17.229  40.619   6.887  1.00  0.00     0.025 A 
ATOM     13  C   UNL     1      17.494  41.437   7.997  1.00  0.00     0.016 A 
ATOM     14  C   UNL     1      16.600  41.486   9.071  1.00  0.00     0.051 A 
ATOM     15  C   UNL     1      15.437  40.703   9.057  1.00  0.00     0.157 A 
ATOM     16  C   UNL     1      16.071  39.820   6.887  1.00  0.00     0.062 A 
ATOM     17  C   UNL     1      15.175  39.866   7.965  1.00  0.00     0.158 A 
BRANCH  15  18
ATOM     18  O   UNL     1      14.542  40.749  10.124  1.00  0.00    -0.504 OA
ATOM     19  H   UNL     1      13.778  41.415  10.146  1.00  0.00     0.293 HD
ENDBRANCH  15  18
BRANCH  17  20
ATOM     20  O   UNL     1      14.025  39.079   7.960  1.00  0.00    -0.504 OA
ATOM     21  H   UNL     1      13.232  39.302   7.370  1.00  0.00     0.293 HD
ENDBRANCH  17  20
ENDBRANCH   1  12
BRANCH   2  22
ATOM     22  O   UNL     1      17.405  42.669   4.848  1.00  0.00    -0.502 OA
ATOM     23  H   UNL     1      17.634  43.492   5.394  1.00  0.00     0.293 HD
ENDBRANCH   2  22
BRANCH   6  24
ATOM     24  O   UNL     1      21.095  40.810   1.487  1.00  0.00    -0.507 OA
ATOM     25  H   UNL     1      20.309  41.178   0.973  1.00  0.00     0.293 HD
ENDBRANCH   6  24
BRANCH   8  26
ATOM     26  O   UNL     1      22.703  37.045   3.964  1.00  0.00    -0.508 OA
ATOM     27  H   UNL     1      23.595  37.137   4.435  1.00  0.00     0.293 HD
ENDBRANCH   8  26
TORSDOF 6
ENDMDL
MODEL 8
REMARK VINA RESULT:    -4.618      2.978      6.532
REMARK INTER + INTRA:          -5.813
REMARK INTER:                  -5.491
REMARK INTRA:                  -0.322
REMARK UNBOUND:                -0.251
REMARK SMILES O=c1c(O)c(-c2ccc(O)c(O)c2)oc2cc(O)cc(O)c12
REMARK SMILES IDX 5 1 3 2 2 3 1 4 22 5 20 6 19 7 17 8 16 9 15 10 14 11 6 12
REMARK SMILES IDX 7 13 8 14 9 15 13 16 11 17 10 18 12 20 4 22 21 24 18 26
REMARK H PARENT 10 19 12 21 4 23 21 25 18 27
REMARK Flexibility Score: inf
ROOT
ATOM      1  C   UNL     1      18.999  40.198   6.555  1.00  0.00     0.180 A 
ATOM      2  C   UNL     1      19.814  39.161   7.041  1.00  0.00     0.208 A 
ATOM      3  C   UNL     1      20.690  38.512   6.157  1.00  0.00     0.238 A 
ATOM      4  O   UNL     1      21.376  37.549   6.584  1.00  0.00    -0.285 OA
ATOM      5  C   UNL     1      20.752  38.919   4.801  1.00  0.00     0.111 A 
ATOM      6  C   UNL     1      21.631  38.358   3.827  1.00  0.00     0.134 A 
ATOM      7  C   UNL     1      21.515  38.747   2.486  1.00  0.00     0.093 A 
ATOM      8  C   UNL     1      20.598  39.723   2.097  1.00  0.00     0.123 A 
ATOM      9  C   UNL     1      19.774  40.321   3.052  1.00  0.00     0.094 A 
ATOM     10  C   UNL     1      19.842  39.927   4.390  1.00  0.00     0.146 A 
ATOM     11  O   UNL     1      19.033  40.513   5.265  1.00  0.00    -0.452 OA
ENDROOT
BRANCH   1  12
ATOM     12  C   UNL     1      18.070  40.946   7.432  1.00  0.00     0.025 A 
ATOM     13  C   UNL     1      18.542  42.055   8.152  1.00  0.00     0.016 A 
ATOM     14  C   UNL     1      17.687  42.764   9.002  1.00  0.00     0.051 A 
ATOM     15  C   UNL     1      16.353  42.364   9.155  1.00  0.00     0.157 A 
ATOM     16  C   UNL     1      16.735  40.536   7.605  1.00  0.00     0.062 A 
ATOM     17  C   UNL     1      15.878  41.246   8.459  1.00  0.00     0.158 A 
BRANCH  15  18
ATOM     18  O   UNL     1      15.497  43.069   9.999  1.00  0.00    -0.504 OA
ATOM     19  H   UNL     1      15.649  44.049  10.210  1.00  0.00     0.293 HD
ENDBRANCH  15  18
BRANCH  17  20
ATOM     20  O   UNL     1      14.554  40.842   8.623  1.00  0.00    -0.504 OA
ATOM     21  H   UNL     1      14.151  40.101   8.062  1.00  0.00     0.293 HD
ENDBRANCH  17  20
ENDBRANCH   1  12
BRANCH   2  22
ATOM     22  O   UNL     1      19.721  38.761   8.377  1.00  0.00    -0.502 OA
ATOM     23  H   UNL     1      19.866  37.803   8.669  1.00  0.00     0.293 HD
ENDBRANCH   2  22
BRANCH   6  24
ATOM     24  O   UNL     1      22.646  37.444   4.125  1.00  0.00    -0.507 OA
ATOM     25  H   UNL     1      23.500  37.672   4.610  1.00  0.00     0.293 HD
ENDBRANCH   6  24
BRANCH   8  26
ATOM     26  O   UNL     1      20.520  40.097   0.758  1.00  0.00    -0.508 OA
ATOM     27  H   UNL     1      20.054  40.950   0.472  1.00  0.00     0.293 HD
ENDBRANCH   8  26
TORSDOF 6
ENDMDL
MODEL 9
REMARK VINA RESULT:    -4.574      3.565      5.035
REMARK INTER + INTRA:          -5.760
REMARK INTER:                  -5.526
REMARK INTRA:                  -0.234
REMARK UNBOUND:                -0.251
REMARK SMILES O=c1c(O)c(-c2ccc(O)c(O)c2)oc2cc(O)cc(O)c12
REMARK SMILES IDX 5 1 3 2 2 3 1 4 22 5 20 6 19 7 17 8 16 9 15 10 14 11 6 12
REMARK SMILES IDX 7 13 8 14 9 15 13 16 11 17 10 18 12 20 4 22 21 24 18 26
REMARK H PARENT 10 19 12 21 4 23 21 25 18 27
REMARK Flexibility Score: inf
ROOT
ATOM      1  C   UNL     1      19.009  40.432   6.406  1.00  0.00     0.180 A 
ATOM      2  C   UNL     1      19.345  41.566   7.165  1.00  0.00     0.208 A 
ATOM      3  C   UNL     1      18.408  42.077   8.077  1.00  0.00     0.238 A 
ATOM      4  O   UNL     1      18.693  43.124   8.713  1.00  0.00    -0.285 OA
ATOM      5  C   UNL     1      17.153  41.438   8.230  1.00  0.00     0.111 A 
ATOM      6  C   UNL     1      16.143  41.847   9.152  1.00  0.00     0.134 A 
ATOM      7  C   UNL     1      14.890  41.222   9.126  1.00  0.00     0.093 A 
ATOM      8  C   UNL     1      14.632  40.162   8.258  1.00  0.00     0.123 A 
ATOM      9  C   UNL     1      15.632  39.716   7.392  1.00  0.00     0.094 A 
ATOM     10  C   UNL     1      16.880  40.343   7.370  1.00  0.00     0.146 A 
ATOM     11  O   UNL     1      17.800  39.895   6.525  1.00  0.00    -0.452 OA
ENDROOT
BRANCH   1  12
ATOM     12  C   UNL     1      19.954  39.820   5.443  1.00  0.00     0.025 A 
ATOM     13  C   UNL     1      20.204  40.460   4.220  1.00  0.00     0.016 A 
ATOM     14  C   UNL     1      21.077  39.891   3.288  1.00  0.00     0.051 A 
ATOM     15  C   UNL     1      21.698  38.664   3.560  1.00  0.00     0.157 A 
ATOM     16  C   UNL     1      20.564  38.579   5.704  1.00  0.00     0.062 A 
ATOM     17  C   UNL     1      21.437  38.006   4.768  1.00  0.00     0.158 A 
BRANCH  15  18
ATOM     18  O   UNL     1      22.570  38.094   2.634  1.00  0.00    -0.504 OA
ATOM     19  H   UNL     1      23.457  38.527   2.405  1.00  0.00     0.293 HD
ENDBRANCH  15  18
BRANCH  17  20
ATOM     20  O   UNL     1      22.046  36.780   5.030  1.00  0.00    -0.504 OA
ATOM     21  H   UNL     1      21.502  35.938   5.178  1.00  0.00     0.293 HD
ENDBRANCH  17  20
ENDBRANCH   1  12
BRANCH   2  22
ATOM     22  O   UNL     1      20.580  42.193   6.982  1.00  0.00    -0.502 OA
ATOM     23  H   UNL     1      20.880  42.979   7.547  1.00  0.00     0.293 HD
ENDBRANCH   2  22
BRANCH   6  24
ATOM     24  O   UNL     1      16.328  42.833  10.125  1.00  0.00    -0.507 OA
ATOM     25  H   UNL     1      15.584  43.348  10.571  1.00  0.00     0.293 HD
ENDBRANCH   6  24
BRANCH   8  26
ATOM     26  O   UNL     1      13.380  39.553   8.269  1.00  0.00    -0.508 OA
ATOM     27  H   UNL     1      13.267  38.568   8.062  1.00  0.00     0.293 HD
ENDBRANCH   8  26
TORSDOF 6
ENDMDL
