MODEL 1
REMARK VINA RESULT:    -3.980      0.000      0.000
REMARK INTER + INTRA:          -8.703
REMARK INTER:                  -6.073
REMARK INTRA:                  -2.629
REMARK UNBOUND:                -2.629
REMARK SMILES CC(=O)CCC=C(C)CCC=C(C)CCC=C(C)C
REMARK SMILES IDX 10 1 11 2 12 3 13 4 14 5 15 6 16 7 18 8 17 9 19 10 9 11 7 12
REMARK SMILES IDX 6 13 8 14 5 15 4 16 2 17 3 18 1 19
REMARK H PARENT
REMARK Flexibility Score: inf
ROOT
ATOM      1  C   UNL     1       1.943   6.117  -2.657  1.00  0.00     0.032 C 
ENDROOT
BRANCH   1   2
ATOM      2  C   UNL     1       2.167   5.263  -1.435  1.00  0.00    -0.028 C 
ATOM      3  C   UNL     1       1.189   4.817  -0.614  1.00  0.00    -0.077 C 
ATOM      4  C   UNL     1       1.587   4.023   0.604  1.00  0.00     0.039 C 
BRANCH   3   5
ATOM      5  C   UNL     1      -0.287   5.052  -0.883  1.00  0.00     0.034 C 
BRANCH   5   6
ATOM      6  C   UNL     1      -1.076   3.734  -0.938  1.00  0.00     0.032 C 
BRANCH   6   7
ATOM      7  C   UNL     1      -1.354   3.305  -2.359  1.00  0.00    -0.028 C 
ATOM      8  C   UNL     1      -0.980   2.132  -4.485  1.00  0.00     0.039 C 
ATOM      9  C   UNL     1      -0.605   2.421  -3.054  1.00  0.00    -0.080 C 
ATOM     10  C   UNL     1       0.574   1.709  -2.435  1.00  0.00     0.039 C 
ENDBRANCH   6   7
ENDBRANCH   5   6
ENDBRANCH   3   5
ENDBRANCH   1   2
BRANCH   1  11
ATOM     11  C   UNL     1       1.706   5.242  -3.894  1.00  0.00     0.034 C 
BRANCH  11  12
ATOM     12  C   UNL     1       0.484   5.709  -4.654  1.00  0.00    -0.077 C 
ATOM     13  C   UNL     1      -0.324   6.636  -4.091  1.00  0.00    -0.028 C 
ATOM     14  C   UNL     1       0.196   5.118  -6.014  1.00  0.00     0.039 C 
BRANCH  13  15
ATOM     15  C   UNL     1      -1.541   7.224  -4.761  1.00  0.00     0.035 C 
BRANCH  15  16
ATOM     16  C   UNL     1      -1.199   8.562  -5.424  1.00  0.00     0.079 C 
BRANCH  16  17
ATOM     17  C   UNL     1      -1.705   8.597  -6.843  1.00  0.00     0.130 C 
ATOM     18  O   UNL     1      -2.805   9.073  -7.077  1.00  0.00    -0.300 OA
ATOM     19  C   UNL     1      -0.882   8.066  -7.978  1.00  0.00     0.087 C 
ENDBRANCH  16  17
ENDBRANCH  15  16
ENDBRANCH  13  15
ENDBRANCH  11  12
ENDBRANCH   1  11
TORSDOF 9
ENDMDL
MODEL 2
REMARK VINA RESULT:    -3.962      9.434     10.887
REMARK INTER + INTRA:          -8.675
REMARK INTER:                  -7.052
REMARK INTRA:                  -1.623
REMARK UNBOUND:                -2.629
REMARK SMILES CC(=O)CCC=C(C)CCC=C(C)CCC=C(C)C
REMARK SMILES IDX 10 1 11 2 12 3 13 4 14 5 15 6 16 7 18 8 17 9 19 10 9 11 7 12
REMARK SMILES IDX 6 13 8 14 5 15 4 16 2 17 3 18 1 19
REMARK H PARENT
REMARK Flexibility Score: inf
ROOT
ATOM      1  C   UNL     1      -0.918  13.154   2.585  1.00  0.00     0.032 C 
ENDROOT
BRANCH   1   2
ATOM      2  C   UNL     1      -0.593  14.551   3.049  1.00  0.00    -0.028 C 
ATOM      3  C   UNL     1      -0.125  14.868   4.279  1.00  0.00    -0.077 C 
ATOM      4  C   UNL     1       0.093  16.322   4.606  1.00  0.00     0.039 C 
BRANCH   3   5
ATOM      5  C   UNL     1       0.221  13.823   5.325  1.00  0.00     0.034 C 
BRANCH   5   6
ATOM      6  C   UNL     1      -0.814  13.786   6.461  1.00  0.00     0.032 C 
BRANCH   6   7
ATOM      7  C   UNL     1      -1.777  12.633   6.305  1.00  0.00    -0.028 C 
ATOM      8  C   UNL     1      -3.897  11.508   5.782  1.00  0.00     0.039 C 
ATOM      9  C   UNL     1      -3.036  12.744   5.830  1.00  0.00    -0.080 C 
ATOM     10  C   UNL     1      -3.593  14.058   5.335  1.00  0.00     0.039 C 
ENDBRANCH   6   7
ENDBRANCH   5   6
ENDBRANCH   3   5
ENDBRANCH   1   2
BRANCH   1  11
ATOM     11  C   UNL     1      -2.303  13.109   1.930  1.00  0.00     0.034 C 
BRANCH  11  12
ATOM     12  C   UNL     1      -2.183  13.120   0.422  1.00  0.00    -0.077 C 
ATOM     13  C   UNL     1      -2.347  14.287  -0.242  1.00  0.00    -0.028 C 
ATOM     14  C   UNL     1      -1.893  11.825  -0.301  1.00  0.00     0.039 C 
BRANCH  13  15
ATOM     15  C   UNL     1      -2.202  14.447  -1.734  1.00  0.00     0.035 C 
BRANCH  15  16
ATOM     16  C   UNL     1      -1.274  15.620  -2.064  1.00  0.00     0.079 C 
BRANCH  16  17
ATOM     17  C   UNL     1      -1.398  16.005  -3.515  1.00  0.00     0.130 C 
ATOM     18  O   UNL     1      -1.135  15.183  -4.379  1.00  0.00    -0.300 OA
ATOM     19  C   UNL     1      -1.848  17.376  -3.923  1.00  0.00     0.087 C 
ENDBRANCH  16  17
ENDBRANCH  15  16
ENDBRANCH  13  15
ENDBRANCH  11  12
ENDBRANCH   1  11
TORSDOF 9
ENDMDL
MODEL 3
REMARK VINA RESULT:    -3.918      2.266      6.209
REMARK INTER + INTRA:          -8.609
REMARK INTER:                  -5.917
REMARK INTRA:                  -2.692
REMARK UNBOUND:                -2.629
REMARK SMILES CC(=O)CCC=C(C)CCC=C(C)CCC=C(C)C
REMARK SMILES IDX 10 1 11 2 12 3 13 4 14 5 15 6 16 7 18 8 17 9 19 10 9 11 7 12
REMARK SMILES IDX 6 13 8 14 5 15 4 16 2 17 3 18 1 19
REMARK H PARENT
REMARK Flexibility Score: inf
ROOT
ATOM      1  C   UNL     1       0.225   5.149  -5.974  1.00  0.00     0.032 C 
ENDROOT
BRANCH   1   2
ATOM      2  C   UNL     1      -0.074   6.139  -7.070  1.00  0.00    -0.028 C 
ATOM      3  C   UNL     1      -0.796   7.272  -6.912  1.00  0.00    -0.077 C 
ATOM      4  C   UNL     1      -1.058   8.127  -8.125  1.00  0.00     0.039 C 
BRANCH   3   5
ATOM      5  C   UNL     1      -1.323   7.735  -5.564  1.00  0.00     0.034 C 
BRANCH   5   6
ATOM      6  C   UNL     1      -0.783   9.123  -5.184  1.00  0.00     0.032 C 
BRANCH   6   7
ATOM      7  C   UNL     1       0.375   9.029  -4.219  1.00  0.00    -0.028 C 
ATOM      8  C   UNL     1       2.721   8.911  -3.502  1.00  0.00     0.039 C 
ATOM      9  C   UNL     1       1.676   9.068  -4.577  1.00  0.00    -0.080 C 
ATOM     10  C   UNL     1       2.108   9.280  -6.009  1.00  0.00     0.039 C 
ENDBRANCH   6   7
ENDBRANCH   5   6
ENDBRANCH   3   5
ENDBRANCH   1   2
BRANCH   1  11
ATOM     11  C   UNL     1       1.578   5.455  -5.321  1.00  0.00     0.034 C 
BRANCH  11  12
ATOM     12  C   UNL     1       1.477   5.367  -3.814  1.00  0.00    -0.077 C 
ATOM     13  C   UNL     1       0.256   5.408  -3.234  1.00  0.00    -0.028 C 
ATOM     14  C   UNL     1       2.744   5.247  -2.999  1.00  0.00     0.039 C 
BRANCH  13  15
ATOM     15  C   UNL     1       0.012   5.277  -1.752  1.00  0.00     0.035 C 
BRANCH  15  16
ATOM     16  C   UNL     1      -0.405   3.846  -1.397  1.00  0.00     0.079 C 
BRANCH  16  17
ATOM     17  C   UNL     1      -1.434   3.335  -2.370  1.00  0.00     0.130 C 
ATOM     18  O   UNL     1      -2.570   3.781  -2.333  1.00  0.00    -0.300 OA
ATOM     19  C   UNL     1      -1.091   2.293  -3.393  1.00  0.00     0.087 C 
ENDBRANCH  16  17
ENDBRANCH  15  16
ENDBRANCH  13  15
ENDBRANCH  11  12
ENDBRANCH   1  11
TORSDOF 9
ENDMDL
MODEL 4
REMARK VINA RESULT:    -3.863     11.164     12.902
REMARK INTER + INTRA:          -8.525
REMARK INTER:                  -5.629
REMARK INTRA:                  -2.896
REMARK UNBOUND:                -2.629
REMARK SMILES CC(=O)CCC=C(C)CCC=C(C)CCC=C(C)C
REMARK SMILES IDX 10 1 11 2 12 3 13 4 14 5 15 6 16 7 18 8 17 9 19 10 9 11 7 12
REMARK SMILES IDX 6 13 8 14 5 15 4 16 2 17 3 18 1 19
REMARK H PARENT
REMARK Flexibility Score: inf
ROOT
ATOM      1  C   UNL     1      -3.443  12.104   5.543  1.00  0.00     0.032 C 
ENDROOT
BRANCH   1   2
ATOM      2  C   UNL     1      -4.245  12.449   6.772  1.00  0.00    -0.028 C 
ATOM      3  C   UNL     1      -5.000  13.562   6.915  1.00  0.00    -0.077 C 
ATOM      4  C   UNL     1      -5.693  13.790   8.233  1.00  0.00     0.039 C 
BRANCH   3   5
ATOM      5  C   UNL     1      -5.206  14.570   5.797  1.00  0.00     0.034 C 
BRANCH   5   6
ATOM      6  C   UNL     1      -4.755  15.980   6.208  1.00  0.00     0.032 C 
BRANCH   6   7
ATOM      7  C   UNL     1      -3.437  16.356   5.574  1.00  0.00    -0.028 C 
ATOM      8  C   UNL     1      -1.019  16.771   5.452  1.00  0.00     0.039 C 
ATOM      9  C   UNL     1      -2.243  16.316   6.204  1.00  0.00    -0.080 C 
ATOM     10  C   UNL     1      -2.102  15.815   7.622  1.00  0.00     0.039 C 
ENDBRANCH   6   7
ENDBRANCH   5   6
ENDBRANCH   3   5
ENDBRANCH   1   2
BRANCH   1  11
ATOM     11  C   UNL     1      -2.007  12.627   5.667  1.00  0.00     0.034 C 
BRANCH  11  12
ATOM     12  C   UNL     1      -1.536  13.217   4.357  1.00  0.00    -0.077 C 
ATOM     13  C   UNL     1      -2.456  13.599   3.441  1.00  0.00    -0.028 C 
ATOM     14  C   UNL     1      -0.053  13.353   4.103  1.00  0.00     0.039 C 
BRANCH  13  15
ATOM     15  C   UNL     1      -2.125  14.248   2.120  1.00  0.00     0.035 C 
BRANCH  15  16
ATOM     16  C   UNL     1      -2.655  13.406   0.956  1.00  0.00     0.079 C 
BRANCH  16  17
ATOM     17  C   UNL     1      -1.884  12.118   0.837  1.00  0.00     0.130 C 
ATOM     18  O   UNL     1      -0.663  12.149   0.807  1.00  0.00    -0.300 OA
ATOM     19  C   UNL     1      -2.582  10.793   0.763  1.00  0.00     0.087 C 
ENDBRANCH  16  17
ENDBRANCH  15  16
ENDBRANCH  13  15
ENDBRANCH  11  12
ENDBRANCH   1  11
TORSDOF 9
ENDMDL
MODEL 5
REMARK VINA RESULT:    -3.753      1.594      3.053
REMARK INTER + INTRA:          -8.357
REMARK INTER:                  -5.600
REMARK INTRA:                  -2.757
REMARK UNBOUND:                -2.629
REMARK SMILES CC(=O)CCC=C(C)CCC=C(C)CCC=C(C)C
REMARK SMILES IDX 10 1 11 2 12 3 13 4 14 5 15 6 16 7 18 8 17 9 19 10 9 11 7 12
REMARK SMILES IDX 6 13 8 14 5 15 4 16 2 17 3 18 1 19
REMARK H PARENT
REMARK Flexibility Score: inf
ROOT
ATOM      1  C   UNL     1      -1.733   3.699  -2.077  1.00  0.00     0.032 C 
ENDROOT
BRANCH   1   2
ATOM      2  C   UNL     1      -1.311   3.112  -0.754  1.00  0.00    -0.028 C 
ATOM      3  C   UNL     1      -0.579   3.761   0.181  1.00  0.00    -0.077 C 
ATOM      4  C   UNL     1      -0.186   3.011   1.427  1.00  0.00     0.039 C 
BRANCH   3   5
ATOM      5  C   UNL     1      -0.166   5.216   0.043  1.00  0.00     0.034 C 
BRANCH   5   6
ATOM      6  C   UNL     1       1.360   5.370  -0.069  1.00  0.00     0.032 C 
BRANCH   6   7
ATOM      7  C   UNL     1       1.782   5.777  -1.461  1.00  0.00    -0.028 C 
ATOM      8  C   UNL     1       2.752   5.512  -3.701  1.00  0.00     0.039 C 
ATOM      9  C   UNL     1       2.335   4.945  -2.369  1.00  0.00    -0.080 C 
ATOM     10  C   UNL     1       2.528   3.472  -2.093  1.00  0.00     0.039 C 
ENDBRANCH   6   7
ENDBRANCH   5   6
ENDBRANCH   3   5
ENDBRANCH   1   2
BRANCH   1  11
ATOM     11  C   UNL     1      -0.924   3.086  -3.226  1.00  0.00     0.034 C 
BRANCH  11  12
ATOM     12  C   UNL     1      -0.633   4.123  -4.288  1.00  0.00    -0.077 C 
ATOM     13  C   UNL     1      -0.998   5.407  -4.070  1.00  0.00    -0.028 C 
ATOM     14  C   UNL     1       0.047   3.692  -5.567  1.00  0.00     0.039 C 
BRANCH  13  15
ATOM     15  C   UNL     1      -0.721   6.545  -5.020  1.00  0.00     0.035 C 
BRANCH  15  16
ATOM     16  C   UNL     1      -1.227   7.869  -4.440  1.00  0.00     0.079 C 
BRANCH  16  17
ATOM     17  C   UNL     1      -0.298   8.998  -4.803  1.00  0.00     0.130 C 
ATOM     18  O   UNL     1      -0.707   9.911  -5.503  1.00  0.00    -0.300 OA
ATOM     19  C   UNL     1       1.119   9.031  -4.315  1.00  0.00     0.087 C 
ENDBRANCH  16  17
ENDBRANCH  15  16
ENDBRANCH  13  15
ENDBRANCH  11  12
ENDBRANCH   1  11
TORSDOF 9
ENDMDL
MODEL 6
REMARK VINA RESULT:    -3.726      1.544      3.355
REMARK INTER + INTRA:          -8.316
REMARK INTER:                  -5.556
REMARK INTRA:                  -2.760
REMARK UNBOUND:                -2.629
REMARK SMILES CC(=O)CCC=C(C)CCC=C(C)CCC=C(C)C
REMARK SMILES IDX 10 1 11 2 12 3 13 4 14 5 15 6 16 7 18 8 17 9 19 10 9 11 7 12
REMARK SMILES IDX 6 13 8 14 5 15 4 16 2 17 3 18 1 19
REMARK H PARENT
REMARK Flexibility Score: inf
ROOT
ATOM      1  C   UNL     1       1.946   4.655  -5.047  1.00  0.00     0.032 C 
ENDROOT
BRANCH   1   2
ATOM      2  C   UNL     1       1.073   3.478  -4.692  1.00  0.00    -0.028 C 
ATOM      3  C   UNL     1      -0.225   3.564  -4.320  1.00  0.00    -0.077 C 
ATOM      4  C   UNL     1      -0.943   2.295  -3.936  1.00  0.00     0.039 C 
BRANCH   3   5
ATOM      5  C   UNL     1      -0.996   4.872  -4.304  1.00  0.00     0.034 C 
BRANCH   5   6
ATOM      6  C   UNL     1      -1.561   5.187  -2.909  1.00  0.00     0.032 C 
BRANCH   6   7
ATOM      7  C   UNL     1      -0.467   5.505  -1.919  1.00  0.00    -0.028 C 
ATOM      8  C   UNL     1       0.900   5.246   0.106  1.00  0.00     0.039 C 
ATOM      9  C   UNL     1      -0.193   4.772  -0.818  1.00  0.00    -0.080 C 
ATOM     10  C   UNL     1      -0.933   3.494  -0.500  1.00  0.00     0.039 C 
ENDBRANCH   6   7
ENDBRANCH   5   6
ENDBRANCH   3   5
ENDBRANCH   1   2
BRANCH   1  11
ATOM     11  C   UNL     1       2.754   5.118  -3.830  1.00  0.00     0.034 C 
BRANCH  11  12
ATOM     12  C   UNL     1       2.481   6.575  -3.528  1.00  0.00    -0.077 C 
ATOM     13  C   UNL     1       1.714   7.290  -4.383  1.00  0.00    -0.028 C 
ATOM     14  C   UNL     1       3.082   7.193  -2.287  1.00  0.00     0.039 C 
BRANCH  13  15
ATOM     15  C   UNL     1       1.323   8.731  -4.175  1.00  0.00     0.035 C 
BRANCH  15  16
ATOM     16  C   UNL     1      -0.199   8.868  -4.068  1.00  0.00     0.079 C 
BRANCH  16  17
ATOM     17  C   UNL     1      -0.810   9.099  -5.425  1.00  0.00     0.130 C 
ATOM     18  O   UNL     1      -0.819  10.226  -5.896  1.00  0.00    -0.300 OA
ATOM     19  C   UNL     1      -1.401   7.972  -6.218  1.00  0.00     0.087 C 
ENDBRANCH  16  17
ENDBRANCH  15  16
ENDBRANCH  13  15
ENDBRANCH  11  12
ENDBRANCH   1  11
TORSDOF 9
ENDMDL
MODEL 7
REMARK VINA RESULT:    -3.640      2.506      5.373
REMARK INTER + INTRA:          -8.184
REMARK INTER:                  -5.102
REMARK INTRA:                  -3.082
REMARK UNBOUND:                -2.629
REMARK SMILES CC(=O)CCC=C(C)CCC=C(C)CCC=C(C)C
REMARK SMILES IDX 10 1 11 2 12 3 13 4 14 5 15 6 16 7 18 8 17 9 19 10 9 11 7 12
REMARK SMILES IDX 6 13 8 14 5 15 4 16 2 17 3 18 1 19
REMARK H PARENT
REMARK Flexibility Score: inf
ROOT
ATOM      1  C   UNL     1       2.342   8.153  -3.665  1.00  0.00     0.032 C 
ENDROOT
BRANCH   1   2
ATOM      2  C   UNL     1       1.537   8.883  -4.709  1.00  0.00    -0.028 C 
ATOM      3  C   UNL     1       0.189   8.840  -4.814  1.00  0.00    -0.077 C 
ATOM      4  C   UNL     1      -0.462   9.580  -5.955  1.00  0.00     0.039 C 
BRANCH   3   5
ATOM      5  C   UNL     1      -0.695   8.110  -3.818  1.00  0.00     0.034 C 
BRANCH   5   6
ATOM      6  C   UNL     1      -1.569   7.046  -4.500  1.00  0.00     0.032 C 
BRANCH   6   7
ATOM      7  C   UNL     1      -0.921   5.682  -4.467  1.00  0.00    -0.028 C 
ATOM      8  C   UNL     1       0.282   3.725  -5.337  1.00  0.00     0.039 C 
ATOM      9  C   UNL     1      -0.269   5.118  -5.506  1.00  0.00    -0.080 C 
ATOM     10  C   UNL     1      -0.064   5.845  -6.814  1.00  0.00     0.039 C 
ENDBRANCH   6   7
ENDBRANCH   5   6
ENDBRANCH   3   5
ENDBRANCH   1   2
BRANCH   1  11
ATOM     11  C   UNL     1       2.728   6.753  -4.157  1.00  0.00     0.034 C 
BRANCH  11  12
ATOM     12  C   UNL     1       2.535   5.728  -3.062  1.00  0.00    -0.077 C 
ATOM     13  C   UNL     1       1.803   6.059  -1.974  1.00  0.00    -0.028 C 
ATOM     14  C   UNL     1       3.176   4.367  -3.209  1.00  0.00     0.039 C 
BRANCH  13  15
ATOM     15  C   UNL     1       1.490   5.117  -0.838  1.00  0.00     0.035 C 
BRANCH  15  16
ATOM     16  C   UNL     1      -0.022   4.910  -0.708  1.00  0.00     0.079 C 
BRANCH  16  17
ATOM     17  C   UNL     1      -0.445   3.634  -1.387  1.00  0.00     0.130 C 
ATOM     18  O   UNL     1       0.345   2.706  -1.468  1.00  0.00    -0.300 OA
ATOM     19  C   UNL     1      -1.821   3.473  -1.960  1.00  0.00     0.087 C 
ENDBRANCH  16  17
ENDBRANCH  15  16
ENDBRANCH  13  15
ENDBRANCH  11  12
ENDBRANCH   1  11
TORSDOF 9
ENDMDL
MODEL 8
REMARK VINA RESULT:    -3.565      2.839      6.085
REMARK INTER + INTRA:          -8.070
REMARK INTER:                  -5.102
REMARK INTRA:                  -2.967
REMARK UNBOUND:                -2.629
REMARK SMILES CC(=O)CCC=C(C)CCC=C(C)CCC=C(C)C
REMARK SMILES IDX 10 1 11 2 12 3 13 4 14 5 15 6 16 7 18 8 17 9 19 10 9 11 7 12
REMARK SMILES IDX 6 13 8 14 5 15 4 16 2 17 3 18 1 19
REMARK H PARENT
REMARK Flexibility Score: inf
ROOT
ATOM      1  C   UNL     1      -0.985   7.061  -5.729  1.00  0.00     0.032 C 
ENDROOT
BRANCH   1   2
ATOM      2  C   UNL     1       0.091   7.851  -6.428  1.00  0.00    -0.028 C 
ATOM      3  C   UNL     1       0.899   8.756  -5.829  1.00  0.00    -0.077 C 
ATOM      4  C   UNL     1       1.886   9.508  -6.684  1.00  0.00     0.039 C 
BRANCH   3   5
ATOM      5  C   UNL     1       0.875   9.021  -4.334  1.00  0.00     0.034 C 
BRANCH   5   6
ATOM      6  C   UNL     1       2.207   8.644  -3.665  1.00  0.00     0.032 C 
BRANCH   6   7
ATOM      7  C   UNL     1       2.211   7.210  -3.192  1.00  0.00    -0.028 C 
ATOM      8  C   UNL     1       2.677   4.800  -3.276  1.00  0.00     0.039 C 
ATOM      9  C   UNL     1       2.803   6.188  -3.848  1.00  0.00    -0.080 C 
ATOM     10  C   UNL     1       3.594   6.402  -5.117  1.00  0.00     0.039 C 
ENDBRANCH   6   7
ENDBRANCH   5   6
ENDBRANCH   3   5
ENDBRANCH   1   2
BRANCH   1  11
ATOM     11  C   UNL     1      -0.458   5.686  -5.302  1.00  0.00     0.034 C 
BRANCH  11  12
ATOM     12  C   UNL     1      -0.959   5.326  -3.921  1.00  0.00    -0.077 C 
ATOM     13  C   UNL     1      -0.989   4.025  -3.551  1.00  0.00    -0.028 C 
ATOM     14  C   UNL     1      -1.421   6.428  -2.996  1.00  0.00     0.039 C 
BRANCH  13  15
ATOM     15  C   UNL     1      -1.414   3.535  -2.190  1.00  0.00     0.035 C 
BRANCH  15  16
ATOM     16  C   UNL     1      -0.193   3.143  -1.351  1.00  0.00     0.079 C 
BRANCH  16  17
ATOM     17  C   UNL     1      -0.092   4.007  -0.122  1.00  0.00     0.130 C 
ATOM     18  O   UNL     1      -0.730   3.710   0.876  1.00  0.00    -0.300 OA
ATOM     19  C   UNL     1       0.783   5.224  -0.093  1.00  0.00     0.087 C 
ENDBRANCH  16  17
ENDBRANCH  15  16
ENDBRANCH  13  15
ENDBRANCH  11  12
ENDBRANCH   1  11
TORSDOF 9
ENDMDL
MODEL 9
REMARK VINA RESULT:    -3.543      2.608      4.318
REMARK INTER + INTRA:          -8.037
REMARK INTER:                  -5.145
REMARK INTRA:                  -2.892
REMARK UNBOUND:                -2.629
REMARK SMILES CC(=O)CCC=C(C)CCC=C(C)CCC=C(C)C
REMARK SMILES IDX 10 1 11 2 12 3 13 4 14 5 15 6 16 7 18 8 17 9 19 10 9 11 7 12
REMARK SMILES IDX 6 13 8 14 5 15 4 16 2 17 3 18 1 19
REMARK H PARENT
REMARK Flexibility Score: inf
ROOT
ATOM      1  C   UNL     1      -1.388   7.199  -3.550  1.00  0.00     0.032 C 
ENDROOT
BRANCH   1   2
ATOM      2  C   UNL     1      -1.778   5.817  -3.091  1.00  0.00    -0.028 C 
ATOM      3  C   UNL     1      -0.910   4.869  -2.668  1.00  0.00    -0.077 C 
ATOM      4  C   UNL     1      -1.457   3.514  -2.300  1.00  0.00     0.039 C 
BRANCH   3   5
ATOM      5  C   UNL     1       0.580   5.122  -2.516  1.00  0.00     0.034 C 
BRANCH   5   6
ATOM      6  C   UNL     1       1.409   4.232  -3.455  1.00  0.00     0.032 C 
BRANCH   6   7
ATOM      7  C   UNL     1       1.345   4.711  -4.886  1.00  0.00    -0.028 C 
ATOM      8  C   UNL     1       0.767   4.644  -7.272  1.00  0.00     0.039 C 
ATOM      9  C   UNL     1       0.698   4.068  -5.882  1.00  0.00    -0.080 C 
ATOM     10  C   UNL     1      -0.098   2.807  -5.637  1.00  0.00     0.039 C 
ENDBRANCH   6   7
ENDBRANCH   5   6
ENDBRANCH   3   5
ENDBRANCH   1   2
BRANCH   1  11
ATOM     11  C   UNL     1      -1.298   7.257  -5.080  1.00  0.00     0.034 C 
BRANCH  11  12
ATOM     12  C   UNL     1      -0.045   7.984  -5.515  1.00  0.00    -0.077 C 
ATOM     13  C   UNL     1       0.849   8.371  -4.577  1.00  0.00    -0.028 C 
ATOM     14  C   UNL     1       0.167   8.267  -6.984  1.00  0.00     0.039 C 
BRANCH  13  15
ATOM     15  C   UNL     1       2.159   9.054  -4.879  1.00  0.00     0.035 C 
BRANCH  15  16
ATOM     16  C   UNL     1       3.018   9.160  -3.615  1.00  0.00     0.079 C 
BRANCH  16  17
ATOM     17  C   UNL     1       3.473   7.796  -3.165  1.00  0.00     0.130 C 
ATOM     18  O   UNL     1       3.223   7.424  -2.030  1.00  0.00    -0.300 OA
ATOM     19  C   UNL     1       4.220   6.879  -4.087  1.00  0.00     0.087 C 
ENDBRANCH  16  17
ENDBRANCH  15  16
ENDBRANCH  13  15
ENDBRANCH  11  12
ENDBRANCH   1  11
TORSDOF 9
ENDMDL
