MODEL 1
REMARK VINA RESULT:    -2.677      0.000      0.000
REMARK INTER + INTRA:          -3.773
REMARK INTER:                  -3.538
REMARK INTRA:                  -0.235
REMARK UNBOUND:                -0.235
REMARK SMILES C=C[C@H](O)CCCCC
REMARK SMILES IDX 6 1 7 2 8 3 9 4 5 5 3 6 2 7 1 8 4 9
REMARK H PARENT 4 10
REMARK Flexibility Score: inf
ROOT
ATOM      1  C   UNL     1     -35.859  33.709 -10.902  1.00  0.00     0.003 C 
ENDROOT
BRANCH   1   2
ATOM      2  C   UNL     1     -34.928  34.262 -11.995  1.00  0.00    -0.000 C 
BRANCH   2   3
ATOM      3  C   UNL     1     -34.362  35.645 -11.641  1.00  0.00    -0.003 C 
ATOM      4  C   UNL     1     -32.839  35.706 -11.751  1.00  0.00     0.004 C 
ENDBRANCH   2   3
ENDBRANCH   1   2
BRANCH   1   5
ATOM      5  C   UNL     1     -37.199  33.195 -11.457  1.00  0.00     0.036 C 
BRANCH   5   6
ATOM      6  C   UNL     1     -38.419  33.598 -10.594  1.00  0.00     0.136 C 
BRANCH   6   7
ATOM      7  C   UNL     1     -38.148  34.857  -9.803  1.00  0.00    -0.004 C 
ATOM      8  C   UNL     1     -39.114  35.718  -9.464  1.00  0.00     0.007 C 
ENDBRANCH   6   7
BRANCH   6   9
ATOM      9  O   UNL     1     -38.826  32.560  -9.738  1.00  0.00    -0.389 OA
ATOM     10  H   UNL     1     -38.018  32.185  -9.302  1.00  0.00     0.211 HD
ENDBRANCH   6   9
ENDBRANCH   5   6
ENDBRANCH   1   5
TORSDOF 6
ENDMDL
MODEL 2
REMARK VINA RESULT:    -2.624     19.985     20.953
REMARK INTER + INTRA:          -3.703
REMARK INTER:                  -3.821
REMARK INTRA:                   0.118
REMARK UNBOUND:                -0.235
REMARK SMILES C=C[C@H](O)CCCCC
REMARK SMILES IDX 6 1 7 2 8 3 9 4 5 5 3 6 2 7 1 8 4 9
REMARK H PARENT 4 10
REMARK Flexibility Score: inf
ROOT
ATOM      1  C   UNL     1     -39.106  21.343   6.243  1.00  0.00     0.003 C 
ENDROOT
BRANCH   1   2
ATOM      2  C   UNL     1     -39.110  21.610   4.728  1.00  0.00    -0.000 C 
BRANCH   2   3
ATOM      3  C   UNL     1     -38.247  22.820   4.342  1.00  0.00    -0.003 C 
ATOM      4  C   UNL     1     -39.075  24.081   4.098  1.00  0.00     0.004 C 
ENDBRANCH   2   3
ENDBRANCH   1   2
BRANCH   1   5
ATOM      5  C   UNL     1     -38.997  22.629   7.081  1.00  0.00     0.036 C 
BRANCH   5   6
ATOM      6  C   UNL     1     -37.617  22.808   7.759  1.00  0.00     0.136 C 
BRANCH   6   7
ATOM      7  C   UNL     1     -36.738  23.764   6.987  1.00  0.00    -0.004 C 
ATOM      8  C   UNL     1     -35.521  23.428   6.543  1.00  0.00     0.007 C 
ENDBRANCH   6   7
BRANCH   6   9
ATOM      9  O   UNL     1     -36.958  21.581   7.947  1.00  0.00    -0.389 OA
ATOM     10  H   UNL     1     -36.551  21.585   8.852  1.00  0.00     0.211 HD
ENDBRANCH   6   9
ENDBRANCH   5   6
ENDBRANCH   1   5
TORSDOF 6
ENDMDL
MODEL 3
REMARK VINA RESULT:    -2.099     20.039     20.964
REMARK INTER + INTRA:          -3.009
REMARK INTER:                  -4.010
REMARK INTRA:                   1.001
REMARK UNBOUND:                -0.235
REMARK SMILES C=C[C@H](O)CCCCC
REMARK SMILES IDX 6 1 7 2 8 3 9 4 5 5 3 6 2 7 1 8 4 9
REMARK H PARENT 4 10
REMARK Flexibility Score: inf
ROOT
ATOM      1  C   UNL     1     -38.766  24.105   6.526  1.00  0.00     0.003 C 
ENDROOT
BRANCH   1   2
ATOM      2  C   UNL     1     -39.125  24.630   5.125  1.00  0.00    -0.000 C 
BRANCH   2   3
ATOM      3  C   UNL     1     -38.948  23.564   4.034  1.00  0.00    -0.003 C 
ATOM      4  C   UNL     1     -37.533  22.988   3.995  1.00  0.00     0.004 C 
ENDBRANCH   2   3
ENDBRANCH   1   2
BRANCH   1   5
ATOM      5  C   UNL     1     -39.090  22.612   6.710  1.00  0.00     0.036 C 
BRANCH   5   6
ATOM      6  C   UNL     1     -38.386  21.974   7.932  1.00  0.00     0.136 C 
BRANCH   6   7
ATOM      7  C   UNL     1     -36.882  22.087   7.828  1.00  0.00    -0.004 C 
ATOM      8  C   UNL     1     -36.278  22.966   7.020  1.00  0.00     0.007 C 
ENDBRANCH   6   7
BRANCH   6   9
ATOM      9  O   UNL     1     -38.763  20.633   8.119  1.00  0.00    -0.389 OA
ATOM     10  H   UNL     1     -37.944  20.107   8.315  1.00  0.00     0.211 HD
ENDBRANCH   6   9
ENDBRANCH   5   6
ENDBRANCH   1   5
TORSDOF 6
ENDMDL
MODEL 4
REMARK VINA RESULT:    -2.070     20.040     21.072
REMARK INTER + INTRA:          -2.970
REMARK INTER:                  -2.810
REMARK INTRA:                  -0.161
REMARK UNBOUND:                -0.235
REMARK SMILES C=C[C@H](O)CCCCC
REMARK SMILES IDX 6 1 7 2 8 3 9 4 5 5 3 6 2 7 1 8 4 9
REMARK H PARENT 4 10
REMARK Flexibility Score: inf
ROOT
ATOM      1  C   UNL     1     -36.769  22.617   7.489  1.00  0.00     0.003 C 
ENDROOT
BRANCH   1   2
ATOM      2  C   UNL     1     -38.053  22.057   8.125  1.00  0.00    -0.000 C 
BRANCH   2   3
ATOM      3  C   UNL     1     -38.457  20.698   7.536  1.00  0.00    -0.003 C 
ATOM      4  C   UNL     1     -39.123  20.823   6.166  1.00  0.00     0.004 C 
ENDBRANCH   2   3
ENDBRANCH   1   2
BRANCH   1   5
ATOM      5  C   UNL     1     -37.040  23.742   6.474  1.00  0.00     0.036 C 
BRANCH   5   6
ATOM      6  C   UNL     1     -38.541  24.087   6.323  1.00  0.00     0.136 C 
BRANCH   6   7
ATOM      7  C   UNL     1     -38.950  24.167   4.871  1.00  0.00    -0.004 C 
ATOM      8  C   UNL     1     -38.355  23.448   3.912  1.00  0.00     0.007 C 
ENDBRANCH   6   7
BRANCH   6   9
ATOM      9  O   UNL     1     -38.880  25.277   6.992  1.00  0.00    -0.389 OA
ATOM     10  H   UNL     1     -39.835  25.474   6.806  1.00  0.00     0.211 HD
ENDBRANCH   6   9
ENDBRANCH   5   6
ENDBRANCH   1   5
TORSDOF 6
ENDMDL
MODEL 5
REMARK VINA RESULT:    -1.260     19.400     20.470
REMARK INTER + INTRA:          -1.901
REMARK INTER:                  -3.001
REMARK INTRA:                   1.100
REMARK UNBOUND:                -0.235
REMARK SMILES C=C[C@H](O)CCCCC
REMARK SMILES IDX 6 1 7 2 8 3 9 4 5 5 3 6 2 7 1 8 4 9
REMARK H PARENT 4 10
REMARK Flexibility Score: inf
ROOT
ATOM      1  C   UNL     1     -38.507  24.329   7.005  1.00  0.00     0.003 C 
ENDROOT
BRANCH   1   2
ATOM      2  C   UNL     1     -37.414  23.246   6.984  1.00  0.00    -0.000 C 
BRANCH   2   3
ATOM      3  C   UNL     1     -37.606  22.194   8.086  1.00  0.00    -0.003 C 
ATOM      4  C   UNL     1     -38.942  21.459   7.975  1.00  0.00     0.004 C 
ENDBRANCH   2   3
ENDBRANCH   1   2
BRANCH   1   5
ATOM      5  C   UNL     1     -38.686  25.031   5.647  1.00  0.00     0.036 C 
BRANCH   5   6
ATOM      6  C   UNL     1     -39.124  24.075   4.512  1.00  0.00     0.136 C 
BRANCH   6   7
ATOM      7  C   UNL     1     -38.268  22.830   4.471  1.00  0.00    -0.004 C 
ATOM      8  C   UNL     1     -38.771  21.602   4.638  1.00  0.00     0.007 C 
ENDBRANCH   6   7
BRANCH   6   9
ATOM      9  O   UNL     1     -39.124  24.709   3.258  1.00  0.00    -0.389 OA
ATOM     10  H   UNL     1     -38.207  24.651   2.883  1.00  0.00     0.211 HD
ENDBRANCH   6   9
ENDBRANCH   5   6
ENDBRANCH   1   5
TORSDOF 6
ENDMDL
MODEL 6
REMARK VINA RESULT:    -0.944     19.980     20.955
REMARK INTER + INTRA:          -1.482
REMARK INTER:                  -2.242
REMARK INTRA:                   0.760
REMARK UNBOUND:                -0.235
REMARK SMILES C=C[C@H](O)CCCCC
REMARK SMILES IDX 6 1 7 2 8 3 9 4 5 5 3 6 2 7 1 8 4 9
REMARK H PARENT 4 10
REMARK Flexibility Score: inf
ROOT
ATOM      1  C   UNL     1     -39.100  21.168   6.917  1.00  0.00     0.003 C 
ENDROOT
BRANCH   1   2
ATOM      2  C   UNL     1     -38.459  21.194   5.518  1.00  0.00    -0.000 C 
BRANCH   2   3
ATOM      3  C   UNL     1     -39.125  22.215   4.585  1.00  0.00    -0.003 C 
ATOM      4  C   UNL     1     -38.118  23.155   3.923  1.00  0.00     0.004 C 
ENDBRANCH   2   3
ENDBRANCH   1   2
BRANCH   1   5
ATOM      5  C   UNL     1     -38.938  22.496   7.678  1.00  0.00     0.036 C 
BRANCH   5   6
ATOM      6  C   UNL     1     -38.082  23.540   6.922  1.00  0.00     0.136 C 
BRANCH   6   7
ATOM      7  C   UNL     1     -36.633  23.486   7.349  1.00  0.00    -0.004 C 
ATOM      8  C   UNL     1     -35.629  23.331   6.479  1.00  0.00     0.007 C 
ENDBRANCH   6   7
BRANCH   6   9
ATOM      9  O   UNL     1     -38.587  24.843   7.069  1.00  0.00    -0.389 OA
ATOM     10  H   UNL     1     -39.335  24.813   7.721  1.00  0.00     0.211 HD
ENDBRANCH   6   9
ENDBRANCH   5   6
ENDBRANCH   1   5
TORSDOF 6
ENDMDL
MODEL 7
REMARK VINA RESULT:    -0.708     20.365     20.976
REMARK INTER + INTRA:          -1.171
REMARK INTER:                  -1.007
REMARK INTRA:                  -0.164
REMARK UNBOUND:                -0.235
REMARK SMILES C=C[C@H](O)CCCCC
REMARK SMILES IDX 6 1 7 2 8 3 9 4 5 5 3 6 2 7 1 8 4 9
REMARK H PARENT 4 10
REMARK Flexibility Score: inf
ROOT
ATOM      1  C   UNL     1     -36.043  23.074   6.982  1.00  0.00     0.003 C 
ENDROOT
BRANCH   1   2
ATOM      2  C   UNL     1     -34.931  23.687   6.113  1.00  0.00    -0.000 C 
BRANCH   2   3
ATOM      3  C   UNL     1     -34.263  24.898   6.780  1.00  0.00    -0.003 C 
ATOM      4  C   UNL     1     -33.120  25.475   5.945  1.00  0.00     0.004 C 
ENDBRANCH   2   3
ENDBRANCH   1   2
BRANCH   1   5
ATOM      5  C   UNL     1     -37.442  23.616   6.639  1.00  0.00     0.036 C 
BRANCH   5   6
ATOM      6  C   UNL     1     -38.541  22.527   6.637  1.00  0.00     0.136 C 
BRANCH   6   7
ATOM      7  C   UNL     1     -38.547  21.740   7.928  1.00  0.00    -0.004 C 
ATOM      8  C   UNL     1     -39.125  20.539   8.039  1.00  0.00     0.007 C 
ENDBRANCH   6   7
BRANCH   6   9
ATOM      9  O   UNL     1     -38.424  21.659   5.537  1.00  0.00    -0.389 OA
ATOM     10  H   UNL     1     -38.470  22.204   4.709  1.00  0.00     0.211 HD
ENDBRANCH   6   9
ENDBRANCH   5   6
ENDBRANCH   1   5
TORSDOF 6
ENDMDL
