MODEL 1
REMARK VINA RESULT:     2.312      0.000      0.000
REMARK INTER + INTRA:           2.940
REMARK INTER:                   4.204
REMARK INTRA:                  -1.264
REMARK UNBOUND:                -1.264
REMARK SMILES CCCCCC=CCC=CCCCCCCCC(=O)[O-]
REMARK SMILES IDX 11 1 12 2 13 3 14 4 15 5 16 6 17 7 18 8 19 9 20 10 10 11
REMARK SMILES IDX 9 12 8 13 7 14 6 15 5 16 4 17 3 18 2 19 1 20
REMARK H PARENT
REMARK Flexibility Score: inf
ROOT
ATOM      1  C   UNL     1     -30.609 -21.814  29.656  1.00  0.00     0.027 C 
ENDROOT
BRANCH   1   2
ATOM      2  C   UNL     1     -30.071 -22.850  28.663  1.00  0.00     0.004 C 
BRANCH   2   3
ATOM      3  C   UNL     1     -30.728 -22.688  27.287  1.00  0.00     0.000 C 
BRANCH   3   4
ATOM      4  C   UNL     1     -32.043 -23.477  27.209  1.00  0.00     0.000 C 
BRANCH   4   5
ATOM      5  C   UNL     1     -32.808 -23.225  25.900  1.00  0.00     0.000 C 
BRANCH   5   6
ATOM      6  C   UNL     1     -34.268 -22.804  26.140  1.00  0.00     0.006 C 
BRANCH   6   7
ATOM      7  C   UNL     1     -34.866 -23.475  27.384  1.00  0.00     0.053 C 
BRANCH   7   8
ATOM      8  C   UNL     1     -36.230 -22.941  27.700  1.00  0.00     0.041 C 
ATOM      9  O   UNL     1     -36.370 -22.012  28.537  1.00  0.00    -0.550 OA
ATOM     10  O   UNL     1     -37.344 -23.447  27.041  1.00  0.00    -0.550 OA
ENDBRANCH   7   8
ENDBRANCH   6   7
ENDBRANCH   5   6
ENDBRANCH   4   5
ENDBRANCH   3   4
ENDBRANCH   2   3
ENDBRANCH   1   2
BRANCH   1  11
ATOM     11  C   UNL     1     -31.637 -20.928  29.010  1.00  0.00    -0.031 C 
ATOM     12  C   UNL     1     -32.932 -20.985  29.359  1.00  0.00    -0.027 C 
BRANCH  12  13
ATOM     13  C   UNL     1     -33.957 -20.099  28.714  1.00  0.00     0.054 C 
BRANCH  13  14
ATOM     14  C   UNL     1     -33.642 -19.923  27.248  1.00  0.00    -0.027 C 
ATOM     15  C   UNL     1     -33.512 -18.740  26.619  1.00  0.00    -0.031 C 
BRANCH  15  16
ATOM     16  C   UNL     1     -33.607 -17.395  27.291  1.00  0.00     0.027 C 
BRANCH  16  17
ATOM     17  C   UNL     1     -32.311 -17.067  28.048  1.00  0.00     0.004 C 
BRANCH  17  18
ATOM     18  C   UNL     1     -32.492 -17.109  29.574  1.00  0.00     0.000 C 
BRANCH  18  19
ATOM     19  C   UNL     1     -31.369 -17.886  30.276  1.00  0.00    -0.003 C 
ATOM     20  C   UNL     1     -30.230 -18.198  29.310  1.00  0.00     0.004 C 
ENDBRANCH  18  19
ENDBRANCH  17  18
ENDBRANCH  16  17
ENDBRANCH  15  16
ENDBRANCH  13  14
ENDBRANCH  12  13
ENDBRANCH   1  11
TORSDOF 14
ENDMDL
MODEL 2
REMARK VINA RESULT:     2.659      0.774      2.316
REMARK INTER + INTRA:           3.571
REMARK INTER:                   4.147
REMARK INTRA:                  -0.576
REMARK UNBOUND:                -1.264
REMARK SMILES CCCCCC=CCC=CCCCCCCCC(=O)[O-]
REMARK SMILES IDX 11 1 12 2 13 3 14 4 15 5 16 6 17 7 18 8 19 9 20 10 10 11
REMARK SMILES IDX 9 12 8 13 7 14 6 15 5 16 4 17 3 18 2 19 1 20
REMARK H PARENT
REMARK Flexibility Score: inf
ROOT
ATOM      1  C   UNL     1     -29.981 -21.768  29.475  1.00  0.00     0.027 C 
ENDROOT
BRANCH   1   2
ATOM      2  C   UNL     1     -30.345 -22.661  28.284  1.00  0.00     0.004 C 
BRANCH   2   3
ATOM      3  C   UNL     1     -31.861 -22.869  28.192  1.00  0.00     0.000 C 
BRANCH   3   4
ATOM      4  C   UNL     1     -32.221 -23.770  27.002  1.00  0.00     0.000 C 
BRANCH   4   5
ATOM      5  C   UNL     1     -32.713 -22.971  25.783  1.00  0.00     0.000 C 
BRANCH   5   6
ATOM      6  C   UNL     1     -34.241 -22.790  25.772  1.00  0.00     0.006 C 
BRANCH   6   7
ATOM      7  C   UNL     1     -34.917 -23.519  26.941  1.00  0.00     0.053 C 
BRANCH   7   8
ATOM      8  C   UNL     1     -36.365 -23.152  27.060  1.00  0.00     0.041 C 
ATOM      9  O   UNL     1     -36.841 -22.796  28.170  1.00  0.00    -0.550 OA
ATOM     10  O   UNL     1     -37.181 -23.167  25.935  1.00  0.00    -0.550 OA
ENDBRANCH   7   8
ENDBRANCH   6   7
ENDBRANCH   5   6
ENDBRANCH   4   5
ENDBRANCH   3   4
ENDBRANCH   2   3
ENDBRANCH   1   2
BRANCH   1  11
ATOM     11  C   UNL     1     -31.019 -20.702  29.689  1.00  0.00    -0.031 C 
ATOM     12  C   UNL     1     -30.741 -19.403  29.503  1.00  0.00    -0.027 C 
BRANCH  12  13
ATOM     13  C   UNL     1     -31.779 -18.340  29.715  1.00  0.00     0.054 C 
BRANCH  13  14
ATOM     14  C   UNL     1     -31.538 -17.184  28.775  1.00  0.00    -0.027 C 
ATOM     15  C   UNL     1     -32.363 -16.808  27.780  1.00  0.00    -0.031 C 
BRANCH  15  16
ATOM     16  C   UNL     1     -33.691 -17.451  27.476  1.00  0.00     0.027 C 
BRANCH  16  17
ATOM     17  C   UNL     1     -33.527 -18.602  26.472  1.00  0.00     0.004 C 
BRANCH  17  18
ATOM     18  C   UNL     1     -33.366 -19.966  27.159  1.00  0.00     0.000 C 
BRANCH  18  19
ATOM     19  C   UNL     1     -34.416 -20.198  28.256  1.00  0.00    -0.003 C 
ATOM     20  C   UNL     1     -33.966 -21.289  29.224  1.00  0.00     0.004 C 
ENDBRANCH  18  19
ENDBRANCH  17  18
ENDBRANCH  16  17
ENDBRANCH  15  16
ENDBRANCH  13  14
ENDBRANCH  12  13
ENDBRANCH   1  11
TORSDOF 14
ENDMDL
MODEL 3
REMARK VINA RESULT:     2.906      1.884      5.530
REMARK INTER + INTRA:           4.020
REMARK INTER:                   4.728
REMARK INTRA:                  -0.708
REMARK UNBOUND:                -1.264
REMARK SMILES CCCCCC=CCC=CCCCCCCCC(=O)[O-]
REMARK SMILES IDX 11 1 12 2 13 3 14 4 15 5 16 6 17 7 18 8 19 9 20 10 10 11
REMARK SMILES IDX 9 12 8 13 7 14 6 15 5 16 4 17 3 18 2 19 1 20
REMARK H PARENT
REMARK Flexibility Score: inf
ROOT
ATOM      1  C   UNL     1     -32.979 -20.171  30.084  1.00  0.00     0.027 C 
ENDROOT
BRANCH   1   2
ATOM      2  C   UNL     1     -32.351 -18.778  30.208  1.00  0.00     0.004 C 
BRANCH   2   3
ATOM      3  C   UNL     1     -30.975 -18.731  29.531  1.00  0.00     0.000 C 
BRANCH   3   4
ATOM      4  C   UNL     1     -30.959 -17.702  28.392  1.00  0.00     0.000 C 
BRANCH   4   5
ATOM      5  C   UNL     1     -32.147 -16.728  28.457  1.00  0.00     0.000 C 
BRANCH   5   6
ATOM      6  C   UNL     1     -33.091 -16.865  27.250  1.00  0.00     0.006 C 
BRANCH   6   7
ATOM      7  C   UNL     1     -33.855 -18.196  27.263  1.00  0.00     0.053 C 
BRANCH   7   8
ATOM      8  C   UNL     1     -33.593 -18.998  26.024  1.00  0.00     0.041 C 
ATOM      9  O   UNL     1     -32.851 -20.013  26.071  1.00  0.00    -0.550 OA
ATOM     10  O   UNL     1     -34.199 -18.643  24.825  1.00  0.00    -0.550 OA
ENDBRANCH   7   8
ENDBRANCH   6   7
ENDBRANCH   5   6
ENDBRANCH   4   5
ENDBRANCH   3   4
ENDBRANCH   2   3
ENDBRANCH   1   2
BRANCH   1  11
ATOM     11  C   UNL     1     -32.369 -20.939  28.945  1.00  0.00    -0.031 C 
ATOM     12  C   UNL     1     -31.321 -21.755  29.130  1.00  0.00    -0.027 C 
BRANCH  12  13
ATOM     13  C   UNL     1     -30.714 -22.523  27.991  1.00  0.00     0.054 C 
BRANCH  13  14
ATOM     14  C   UNL     1     -31.462 -23.818  27.782  1.00  0.00    -0.027 C 
ATOM     15  C   UNL     1     -32.443 -24.010  26.881  1.00  0.00    -0.031 C 
BRANCH  15  16
ATOM     16  C   UNL     1     -32.918 -22.975  25.895  1.00  0.00     0.027 C 
BRANCH  16  17
ATOM     17  C   UNL     1     -34.426 -22.721  26.049  1.00  0.00     0.004 C 
BRANCH  17  18
ATOM     18  C   UNL     1     -34.850 -22.555  27.516  1.00  0.00     0.000 C 
BRANCH  18  19
ATOM     19  C   UNL     1     -35.986 -23.511  27.910  1.00  0.00    -0.003 C 
ATOM     20  C   UNL     1     -37.282 -23.149  27.189  1.00  0.00     0.004 C 
ENDBRANCH  18  19
ENDBRANCH  17  18
ENDBRANCH  16  17
ENDBRANCH  15  16
ENDBRANCH  13  14
ENDBRANCH  12  13
ENDBRANCH   1  11
TORSDOF 14
ENDMDL
MODEL 4
REMARK VINA RESULT:     2.925      0.953      3.181
REMARK INTER + INTRA:           4.055
REMARK INTER:                   4.320
REMARK INTRA:                  -0.266
REMARK UNBOUND:                -1.264
REMARK SMILES CCCCCC=CCC=CCCCCCCCC(=O)[O-]
REMARK SMILES IDX 11 1 12 2 13 3 14 4 15 5 16 6 17 7 18 8 19 9 20 10 10 11
REMARK SMILES IDX 9 12 8 13 7 14 6 15 5 16 4 17 3 18 2 19 1 20
REMARK H PARENT
REMARK Flexibility Score: inf
ROOT
ATOM      1  C   UNL     1     -33.879 -20.605  26.330  1.00  0.00     0.027 C 
ENDROOT
BRANCH   1   2
ATOM      2  C   UNL     1     -32.595 -21.415  26.121  1.00  0.00     0.004 C 
BRANCH   2   3
ATOM      3  C   UNL     1     -32.899 -22.776  25.482  1.00  0.00     0.000 C 
BRANCH   3   4
ATOM      4  C   UNL     1     -32.690 -23.915  26.489  1.00  0.00     0.000 C 
BRANCH   4   5
ATOM      5  C   UNL     1     -32.747 -23.433  27.948  1.00  0.00     0.000 C 
BRANCH   5   6
ATOM      6  C   UNL     1     -34.166 -23.026  28.382  1.00  0.00     0.006 C 
BRANCH   6   7
ATOM      7  C   UNL     1     -35.245 -23.642  27.481  1.00  0.00     0.053 C 
BRANCH   7   8
ATOM      8  C   UNL     1     -36.569 -22.963  27.657  1.00  0.00     0.041 C 
ATOM      9  O   UNL     1     -37.591 -23.403  27.069  1.00  0.00    -0.550 OA
ATOM     10  O   UNL     1     -36.679 -21.864  28.500  1.00  0.00    -0.550 OA
ENDBRANCH   7   8
ENDBRANCH   6   7
ENDBRANCH   5   6
ENDBRANCH   4   5
ENDBRANCH   3   4
ENDBRANCH   2   3
ENDBRANCH   1   2
BRANCH   1  11
ATOM     11  C   UNL     1     -33.631 -19.419  27.221  1.00  0.00    -0.031 C 
ATOM     12  C   UNL     1     -33.434 -18.192  26.717  1.00  0.00    -0.027 C 
BRANCH  12  13
ATOM     13  C   UNL     1     -33.188 -17.009  27.609  1.00  0.00     0.054 C 
BRANCH  13  14
ATOM     14  C   UNL     1     -31.795 -17.076  28.187  1.00  0.00    -0.027 C 
ATOM     15  C   UNL     1     -31.449 -17.754  29.297  1.00  0.00    -0.031 C 
BRANCH  15  16
ATOM     16  C   UNL     1     -32.388 -18.602  30.114  1.00  0.00     0.027 C 
BRANCH  16  17
ATOM     17  C   UNL     1     -32.243 -20.088  29.752  1.00  0.00     0.004 C 
BRANCH  17  18
ATOM     18  C   UNL     1     -30.813 -20.455  29.326  1.00  0.00     0.000 C 
BRANCH  18  19
ATOM     19  C   UNL     1     -30.452 -21.906  29.675  1.00  0.00    -0.003 C 
ATOM     20  C   UNL     1     -29.629 -22.550  28.562  1.00  0.00     0.004 C 
ENDBRANCH  18  19
ENDBRANCH  17  18
ENDBRANCH  16  17
ENDBRANCH  15  16
ENDBRANCH  13  14
ENDBRANCH  12  13
ENDBRANCH   1  11
TORSDOF 14
ENDMDL
MODEL 5
REMARK VINA RESULT:     2.962      0.992      2.286
REMARK INTER + INTRA:           4.122
REMARK INTER:                   4.760
REMARK INTRA:                  -0.638
REMARK UNBOUND:                -1.264
REMARK SMILES CCCCCC=CCC=CCCCCCCCC(=O)[O-]
REMARK SMILES IDX 11 1 12 2 13 3 14 4 15 5 16 6 17 7 18 8 19 9 20 10 10 11
REMARK SMILES IDX 9 12 8 13 7 14 6 15 5 16 4 17 3 18 2 19 1 20
REMARK H PARENT
REMARK Flexibility Score: inf
ROOT
ATOM      1  C   UNL     1     -30.012 -22.324  29.225  1.00  0.00     0.027 C 
ENDROOT
BRANCH   1   2
ATOM      2  C   UNL     1     -30.185 -22.696  27.749  1.00  0.00     0.004 C 
BRANCH   2   3
ATOM      3  C   UNL     1     -31.585 -23.262  27.482  1.00  0.00     0.000 C 
BRANCH   3   4
ATOM      4  C   UNL     1     -32.131 -22.767  26.135  1.00  0.00     0.000 C 
BRANCH   4   5
ATOM      5  C   UNL     1     -33.667 -22.766  26.083  1.00  0.00     0.000 C 
BRANCH   5   6
ATOM      6  C   UNL     1     -34.299 -23.543  27.251  1.00  0.00     0.006 C 
BRANCH   6   7
ATOM      7  C   UNL     1     -35.498 -22.802  27.857  1.00  0.00     0.053 C 
BRANCH   7   8
ATOM      8  C   UNL     1     -36.800 -23.389  27.404  1.00  0.00     0.041 C 
ATOM      9  O   UNL     1     -37.362 -22.959  26.363  1.00  0.00    -0.550 OA
ATOM     10  O   UNL     1     -37.374 -24.437  28.113  1.00  0.00    -0.550 OA
ENDBRANCH   7   8
ENDBRANCH   6   7
ENDBRANCH   5   6
ENDBRANCH   4   5
ENDBRANCH   3   4
ENDBRANCH   2   3
ENDBRANCH   1   2
BRANCH   1  11
ATOM     11  C   UNL     1     -30.866 -21.142  29.589  1.00  0.00    -0.031 C 
ATOM     12  C   UNL     1     -32.164 -21.084  29.255  1.00  0.00    -0.027 C 
BRANCH  12  13
ATOM     13  C   UNL     1     -33.016 -19.904  29.620  1.00  0.00     0.054 C 
BRANCH  13  14
ATOM     14  C   UNL     1     -32.190 -18.876  30.357  1.00  0.00    -0.027 C 
ATOM     15  C   UNL     1     -31.450 -17.914  29.774  1.00  0.00    -0.031 C 
BRANCH  15  16
ATOM     16  C   UNL     1     -31.368 -17.674  28.290  1.00  0.00     0.027 C 
BRANCH  16  17
ATOM     17  C   UNL     1     -32.396 -16.620  27.847  1.00  0.00     0.004 C 
BRANCH  17  18
ATOM     18  C   UNL     1     -33.665 -17.248  27.252  1.00  0.00     0.000 C 
BRANCH  18  19
ATOM     19  C   UNL     1     -33.514 -18.757  27.007  1.00  0.00    -0.003 C 
ATOM     20  C   UNL     1     -33.615 -19.084  25.520  1.00  0.00     0.004 C 
ENDBRANCH  18  19
ENDBRANCH  17  18
ENDBRANCH  16  17
ENDBRANCH  15  16
ENDBRANCH  13  14
ENDBRANCH  12  13
ENDBRANCH   1  11
TORSDOF 14
ENDMDL
MODEL 6
REMARK VINA RESULT:     3.117      2.529      4.310
REMARK INTER + INTRA:           4.404
REMARK INTER:                   5.136
REMARK INTRA:                  -0.731
REMARK UNBOUND:                -1.264
REMARK SMILES CCCCCC=CCC=CCCCCCCCC(=O)[O-]
REMARK SMILES IDX 11 1 12 2 13 3 14 4 15 5 16 6 17 7 18 8 19 9 20 10 10 11
REMARK SMILES IDX 9 12 8 13 7 14 6 15 5 16 4 17 3 18 2 19 1 20
REMARK H PARENT
REMARK Flexibility Score: inf
ROOT
ATOM      1  C   UNL     1     -35.971 -22.712  27.872  1.00  0.00     0.027 C 
ENDROOT
BRANCH   1   2
ATOM      2  C   UNL     1     -34.898 -23.501  27.113  1.00  0.00     0.004 C 
BRANCH   2   3
ATOM      3  C   UNL     1     -34.334 -22.682  25.945  1.00  0.00     0.000 C 
BRANCH   3   4
ATOM      4  C   UNL     1     -32.806 -22.811  25.871  1.00  0.00     0.000 C 
BRANCH   4   5
ATOM      5  C   UNL     1     -32.271 -23.995  26.692  1.00  0.00     0.000 C 
BRANCH   5   6
ATOM      6  C   UNL     1     -31.695 -23.561  28.051  1.00  0.00     0.006 C 
BRANCH   6   7
ATOM      7  C   UNL     1     -30.735 -22.370  27.917  1.00  0.00     0.053 C 
BRANCH   7   8
ATOM      8  C   UNL     1     -29.604 -22.458  28.896  1.00  0.00     0.041 C 
ATOM      9  O   UNL     1     -29.704 -21.925  30.032  1.00  0.00    -0.550 OA
ATOM     10  O   UNL     1     -28.452 -23.160  28.565  1.00  0.00    -0.550 OA
ENDBRANCH   7   8
ENDBRANCH   6   7
ENDBRANCH   5   6
ENDBRANCH   4   5
ENDBRANCH   3   4
ENDBRANCH   2   3
ENDBRANCH   1   2
BRANCH   1  11
ATOM     11  C   UNL     1     -35.368 -21.548  28.607  1.00  0.00    -0.031 C 
ATOM     12  C   UNL     1     -34.096 -21.569  29.034  1.00  0.00    -0.027 C 
BRANCH  12  13
ATOM     13  C   UNL     1     -33.496 -20.405  29.767  1.00  0.00     0.054 C 
BRANCH  13  14
ATOM     14  C   UNL     1     -32.073 -20.185  29.314  1.00  0.00    -0.027 C 
ATOM     15  C   UNL     1     -31.375 -19.045  29.476  1.00  0.00    -0.031 C 
BRANCH  15  16
ATOM     16  C   UNL     1     -31.885 -17.819  30.185  1.00  0.00     0.027 C 
BRANCH  16  17
ATOM     17  C   UNL     1     -32.764 -16.971  29.253  1.00  0.00     0.004 C 
BRANCH  17  18
ATOM     18  C   UNL     1     -32.524 -17.284  27.768  1.00  0.00     0.000 C 
BRANCH  18  19
ATOM     19  C   UNL     1     -33.790 -17.795  27.065  1.00  0.00    -0.003 C 
ATOM     20  C   UNL     1     -33.528 -19.126  26.364  1.00  0.00     0.004 C 
ENDBRANCH  18  19
ENDBRANCH  17  18
ENDBRANCH  16  17
ENDBRANCH  15  16
ENDBRANCH  13  14
ENDBRANCH  12  13
ENDBRANCH   1  11
TORSDOF 14
ENDMDL
MODEL 7
REMARK VINA RESULT:     3.217      2.579      5.417
REMARK INTER + INTRA:           4.586
REMARK INTER:                   5.924
REMARK INTRA:                  -1.338
REMARK UNBOUND:                -1.264
REMARK SMILES CCCCCC=CCC=CCCCCCCCC(=O)[O-]
REMARK SMILES IDX 11 1 12 2 13 3 14 4 15 5 16 6 17 7 18 8 19 9 20 10 10 11
REMARK SMILES IDX 9 12 8 13 7 14 6 15 5 16 4 17 3 18 2 19 1 20
REMARK H PARENT
REMARK Flexibility Score: inf
ROOT
ATOM      1  C   UNL     1     -30.512 -21.479  29.299  1.00  0.00     0.027 C 
ENDROOT
BRANCH   1   2
ATOM      2  C   UNL     1     -31.490 -20.363  29.684  1.00  0.00     0.004 C 
BRANCH   2   3
ATOM      3  C   UNL     1     -30.810 -18.990  29.632  1.00  0.00     0.000 C 
BRANCH   3   4
ATOM      4  C   UNL     1     -31.636 -17.939  30.387  1.00  0.00     0.000 C 
BRANCH   4   5
ATOM      5  C   UNL     1     -32.322 -16.936  29.445  1.00  0.00     0.000 C 
BRANCH   5   6
ATOM      6  C   UNL     1     -32.158 -17.312  27.961  1.00  0.00     0.006 C 
BRANCH   6   7
ATOM      7  C   UNL     1     -33.511 -17.491  27.258  1.00  0.00     0.053 C 
BRANCH   7   8
ATOM      8  C   UNL     1     -33.673 -18.877  26.714  1.00  0.00     0.041 C 
ATOM      9  O   UNL     1     -33.603 -19.873  27.481  1.00  0.00    -0.550 OA
ATOM     10  O   UNL     1     -33.937 -19.067  25.363  1.00  0.00    -0.550 OA
ENDBRANCH   7   8
ENDBRANCH   6   7
ENDBRANCH   5   6
ENDBRANCH   4   5
ENDBRANCH   3   4
ENDBRANCH   2   3
ENDBRANCH   1   2
BRANCH   1  11
ATOM     11  C   UNL     1     -31.173 -22.492  28.407  1.00  0.00    -0.031 C 
ATOM     12  C   UNL     1     -32.472 -22.800  28.535  1.00  0.00    -0.027 C 
BRANCH  12  13
ATOM     13  C   UNL     1     -33.130 -23.811  27.642  1.00  0.00     0.054 C 
BRANCH  13  14
ATOM     14  C   UNL     1     -33.972 -23.114  26.601  1.00  0.00    -0.027 C 
ATOM     15  C   UNL     1     -33.527 -22.683  25.405  1.00  0.00    -0.031 C 
BRANCH  15  16
ATOM     16  C   UNL     1     -32.125 -22.875  24.891  1.00  0.00     0.027 C 
BRANCH  16  17
ATOM     17  C   UNL     1     -31.460 -21.522  24.593  1.00  0.00     0.004 C 
BRANCH  17  18
ATOM     18  C   UNL     1     -30.501 -21.588  23.394  1.00  0.00     0.000 C 
BRANCH  18  19
ATOM     19  C   UNL     1     -30.415 -20.253  22.639  1.00  0.00    -0.003 C 
ATOM     20  C   UNL     1     -29.824 -20.448  21.245  1.00  0.00     0.004 C 
ENDBRANCH  18  19
ENDBRANCH  17  18
ENDBRANCH  16  17
ENDBRANCH  15  16
ENDBRANCH  13  14
ENDBRANCH  12  13
ENDBRANCH   1  11
TORSDOF 14
ENDMDL
MODEL 8
REMARK VINA RESULT:     3.355      1.899      4.950
REMARK INTER + INTRA:           4.836
REMARK INTER:                   4.666
REMARK INTRA:                   0.170
REMARK UNBOUND:                -1.264
REMARK SMILES CCCCCC=CCC=CCCCCCCCC(=O)[O-]
REMARK SMILES IDX 11 1 12 2 13 3 14 4 15 5 16 6 17 7 18 8 19 9 20 10 10 11
REMARK SMILES IDX 9 12 8 13 7 14 6 15 5 16 4 17 3 18 2 19 1 20
REMARK H PARENT
REMARK Flexibility Score: inf
ROOT
ATOM      1  C   UNL     1     -33.855 -20.672  29.891  1.00  0.00     0.027 C 
ENDROOT
BRANCH   1   2
ATOM      2  C   UNL     1     -32.435 -20.145  29.658  1.00  0.00     0.004 C 
BRANCH   2   3
ATOM      3  C   UNL     1     -32.331 -18.658  30.020  1.00  0.00     0.000 C 
BRANCH   3   4
ATOM      4  C   UNL     1     -31.127 -18.006  29.327  1.00  0.00     0.000 C 
BRANCH   4   5
ATOM      5  C   UNL     1     -31.385 -17.719  27.838  1.00  0.00     0.000 C 
BRANCH   5   6
ATOM      6  C   UNL     1     -32.712 -16.978  27.600  1.00  0.00     0.006 C 
BRANCH   6   7
ATOM      7  C   UNL     1     -33.870 -17.943  27.317  1.00  0.00     0.053 C 
BRANCH   7   8
ATOM      8  C   UNL     1     -33.590 -18.812  26.128  1.00  0.00     0.041 C 
ATOM      9  O   UNL     1     -32.864 -19.834  26.245  1.00  0.00    -0.550 OA
ATOM     10  O   UNL     1     -34.161 -18.511  24.898  1.00  0.00    -0.550 OA
ENDBRANCH   7   8
ENDBRANCH   6   7
ENDBRANCH   5   6
ENDBRANCH   4   5
ENDBRANCH   3   4
ENDBRANCH   2   3
ENDBRANCH   1   2
BRANCH   1  11
ATOM     11  C   UNL     1     -34.430 -21.251  28.628  1.00  0.00    -0.031 C 
ATOM     12  C   UNL     1     -34.644 -22.568  28.494  1.00  0.00    -0.027 C 
BRANCH  12  13
ATOM     13  C   UNL     1     -35.220 -23.144  27.233  1.00  0.00     0.054 C 
BRANCH  13  14
ATOM     14  C   UNL     1     -34.346 -22.790  26.054  1.00  0.00    -0.027 C 
ATOM     15  C   UNL     1     -33.015 -22.983  25.991  1.00  0.00    -0.031 C 
BRANCH  15  16
ATOM     16  C   UNL     1     -32.189 -23.634  27.069  1.00  0.00     0.027 C 
BRANCH  16  17
ATOM     17  C   UNL     1     -30.981 -22.759  27.439  1.00  0.00     0.004 C 
BRANCH  17  18
ATOM     18  C   UNL     1     -30.969 -22.368  28.924  1.00  0.00     0.000 C 
BRANCH  18  19
ATOM     19  C   UNL     1     -29.567 -21.977  29.416  1.00  0.00    -0.003 C 
ATOM     20  C   UNL     1     -28.519 -22.978  28.936  1.00  0.00     0.004 C 
ENDBRANCH  18  19
ENDBRANCH  17  18
ENDBRANCH  16  17
ENDBRANCH  15  16
ENDBRANCH  13  14
ENDBRANCH  12  13
ENDBRANCH   1  11
TORSDOF 14
ENDMDL
MODEL 9
REMARK VINA RESULT:     3.411      2.424      5.829
REMARK INTER + INTRA:           4.940
REMARK INTER:                   5.109
REMARK INTRA:                  -0.169
REMARK UNBOUND:                -1.264
REMARK SMILES CCCCCC=CCC=CCCCCCCCC(=O)[O-]
REMARK SMILES IDX 11 1 12 2 13 3 14 4 15 5 16 6 17 7 18 8 19 9 20 10 10 11
REMARK SMILES IDX 9 12 8 13 7 14 6 15 5 16 4 17 3 18 2 19 1 20
REMARK H PARENT
REMARK Flexibility Score: inf
ROOT
ATOM      1  C   UNL     1     -33.457 -17.185  27.083  1.00  0.00     0.027 C 
ENDROOT
BRANCH   1   2
ATOM      2  C   UNL     1     -32.621 -16.846  28.322  1.00  0.00     0.004 C 
BRANCH   2   3
ATOM      3  C   UNL     1     -31.224 -17.473  28.235  1.00  0.00     0.000 C 
BRANCH   3   4
ATOM      4  C   UNL     1     -30.928 -18.330  29.474  1.00  0.00     0.000 C 
BRANCH   4   5
ATOM      5  C   UNL     1     -32.203 -18.904  30.115  1.00  0.00     0.000 C 
BRANCH   5   6
ATOM      6  C   UNL     1     -32.360 -20.414  29.870  1.00  0.00     0.006 C 
BRANCH   6   7
ATOM      7  C   UNL     1     -31.499 -20.902  28.696  1.00  0.00     0.053 C 
BRANCH   7   8
ATOM      8  C   UNL     1     -30.423 -21.840  29.150  1.00  0.00     0.041 C 
ATOM      9  O   UNL     1     -29.829 -21.644  30.242  1.00  0.00    -0.550 OA
ATOM     10  O   UNL     1     -30.102 -22.953  28.382  1.00  0.00    -0.550 OA
ENDBRANCH   7   8
ENDBRANCH   6   7
ENDBRANCH   5   6
ENDBRANCH   4   5
ENDBRANCH   3   4
ENDBRANCH   2   3
ENDBRANCH   1   2
BRANCH   1  11
ATOM     11  C   UNL     1     -33.862 -18.633  27.084  1.00  0.00    -0.031 C 
ATOM     12  C   UNL     1     -33.309 -19.517  26.240  1.00  0.00    -0.027 C 
BRANCH  12  13
ATOM     13  C   UNL     1     -33.714 -20.963  26.244  1.00  0.00     0.054 C 
BRANCH  13  14
ATOM     14  C   UNL     1     -32.623 -21.809  25.632  1.00  0.00    -0.027 C 
ATOM     15  C   UNL     1     -32.437 -23.122  25.866  1.00  0.00    -0.031 C 
BRANCH  15  16
ATOM     16  C   UNL     1     -33.323 -23.973  26.737  1.00  0.00     0.027 C 
BRANCH  16  17
ATOM     17  C   UNL     1     -33.547 -23.312  28.106  1.00  0.00     0.004 C 
BRANCH  17  18
ATOM     18  C   UNL     1     -34.953 -22.709  28.248  1.00  0.00     0.000 C 
BRANCH  18  19
ATOM     19  C   UNL     1     -35.880 -23.107  27.090  1.00  0.00    -0.003 C 
ATOM     20  C   UNL     1     -37.272 -23.470  27.602  1.00  0.00     0.004 C 
ENDBRANCH  18  19
ENDBRANCH  17  18
ENDBRANCH  16  17
ENDBRANCH  15  16
ENDBRANCH  13  14
ENDBRANCH  12  13
ENDBRANCH   1  11
TORSDOF 14
ENDMDL
