MODEL 1
REMARK VINA RESULT:    -4.055      0.000      0.000
REMARK INTER + INTRA:          -5.291
REMARK INTER:                  -5.240
REMARK INTRA:                  -0.052
REMARK UNBOUND:                -0.052
REMARK SMILES CCCCCCC=O
REMARK SMILES IDX 4 1 3 2 2 3 1 4 5 5 6 6 7 7 8 8
REMARK H PARENT
REMARK Flexibility Score: inf
ROOT
ATOM      1  C   UNL     1      25.520  57.963  -9.410  1.00  0.00     0.000 C 
ENDROOT
BRANCH   1   2
ATOM      2  C   UNL     1      26.645  58.343 -10.384  1.00  0.00    -0.000 C 
BRANCH   2   3
ATOM      3  C   UNL     1      27.173  59.767 -10.150  1.00  0.00    -0.003 C 
ATOM      4  C   UNL     1      28.433  60.071 -10.959  1.00  0.00     0.004 C 
ENDBRANCH   2   3
ENDBRANCH   1   2
BRANCH   1   5
ATOM      5  C   UNL     1      25.449  56.440  -9.222  1.00  0.00     0.008 C 
BRANCH   5   6
ATOM      6  C   UNL     1      24.007  55.916  -9.282  1.00  0.00     0.072 C 
BRANCH   6   7
ATOM      7  C   UNL     1      23.614  55.180  -8.032  1.00  0.00     0.224 C 
ATOM      8  O   UNL     1      22.481  54.743  -7.916  1.00  0.00    -0.303 OA
ENDBRANCH   6   7
ENDBRANCH   5   6
ENDBRANCH   1   5
TORSDOF 5
ENDMDL
MODEL 2
REMARK VINA RESULT:    -3.923      3.079      5.607
REMARK INTER + INTRA:          -5.121
REMARK INTER:                  -5.062
REMARK INTRA:                  -0.059
REMARK UNBOUND:                -0.052
REMARK SMILES CCCCCCC=O
REMARK SMILES IDX 4 1 3 2 2 3 1 4 5 5 6 6 7 7 8 8
REMARK H PARENT
REMARK Flexibility Score: inf
ROOT
ATOM      1  C   UNL     1      25.453  57.972  -9.378  1.00  0.00     0.000 C 
ENDROOT
BRANCH   1   2
ATOM      2  C   UNL     1      25.396  56.459  -9.118  1.00  0.00    -0.000 C 
BRANCH   2   3
ATOM      3  C   UNL     1      24.006  55.865  -9.394  1.00  0.00    -0.003 C 
ATOM      4  C   UNL     1      23.430  55.121  -8.189  1.00  0.00     0.004 C 
ENDBRANCH   2   3
ENDBRANCH   1   2
BRANCH   1   5
ATOM      5  C   UNL     1      26.635  58.326 -10.293  1.00  0.00     0.008 C 
BRANCH   5   6
ATOM      6  C   UNL     1      27.161  59.745 -10.035  1.00  0.00     0.072 C 
BRANCH   6   7
ATOM      7  C   UNL     1      28.285  60.115 -10.960  1.00  0.00     0.224 C 
ATOM      8  O   UNL     1      29.098  59.270 -11.298  1.00  0.00    -0.303 OA
ENDBRANCH   6   7
ENDBRANCH   5   6
ENDBRANCH   1   5
TORSDOF 5
ENDMDL
MODEL 3
REMARK VINA RESULT:    -3.807      2.721      5.681
REMARK INTER + INTRA:          -4.972
REMARK INTER:                  -4.916
REMARK INTRA:                  -0.056
REMARK UNBOUND:                -0.052
REMARK SMILES CCCCCCC=O
REMARK SMILES IDX 4 1 3 2 2 3 1 4 5 5 6 6 7 7 8 8
REMARK H PARENT
REMARK Flexibility Score: inf
ROOT
ATOM      1  C   UNL     1      24.198  56.009  -9.365  1.00  0.00     0.000 C 
ENDROOT
BRANCH   1   2
ATOM      2  C   UNL     1      23.961  55.389  -7.980  1.00  0.00    -0.000 C 
BRANCH   2   3
ATOM      3  C   UNL     1      22.589  54.707  -7.865  1.00  0.00    -0.003 C 
ATOM      4  C   UNL     1      22.243  54.311  -6.430  1.00  0.00     0.004 C 
ENDBRANCH   2   3
ENDBRANCH   1   2
BRANCH   1   5
ATOM      5  C   UNL     1      25.617  56.589  -9.470  1.00  0.00     0.008 C 
BRANCH   5   6
ATOM      6  C   UNL     1      25.612  58.123  -9.522  1.00  0.00     0.072 C 
BRANCH   6   7
ATOM      7  C   UNL     1      26.797  58.674 -10.263  1.00  0.00     0.224 C 
ATOM      8  O   UNL     1      27.226  59.782  -9.986  1.00  0.00    -0.303 OA
ENDBRANCH   6   7
ENDBRANCH   5   6
ENDBRANCH   1   5
TORSDOF 5
ENDMDL
MODEL 4
REMARK VINA RESULT:    -3.667      0.856      1.520
REMARK INTER + INTRA:          -4.791
REMARK INTER:                  -4.721
REMARK INTRA:                  -0.071
REMARK UNBOUND:                -0.052
REMARK SMILES CCCCCCC=O
REMARK SMILES IDX 4 1 3 2 2 3 1 4 5 5 6 6 7 7 8 8
REMARK H PARENT
REMARK Flexibility Score: inf
ROOT
ATOM      1  C   UNL     1      26.601  58.237 -10.522  1.00  0.00     0.000 C 
ENDROOT
BRANCH   1   2
ATOM      2  C   UNL     1      27.321  59.558 -10.215  1.00  0.00    -0.000 C 
BRANCH   2   3
ATOM      3  C   UNL     1      28.629  59.715 -11.005  1.00  0.00    -0.003 C 
ATOM      4  C   UNL     1      29.871  59.635 -10.118  1.00  0.00     0.004 C 
ENDBRANCH   2   3
ENDBRANCH   1   2
BRANCH   1   5
ATOM      5  C   UNL     1      25.557  57.919  -9.441  1.00  0.00     0.008 C 
BRANCH   5   6
ATOM      6  C   UNL     1      25.443  56.411  -9.174  1.00  0.00     0.072 C 
BRANCH   6   7
ATOM      7  C   UNL     1      24.070  56.015  -8.713  1.00  0.00     0.224 C 
ATOM      8  O   UNL     1      23.722  54.847  -8.774  1.00  0.00    -0.303 OA
ENDBRANCH   6   7
ENDBRANCH   5   6
ENDBRANCH   1   5
TORSDOF 5
ENDMDL
MODEL 5
REMARK VINA RESULT:    -3.475     17.572     18.787
REMARK INTER + INTRA:          -4.543
REMARK INTER:                  -4.300
REMARK INTRA:                  -0.242
REMARK UNBOUND:                -0.052
REMARK SMILES CCCCCCC=O
REMARK SMILES IDX 4 1 3 2 2 3 1 4 5 5 6 6 7 7 8 8
REMARK H PARENT
REMARK Flexibility Score: inf
ROOT
ATOM      1  C   UNL     1      17.284  43.988  -0.112  1.00  0.00     0.000 C 
ENDROOT
BRANCH   1   2
ATOM      2  C   UNL     1      16.775  43.891   1.333  1.00  0.00    -0.000 C 
BRANCH   2   3
ATOM      3  C   UNL     1      15.410  44.570   1.526  1.00  0.00    -0.003 C 
ATOM      4  C   UNL     1      14.942  45.323   0.280  1.00  0.00     0.004 C 
ENDBRANCH   2   3
ENDBRANCH   1   2
BRANCH   1   5
ATOM      5  C   UNL     1      18.757  44.423  -0.146  1.00  0.00     0.008 C 
BRANCH   5   6
ATOM      6  C   UNL     1      19.482  44.114   1.172  1.00  0.00     0.072 C 
BRANCH   6   7
ATOM      7  C   UNL     1      20.428  42.955   1.047  1.00  0.00     0.224 C 
ATOM      8  O   UNL     1      20.634  42.455  -0.047  1.00  0.00    -0.303 OA
ENDBRANCH   6   7
ENDBRANCH   5   6
ENDBRANCH   1   5
TORSDOF 5
ENDMDL
MODEL 6
REMARK VINA RESULT:    -3.275     17.486     18.574
REMARK INTER + INTRA:          -4.284
REMARK INTER:                  -4.067
REMARK INTRA:                  -0.217
REMARK UNBOUND:                -0.052
REMARK SMILES CCCCCCC=O
REMARK SMILES IDX 4 1 3 2 2 3 1 4 5 5 6 6 7 7 8 8
REMARK H PARENT
REMARK Flexibility Score: inf
ROOT
ATOM      1  C   UNL     1      17.505  44.206  -0.140  1.00  0.00     0.000 C 
ENDROOT
BRANCH   1   2
ATOM      2  C   UNL     1      18.994  44.565  -0.037  1.00  0.00    -0.000 C 
BRANCH   2   3
ATOM      3  C   UNL     1      19.668  43.941   1.194  1.00  0.00    -0.003 C 
ATOM      4  C   UNL     1      20.573  42.761   0.840  1.00  0.00     0.004 C 
ENDBRANCH   2   3
ENDBRANCH   1   2
BRANCH   1   5
ATOM      5  C   UNL     1      16.936  43.827   1.236  1.00  0.00     0.008 C 
BRANCH   5   6
ATOM      6  C   UNL     1      15.541  44.425   1.469  1.00  0.00     0.072 C 
BRANCH   6   7
ATOM      7  C   UNL     1      15.061  45.231   0.296  1.00  0.00     0.224 C 
ATOM      8  O   UNL     1      13.941  45.044  -0.152  1.00  0.00    -0.303 OA
ENDBRANCH   6   7
ENDBRANCH   5   6
ENDBRANCH   1   5
TORSDOF 5
ENDMDL
MODEL 7
REMARK VINA RESULT:    -3.259     15.532     17.324
REMARK INTER + INTRA:          -4.263
REMARK INTER:                  -4.180
REMARK INTRA:                  -0.083
REMARK UNBOUND:                -0.052
REMARK SMILES CCCCCCC=O
REMARK SMILES IDX 4 1 3 2 2 3 1 4 5 5 6 6 7 7 8 8
REMARK H PARENT
REMARK Flexibility Score: inf
ROOT
ATOM      1  C   UNL     1      31.558  45.105   0.439  1.00  0.00     0.000 C 
ENDROOT
BRANCH   1   2
ATOM      2  C   UNL     1      30.065  45.166   0.792  1.00  0.00    -0.000 C 
BRANCH   2   3
ATOM      3  C   UNL     1      29.165  44.680  -0.355  1.00  0.00    -0.003 C 
ATOM      4  C   UNL     1      28.030  45.654  -0.670  1.00  0.00     0.004 C 
ENDBRANCH   2   3
ENDBRANCH   1   2
BRANCH   1   5
ATOM      5  C   UNL     1      32.422  45.112   1.709  1.00  0.00     0.008 C 
BRANCH   5   6
ATOM      6  C   UNL     1      33.038  46.492   1.981  1.00  0.00     0.072 C 
BRANCH   6   7
ATOM      7  C   UNL     1      32.685  47.017   3.343  1.00  0.00     0.224 C 
ATOM      8  O   UNL     1      32.696  48.218   3.553  1.00  0.00    -0.303 OA
ENDBRANCH   6   7
ENDBRANCH   5   6
ENDBRANCH   1   5
TORSDOF 5
ENDMDL
MODEL 8
REMARK VINA RESULT:    -3.243     17.840     18.707
REMARK INTER + INTRA:          -4.243
REMARK INTER:                  -3.914
REMARK INTRA:                  -0.330
REMARK UNBOUND:                -0.052
REMARK SMILES CCCCCCC=O
REMARK SMILES IDX 4 1 3 2 2 3 1 4 5 5 6 6 7 7 8 8
REMARK H PARENT
REMARK Flexibility Score: inf
ROOT
ATOM      1  C   UNL     1      14.274  43.408 -13.106  1.00  0.00     0.000 C 
ENDROOT
BRANCH   1   2
ATOM      2  C   UNL     1      14.569  44.309 -14.313  1.00  0.00    -0.000 C 
BRANCH   2   3
ATOM      3  C   UNL     1      15.003  43.513 -15.553  1.00  0.00    -0.003 C 
ATOM      4  C   UNL     1      16.519  43.499 -15.749  1.00  0.00     0.004 C 
ENDBRANCH   2   3
ENDBRANCH   1   2
BRANCH   1   5
ATOM      5  C   UNL     1      13.908  41.986 -13.560  1.00  0.00     0.008 C 
BRANCH   5   6
ATOM      6  C   UNL     1      14.657  40.912 -12.757  1.00  0.00     0.072 C 
BRANCH   6   7
ATOM      7  C   UNL     1      16.123  40.875 -13.080  1.00  0.00     0.224 C 
ATOM      8  O   UNL     1      16.945  41.044 -12.194  1.00  0.00    -0.303 OA
ENDBRANCH   6   7
ENDBRANCH   5   6
ENDBRANCH   1   5
TORSDOF 5
ENDMDL
MODEL 9
REMARK VINA RESULT:    -3.210     15.144     16.717
REMARK INTER + INTRA:          -4.201
REMARK INTER:                  -3.979
REMARK INTRA:                  -0.222
REMARK UNBOUND:                -0.052
REMARK SMILES CCCCCCC=O
REMARK SMILES IDX 4 1 3 2 2 3 1 4 5 5 6 6 7 7 8 8
REMARK H PARENT
REMARK Flexibility Score: inf
ROOT
ATOM      1  C   UNL     1      31.719  44.994   0.178  1.00  0.00     0.000 C 
ENDROOT
BRANCH   1   2
ATOM      2  C   UNL     1      32.222  43.553   0.008  1.00  0.00    -0.000 C 
BRANCH   2   3
ATOM      3  C   UNL     1      32.561  43.214  -1.452  1.00  0.00    -0.003 C 
ATOM      4  C   UNL     1      31.495  42.348  -2.122  1.00  0.00     0.004 C 
ENDBRANCH   2   3
ENDBRANCH   1   2
BRANCH   1   5
ATOM      5  C   UNL     1      30.289  45.013   0.740  1.00  0.00     0.008 C 
BRANCH   5   6
ATOM      6  C   UNL     1      29.240  44.710  -0.339  1.00  0.00     0.072 C 
BRANCH   6   7
ATOM      7  C   UNL     1      28.104  45.693  -0.324  1.00  0.00     0.224 C 
ATOM      8  O   UNL     1      27.734  46.209  -1.365  1.00  0.00    -0.303 OA
ENDBRANCH   6   7
ENDBRANCH   5   6
ENDBRANCH   1   5
TORSDOF 5
ENDMDL
