MODEL 1
REMARK VINA RESULT:    -7.473      0.000      0.000
REMARK INTER + INTRA:          -9.334
REMARK INTER:                  -9.002
REMARK INTRA:                  -0.331
REMARK UNBOUND:                -0.331
REMARK SMILES O=c1c(O)c(-c2ccc(O)c(O)c2)oc2cc(O)cc(O)c12
REMARK SMILES IDX 5 1 3 2 2 3 1 4 22 5 20 6 19 7 17 8 16 9 15 10 14 11 6 12
REMARK SMILES IDX 7 13 8 14 9 15 13 16 11 17 10 18 12 20 4 22 21 24 18 26
REMARK H PARENT 10 19 12 21 4 23 21 25 18 27
REMARK Flexibility Score: inf
ROOT
ATOM      1  C   UNL     1     -18.613  31.435 -24.545  1.00  0.00     0.180 A 
ATOM      2  C   UNL     1     -19.668  30.669 -24.017  1.00  0.00     0.208 A 
ATOM      3  C   UNL     1     -20.779  31.328 -23.468  1.00  0.00     0.238 A 
ATOM      4  O   UNL     1     -21.695  30.640 -22.948  1.00  0.00    -0.285 OA
ATOM      5  C   UNL     1     -20.830  32.743 -23.467  1.00  0.00     0.111 A 
ATOM      6  C   UNL     1     -21.924  33.515 -22.972  1.00  0.00     0.134 A 
ATOM      7  C   UNL     1     -21.809  34.909 -22.901  1.00  0.00     0.093 A 
ATOM      8  C   UNL     1     -20.670  35.563 -23.367  1.00  0.00     0.123 A 
ATOM      9  C   UNL     1     -19.618  34.822 -23.909  1.00  0.00     0.094 A 
ATOM     10  C   UNL     1     -19.688  33.428 -23.958  1.00  0.00     0.146 A 
ATOM     11  O   UNL     1     -18.661  32.760 -24.471  1.00  0.00    -0.452 OA
ENDROOT
BRANCH   1  12
ATOM     12  C   UNL     1     -17.421  30.812 -25.164  1.00  0.00     0.025 A 
ATOM     13  C   UNL     1     -17.409  30.444 -26.519  1.00  0.00     0.016 A 
ATOM     14  C   UNL     1     -16.264  29.880 -27.087  1.00  0.00     0.051 A 
ATOM     15  C   UNL     1     -15.109  29.685 -26.322  1.00  0.00     0.157 A 
ATOM     16  C   UNL     1     -16.257  30.637 -24.400  1.00  0.00     0.062 A 
ATOM     17  C   UNL     1     -15.104  30.073 -24.960  1.00  0.00     0.158 A 
BRANCH  15  18
ATOM     18  O   UNL     1     -14.000  29.113 -26.948  1.00  0.00    -0.504 OA
ATOM     19  H   UNL     1     -13.376  29.615 -27.561  1.00  0.00     0.293 HD
ENDBRANCH  15  18
BRANCH  17  20
ATOM     20  O   UNL     1     -13.987  29.918 -24.137  1.00  0.00    -0.504 OA
ATOM     21  H   UNL     1     -13.809  30.478 -23.315  1.00  0.00     0.293 HD
ENDBRANCH  17  20
ENDBRANCH   1  12
BRANCH   2  22
ATOM     22  O   UNL     1     -19.588  29.274 -24.009  1.00  0.00    -0.502 OA
ATOM     23  H   UNL     1     -19.814  28.721 -23.192  1.00  0.00     0.293 HD
ENDBRANCH   2  22
BRANCH   6  24
ATOM     24  O   UNL     1     -23.144  32.968 -22.567  1.00  0.00    -0.507 OA
ATOM     25  H   UNL     1     -23.268  32.023 -22.233  1.00  0.00     0.293 HD
ENDBRANCH   6  24
BRANCH   8  26
ATOM     26  O   UNL     1     -20.597  36.952 -23.297  1.00  0.00    -0.508 OA
ATOM     27  H   UNL     1     -19.849  37.419 -22.796  1.00  0.00     0.293 HD
ENDBRANCH   8  26
TORSDOF 6
ENDMDL
MODEL 2
REMARK VINA RESULT:    -7.473      2.422      3.197
REMARK INTER + INTRA:          -9.334
REMARK INTER:                  -9.013
REMARK INTRA:                  -0.321
REMARK UNBOUND:                -0.331
REMARK SMILES O=c1c(O)c(-c2ccc(O)c(O)c2)oc2cc(O)cc(O)c12
REMARK SMILES IDX 5 1 3 2 2 3 1 4 22 5 20 6 19 7 17 8 16 9 15 10 14 11 6 12
REMARK SMILES IDX 7 13 8 14 9 15 13 16 11 17 10 18 12 20 4 22 21 24 18 26
REMARK H PARENT 10 19 12 21 4 23 21 25 18 27
REMARK Flexibility Score: inf
ROOT
ATOM      1  C   UNL     1     -18.379  31.708 -24.693  1.00  0.00     0.180 A 
ATOM      2  C   UNL     1     -19.624  32.328 -24.899  1.00  0.00     0.208 A 
ATOM      3  C   UNL     1     -19.858  33.592 -24.334  1.00  0.00     0.238 A 
ATOM      4  O   UNL     1     -20.993  34.117 -24.476  1.00  0.00    -0.285 OA
ATOM      5  C   UNL     1     -18.840  34.228 -23.584  1.00  0.00     0.111 A 
ATOM      6  C   UNL     1     -18.953  35.525 -23.000  1.00  0.00     0.134 A 
ATOM      7  C   UNL     1     -17.931  36.000 -22.169  1.00  0.00     0.093 A 
ATOM      8  C   UNL     1     -16.773  35.255 -21.954  1.00  0.00     0.123 A 
ATOM      9  C   UNL     1     -16.625  34.010 -22.568  1.00  0.00     0.094 A 
ATOM     10  C   UNL     1     -17.643  33.494 -23.373  1.00  0.00     0.146 A 
ATOM     11  O   UNL     1     -17.468  32.302 -23.930  1.00  0.00    -0.452 OA
ENDROOT
BRANCH   1  12
ATOM     12  C   UNL     1     -18.049  30.389 -25.277  1.00  0.00     0.025 A 
ATOM     13  C   UNL     1     -17.605  30.267 -26.603  1.00  0.00     0.016 A 
ATOM     14  C   UNL     1     -17.277  29.013 -27.125  1.00  0.00     0.051 A 
ATOM     15  C   UNL     1     -17.373  27.863 -26.334  1.00  0.00     0.157 A 
ATOM     16  C   UNL     1     -18.126  29.240 -24.476  1.00  0.00     0.062 A 
ATOM     17  C   UNL     1     -17.799  27.978 -24.990  1.00  0.00     0.158 A 
BRANCH  15  18
ATOM     18  O   UNL     1     -17.035  26.641 -26.917  1.00  0.00    -0.504 OA
ATOM     19  H   UNL     1     -16.113  26.414 -27.260  1.00  0.00     0.293 HD
ENDBRANCH  15  18
BRANCH  17  20
ATOM     20  O   UNL     1     -17.909  26.877 -24.138  1.00  0.00    -0.504 OA
ATOM     21  H   UNL     1     -17.394  26.777 -23.275  1.00  0.00     0.293 HD
ENDBRANCH  17  20
ENDBRANCH   1  12
BRANCH   2  22
ATOM     22  O   UNL     1     -20.623  31.673 -25.625  1.00  0.00    -0.502 OA
ATOM     23  H   UNL     1     -21.609  31.801 -25.431  1.00  0.00     0.293 HD
ENDBRANCH   2  22
BRANCH   6  24
ATOM     24  O   UNL     1     -20.027  36.391 -23.224  1.00  0.00    -0.507 OA
ATOM     25  H   UNL     1     -20.157  36.942 -24.059  1.00  0.00     0.293 HD
ENDBRANCH   6  24
BRANCH   8  26
ATOM     26  O   UNL     1     -15.769  35.766 -21.134  1.00  0.00    -0.508 OA
ATOM     27  H   UNL     1     -15.979  36.399 -20.370  1.00  0.00     0.293 HD
ENDBRANCH   8  26
TORSDOF 6
ENDMDL
MODEL 3
REMARK VINA RESULT:    -7.165      2.153      7.073
REMARK INTER + INTRA:          -8.963
REMARK INTER:                  -8.646
REMARK INTRA:                  -0.316
REMARK UNBOUND:                -0.331
REMARK SMILES O=c1c(O)c(-c2ccc(O)c(O)c2)oc2cc(O)cc(O)c12
REMARK SMILES IDX 5 1 3 2 2 3 1 4 22 5 20 6 19 7 17 8 16 9 15 10 14 11 6 12
REMARK SMILES IDX 7 13 8 14 9 15 13 16 11 17 10 18 12 20 4 22 21 24 18 26
REMARK H PARENT 10 19 12 21 4 23 21 25 18 27
REMARK Flexibility Score: inf
ROOT
ATOM      1  C   UNL     1     -17.261  31.993 -23.044  1.00  0.00     0.180 A 
ATOM      2  C   UNL     1     -17.284  31.126 -21.937  1.00  0.00     0.208 A 
ATOM      3  C   UNL     1     -16.453  29.994 -21.941  1.00  0.00     0.238 A 
ATOM      4  O   UNL     1     -16.517  29.194 -20.972  1.00  0.00    -0.285 OA
ATOM      5  C   UNL     1     -15.599  29.750 -23.043  1.00  0.00     0.111 A 
ATOM      6  C   UNL     1     -14.687  28.657 -23.137  1.00  0.00     0.134 A 
ATOM      7  C   UNL     1     -13.987  28.441 -24.330  1.00  0.00     0.093 A 
ATOM      8  C   UNL     1     -14.115  29.315 -25.408  1.00  0.00     0.123 A 
ATOM      9  C   UNL     1     -14.959  30.422 -25.307  1.00  0.00     0.094 A 
ATOM     10  C   UNL     1     -15.698  30.643 -24.143  1.00  0.00     0.146 A 
ATOM     11  O   UNL     1     -16.498  31.701 -24.091  1.00  0.00    -0.452 OA
ENDROOT
BRANCH   1  12
ATOM     12  C   UNL     1     -18.088  33.219 -23.102  1.00  0.00     0.025 A 
ATOM     13  C   UNL     1     -17.564  34.472 -22.747  1.00  0.00     0.016 A 
ATOM     14  C   UNL     1     -18.357  35.619 -22.832  1.00  0.00     0.051 A 
ATOM     15  C   UNL     1     -19.679  35.541 -23.284  1.00  0.00     0.157 A 
ATOM     16  C   UNL     1     -19.407  33.141 -23.576  1.00  0.00     0.062 A 
ATOM     17  C   UNL     1     -20.210  34.286 -23.665  1.00  0.00     0.158 A 
BRANCH  15  18
ATOM     18  O   UNL     1     -20.419  36.723 -23.342  1.00  0.00    -0.504 OA
ATOM     19  H   UNL     1     -20.755  37.219 -22.529  1.00  0.00     0.293 HD
ENDBRANCH  15  18
BRANCH  17  20
ATOM     20  O   UNL     1     -21.516  34.131 -24.134  1.00  0.00    -0.504 OA
ATOM     21  H   UNL     1     -22.071  34.883 -24.517  1.00  0.00     0.293 HD
ENDBRANCH  17  20
ENDBRANCH   1  12
BRANCH   2  22
ATOM     22  O   UNL     1     -18.150  31.374 -20.868  1.00  0.00    -0.502 OA
ATOM     23  H   UNL     1     -18.109  30.851 -20.003  1.00  0.00     0.293 HD
ENDBRANCH   2  22
BRANCH   6  24
ATOM     24  O   UNL     1     -14.416  27.776 -22.085  1.00  0.00    -0.507 OA
ATOM     25  H   UNL     1     -15.048  27.576 -21.324  1.00  0.00     0.293 HD
ENDBRANCH   6  24
BRANCH   8  26
ATOM     26  O   UNL     1     -13.390  29.078 -26.574  1.00  0.00    -0.508 OA
ATOM     27  H   UNL     1     -13.340  29.767 -27.316  1.00  0.00     0.293 HD
ENDBRANCH   8  26
TORSDOF 6
ENDMDL
MODEL 4
REMARK VINA RESULT:    -7.127      2.133      6.926
REMARK INTER + INTRA:          -8.917
REMARK INTER:                  -8.616
REMARK INTRA:                  -0.300
REMARK UNBOUND:                -0.331
REMARK SMILES O=c1c(O)c(-c2ccc(O)c(O)c2)oc2cc(O)cc(O)c12
REMARK SMILES IDX 5 1 3 2 2 3 1 4 22 5 20 6 19 7 17 8 16 9 15 10 14 11 6 12
REMARK SMILES IDX 7 13 8 14 9 15 13 16 11 17 10 18 12 20 4 22 21 24 18 26
REMARK H PARENT 10 19 12 21 4 23 21 25 18 27
REMARK Flexibility Score: inf
ROOT
ATOM      1  C   UNL     1     -19.686  32.105 -23.479  1.00  0.00     0.180 A 
ATOM      2  C   UNL     1     -19.493  31.581 -24.770  1.00  0.00     0.208 A 
ATOM      3  C   UNL     1     -18.598  30.514 -24.946  1.00  0.00     0.238 A 
ATOM      4  O   UNL     1     -18.389  30.085 -26.110  1.00  0.00    -0.285 OA
ATOM      5  C   UNL     1     -17.919  29.972 -23.828  1.00  0.00     0.111 A 
ATOM      6  C   UNL     1     -17.021  28.865 -23.882  1.00  0.00     0.134 A 
ATOM      7  C   UNL     1     -16.305  28.498 -22.736  1.00  0.00     0.093 A 
ATOM      8  C   UNL     1     -16.505  29.154 -21.523  1.00  0.00     0.123 A 
ATOM      9  C   UNL     1     -17.426  30.200 -21.442  1.00  0.00     0.094 A 
ATOM     10  C   UNL     1     -18.126  30.612 -22.578  1.00  0.00     0.146 A 
ATOM     11  O   UNL     1     -18.985  31.618 -22.462  1.00  0.00    -0.452 OA
ENDROOT
BRANCH   1  12
ATOM     12  C   UNL     1     -20.631  33.212 -23.212  1.00  0.00     0.025 A 
ATOM     13  C   UNL     1     -21.912  32.970 -22.691  1.00  0.00     0.016 A 
ATOM     14  C   UNL     1     -22.778  34.033 -22.424  1.00  0.00     0.051 A 
ATOM     15  C   UNL     1     -22.380  35.354 -22.657  1.00  0.00     0.157 A 
ATOM     16  C   UNL     1     -20.222  34.537 -23.426  1.00  0.00     0.062 A 
ATOM     17  C   UNL     1     -21.083  35.610 -23.161  1.00  0.00     0.158 A 
BRANCH  15  18
ATOM     18  O   UNL     1     -23.294  36.370 -22.374  1.00  0.00    -0.504 OA
ATOM     19  H   UNL     1     -24.236  36.399 -22.735  1.00  0.00     0.293 HD
ENDBRANCH  15  18
BRANCH  17  20
ATOM     20  O   UNL     1     -20.612  36.901 -23.409  1.00  0.00    -0.504 OA
ATOM     21  H   UNL     1     -19.960  37.133 -24.145  1.00  0.00     0.293 HD
ENDBRANCH  17  20
ENDBRANCH   1  12
BRANCH   2  22
ATOM     22  O   UNL     1     -20.157  32.144 -25.863  1.00  0.00    -0.502 OA
ATOM     23  H   UNL     1     -20.607  31.582 -26.575  1.00  0.00     0.293 HD
ENDBRANCH   2  22
BRANCH   6  24
ATOM     24  O   UNL     1     -16.816  28.082 -25.023  1.00  0.00    -0.507 OA
ATOM     25  H   UNL     1     -16.952  28.401 -25.971  1.00  0.00     0.293 HD
ENDBRANCH   6  24
BRANCH   8  26
ATOM     26  O   UNL     1     -15.788  28.751 -20.398  1.00  0.00    -0.508 OA
ATOM     27  H   UNL     1     -15.966  27.861 -19.946  1.00  0.00     0.293 HD
ENDBRANCH   8  26
TORSDOF 6
ENDMDL
MODEL 5
REMARK VINA RESULT:    -7.101      2.551      3.635
REMARK INTER + INTRA:          -8.885
REMARK INTER:                  -8.573
REMARK INTRA:                  -0.312
REMARK UNBOUND:                -0.331
REMARK SMILES O=c1c(O)c(-c2ccc(O)c(O)c2)oc2cc(O)cc(O)c12
REMARK SMILES IDX 5 1 3 2 2 3 1 4 22 5 20 6 19 7 17 8 16 9 15 10 14 11 6 12
REMARK SMILES IDX 7 13 8 14 9 15 13 16 11 17 10 18 12 20 4 22 21 24 18 26
REMARK H PARENT 10 19 12 21 4 23 21 25 18 27
REMARK Flexibility Score: inf
ROOT
ATOM      1  C   UNL     1     -18.751  31.860 -22.821  1.00  0.00     0.180 A 
ATOM      2  C   UNL     1     -18.153  32.963 -23.457  1.00  0.00     0.208 A 
ATOM      3  C   UNL     1     -18.869  34.167 -23.548  1.00  0.00     0.238 A 
ATOM      4  O   UNL     1     -18.350  35.133 -24.165  1.00  0.00    -0.285 OA
ATOM      5  C   UNL     1     -20.166  34.259 -22.990  1.00  0.00     0.111 A 
ATOM      6  C   UNL     1     -20.967  35.441 -22.989  1.00  0.00     0.134 A 
ATOM      7  C   UNL     1     -22.286  35.381 -22.526  1.00  0.00     0.093 A 
ATOM      8  C   UNL     1     -22.813  34.202 -22.002  1.00  0.00     0.123 A 
ATOM      9  C   UNL     1     -22.020  33.055 -21.942  1.00  0.00     0.094 A 
ATOM     10  C   UNL     1     -20.712  33.074 -22.431  1.00  0.00     0.146 A 
ATOM     11  O   UNL     1     -19.994  31.959 -22.366  1.00  0.00    -0.452 OA
ENDROOT
BRANCH   1  12
ATOM     12  C   UNL     1     -18.049  30.566 -22.663  1.00  0.00     0.025 A 
ATOM     13  C   UNL     1     -18.040  29.610 -23.691  1.00  0.00     0.016 A 
ATOM     14  C   UNL     1     -17.351  28.406 -23.527  1.00  0.00     0.051 A 
ATOM     15  C   UNL     1     -16.649  28.138 -22.347  1.00  0.00     0.157 A 
ATOM     16  C   UNL     1     -17.329  30.310 -21.487  1.00  0.00     0.062 A 
ATOM     17  C   UNL     1     -16.635  29.105 -21.314  1.00  0.00     0.158 A 
BRANCH  15  18
ATOM     18  O   UNL     1     -15.985  26.914 -22.245  1.00  0.00    -0.504 OA
ATOM     19  H   UNL     1     -15.011  26.780 -22.471  1.00  0.00     0.293 HD
ENDBRANCH  15  18
BRANCH  17  20
ATOM     20  O   UNL     1     -15.949  28.914 -20.112  1.00  0.00    -0.504 OA
ATOM     21  H   UNL     1     -16.357  28.490 -19.291  1.00  0.00     0.293 HD
ENDBRANCH  17  20
ENDBRANCH   1  12
BRANCH   2  22
ATOM     22  O   UNL     1     -16.879  32.844 -24.019  1.00  0.00    -0.502 OA
ATOM     23  H   UNL     1     -16.634  32.097 -24.657  1.00  0.00     0.293 HD
ENDBRANCH   2  22
BRANCH   6  24
ATOM     24  O   UNL     1     -20.507  36.694 -23.406  1.00  0.00    -0.507 OA
ATOM     25  H   UNL     1     -19.750  37.202 -22.974  1.00  0.00     0.293 HD
ENDBRANCH   6  24
BRANCH   8  26
ATOM     26  O   UNL     1     -24.125  34.184 -21.534  1.00  0.00    -0.508 OA
ATOM     27  H   UNL     1     -24.581  33.318 -21.268  1.00  0.00     0.293 HD
ENDBRANCH   8  26
TORSDOF 6
ENDMDL
MODEL 6
REMARK VINA RESULT:    -6.999      2.361      3.077
REMARK INTER + INTRA:          -8.763
REMARK INTER:                  -8.492
REMARK INTRA:                  -0.271
REMARK UNBOUND:                -0.331
REMARK SMILES O=c1c(O)c(-c2ccc(O)c(O)c2)oc2cc(O)cc(O)c12
REMARK SMILES IDX 5 1 3 2 2 3 1 4 22 5 20 6 19 7 17 8 16 9 15 10 14 11 6 12
REMARK SMILES IDX 7 13 8 14 9 15 13 16 11 17 10 18 12 20 4 22 21 24 18 26
REMARK H PARENT 10 19 12 21 4 23 21 25 18 27
REMARK Flexibility Score: inf
ROOT
ATOM      1  C   UNL     1     -16.616  31.509 -23.780  1.00  0.00     0.180 A 
ATOM      2  C   UNL     1     -17.791  31.462 -24.549  1.00  0.00     0.208 A 
ATOM      3  C   UNL     1     -18.662  32.563 -24.532  1.00  0.00     0.238 A 
ATOM      4  O   UNL     1     -19.739  32.493 -25.180  1.00  0.00    -0.285 OA
ATOM      5  C   UNL     1     -18.340  33.704 -23.759  1.00  0.00     0.111 A 
ATOM      6  C   UNL     1     -19.128  34.892 -23.699  1.00  0.00     0.134 A 
ATOM      7  C   UNL     1     -18.780  35.907 -22.799  1.00  0.00     0.093 A 
ATOM      8  C   UNL     1     -17.638  35.807 -22.007  1.00  0.00     0.123 A 
ATOM      9  C   UNL     1     -16.826  34.676 -22.101  1.00  0.00     0.094 A 
ATOM     10  C   UNL     1     -17.167  33.631 -22.962  1.00  0.00     0.146 A 
ATOM     11  O   UNL     1     -16.374  32.567 -23.014  1.00  0.00    -0.452 OA
ENDROOT
BRANCH   1  12
ATOM     12  C   UNL     1     -15.637  30.399 -23.766  1.00  0.00     0.025 A 
ATOM     13  C   UNL     1     -14.791  30.157 -24.861  1.00  0.00     0.016 A 
ATOM     14  C   UNL     1     -13.859  29.117 -24.815  1.00  0.00     0.051 A 
ATOM     15  C   UNL     1     -13.743  28.310 -23.678  1.00  0.00     0.157 A 
ATOM     16  C   UNL     1     -15.508  29.605 -22.617  1.00  0.00     0.062 A 
ATOM     17  C   UNL     1     -14.577  28.560 -22.562  1.00  0.00     0.158 A 
BRANCH  15  18
ATOM     18  O   UNL     1     -12.795  27.286 -23.699  1.00  0.00    -0.504 OA
ATOM     19  H   UNL     1     -12.796  26.503 -23.062  1.00  0.00     0.293 HD
ENDBRANCH  15  18
BRANCH  17  20
ATOM     20  O   UNL     1     -14.512  27.804 -21.390  1.00  0.00    -0.504 OA
ATOM     21  H   UNL     1     -15.073  27.984 -20.569  1.00  0.00     0.293 HD
ENDBRANCH  17  20
ENDBRANCH   1  12
BRANCH   2  22
ATOM     22  O   UNL     1     -18.101  30.317 -25.289  1.00  0.00    -0.502 OA
ATOM     23  H   UNL     1     -18.425  29.461 -24.856  1.00  0.00     0.293 HD
ENDBRANCH   2  22
BRANCH   6  24
ATOM     24  O   UNL     1     -20.238  35.133 -24.513  1.00  0.00    -0.507 OA
ATOM     25  H   UNL     1     -21.185  35.237 -24.180  1.00  0.00     0.293 HD
ENDBRANCH   6  24
BRANCH   8  26
ATOM     26  O   UNL     1     -17.314  36.844 -21.135  1.00  0.00    -0.508 OA
ATOM     27  H   UNL     1     -17.801  36.968 -20.254  1.00  0.00     0.293 HD
ENDBRANCH   8  26
TORSDOF 6
ENDMDL
MODEL 7
REMARK VINA RESULT:    -6.926      1.759      3.430
REMARK INTER + INTRA:          -8.674
REMARK INTER:                  -8.727
REMARK INTRA:                   0.053
REMARK UNBOUND:                -0.331
REMARK SMILES O=c1c(O)c(-c2ccc(O)c(O)c2)oc2cc(O)cc(O)c12
REMARK SMILES IDX 5 1 3 2 2 3 1 4 22 5 20 6 19 7 17 8 16 9 15 10 14 11 6 12
REMARK SMILES IDX 7 13 8 14 9 15 13 16 11 17 10 18 12 20 4 22 21 24 18 26
REMARK H PARENT 10 19 12 21 4 23 21 25 18 27
REMARK Flexibility Score: inf
ROOT
ATOM      1  C   UNL     1     -18.351  32.305 -23.127  1.00  0.00     0.180 A 
ATOM      2  C   UNL     1     -18.275  33.631 -23.590  1.00  0.00     0.208 A 
ATOM      3  C   UNL     1     -19.413  34.448 -23.504  1.00  0.00     0.238 A 
ATOM      4  O   UNL     1     -19.355  35.616 -23.968  1.00  0.00    -0.285 OA
ATOM      5  C   UNL     1     -20.608  33.937 -22.943  1.00  0.00     0.111 A 
ATOM      6  C   UNL     1     -21.809  34.687 -22.769  1.00  0.00     0.134 A 
ATOM      7  C   UNL     1     -22.969  34.042 -22.325  1.00  0.00     0.093 A 
ATOM      8  C   UNL     1     -22.956  32.690 -21.984  1.00  0.00     0.123 A 
ATOM      9  C   UNL     1     -21.771  31.959 -22.093  1.00  0.00     0.094 A 
ATOM     10  C   UNL     1     -20.607  32.567 -22.568  1.00  0.00     0.146 A 
ATOM     11  O   UNL     1     -19.504  31.835 -22.667  1.00  0.00    -0.452 OA
ENDROOT
BRANCH   1  12
ATOM     12  C   UNL     1     -17.187  31.391 -23.161  1.00  0.00     0.025 A 
ATOM     13  C   UNL     1     -16.824  30.628 -22.040  1.00  0.00     0.016 A 
ATOM     14  C   UNL     1     -15.736  29.754 -22.104  1.00  0.00     0.051 A 
ATOM     15  C   UNL     1     -14.999  29.615 -23.285  1.00  0.00     0.157 A 
ATOM     16  C   UNL     1     -16.463  31.238 -24.353  1.00  0.00     0.062 A 
ATOM     17  C   UNL     1     -15.371  30.364 -24.427  1.00  0.00     0.158 A 
BRANCH  15  18
ATOM     18  O   UNL     1     -13.921  28.729 -23.281  1.00  0.00    -0.504 OA
ATOM     19  H   UNL     1     -12.979  28.987 -23.026  1.00  0.00     0.293 HD
ENDBRANCH  15  18
BRANCH  17  20
ATOM     20  O   UNL     1     -14.690  30.272 -25.643  1.00  0.00    -0.504 OA
ATOM     21  H   UNL     1     -15.050  29.794 -26.457  1.00  0.00     0.293 HD
ENDBRANCH  17  20
ENDBRANCH   1  12
BRANCH   2  22
ATOM     22  O   UNL     1     -17.092  34.110 -24.159  1.00  0.00    -0.502 OA
ATOM     23  H   UNL     1     -16.960  35.084 -24.401  1.00  0.00     0.293 HD
ENDBRANCH   2  22
BRANCH   6  24
ATOM     24  O   UNL     1     -21.908  36.064 -22.993  1.00  0.00    -0.507 OA
ATOM     25  H   UNL     1     -21.368  36.766 -22.509  1.00  0.00     0.293 HD
ENDBRANCH   6  24
BRANCH   8  26
ATOM     26  O   UNL     1     -24.125  32.084 -21.529  1.00  0.00    -0.508 OA
ATOM     27  H   UNL     1     -24.656  32.470 -20.757  1.00  0.00     0.293 HD
ENDBRANCH   8  26
TORSDOF 6
ENDMDL
MODEL 8
REMARK VINA RESULT:    -6.882      2.898      6.870
REMARK INTER + INTRA:          -8.621
REMARK INTER:                  -8.294
REMARK INTRA:                  -0.327
REMARK UNBOUND:                -0.331
REMARK SMILES O=c1c(O)c(-c2ccc(O)c(O)c2)oc2cc(O)cc(O)c12
REMARK SMILES IDX 5 1 3 2 2 3 1 4 22 5 20 6 19 7 17 8 16 9 15 10 14 11 6 12
REMARK SMILES IDX 7 13 8 14 9 15 13 16 11 17 10 18 12 20 4 22 21 24 18 26
REMARK H PARENT 10 19 12 21 4 23 21 25 18 27
REMARK Flexibility Score: inf
ROOT
ATOM      1  C   UNL     1     -16.973  32.159 -23.804  1.00  0.00     0.180 A 
ATOM      2  C   UNL     1     -17.982  31.899 -24.748  1.00  0.00     0.208 A 
ATOM      3  C   UNL     1     -17.852  30.787 -25.595  1.00  0.00     0.238 A 
ATOM      4  O   UNL     1     -18.730  30.590 -26.474  1.00  0.00    -0.285 OA
ATOM      5  C   UNL     1     -16.724  29.940 -25.477  1.00  0.00     0.111 A 
ATOM      6  C   UNL     1     -16.509  28.763 -26.255  1.00  0.00     0.134 A 
ATOM      7  C   UNL     1     -15.295  28.074 -26.144  1.00  0.00     0.093 A 
ATOM      8  C   UNL     1     -14.317  28.479 -25.238  1.00  0.00     0.123 A 
ATOM      9  C   UNL     1     -14.541  29.594 -24.428  1.00  0.00     0.094 A 
ATOM     10  C   UNL     1     -15.727  30.323 -24.542  1.00  0.00     0.146 A 
ATOM     11  O   UNL     1     -15.897  31.384 -23.762  1.00  0.00    -0.452 OA
ENDROOT
BRANCH   1  12
ATOM     12  C   UNL     1     -17.053  33.298 -22.860  1.00  0.00     0.025 A 
ATOM     13  C   UNL     1     -17.760  33.197 -21.652  1.00  0.00     0.016 A 
ATOM     14  C   UNL     1     -17.800  34.277 -20.766  1.00  0.00     0.051 A 
ATOM     15  C   UNL     1     -17.128  35.468 -21.061  1.00  0.00     0.157 A 
ATOM     16  C   UNL     1     -16.360  34.483 -23.149  1.00  0.00     0.062 A 
ATOM     17  C   UNL     1     -16.395  35.572 -22.267  1.00  0.00     0.158 A 
BRANCH  15  18
ATOM     18  O   UNL     1     -17.212  36.510 -20.136  1.00  0.00    -0.504 OA
ATOM     19  H   UNL     1     -17.585  36.410 -19.204  1.00  0.00     0.293 HD
ENDBRANCH  15  18
BRANCH  17  20
ATOM     20  O   UNL     1     -15.692  36.724 -22.625  1.00  0.00    -0.504 OA
ATOM     21  H   UNL     1     -15.636  37.082 -23.568  1.00  0.00     0.293 HD
ENDBRANCH  17  20
ENDBRANCH   1  12
BRANCH   2  22
ATOM     22  O   UNL     1     -19.077  32.760 -24.863  1.00  0.00    -0.502 OA
ATOM     23  H   UNL     1     -19.371  33.369 -24.109  1.00  0.00     0.293 HD
ENDBRANCH   2  22
BRANCH   6  24
ATOM     24  O   UNL     1     -17.458  28.218 -27.125  1.00  0.00    -0.507 OA
ATOM     25  H   UNL     1     -17.561  28.472 -28.096  1.00  0.00     0.293 HD
ENDBRANCH   6  24
BRANCH   8  26
ATOM     26  O   UNL     1     -13.127  27.760 -25.142  1.00  0.00    -0.508 OA
ATOM     27  H   UNL     1     -12.383  28.047 -24.516  1.00  0.00     0.293 HD
ENDBRANCH   8  26
TORSDOF 6
ENDMDL
MODEL 9
REMARK VINA RESULT:    -6.716      2.670      6.809
REMARK INTER + INTRA:          -8.421
REMARK INTER:                  -8.142
REMARK INTRA:                  -0.279
REMARK UNBOUND:                -0.331
REMARK SMILES O=c1c(O)c(-c2ccc(O)c(O)c2)oc2cc(O)cc(O)c12
REMARK SMILES IDX 5 1 3 2 2 3 1 4 22 5 20 6 19 7 17 8 16 9 15 10 14 11 6 12
REMARK SMILES IDX 7 13 8 14 9 15 13 16 11 17 10 18 12 20 4 22 21 24 18 26
REMARK H PARENT 10 19 12 21 4 23 21 25 18 27
REMARK Flexibility Score: inf
ROOT
ATOM      1  C   UNL     1     -17.687  31.566 -23.544  1.00  0.00     0.180 A 
ATOM      2  C   UNL     1     -17.393  30.898 -24.746  1.00  0.00     0.208 A 
ATOM      3  C   UNL     1     -16.800  29.626 -24.691  1.00  0.00     0.238 A 
ATOM      4  O   UNL     1     -16.490  29.056 -25.769  1.00  0.00    -0.285 OA
ATOM      5  C   UNL     1     -16.521  29.033 -23.436  1.00  0.00     0.111 A 
ATOM      6  C   UNL     1     -15.958  27.733 -23.261  1.00  0.00     0.134 A 
ATOM      7  C   UNL     1     -15.605  27.300 -21.977  1.00  0.00     0.093 A 
ATOM      8  C   UNL     1     -15.854  28.091 -20.857  1.00  0.00     0.123 A 
ATOM      9  C   UNL     1     -16.459  29.340 -21.010  1.00  0.00     0.094 A 
ATOM     10  C   UNL     1     -16.789  29.813 -22.282  1.00  0.00     0.146 A 
ATOM     11  O   UNL     1     -17.354  31.011 -22.385  1.00  0.00    -0.452 OA
ENDROOT
BRANCH   1  12
ATOM     12  C   UNL     1     -18.336  32.897 -23.521  1.00  0.00     0.025 A 
ATOM     13  C   UNL     1     -19.704  33.047 -23.795  1.00  0.00     0.016 A 
ATOM     14  C   UNL     1     -20.299  34.310 -23.743  1.00  0.00     0.051 A 
ATOM     15  C   UNL     1     -19.547  35.441 -23.407  1.00  0.00     0.157 A 
ATOM     16  C   UNL     1     -17.584  34.026 -23.163  1.00  0.00     0.062 A 
ATOM     17  C   UNL     1     -18.171  35.297 -23.109  1.00  0.00     0.158 A 
BRANCH  15  18
ATOM     18  O   UNL     1     -20.200  36.674 -23.378  1.00  0.00    -0.504 OA
ATOM     19  H   UNL     1     -21.118  36.818 -22.983  1.00  0.00     0.293 HD
ENDBRANCH  15  18
BRANCH  17  20
ATOM     20  O   UNL     1     -17.359  36.376 -22.756  1.00  0.00    -0.504 OA
ATOM     21  H   UNL     1     -17.628  37.095 -22.099  1.00  0.00     0.293 HD
ENDBRANCH  17  20
ENDBRANCH   1  12
BRANCH   2  22
ATOM     22  O   UNL     1     -17.657  31.511 -25.974  1.00  0.00    -0.502 OA
ATOM     23  H   UNL     1     -17.614  31.010 -26.853  1.00  0.00     0.293 HD
ENDBRANCH   2  22
BRANCH   6  24
ATOM     24  O   UNL     1     -15.752  26.825 -24.305  1.00  0.00    -0.507 OA
ATOM     25  H   UNL     1     -14.862  26.645 -24.743  1.00  0.00     0.293 HD
ENDBRANCH   6  24
BRANCH   8  26
ATOM     26  O   UNL     1     -15.504  27.622 -19.593  1.00  0.00    -0.508 OA
ATOM     27  H   UNL     1     -15.336  28.256 -18.820  1.00  0.00     0.293 HD
ENDBRANCH   8  26
TORSDOF 6
ENDMDL
