MODEL 1
REMARK VINA RESULT:    -4.349      0.000      0.000
REMARK INTER + INTRA:          -7.608
REMARK INTER:                  -6.637
REMARK INTRA:                  -0.970
REMARK UNBOUND:                -0.970
REMARK SMILES OC[C@@H]1O[C@@](CO)(O[C@@H]2O[C@@H](CO)[C@@H](O)[C@H](O)[C@@H]2O)[C@@H](O)[C@@H]1O
REMARK SMILES IDX 8 1 9 2 11 3 14 4 10 5 16 6 18 7 12 8 13 9 15 11 17 13 19 15
REMARK SMILES IDX 5 17 20 18 4 19 22 20 3 21 6 22 7 23 21 25 23 27 2 29 1 30
REMARK H PARENT 13 10 15 12 17 14 19 16 7 24 21 26 23 28 1 31
REMARK Flexibility Score: inf
ROOT
ATOM      1  O   UNL     1       9.021   4.021   2.135  1.00  0.00    -0.313 OA
ENDROOT
BRANCH   1   2
ATOM      2  C   UNL     1      10.015   5.037   2.242  1.00  0.00     0.285 C 
ATOM      3  C   UNL     1      11.293   6.646   1.027  1.00  0.00     0.178 C 
ATOM      4  C   UNL     1      12.701   6.046   1.380  1.00  0.00     0.177 C 
ATOM      5  O   UNL     1      10.313   5.640   0.980  1.00  0.00    -0.341 OA
ATOM      6  C   UNL     1      12.659   5.210   2.666  1.00  0.00     0.179 C 
ATOM      7  C   UNL     1      11.272   4.512   3.006  1.00  0.00     0.202 C 
BRANCH   3   8
ATOM      8  C   UNL     1      10.750   7.932   1.768  1.00  0.00     0.191 C 
BRANCH   8   9
ATOM      9  O   UNL     1       9.614   8.531   1.182  1.00  0.00    -0.394 OA
ATOM     10  H   UNL     1       9.912   9.088   0.434  1.00  0.00     0.210 HD
ENDBRANCH   8   9
ENDBRANCH   3   8
BRANCH   4  11
ATOM     11  O   UNL     1      13.711   7.036   1.453  1.00  0.00    -0.387 OA
ATOM     12  H   UNL     1      14.612   6.595   1.481  1.00  0.00     0.211 HD
ENDBRANCH   4  11
BRANCH   6  13
ATOM     13  O   UNL     1      13.680   4.233   2.596  1.00  0.00    -0.387 OA
ATOM     14  H   UNL     1      14.090   4.359   1.704  1.00  0.00     0.211 HD
ENDBRANCH   6  13
BRANCH   7  15
ATOM     15  O   UNL     1      11.404   3.108   3.014  1.00  0.00    -0.385 OA
ATOM     16  H   UNL     1      10.857   2.696   3.737  1.00  0.00     0.211 HD
ENDBRANCH   7  15
ENDBRANCH   1   2
BRANCH   1  17
ATOM     17  C   UNL     1       7.627   4.507   2.098  1.00  0.00     0.224 C 
ATOM     18  C   UNL     1       6.689   4.205   0.699  1.00  0.00     0.208 C 
ATOM     19  O   UNL     1       6.990   3.734   3.125  1.00  0.00    -0.337 OA
ATOM     20  C   UNL     1       5.954   2.963   1.140  1.00  0.00     0.180 C 
ATOM     21  C   UNL     1       5.781   3.194   2.627  1.00  0.00     0.179 C 
BRANCH  17  22
ATOM     22  C   UNL     1       7.679   5.954   2.741  1.00  0.00     0.225 C 
BRANCH  22  23
ATOM     23  O   UNL     1       7.193   7.038   1.999  1.00  0.00    -0.391 OA
ATOM     24  H   UNL     1       7.744   7.137   1.186  1.00  0.00     0.210 HD
ENDBRANCH  22  23
ENDBRANCH  17  22
BRANCH  18  25
ATOM     25  O   UNL     1       7.294   3.847  -0.527  1.00  0.00    -0.385 OA
ATOM     26  H   UNL     1       8.222   4.109  -0.520  1.00  0.00     0.211 HD
ENDBRANCH  18  25
BRANCH  20  27
ATOM     27  O   UNL     1       4.733   2.780   0.469  1.00  0.00    -0.387 OA
ATOM     28  H   UNL     1       4.464   1.828   0.558  1.00  0.00     0.211 HD
ENDBRANCH  20  27
BRANCH  21  29
ATOM     29  C   UNL     1       4.627   4.175   2.972  1.00  0.00     0.191 C 
BRANCH  29  30
ATOM     30  O   UNL     1       3.388   3.547   2.725  1.00  0.00    -0.394 OA
ATOM     31  H   UNL     1       3.437   3.210   1.774  1.00  0.00     0.210 HD
ENDBRANCH  29  30
ENDBRANCH  21  29
ENDBRANCH   1  17
TORSDOF 13
ENDMDL
MODEL 2
REMARK VINA RESULT:    -2.344      1.609      2.052
REMARK INTER + INTRA:          -4.548
REMARK INTER:                  -4.732
REMARK INTRA:                   0.184
REMARK UNBOUND:                -0.970
REMARK SMILES OC[C@@H]1O[C@@](CO)(O[C@@H]2O[C@@H](CO)[C@@H](O)[C@H](O)[C@@H]2O)[C@@H](O)[C@@H]1O
REMARK SMILES IDX 8 1 9 2 11 3 14 4 10 5 16 6 18 7 12 8 13 9 15 11 17 13 19 15
REMARK SMILES IDX 5 17 20 18 4 19 22 20 3 21 6 22 7 23 21 25 23 27 2 29 1 30
REMARK H PARENT 13 10 15 12 17 14 19 16 7 24 21 26 23 28 1 31
REMARK Flexibility Score: inf
ROOT
ATOM      1  O   UNL     1      10.493   5.327   1.227  1.00  0.00    -0.313 OA
ENDROOT
BRANCH   1   2
ATOM      2  C   UNL     1      11.169   6.317   1.997  1.00  0.00     0.285 C 
ATOM      3  C   UNL     1      12.044   8.538   1.976  1.00  0.00     0.178 C 
ATOM      4  C   UNL     1      13.536   8.136   2.258  1.00  0.00     0.177 C 
ATOM      5  O   UNL     1      11.374   7.529   1.264  1.00  0.00    -0.341 OA
ATOM      6  C   UNL     1      13.638   6.769   2.948  1.00  0.00     0.179 C 
ATOM      7  C   UNL     1      12.469   5.737   2.638  1.00  0.00     0.202 C 
BRANCH   3   8
ATOM      8  C   UNL     1      11.130   9.124   3.125  1.00  0.00     0.191 C 
BRANCH   8   9
ATOM      9  O   UNL     1       9.742   9.082   2.872  1.00  0.00    -0.394 OA
ATOM     10  H   UNL     1       9.380   9.983   2.995  1.00  0.00     0.210 HD
ENDBRANCH   8   9
ENDBRANCH   3   8
BRANCH   4  11
ATOM     11  O   UNL     1      14.237   9.125   2.990  1.00  0.00    -0.387 OA
ATOM     12  H   UNL     1      13.820  10.023   2.824  1.00  0.00     0.211 HD
ENDBRANCH   4  11
BRANCH   6  13
ATOM     13  O   UNL     1      14.885   6.192   2.613  1.00  0.00    -0.387 OA
ATOM     14  H   UNL     1      15.296   6.829   1.977  1.00  0.00     0.211 HD
ENDBRANCH   6  13
BRANCH   7  15
ATOM     15  O   UNL     1      12.972   4.587   1.995  1.00  0.00    -0.385 OA
ATOM     16  H   UNL     1      13.963   4.624   1.908  1.00  0.00     0.211 HD
ENDBRANCH   7  15
ENDBRANCH   1   2
BRANCH   1  17
ATOM     17  C   UNL     1       9.023   5.318   1.366  1.00  0.00     0.224 C 
ATOM     18  C   UNL     1       8.136   4.046   0.641  1.00  0.00     0.208 C 
ATOM     19  O   UNL     1       8.834   5.123   2.774  1.00  0.00    -0.337 OA
ATOM     20  C   UNL     1       7.979   3.128   1.828  1.00  0.00     0.180 C 
ATOM     21  C   UNL     1       7.880   4.101   2.985  1.00  0.00     0.179 C 
BRANCH  17  22
ATOM     22  C   UNL     1       8.582   6.828   1.167  1.00  0.00     0.225 C 
BRANCH  22  23
ATOM     23  O   UNL     1       7.786   7.431   2.149  1.00  0.00    -0.391 OA
ATOM     24  H   UNL     1       7.773   6.849   2.947  1.00  0.00     0.210 HD
ENDBRANCH  22  23
ENDBRANCH  17  22
BRANCH  18  25
ATOM     25  O   UNL     1       8.707   3.236  -0.366  1.00  0.00    -0.385 OA
ATOM     26  H   UNL     1       8.009   2.835  -0.896  1.00  0.00     0.211 HD
ENDBRANCH  18  25
BRANCH  20  27
ATOM     27  O   UNL     1       6.861   2.284   1.725  1.00  0.00    -0.387 OA
ATOM     28  H   UNL     1       6.177   2.734   1.160  1.00  0.00     0.211 HD
ENDBRANCH  20  27
BRANCH  21  29
ATOM     29  C   UNL     1       6.479   4.758   3.124  1.00  0.00     0.191 C 
BRANCH  29  30
ATOM     30  O   UNL     1       5.486   3.756   3.107  1.00  0.00    -0.394 OA
ATOM     31  H   UNL     1       5.439   3.402   4.053  1.00  0.00     0.210 HD
ENDBRANCH  29  30
ENDBRANCH  21  29
ENDBRANCH   1  17
TORSDOF 13
ENDMDL
MODEL 3
REMARK VINA RESULT:    -2.290      1.995      6.824
REMARK INTER + INTRA:          -4.466
REMARK INTER:                  -3.815
REMARK INTRA:                  -0.651
REMARK UNBOUND:                -0.970
REMARK SMILES OC[C@@H]1O[C@@](CO)(O[C@@H]2O[C@@H](CO)[C@@H](O)[C@H](O)[C@@H]2O)[C@@H](O)[C@@H]1O
REMARK SMILES IDX 8 1 9 2 11 3 14 4 10 5 16 6 18 7 12 8 13 9 15 11 17 13 19 15
REMARK SMILES IDX 5 17 20 18 4 19 22 20 3 21 6 22 7 23 21 25 23 27 2 29 1 30
REMARK H PARENT 13 10 15 12 17 14 19 16 7 24 21 26 23 28 1 31
REMARK Flexibility Score: inf
ROOT
ATOM      1  O   UNL     1      11.267   5.426   2.395  1.00  0.00    -0.313 OA
ENDROOT
BRANCH   1   2
ATOM      2  C   UNL     1       9.909   5.774   2.138  1.00  0.00     0.285 C 
ATOM      3  C   UNL     1       8.042   7.038   2.923  1.00  0.00     0.178 C 
ATOM      4  C   UNL     1       7.079   5.813   3.124  1.00  0.00     0.177 C 
ATOM      5  O   UNL     1       9.382   6.666   3.125  1.00  0.00    -0.341 OA
ATOM      6  C   UNL     1       7.491   4.616   2.256  1.00  0.00     0.179 C 
ATOM      7  C   UNL     1       9.037   4.500   1.907  1.00  0.00     0.202 C 
BRANCH   3   8
ATOM      8  C   UNL     1       7.899   7.985   1.666  1.00  0.00     0.191 C 
BRANCH   8   9
ATOM      9  O   UNL     1       6.594   8.100   1.142  1.00  0.00    -0.394 OA
ATOM     10  H   UNL     1       6.133   8.819   1.619  1.00  0.00     0.210 HD
ENDBRANCH   8   9
ENDBRANCH   3   8
BRANCH   4  11
ATOM     11  O   UNL     1       5.721   6.149   2.911  1.00  0.00    -0.387 OA
ATOM     12  H   UNL     1       5.640   7.136   2.751  1.00  0.00     0.211 HD
ENDBRANCH   4  11
BRANCH   6  13
ATOM     13  O   UNL     1       7.056   3.431   2.894  1.00  0.00    -0.387 OA
ATOM     14  H   UNL     1       6.251   3.153   2.390  1.00  0.00     0.211 HD
ENDBRANCH   6  13
BRANCH   7  15
ATOM     15  O   UNL     1       9.585   3.315   2.441  1.00  0.00    -0.385 OA
ATOM     16  H   UNL     1       9.195   3.104   3.332  1.00  0.00     0.211 HD
ENDBRANCH   7  15
ENDBRANCH   1   2
BRANCH   1  17
ATOM     17  C   UNL     1      12.271   6.240   1.680  1.00  0.00     0.224 C 
ATOM     18  C   UNL     1      12.400   7.904   2.059  1.00  0.00     0.208 C 
ATOM     19  O   UNL     1      13.514   5.678   2.122  1.00  0.00    -0.337 OA
ATOM     20  C   UNL     1      13.541   7.858   3.045  1.00  0.00     0.180 C 
ATOM     21  C   UNL     1      14.387   6.718   2.517  1.00  0.00     0.179 C 
BRANCH  17  22
ATOM     22  C   UNL     1      12.193   5.757   0.172  1.00  0.00     0.225 C 
BRANCH  22  23
ATOM     23  O   UNL     1      11.050   6.066  -0.575  1.00  0.00    -0.391 OA
ATOM     24  H   UNL     1      10.269   5.634  -0.152  1.00  0.00     0.210 HD
ENDBRANCH  22  23
ENDBRANCH  17  22
BRANCH  18  25
ATOM     25  O   UNL     1      11.365   8.583   2.741  1.00  0.00    -0.385 OA
ATOM     26  H   UNL     1      11.151   9.400   2.276  1.00  0.00     0.211 HD
ENDBRANCH  18  25
BRANCH  20  27
ATOM     27  O   UNL     1      14.246   9.071   3.125  1.00  0.00    -0.387 OA
ATOM     28  H   UNL     1      13.593   9.808   3.258  1.00  0.00     0.211 HD
ENDBRANCH  20  27
BRANCH  21  29
ATOM     29  C   UNL     1      15.265   7.111   1.297  1.00  0.00     0.191 C 
BRANCH  29  30
ATOM     30  O   UNL     1      16.483   7.658   1.752  1.00  0.00    -0.394 OA
ATOM     31  H   UNL     1      16.538   8.581   1.342  1.00  0.00     0.210 HD
ENDBRANCH  29  30
ENDBRANCH  21  29
ENDBRANCH   1  17
TORSDOF 13
ENDMDL
MODEL 4
REMARK VINA RESULT:    -2.014      1.460      6.738
REMARK INTER + INTRA:          -4.044
REMARK INTER:                  -4.063
REMARK INTRA:                   0.019
REMARK UNBOUND:                -0.970
REMARK SMILES OC[C@@H]1O[C@@](CO)(O[C@@H]2O[C@@H](CO)[C@@H](O)[C@H](O)[C@@H]2O)[C@@H](O)[C@@H]1O
REMARK SMILES IDX 8 1 9 2 11 3 14 4 10 5 16 6 18 7 12 8 13 9 15 11 17 13 19 15
REMARK SMILES IDX 5 17 20 18 4 19 22 20 3 21 6 22 7 23 21 25 23 27 2 29 1 30
REMARK H PARENT 13 10 15 12 17 14 19 16 7 24 21 26 23 28 1 31
REMARK Flexibility Score: inf
ROOT
ATOM      1  O   UNL     1      10.138   6.530   1.430  1.00  0.00    -0.313 OA
ENDROOT
BRANCH   1   2
ATOM      2  C   UNL     1       9.165   5.612   1.924  1.00  0.00     0.285 C 
ATOM      3  C   UNL     1       7.535   3.982   1.305  1.00  0.00     0.178 C 
ATOM      4  C   UNL     1       6.303   4.725   1.936  1.00  0.00     0.177 C 
ATOM      5  O   UNL     1       8.510   4.897   0.873  1.00  0.00    -0.341 OA
ATOM      6  C   UNL     1       6.730   5.693   3.048  1.00  0.00     0.179 C 
ATOM      7  C   UNL     1       8.187   6.315   2.919  1.00  0.00     0.202 C 
BRANCH   3   8
ATOM      8  C   UNL     1       8.200   2.748   2.035  1.00  0.00     0.191 C 
BRANCH   8   9
ATOM      9  O   UNL     1       7.301   1.875   2.685  1.00  0.00    -0.394 OA
ATOM     10  H   UNL     1       7.493   1.896   3.644  1.00  0.00     0.210 HD
ENDBRANCH   8   9
ENDBRANCH   3   8
BRANCH   4  11
ATOM     11  O   UNL     1       5.308   3.831   2.399  1.00  0.00    -0.387 OA
ATOM     12  H   UNL     1       5.409   2.947   1.935  1.00  0.00     0.211 HD
ENDBRANCH   4  11
BRANCH   6  13
ATOM     13  O   UNL     1       5.774   6.733   3.125  1.00  0.00    -0.387 OA
ATOM     14  H   UNL     1       4.950   6.349   2.733  1.00  0.00     0.211 HD
ENDBRANCH   6  13
BRANCH   7  15
ATOM     15  O   UNL     1       8.125   7.717   2.782  1.00  0.00    -0.385 OA
ATOM     16  H   UNL     1       8.945   8.076   2.346  1.00  0.00     0.211 HD
ENDBRANCH   7  15
ENDBRANCH   1   2
BRANCH   1  17
ATOM     17  C   UNL     1      11.350   6.669   2.261  1.00  0.00     0.224 C 
ATOM     18  C   UNL     1      12.026   5.265   2.970  1.00  0.00     0.208 C 
ATOM     19  O   UNL     1      12.340   7.100   1.317  1.00  0.00    -0.337 OA
ATOM     20  C   UNL     1      13.093   4.947   1.952  1.00  0.00     0.180 C 
ATOM     21  C   UNL     1      13.511   6.322   1.472  1.00  0.00     0.179 C 
BRANCH  17  22
ATOM     22  C   UNL     1      11.109   7.976   3.125  1.00  0.00     0.225 C 
BRANCH  22  23
ATOM     23  O   UNL     1      10.624   9.124   2.487  1.00  0.00    -0.391 OA
ATOM     24  H   UNL     1      11.369   9.761   2.372  1.00  0.00     0.210 HD
ENDBRANCH  22  23
ENDBRANCH  17  22
BRANCH  18  25
ATOM     25  O   UNL     1      11.278   4.072   3.090  1.00  0.00    -0.385 OA
ATOM     26  H   UNL     1      11.859   3.311   2.973  1.00  0.00     0.211 HD
ENDBRANCH  18  25
BRANCH  20  27
ATOM     27  O   UNL     1      14.161   4.208   2.489  1.00  0.00    -0.387 OA
ATOM     28  H   UNL     1      14.240   3.356   1.983  1.00  0.00     0.211 HD
ENDBRANCH  20  27
BRANCH  21  29
ATOM     29  C   UNL     1      14.462   7.059   2.454  1.00  0.00     0.191 C 
BRANCH  29  30
ATOM     30  O   UNL     1      15.792   6.941   1.997  1.00  0.00    -0.394 OA
ATOM     31  H   UNL     1      15.804   6.126   1.398  1.00  0.00     0.210 HD
ENDBRANCH  29  30
ENDBRANCH  21  29
ENDBRANCH   1  17
TORSDOF 13
ENDMDL
