MODEL 1
REMARK VINA RESULT:    -3.916      0.000      0.000
REMARK INTER + INTRA:          -4.774
REMARK INTER:                  -5.519
REMARK INTRA:                   0.745
REMARK UNBOUND:                 0.745
REMARK SMILES CC1=CCC(=C(C)C)C(=O)CC(C)=CCC1
REMARK SMILES IDX 12 1 14 2 13 3 15 4 16 5 2 6 1 7 3 8 11 10 9 11 10 12 5 13
REMARK SMILES IDX 6 14 7 15 8 16 4 17
REMARK H PARENT
REMARK Flexibility Score: 60.00
ROOT
ATOM      1  C   UNL     1     -15.534 -39.148 209.019  1.00  0.00    -0.070 C 
ATOM      2  C   UNL     1     -15.374 -38.624 210.257  1.00  0.00    -0.027 C 
ATOM      3  C   UNL     1     -14.712 -40.364 208.667  1.00  0.00     0.039 C 
ENDROOT
BRANCH   2   4
ATOM      4  C   UNL     1     -16.011 -37.360 210.782  1.00  0.00     0.032 C 
BRANCH   4   5
ATOM      5  C   UNL     1     -17.030 -37.630 211.905  1.00  0.00     0.034 C 
BRANCH   5   6
ATOM      6  C   UNL     1     -17.254 -39.113 212.129  1.00  0.00    -0.077 C 
ATOM      7  C   UNL     1     -16.406 -39.817 213.157  1.00  0.00     0.039 C 
ATOM      8  C   UNL     1     -18.192 -39.837 211.478  1.00  0.00    -0.023 CG0
ATOM      9  G   UNL     1     -19.157 -39.305 210.445  1.00  0.00     0.000 G0
ENDBRANCH   5   6
ENDBRANCH   4   5
ENDBRANCH   2   4
BRANCH   1  10
ATOM     10  C   UNL     1     -16.436 -38.544 207.956  1.00  0.00     0.111 C 
BRANCH  10  11
ATOM     11  C   UNL     1     -17.846 -38.361 208.462  1.00  0.00     0.163 C 
ATOM     12  O   UNL     1     -18.377 -37.224 208.340  1.00  0.00    -0.294 OA
BRANCH  11  13
ATOM     13  C   UNL     1     -18.632 -39.493 209.045  1.00  0.00    -0.002 C 
ATOM     14  C   UNL     1     -18.910 -40.622 208.325  1.00  0.00    -0.069 C 
ATOM     15  C   UNL     1     -19.673 -41.777 208.936  1.00  0.00     0.039 C 
ATOM     16  C   UNL     1     -18.501 -40.758 206.876  1.00  0.00     0.039 C 
BRANCH  13  17
ATOM     17  C   UNL     1     -19.174 -39.304 210.451  1.00  0.00     0.066 CG0
ATOM     18  G   UNL     1     -18.185 -39.843 211.458  1.00  0.00     0.000 G0
ENDBRANCH  13  17
ENDBRANCH  11  13
ENDBRANCH  10  11
ENDBRANCH   1  10
TORSDOF 0
ENDMDL
MODEL 2
REMARK VINA RESULT:    -3.642     13.621     15.770
REMARK INTER + INTRA:          -4.387
REMARK INTER:                  -4.728
REMARK INTRA:                   0.341
REMARK UNBOUND:                 0.745
REMARK SMILES CC1=CCC(=C(C)C)C(=O)CC(C)=CCC1
REMARK SMILES IDX 12 1 14 2 13 3 15 4 16 5 2 6 1 7 3 8 11 10 9 11 10 12 5 13
REMARK SMILES IDX 6 14 7 15 8 16 4 17
REMARK H PARENT
REMARK Flexibility Score: 60.00
ROOT
ATOM      1  C   UNL     1      -5.602 -39.461 214.884  1.00  0.00    -0.070 C 
ATOM      2  C   UNL     1      -4.712 -40.090 214.082  1.00  0.00    -0.027 C 
ATOM      3  C   UNL     1      -7.000 -39.262 214.350  1.00  0.00     0.039 C 
ENDROOT
BRANCH   2   4
ATOM      4  C   UNL     1      -3.244 -40.301 214.368  1.00  0.00     0.032 C 
BRANCH   4   5
ATOM      5  C   UNL     1      -2.996 -41.414 215.403  1.00  0.00     0.034 C 
BRANCH   5   6
ATOM      6  C   UNL     1      -2.065 -40.967 216.513  1.00  0.00    -0.077 C 
ATOM      7  C   UNL     1      -0.678 -40.508 216.141  1.00  0.00     0.039 C 
ATOM      8  C   UNL     1      -2.415 -40.929 217.818  1.00  0.00    -0.023 CG0
ATOM      9  G   UNL     1      -3.764 -41.312 218.380  1.00  0.00     0.000 G0
ENDBRANCH   5   6
ENDBRANCH   4   5
ENDBRANCH   2   4
BRANCH   1  10
ATOM     10  C   UNL     1      -5.256 -38.892 216.249  1.00  0.00     0.111 C 
BRANCH  10  11
ATOM     11  C   UNL     1      -5.601 -39.856 217.357  1.00  0.00     0.163 C 
ATOM     12  O   UNL     1      -6.687 -40.491 217.275  1.00  0.00    -0.294 OA
BRANCH  11  13
ATOM     13  C   UNL     1      -4.673 -40.110 218.504  1.00  0.00    -0.002 C 
ATOM     14  C   UNL     1      -4.590 -39.252 219.565  1.00  0.00    -0.069 C 
ATOM     15  C   UNL     1      -3.676 -39.536 220.738  1.00  0.00     0.039 C 
ATOM     16  C   UNL     1      -5.376 -37.961 219.604  1.00  0.00     0.039 C 
BRANCH  13  17
ATOM     17  C   UNL     1      -3.771 -41.327 218.404  1.00  0.00     0.066 CG0
ATOM     18  G   UNL     1      -2.428 -40.924 217.842  1.00  0.00     0.000 G0
ENDBRANCH  13  17
ENDBRANCH  11  13
ENDBRANCH  10  11
ENDBRANCH   1  10
TORSDOF 0
ENDMDL
MODEL 3
REMARK VINA RESULT:    -3.586      2.213      4.527
REMARK INTER + INTRA:          -4.308
REMARK INTER:                  -4.946
REMARK INTRA:                   0.638
REMARK UNBOUND:                 0.745
REMARK SMILES CC1=CCC(=C(C)C)C(=O)CC(C)=CCC1
REMARK SMILES IDX 12 1 14 2 13 3 15 4 16 5 2 6 1 7 3 8 11 10 9 11 10 12 5 13
REMARK SMILES IDX 6 14 7 15 8 16 4 17
REMARK H PARENT
REMARK Flexibility Score: 60.00
ROOT
ATOM      1  C   UNL     1     -18.396 -38.336 209.450  1.00  0.00    -0.070 C 
ATOM      2  C   UNL     1     -18.768 -38.717 208.205  1.00  0.00    -0.027 C 
ATOM      3  C   UNL     1     -19.309 -38.709 210.593  1.00  0.00     0.039 C 
ENDROOT
BRANCH   2   4
ATOM      4  C   UNL     1     -18.065 -38.365 206.916  1.00  0.00     0.032 C 
BRANCH   4   5
ATOM      5  C   UNL     1     -16.552 -38.649 206.967  1.00  0.00     0.034 C 
BRANCH   5   6
ATOM      6  C   UNL     1     -16.253 -40.121 207.170  1.00  0.00    -0.077 C 
ATOM      7  C   UNL     1     -16.809 -41.107 206.174  1.00  0.00     0.039 C 
ATOM      8  C   UNL     1     -15.492 -40.601 208.179  1.00  0.00    -0.023 CG0
ATOM      9  G   UNL     1     -14.821 -39.773 209.249  1.00  0.00     0.000 G0
ENDBRANCH   5   6
ENDBRANCH   4   5
ENDBRANCH   2   4
BRANCH   1  10
ATOM     10  C   UNL     1     -17.158 -37.506 209.746  1.00  0.00     0.111 C 
BRANCH  10  11
ATOM     11  C   UNL     1     -16.235 -38.208 210.711  1.00  0.00     0.163 C 
ATOM     12  O   UNL     1     -15.935 -37.616 211.783  1.00  0.00    -0.294 OA
BRANCH  11  13
ATOM     13  C   UNL     1     -15.721 -39.590 210.453  1.00  0.00    -0.002 C 
ATOM     14  C   UNL     1     -16.009 -40.632 211.290  1.00  0.00    -0.069 C 
ATOM     15  C   UNL     1     -15.516 -42.034 211.001  1.00  0.00     0.039 C 
ATOM     16  C   UNL     1     -16.802 -40.431 212.562  1.00  0.00     0.039 C 
BRANCH  13  17
ATOM     17  C   UNL     1     -14.801 -39.771 209.259  1.00  0.00     0.066 CG0
ATOM     18  G   UNL     1     -15.501 -40.580 208.192  1.00  0.00     0.000 G0
ENDBRANCH  13  17
ENDBRANCH  11  13
ENDBRANCH  10  11
ENDBRANCH   1  10
TORSDOF 0
ENDMDL
MODEL 4
REMARK VINA RESULT:    -3.514      1.867      3.221
REMARK INTER + INTRA:          -4.207
REMARK INTER:                  -4.850
REMARK INTRA:                   0.643
REMARK UNBOUND:                 0.745
REMARK SMILES CC1=CCC(=C(C)C)C(=O)CC(C)=CCC1
REMARK SMILES IDX 12 1 14 2 13 3 15 4 16 5 2 6 1 7 3 8 11 10 9 11 10 12 5 13
REMARK SMILES IDX 6 14 7 15 8 16 4 17
REMARK H PARENT
REMARK Flexibility Score: 60.00
ROOT
ATOM      1  C   UNL     1     -16.546 -38.168 211.054  1.00  0.00    -0.070 C 
ATOM      2  C   UNL     1     -15.944 -39.291 211.513  1.00  0.00    -0.027 C 
ATOM      3  C   UNL     1     -15.661 -37.099 210.460  1.00  0.00     0.039 C 
ENDROOT
BRANCH   2   4
ATOM      4  C   UNL     1     -16.618 -40.434 212.234  1.00  0.00     0.032 C 
BRANCH   4   5
ATOM      5  C   UNL     1     -17.009 -41.585 211.288  1.00  0.00     0.034 C 
BRANCH   5   6
ATOM      6  C   UNL     1     -16.257 -41.524 209.972  1.00  0.00    -0.077 C 
ATOM      7  C   UNL     1     -14.813 -41.956 209.954  1.00  0.00     0.039 C 
ATOM      8  C   UNL     1     -16.815 -41.130 208.806  1.00  0.00    -0.023 CG0
ATOM      9  G   UNL     1     -18.250 -40.698 208.616  1.00  0.00     0.000 G0
ENDBRANCH   5   6
ENDBRANCH   4   5
ENDBRANCH   2   4
BRANCH   1  10
ATOM     10  C   UNL     1     -18.037 -37.902 211.164  1.00  0.00     0.111 C 
BRANCH  10  11
ATOM     11  C   UNL     1     -18.836 -38.855 210.309  1.00  0.00     0.163 C 
ATOM     12  O   UNL     1     -19.915 -39.311 210.777  1.00  0.00    -0.294 OA
BRANCH  11  13
ATOM     13  C   UNL     1     -18.412 -39.221 208.921  1.00  0.00    -0.002 C 
ATOM     14  C   UNL     1     -18.233 -38.274 207.951  1.00  0.00    -0.069 C 
ATOM     15  C   UNL     1     -17.767 -38.651 206.561  1.00  0.00     0.039 C 
ATOM     16  C   UNL     1     -18.525 -36.813 208.206  1.00  0.00     0.039 C 
BRANCH  13  17
ATOM     17  C   UNL     1     -18.260 -40.700 208.615  1.00  0.00     0.066 CG0
ATOM     18  G   UNL     1     -16.818 -41.114 208.791  1.00  0.00     0.000 G0
ENDBRANCH  13  17
ENDBRANCH  11  13
ENDBRANCH  10  11
ENDBRANCH   1  10
TORSDOF 0
ENDMDL
MODEL 5
REMARK VINA RESULT:    -3.506      1.799      3.939
REMARK INTER + INTRA:          -4.196
REMARK INTER:                  -5.080
REMARK INTRA:                   0.884
REMARK UNBOUND:                 0.745
REMARK SMILES CC1=CCC(=C(C)C)C(=O)CC(C)=CCC1
REMARK SMILES IDX 12 1 14 2 13 3 15 4 16 5 2 6 1 7 3 8 11 10 9 11 10 12 5 13
REMARK SMILES IDX 6 14 7 15 8 16 4 17
REMARK H PARENT
REMARK Flexibility Score: 60.00
ROOT
ATOM      1  C   UNL     1     -16.746 -38.057 209.612  1.00  0.00    -0.070 C 
ATOM      2  C   UNL     1     -16.948 -38.469 208.338  1.00  0.00    -0.027 C 
ATOM      3  C   UNL     1     -15.318 -37.873 210.065  1.00  0.00     0.039 C 
ENDROOT
BRANCH   2   4
ATOM      4  C   UNL     1     -18.278 -38.816 207.712  1.00  0.00     0.032 C 
BRANCH   4   5
ATOM      5  C   UNL     1     -18.447 -40.329 207.477  1.00  0.00     0.034 C 
BRANCH   5   6
ATOM      6  C   UNL     1     -17.238 -41.118 207.941  1.00  0.00    -0.077 C 
ATOM      7  C   UNL     1     -16.089 -41.297 206.981  1.00  0.00     0.039 C 
ATOM      8  C   UNL     1     -17.118 -41.651 209.178  1.00  0.00    -0.023 CG0
ATOM      9  G   UNL     1     -18.141 -41.548 210.284  1.00  0.00     0.000 G0
ENDBRANCH   5   6
ENDBRANCH   4   5
ENDBRANCH   2   4
BRANCH   1  10
ATOM     10  C   UNL     1     -17.864 -37.839 210.617  1.00  0.00     0.111 C 
BRANCH  10  11
ATOM     11  C   UNL     1     -18.599 -39.122 210.920  1.00  0.00     0.163 C 
ATOM     12  O   UNL     1     -19.859 -39.108 210.878  1.00  0.00    -0.294 OA
BRANCH  11  13
ATOM     13  C   UNL     1     -17.876 -40.400 211.209  1.00  0.00    -0.002 C 
ATOM     14  C   UNL     1     -16.951 -40.491 212.213  1.00  0.00    -0.069 C 
ATOM     15  C   UNL     1     -16.253 -41.798 212.522  1.00  0.00     0.039 C 
ATOM     16  C   UNL     1     -16.555 -39.288 213.037  1.00  0.00     0.039 C 
BRANCH  13  17
ATOM     17  C   UNL     1     -18.158 -41.575 210.290  1.00  0.00     0.066 CG0
ATOM     18  G   UNL     1     -17.118 -41.630 209.196  1.00  0.00     0.000 G0
ENDBRANCH  13  17
ENDBRANCH  11  13
ENDBRANCH  10  11
ENDBRANCH   1  10
TORSDOF 0
ENDMDL
MODEL 6
REMARK VINA RESULT:    -3.444      1.852      3.426
REMARK INTER + INTRA:          -4.108
REMARK INTER:                  -4.898
REMARK INTRA:                   0.790
REMARK UNBOUND:                 0.745
REMARK SMILES CC1=CCC(=C(C)C)C(=O)CC(C)=CCC1
REMARK SMILES IDX 12 1 14 2 13 3 15 4 16 5 2 6 1 7 3 8 11 10 9 11 10 12 5 13
REMARK SMILES IDX 6 14 7 15 8 16 4 17
REMARK H PARENT
REMARK Flexibility Score: 60.00
ROOT
ATOM      1  C   UNL     1     -16.647 -38.537 212.156  1.00  0.00    -0.070 C 
ATOM      2  C   UNL     1     -16.697 -39.627 212.957  1.00  0.00    -0.027 C 
ATOM      3  C   UNL     1     -17.430 -37.320 212.587  1.00  0.00     0.039 C 
ENDROOT
BRANCH   2   4
ATOM      4  C   UNL     1     -16.082 -40.976 212.670  1.00  0.00     0.032 C 
BRANCH   4   5
ATOM      5  C   UNL     1     -17.121 -42.114 212.667  1.00  0.00     0.034 C 
BRANCH   5   6
ATOM      6  C   UNL     1     -18.177 -41.921 211.597  1.00  0.00    -0.077 C 
ATOM      7  C   UNL     1     -19.627 -41.959 212.009  1.00  0.00     0.039 C 
ATOM      8  C   UNL     1     -17.895 -41.690 210.295  1.00  0.00    -0.023 CG0
ATOM      9  G   UNL     1     -16.511 -41.581 209.699  1.00  0.00     0.000 G0
ENDBRANCH   5   6
ENDBRANCH   4   5
ENDBRANCH   2   4
BRANCH   1  10
ATOM     10  C   UNL     1     -15.909 -38.496 210.828  1.00  0.00     0.111 C 
BRANCH  10  11
ATOM     11  C   UNL     1     -16.760 -39.031 209.703  1.00  0.00     0.163 C 
ATOM     12  O   UNL     1     -17.789 -38.380 209.374  1.00  0.00    -0.294 OA
BRANCH  11  13
ATOM     13  C   UNL     1     -16.387 -40.267 208.945  1.00  0.00    -0.002 C 
ATOM     14  C   UNL     1     -15.997 -40.218 207.635  1.00  0.00    -0.069 C 
ATOM     15  C   UNL     1     -15.585 -41.468 206.889  1.00  0.00     0.039 C 
ATOM     16  C   UNL     1     -15.994 -38.921 206.859  1.00  0.00     0.039 C 
BRANCH  13  17
ATOM     17  C   UNL     1     -16.530 -41.592 209.674  1.00  0.00     0.066 CG0
ATOM     18  G   UNL     1     -17.900 -41.683 210.304  1.00  0.00     0.000 G0
ENDBRANCH  13  17
ENDBRANCH  11  13
ENDBRANCH  10  11
ENDBRANCH   1  10
TORSDOF 0
ENDMDL
MODEL 7
REMARK VINA RESULT:    -3.440     12.480     14.530
REMARK INTER + INTRA:          -4.102
REMARK INTER:                  -4.475
REMARK INTRA:                   0.372
REMARK UNBOUND:                 0.745
REMARK SMILES CC1=CCC(=C(C)C)C(=O)CC(C)=CCC1
REMARK SMILES IDX 12 1 14 2 13 3 15 4 16 5 2 6 1 7 3 8 11 10 9 11 10 12 5 13
REMARK SMILES IDX 6 14 7 15 8 16 4 17
REMARK H PARENT
REMARK Flexibility Score: 60.00
ROOT
ATOM      1  C   UNL     1      -3.523 -41.473 212.788  1.00  0.00    -0.070 C 
ATOM      2  C   UNL     1      -4.776 -41.467 212.274  1.00  0.00    -0.027 C 
ATOM      3  C   UNL     1      -2.372 -41.386 211.816  1.00  0.00     0.039 C 
ENDROOT
BRANCH   2   4
ATOM      4  C   UNL     1      -6.059 -41.648 213.048  1.00  0.00     0.032 C 
BRANCH   4   5
ATOM      5  C   UNL     1      -6.610 -40.320 213.602  1.00  0.00     0.034 C 
BRANCH   5   6
ATOM      6  C   UNL     1      -6.930 -40.407 215.082  1.00  0.00    -0.077 C 
ATOM      7  C   UNL     1      -8.125 -41.221 215.508  1.00  0.00     0.039 C 
ATOM      8  C   UNL     1      -6.188 -39.818 216.046  1.00  0.00    -0.023 CG0
ATOM      9  G   UNL     1      -4.941 -38.996 215.821  1.00  0.00     0.000 G0
ENDBRANCH   5   6
ENDBRANCH   4   5
ENDBRANCH   2   4
BRANCH   1  10
ATOM     10  C   UNL     1      -3.217 -41.627 214.268  1.00  0.00     0.111 C 
BRANCH  10  11
ATOM     11  C   UNL     1      -2.928 -40.296 214.918  1.00  0.00     0.163 C 
ATOM     12  O   UNL     1      -2.040 -39.564 214.402  1.00  0.00    -0.294 OA
BRANCH  11  13
ATOM     13  C   UNL     1      -3.697 -39.811 216.107  1.00  0.00    -0.002 C 
ATOM     14  C   UNL     1      -3.340 -40.154 217.382  1.00  0.00    -0.069 C 
ATOM     15  C   UNL     1      -4.101 -39.628 218.580  1.00  0.00     0.039 C 
ATOM     16  C   UNL     1      -2.195 -41.102 217.657  1.00  0.00     0.039 C 
BRANCH  13  17
ATOM     17  C   UNL     1      -4.938 -38.979 215.834  1.00  0.00     0.066 CG0
ATOM     18  G   UNL     1      -6.174 -39.823 216.040  1.00  0.00     0.000 G0
ENDBRANCH  13  17
ENDBRANCH  11  13
ENDBRANCH  10  11
ENDBRANCH   1  10
TORSDOF 0
ENDMDL
MODEL 8
REMARK VINA RESULT:    -3.420     12.543     14.544
REMARK INTER + INTRA:          -4.075
REMARK INTER:                  -4.791
REMARK INTRA:                   0.716
REMARK UNBOUND:                 0.745
REMARK SMILES CC1=CCC(=C(C)C)C(=O)CC(C)=CCC1
REMARK SMILES IDX 12 1 14 2 13 3 15 4 16 5 2 6 1 7 3 8 11 10 9 11 10 12 5 13
REMARK SMILES IDX 6 14 7 15 8 16 4 17
REMARK H PARENT
REMARK Flexibility Score: 60.00
ROOT
ATOM      1  C   UNL     1      -4.601 -38.966 216.494  1.00  0.00    -0.070 C 
ATOM      2  C   UNL     1      -5.844 -38.752 216.000  1.00  0.00    -0.027 C 
ATOM      3  C   UNL     1      -4.461 -39.095 217.992  1.00  0.00     0.039 C 
ENDROOT
BRANCH   2   4
ATOM      4  C   UNL     1      -6.198 -38.490 214.556  1.00  0.00     0.032 C 
BRANCH   4   5
ATOM      5  C   UNL     1      -7.024 -39.631 213.931  1.00  0.00     0.034 C 
BRANCH   5   6
ATOM      6  C   UNL     1      -6.542 -40.997 214.378  1.00  0.00    -0.077 C 
ATOM      7  C   UNL     1      -7.414 -41.790 215.318  1.00  0.00     0.039 C 
ATOM      8  C   UNL     1      -5.386 -41.559 213.961  1.00  0.00    -0.023 CG0
ATOM      9  G   UNL     1      -4.401 -40.940 212.997  1.00  0.00     0.000 G0
ENDBRANCH   5   6
ENDBRANCH   4   5
ENDBRANCH   2   4
BRANCH   1  10
ATOM     10  C   UNL     1      -3.348 -39.015 215.637  1.00  0.00     0.111 C 
BRANCH  10  11
ATOM     11  C   UNL     1      -3.074 -40.410 215.132  1.00  0.00     0.163 C 
ATOM     12  O   UNL     1      -2.907 -41.327 215.981  1.00  0.00    -0.294 OA
BRANCH  11  13
ATOM     13  C   UNL     1      -3.050 -40.733 213.671  1.00  0.00    -0.002 C 
ATOM     14  C   UNL     1      -1.881 -40.767 212.961  1.00  0.00    -0.069 C 
ATOM     15  C   UNL     1      -1.863 -41.131 211.492  1.00  0.00     0.039 C 
ATOM     16  C   UNL     1      -0.558 -40.407 213.597  1.00  0.00     0.039 C 
BRANCH  13  17
ATOM     17  C   UNL     1      -4.390 -40.950 212.991  1.00  0.00     0.066 CG0
ATOM     18  G   UNL     1      -5.370 -41.549 213.971  1.00  0.00     0.000 G0
ENDBRANCH  13  17
ENDBRANCH  11  13
ENDBRANCH  10  11
ENDBRANCH   1  10
TORSDOF 0
ENDMDL
MODEL 9
REMARK VINA RESULT:    -3.341      1.859      4.033
REMARK INTER + INTRA:          -3.964
REMARK INTER:                  -4.679
REMARK INTRA:                   0.715
REMARK UNBOUND:                 0.745
REMARK SMILES CC1=CCC(=C(C)C)C(=O)CC(C)=CCC1
REMARK SMILES IDX 12 1 14 2 13 3 15 4 16 5 2 6 1 7 3 8 11 10 9 11 10 12 5 13
REMARK SMILES IDX 6 14 7 15 8 16 4 17
REMARK H PARENT
REMARK Flexibility Score: 60.00
ROOT
ATOM      1  C   UNL     1     -15.587 -39.899 208.834  1.00  0.00    -0.070 C 
ATOM      2  C   UNL     1     -15.661 -39.056 207.777  1.00  0.00    -0.027 C 
ATOM      3  C   UNL     1     -14.390 -39.768 209.745  1.00  0.00     0.039 C 
ENDROOT
BRANCH   2   4
ATOM      4  C   UNL     1     -16.707 -39.079 206.688  1.00  0.00     0.032 C 
BRANCH   4   5
ATOM      5  C   UNL     1     -17.781 -37.989 206.873  1.00  0.00     0.034 C 
BRANCH   5   6
ATOM      6  C   UNL     1     -19.042 -38.533 207.515  1.00  0.00    -0.077 C 
ATOM      7  C   UNL     1     -20.097 -39.134 206.621  1.00  0.00     0.039 C 
ATOM      8  C   UNL     1     -19.266 -38.535 208.848  1.00  0.00    -0.023 CG0
ATOM      9  G   UNL     1     -18.318 -38.013 209.902  1.00  0.00     0.000 G0
ENDBRANCH   5   6
ENDBRANCH   4   5
ENDBRANCH   2   4
BRANCH   1  10
ATOM     10  C   UNL     1     -16.596 -41.000 209.110  1.00  0.00     0.111 C 
BRANCH  10  11
ATOM     11  C   UNL     1     -17.719 -40.517 209.995  1.00  0.00     0.163 C 
ATOM     12  O   UNL     1     -18.686 -41.297 210.207  1.00  0.00    -0.294 OA
BRANCH  11  13
ATOM     13  C   UNL     1     -17.683 -39.175 210.658  1.00  0.00    -0.002 C 
ATOM     14  C   UNL     1     -17.175 -39.008 211.916  1.00  0.00    -0.069 C 
ATOM     15  C   UNL     1     -17.109 -37.642 212.563  1.00  0.00     0.039 C 
ATOM     16  C   UNL     1     -16.687 -40.181 212.736  1.00  0.00     0.039 C 
BRANCH  13  17
ATOM     17  C   UNL     1     -18.307 -38.016 209.901  1.00  0.00     0.066 CG0
ATOM     18  G   UNL     1     -19.261 -38.542 208.855  1.00  0.00     0.000 G0
ENDBRANCH  13  17
ENDBRANCH  11  13
ENDBRANCH  10  11
ENDBRANCH   1  10
TORSDOF 0
ENDMDL
