MODEL 1
REMARK VINA RESULT:    -3.940      0.000      0.000
REMARK INTER + INTRA:          -5.108
REMARK INTER:                  -5.553
REMARK INTRA:                   0.445
REMARK UNBOUND:                 0.445
REMARK SMILES CC1=CCC(=C(C)C)C(=O)CC(C)=CCC1
REMARK SMILES IDX 12 1 14 2 13 3 15 4 16 5 2 6 1 7 3 8 11 10 9 11 10 12 5 13
REMARK SMILES IDX 6 14 7 15 8 16 4 17
REMARK H PARENT
REMARK Flexibility Score: 60.00
ROOT
ATOM      1  C   UNL     1      15.140  31.689  30.475  1.00  0.00    -0.070 C 
ATOM      2  C   UNL     1      15.890  32.772  30.174  1.00  0.00    -0.027 C 
ATOM      3  C   UNL     1      14.196  31.787  31.646  1.00  0.00     0.039 C 
ENDROOT
BRANCH   2   4
ATOM      4  C   UNL     1      16.819  32.901  28.987  1.00  0.00     0.032 C 
BRANCH   4   5
ATOM      5  C   UNL     1      18.311  33.072  29.346  1.00  0.00     0.034 C 
BRANCH   5   6
ATOM      6  C   UNL     1      18.782  32.098  30.411  1.00  0.00    -0.077 C 
ATOM      7  C   UNL     1      19.187  32.663  31.749  1.00  0.00     0.039 C 
ATOM      8  C   UNL     1      18.799  30.750  30.260  1.00  0.00    -0.023 CG0
ATOM      9  G   UNL     1      18.456  29.966  29.009  1.00  0.00     0.000 G0
ENDBRANCH   5   6
ENDBRANCH   4   5
ENDBRANCH   2   4
BRANCH   1  10
ATOM     10  C   UNL     1      15.136  30.423  29.643  1.00  0.00     0.111 C 
BRANCH  10  11
ATOM     11  C   UNL     1      16.192  29.452  30.103  1.00  0.00     0.163 C 
ATOM     12  O   UNL     1      16.088  28.970  31.264  1.00  0.00    -0.294 OA
BRANCH  11  13
ATOM     13  C   UNL     1      17.306  28.999  29.220  1.00  0.00    -0.002 C 
ATOM     14  C   UNL     1      17.240  27.799  28.569  1.00  0.00    -0.069 C 
ATOM     15  C   UNL     1      18.275  27.383  27.548  1.00  0.00     0.039 C 
ATOM     16  C   UNL     1      16.117  26.821  28.840  1.00  0.00     0.039 C 
BRANCH  13  17
ATOM     17  C   UNL     1      18.459  29.967  29.005  1.00  0.00     0.066 CG0
ATOM     18  G   UNL     1      18.795  30.751  30.258  1.00  0.00     0.000 G0
ENDBRANCH  13  17
ENDBRANCH  11  13
ENDBRANCH  10  11
ENDBRANCH   1  10
TORSDOF 0
ENDMDL
MODEL 2
REMARK VINA RESULT:    -3.851      2.710      5.511
REMARK INTER + INTRA:          -4.981
REMARK INTER:                  -5.183
REMARK INTRA:                   0.202
REMARK UNBOUND:                 0.445
REMARK SMILES CC1=CCC(=C(C)C)C(=O)CC(C)=CCC1
REMARK SMILES IDX 12 1 14 2 13 3 15 4 16 5 2 6 1 7 3 8 11 10 9 11 10 12 5 13
REMARK SMILES IDX 6 14 7 15 8 16 4 17
REMARK H PARENT
REMARK Flexibility Score: 60.00
ROOT
ATOM      1  C   UNL     1      18.161  26.041  28.156  1.00  0.00    -0.070 C 
ATOM      2  C   UNL     1      19.231  25.240  27.955  1.00  0.00    -0.027 C 
ATOM      3  C   UNL     1      16.878  25.402  28.624  1.00  0.00     0.039 C 
ENDROOT
BRANCH   2   4
ATOM      4  C   UNL     1      20.622  25.703  27.581  1.00  0.00     0.032 C 
BRANCH   4   5
ATOM      5  C   UNL     1      21.566  25.949  28.777  1.00  0.00     0.034 C 
BRANCH   5   6
ATOM      6  C   UNL     1      22.205  27.326  28.759  1.00  0.00    -0.077 C 
ATOM      7  C   UNL     1      23.405  27.530  27.869  1.00  0.00     0.039 C 
ATOM      8  C   UNL     1      21.728  28.399  29.437  1.00  0.00    -0.023 CG0
ATOM      9  G   UNL     1      20.556  28.425  30.398  1.00  0.00     0.000 G0
ENDBRANCH   5   6
ENDBRANCH   4   5
ENDBRANCH   2   4
BRANCH   1  10
ATOM     10  C   UNL     1      18.215  27.550  28.025  1.00  0.00     0.111 C 
BRANCH  10  11
ATOM     11  C   UNL     1      18.216  28.225  29.371  1.00  0.00     0.163 C 
ATOM     12  O   UNL     1      17.261  27.981  30.158  1.00  0.00    -0.294 OA
BRANCH  11  13
ATOM     13  C   UNL     1      19.328  29.113  29.823  1.00  0.00    -0.002 C 
ATOM     14  C   UNL     1      19.198  30.473  29.781  1.00  0.00    -0.069 C 
ATOM     15  C   UNL     1      20.239  31.395  30.375  1.00  0.00     0.039 C 
ATOM     16  C   UNL     1      17.996  31.127  29.135  1.00  0.00     0.039 C 
BRANCH  13  17
ATOM     17  C   UNL     1      20.557  28.440  30.413  1.00  0.00     0.066 CG0
ATOM     18  G   UNL     1      21.711  28.385  29.431  1.00  0.00     0.000 G0
ENDBRANCH  13  17
ENDBRANCH  11  13
ENDBRANCH  10  11
ENDBRANCH   1  10
TORSDOF 0
ENDMDL
MODEL 3
REMARK VINA RESULT:    -3.762      2.983      6.019
REMARK INTER + INTRA:          -4.856
REMARK INTER:                  -5.164
REMARK INTRA:                   0.308
REMARK UNBOUND:                 0.445
REMARK SMILES CC1=CCC(=C(C)C)C(=O)CC(C)=CCC1
REMARK SMILES IDX 12 1 14 2 13 3 15 4 16 5 2 6 1 7 3 8 11 10 9 11 10 12 5 13
REMARK SMILES IDX 6 14 7 15 8 16 4 17
REMARK H PARENT
REMARK Flexibility Score: 60.00
ROOT
ATOM      1  C   UNL     1      20.259  25.386  28.513  1.00  0.00    -0.070 C 
ATOM      2  C   UNL     1      19.033  25.112  28.013  1.00  0.00    -0.027 C 
ATOM      3  C   UNL     1      21.442  24.672  27.912  1.00  0.00     0.039 C 
ENDROOT
BRANCH   2   4
ATOM      4  C   UNL     1      17.743  25.793  28.415  1.00  0.00     0.032 C 
BRANCH   4   5
ATOM      5  C   UNL     1      17.548  27.208  27.832  1.00  0.00     0.034 C 
BRANCH   5   6
ATOM      6  C   UNL     1      17.288  28.260  28.895  1.00  0.00    -0.077 C 
ATOM      7  C   UNL     1      16.018  28.146  29.700  1.00  0.00     0.039 C 
ATOM      8  C   UNL     1      18.154  29.254  29.213  1.00  0.00    -0.023 CG0
ATOM      9  G   UNL     1      19.471  29.572  28.533  1.00  0.00     0.000 G0
ENDBRANCH   5   6
ENDBRANCH   4   5
ENDBRANCH   2   4
BRANCH   1  10
ATOM     10  C   UNL     1      20.507  26.436  29.577  1.00  0.00     0.111 C 
BRANCH  10  11
ATOM     11  C   UNL     1      21.155  27.668  29.001  1.00  0.00     0.163 C 
ATOM     12  O   UNL     1      22.105  27.512  28.186  1.00  0.00    -0.294 OA
BRANCH  11  13
ATOM     13  C   UNL     1      20.674  29.046  29.311  1.00  0.00    -0.002 C 
ATOM     14  C   UNL     1      21.343  29.836  30.204  1.00  0.00    -0.069 C 
ATOM     15  C   UNL     1      20.975  31.287  30.422  1.00  0.00     0.039 C 
ATOM     16  C   UNL     1      22.493  29.293  31.024  1.00  0.00     0.039 C 
BRANCH  13  17
ATOM     17  C   UNL     1      19.477  29.558  28.525  1.00  0.00     0.066 CG0
ATOM     18  G   UNL     1      18.162  29.254  29.214  1.00  0.00     0.000 G0
ENDBRANCH  13  17
ENDBRANCH  11  13
ENDBRANCH  10  11
ENDBRANCH   1  10
TORSDOF 0
ENDMDL
MODEL 4
REMARK VINA RESULT:    -3.725     12.222     14.211
REMARK INTER + INTRA:          -4.805
REMARK INTER:                  -5.058
REMARK INTRA:                   0.253
REMARK UNBOUND:                 0.445
REMARK SMILES CC1=CCC(=C(C)C)C(=O)CC(C)=CCC1
REMARK SMILES IDX 12 1 14 2 13 3 15 4 16 5 2 6 1 7 3 8 11 10 9 11 10 12 5 13
REMARK SMILES IDX 6 14 7 15 8 16 4 17
REMARK H PARENT
REMARK Flexibility Score: 60.00
ROOT
ATOM      1  C   UNL     1      30.067  31.246  28.527  1.00  0.00    -0.070 C 
ATOM      2  C   UNL     1      30.793  31.842  27.555  1.00  0.00    -0.027 C 
ATOM      3  C   UNL     1      28.566  31.245  28.387  1.00  0.00     0.039 C 
ENDROOT
BRANCH   2   4
ATOM      4  C   UNL     1      32.304  31.862  27.468  1.00  0.00     0.032 C 
BRANCH   4   5
ATOM      5  C   UNL     1      33.018  32.429  28.713  1.00  0.00     0.034 C 
BRANCH   5   6
ATOM      6  C   UNL     1      32.528  33.813  29.102  1.00  0.00    -0.077 C 
ATOM      7  C   UNL     1      32.705  34.926  28.101  1.00  0.00     0.039 C 
ATOM      8  C   UNL     1      31.885  34.097  30.261  1.00  0.00    -0.023 CG0
ATOM      9  G   UNL     1      31.614  33.150  31.413  1.00  0.00     0.000 G0
ENDBRANCH   5   6
ENDBRANCH   4   5
ENDBRANCH   2   4
BRANCH   1  10
ATOM     10  C   UNL     1      30.689  30.505  29.694  1.00  0.00     0.111 C 
BRANCH  10  11
ATOM     11  C   UNL     1      30.209  31.046  31.015  1.00  0.00     0.163 C 
ATOM     12  O   UNL     1      29.804  30.223  31.881  1.00  0.00    -0.294 OA
BRANCH  11  13
ATOM     13  C   UNL     1      30.256  32.500  31.351  1.00  0.00    -0.002 C 
ATOM     14  C   UNL     1      29.114  33.181  31.667  1.00  0.00    -0.069 C 
ATOM     15  C   UNL     1      29.146  34.610  32.164  1.00  0.00     0.039 C 
ATOM     16  C   UNL     1      27.752  32.535  31.536  1.00  0.00     0.039 C 
BRANCH  13  17
ATOM     17  C   UNL     1      31.627  33.153  31.419  1.00  0.00     0.066 CG0
ATOM     18  G   UNL     1      31.879  34.085  30.250  1.00  0.00     0.000 G0
ENDBRANCH  13  17
ENDBRANCH  11  13
ENDBRANCH  10  11
ENDBRANCH   1  10
TORSDOF 0
ENDMDL
MODEL 5
REMARK VINA RESULT:    -3.700      5.447      7.242
REMARK INTER + INTRA:          -4.768
REMARK INTER:                  -5.013
REMARK INTRA:                   0.244
REMARK UNBOUND:                 0.445
REMARK SMILES CC1=CCC(=C(C)C)C(=O)CC(C)=CCC1
REMARK SMILES IDX 12 1 14 2 13 3 15 4 16 5 2 6 1 7 3 8 11 10 9 11 10 12 5 13
REMARK SMILES IDX 6 14 7 15 8 16 4 17
REMARK H PARENT
REMARK Flexibility Score: 60.00
ROOT
ATOM      1  C   UNL     1      25.843  29.018  28.683  1.00  0.00    -0.070 C 
ATOM      2  C   UNL     1      26.068  30.091  29.474  1.00  0.00    -0.027 C 
ATOM      3  C   UNL     1      26.746  28.816  27.494  1.00  0.00     0.039 C 
ENDROOT
BRANCH   2   4
ATOM      4  C   UNL     1      25.336  30.411  30.759  1.00  0.00     0.032 C 
BRANCH   4   5
ATOM      5  C   UNL     1      23.982  31.126  30.573  1.00  0.00     0.034 C 
BRANCH   5   6
ATOM      6  C   UNL     1      22.834  30.421  31.273  1.00  0.00    -0.077 C 
ATOM      7  C   UNL     1      22.775  30.501  32.778  1.00  0.00     0.039 C 
ATOM      8  C   UNL     1      21.824  29.783  30.632  1.00  0.00    -0.023 CG0
ATOM      9  G   UNL     1      21.684  29.563  29.139  1.00  0.00     0.000 G0
ENDBRANCH   5   6
ENDBRANCH   4   5
ENDBRANCH   2   4
BRANCH   1  10
ATOM     10  C   UNL     1      24.793  27.968  28.986  1.00  0.00     0.111 C 
BRANCH  10  11
ATOM     11  C   UNL     1      23.571  28.139  28.122  1.00  0.00     0.163 C 
ATOM     12  O   UNL     1      23.730  28.181  26.871  1.00  0.00    -0.294 OA
BRANCH  11  13
ATOM     13  C   UNL     1      22.191  28.197  28.687  1.00  0.00    -0.002 C 
ATOM     14  C   UNL     1      21.462  27.054  28.868  1.00  0.00    -0.069 C 
ATOM     15  C   UNL     1      20.127  27.062  29.581  1.00  0.00     0.039 C 
ATOM     16  C   UNL     1      21.958  25.718  28.363  1.00  0.00     0.039 C 
BRANCH  13  17
ATOM     17  C   UNL     1      21.679  29.557  29.134  1.00  0.00     0.066 CG0
ATOM     18  G   UNL     1      21.830  29.767  30.627  1.00  0.00     0.000 G0
ENDBRANCH  13  17
ENDBRANCH  11  13
ENDBRANCH  10  11
ENDBRANCH   1  10
TORSDOF 0
ENDMDL
MODEL 6
REMARK VINA RESULT:    -3.698      2.496      6.194
REMARK INTER + INTRA:          -4.767
REMARK INTER:                  -5.238
REMARK INTRA:                   0.471
REMARK UNBOUND:                 0.445
REMARK SMILES CC1=CCC(=C(C)C)C(=O)CC(C)=CCC1
REMARK SMILES IDX 12 1 14 2 13 3 15 4 16 5 2 6 1 7 3 8 11 10 9 11 10 12 5 13
REMARK SMILES IDX 6 14 7 15 8 16 4 17
REMARK H PARENT
REMARK Flexibility Score: 60.00
ROOT
ATOM      1  C   UNL     1      17.799  25.963  27.953  1.00  0.00    -0.070 C 
ATOM      2  C   UNL     1      16.829  25.030  27.829  1.00  0.00    -0.027 C 
ATOM      3  C   UNL     1      19.230  25.492  28.002  1.00  0.00     0.039 C 
ENDROOT
BRANCH   2   4
ATOM      4  C   UNL     1      15.351  25.309  27.666  1.00  0.00     0.032 C 
BRANCH   4   5
ATOM      5  C   UNL     1      14.449  24.674  28.746  1.00  0.00     0.034 C 
BRANCH   5   6
ATOM      6  C   UNL     1      14.826  25.087  30.157  1.00  0.00    -0.077 C 
ATOM      7  C   UNL     1      15.143  23.995  31.147  1.00  0.00     0.039 C 
ATOM      8  C   UNL     1      14.962  26.373  30.565  1.00  0.00    -0.023 CG0
ATOM      9  G   UNL     1      14.681  27.624  29.756  1.00  0.00     0.000 G0
ENDBRANCH   5   6
ENDBRANCH   4   5
ENDBRANCH   2   4
BRANCH   1  10
ATOM     10  C   UNL     1      17.524  27.453  27.953  1.00  0.00     0.111 C 
BRANCH  10  11
ATOM     11  C   UNL     1      17.206  27.959  29.335  1.00  0.00     0.163 C 
ATOM     12  O   UNL     1      18.115  27.912  30.208  1.00  0.00    -0.294 OA
BRANCH  11  13
ATOM     13  C   UNL     1      15.887  28.566  29.683  1.00  0.00    -0.002 C 
ATOM     14  C   UNL     1      15.761  29.918  29.849  1.00  0.00    -0.069 C 
ATOM     15  C   UNL     1      14.414  30.578  30.046  1.00  0.00     0.039 C 
ATOM     16  C   UNL     1      16.972  30.825  29.842  1.00  0.00     0.039 C 
BRANCH  13  17
ATOM     17  C   UNL     1      14.688  27.633  29.749  1.00  0.00     0.066 CG0
ATOM     18  G   UNL     1      14.973  26.386  30.562  1.00  0.00     0.000 G0
ENDBRANCH  13  17
ENDBRANCH  11  13
ENDBRANCH  10  11
ENDBRANCH   1  10
TORSDOF 0
ENDMDL
MODEL 7
REMARK VINA RESULT:    -3.614      2.830      6.331
REMARK INTER + INTRA:          -4.648
REMARK INTER:                  -4.908
REMARK INTRA:                   0.260
REMARK UNBOUND:                 0.445
REMARK SMILES CC1=CCC(=C(C)C)C(=O)CC(C)=CCC1
REMARK SMILES IDX 12 1 14 2 13 3 15 4 16 5 2 6 1 7 3 8 11 10 9 11 10 12 5 13
REMARK SMILES IDX 6 14 7 15 8 16 4 17
REMARK H PARENT
REMARK Flexibility Score: 60.00
ROOT
ATOM      1  C   UNL     1      21.816  26.483  28.843  1.00  0.00    -0.070 C 
ATOM      2  C   UNL     1      21.290  25.421  28.193  1.00  0.00    -0.027 C 
ATOM      3  C   UNL     1      23.257  26.832  28.574  1.00  0.00     0.039 C 
ENDROOT
BRANCH   2   4
ATOM      4  C   UNL     1      19.846  24.973  28.255  1.00  0.00     0.032 C 
BRANCH   4   5
ATOM      5  C   UNL     1      18.872  25.805  27.394  1.00  0.00     0.034 C 
BRANCH   5   6
ATOM      6  C   UNL     1      17.704  26.363  28.187  1.00  0.00    -0.077 C 
ATOM      7  C   UNL     1      16.711  25.383  28.759  1.00  0.00     0.039 C 
ATOM      8  C   UNL     1      17.532  27.678  28.470  1.00  0.00    -0.023 CG0
ATOM      9  G   UNL     1      18.386  28.835  27.991  1.00  0.00     0.000 G0
ENDBRANCH   5   6
ENDBRANCH   4   5
ENDBRANCH   2   4
BRANCH   1  10
ATOM     10  C   UNL     1      21.006  27.386  29.751  1.00  0.00     0.111 C 
BRANCH  10  11
ATOM     11  C   UNL     1      20.713  28.711  29.097  1.00  0.00     0.163 C 
ATOM     12  O   UNL     1      21.653  29.296  28.493  1.00  0.00    -0.294 OA
BRANCH  11  13
ATOM     13  C   UNL     1      19.348  29.316  29.087  1.00  0.00    -0.002 C 
ATOM     14  C   UNL     1      19.018  30.313  29.963  1.00  0.00    -0.069 C 
ATOM     15  C   UNL     1      17.702  31.052  29.875  1.00  0.00     0.039 C 
ATOM     16  C   UNL     1      19.962  30.728  31.070  1.00  0.00     0.039 C 
BRANCH  13  17
ATOM     17  C   UNL     1      18.387  28.844  28.008  1.00  0.00     0.066 CG0
ATOM     18  G   UNL     1      17.522  27.689  28.471  1.00  0.00     0.000 G0
ENDBRANCH  13  17
ENDBRANCH  11  13
ENDBRANCH  10  11
ENDBRANCH   1  10
TORSDOF 0
ENDMDL
MODEL 8
REMARK VINA RESULT:    -3.574      2.167      5.125
REMARK INTER + INTRA:          -4.591
REMARK INTER:                  -4.832
REMARK INTRA:                   0.241
REMARK UNBOUND:                 0.445
REMARK SMILES CC1=CCC(=C(C)C)C(=O)CC(C)=CCC1
REMARK SMILES IDX 12 1 14 2 13 3 15 4 16 5 2 6 1 7 3 8 11 10 9 11 10 12 5 13
REMARK SMILES IDX 6 14 7 15 8 16 4 17
REMARK H PARENT
REMARK Flexibility Score: 60.00
ROOT
ATOM      1  C   UNL     1      21.473  30.899  30.120  1.00  0.00    -0.070 C 
ATOM      2  C   UNL     1      21.750  29.606  29.839  1.00  0.00    -0.027 C 
ATOM      3  C   UNL     1      22.506  31.692  30.879  1.00  0.00     0.039 C 
ENDROOT
BRANCH   2   4
ATOM      4  C   UNL     1      20.889  28.678  29.009  1.00  0.00     0.032 C 
BRANCH   4   5
ATOM      5  C   UNL     1      19.707  28.038  29.768  1.00  0.00     0.034 C 
BRANCH   5   6
ATOM      6  C   UNL     1      18.369  28.260  29.085  1.00  0.00    -0.077 C 
ATOM      7  C   UNL     1      18.103  27.511  27.804  1.00  0.00     0.039 C 
ATOM      8  C   UNL     1      17.375  29.034  29.586  1.00  0.00    -0.023 CG0
ATOM      9  G   UNL     1      17.423  29.888  30.838  1.00  0.00     0.000 G0
ENDBRANCH   5   6
ENDBRANCH   4   5
ENDBRANCH   2   4
BRANCH   1  10
ATOM     10  C   UNL     1      20.226  31.607  29.632  1.00  0.00     0.111 C 
BRANCH  10  11
ATOM     11  C   UNL     1      19.202  31.746  30.728  1.00  0.00     0.163 C 
ATOM     12  O   UNL     1      19.565  32.272  31.816  1.00  0.00    -0.294 OA
BRANCH  11  13
ATOM     13  C   UNL     1      17.775  31.347  30.549  1.00  0.00    -0.002 C 
ATOM     14  C   UNL     1      16.858  32.232  30.055  1.00  0.00    -0.069 C 
ATOM     15  C   UNL     1      15.444  31.814  29.715  1.00  0.00     0.039 C 
ATOM     16  C   UNL     1      17.215  33.684  29.822  1.00  0.00     0.039 C 
BRANCH  13  17
ATOM     17  C   UNL     1      17.416  29.899  30.846  1.00  0.00     0.066 CG0
ATOM     18  G   UNL     1      17.399  29.042  29.596  1.00  0.00     0.000 G0
ENDBRANCH  13  17
ENDBRANCH  11  13
ENDBRANCH  10  11
ENDBRANCH   1  10
TORSDOF 0
ENDMDL
MODEL 9
REMARK VINA RESULT:    -3.549      2.074      4.745
REMARK INTER + INTRA:          -4.556
REMARK INTER:                  -4.801
REMARK INTRA:                   0.245
REMARK UNBOUND:                 0.445
REMARK SMILES CC1=CCC(=C(C)C)C(=O)CC(C)=CCC1
REMARK SMILES IDX 12 1 14 2 13 3 15 4 16 5 2 6 1 7 3 8 11 10 9 11 10 12 5 13
REMARK SMILES IDX 6 14 7 15 8 16 4 17
REMARK H PARENT
REMARK Flexibility Score: 60.00
ROOT
ATOM      1  C   UNL     1      19.088  28.661  28.436  1.00  0.00    -0.070 C 
ATOM      2  C   UNL     1      20.189  28.030  28.901  1.00  0.00    -0.027 C 
ATOM      3  C   UNL     1      18.001  27.820  27.817  1.00  0.00     0.039 C 
ENDROOT
BRANCH   2   4
ATOM      4  C   UNL     1      21.338  28.684  29.637  1.00  0.00     0.032 C 
BRANCH   4   5
ATOM      5  C   UNL     1      21.019  29.116  31.084  1.00  0.00     0.034 C 
BRANCH   5   6
ATOM      6  C   UNL     1      21.471  30.531  31.398  1.00  0.00    -0.077 C 
ATOM      7  C   UNL     1      22.940  30.845  31.259  1.00  0.00     0.039 C 
ATOM      8  C   UNL     1      20.634  31.545  31.729  1.00  0.00    -0.023 CG0
ATOM      9  G   UNL     1      19.136  31.460  31.943  1.00  0.00     0.000 G0
ENDBRANCH   5   6
ENDBRANCH   4   5
ENDBRANCH   2   4
BRANCH   1  10
ATOM     10  C   UNL     1      18.856  30.151  28.589  1.00  0.00     0.111 C 
BRANCH  10  11
ATOM     11  C   UNL     1      18.066  30.464  29.832  1.00  0.00     0.163 C 
ATOM     12  O   UNL     1      17.183  29.641  30.198  1.00  0.00    -0.294 OA
BRANCH  11  13
ATOM     13  C   UNL     1      18.333  31.671  30.670  1.00  0.00    -0.002 C 
ATOM     14  C   UNL     1      17.811  32.888  30.329  1.00  0.00    -0.069 C 
ATOM     15  C   UNL     1      17.932  34.092  31.236  1.00  0.00     0.039 C 
ATOM     16  C   UNL     1      17.083  33.090  29.018  1.00  0.00     0.039 C 
BRANCH  13  17
ATOM     17  C   UNL     1      19.120  31.465  31.954  1.00  0.00     0.066 CG0
ATOM     18  G   UNL     1      20.618  31.544  31.730  1.00  0.00     0.000 G0
ENDBRANCH  13  17
ENDBRANCH  11  13
ENDBRANCH  10  11
ENDBRANCH   1  10
TORSDOF 0
ENDMDL
