MODEL 1
REMARK VINA RESULT:    -5.086      0.000      0.000
REMARK INTER + INTRA:         -10.430
REMARK INTER:                  -9.546
REMARK INTRA:                  -0.883
REMARK UNBOUND:                -0.883
REMARK SMILES O=C([O-])CCCCCCCCCCCCCCC(=O)[O-]
REMARK SMILES IDX 10 1 9 2 8 3 7 4 6 5 5 6 4 7 2 8 1 9 3 10 11 11 12 12 13 13
REMARK SMILES IDX 14 14 15 15 16 16 17 17 18 18 19 19 20 20
REMARK H PARENT
REMARK Flexibility Score: inf
ROOT
ATOM      1  C   UNL     1      -3.898   7.549   4.868  1.00  0.00     0.000 C 
ENDROOT
BRANCH   1   2
ATOM      2  C   UNL     1      -4.259   7.817   6.338  1.00  0.00     0.000 C 
BRANCH   2   3
ATOM      3  C   UNL     1      -5.331   6.850   6.867  1.00  0.00     0.000 C 
BRANCH   3   4
ATOM      4  C   UNL     1      -5.815   7.212   8.282  1.00  0.00     0.000 C 
BRANCH   4   5
ATOM      5  C   UNL     1      -7.324   6.975   8.500  1.00  0.00     0.000 C 
BRANCH   5   6
ATOM      6  C   UNL     1      -7.755   5.563   8.065  1.00  0.00     0.006 C 
BRANCH   6   7
ATOM      7  C   UNL     1      -8.188   4.697   9.256  1.00  0.00     0.053 C 
BRANCH   7   8
ATOM      8  C   UNL     1      -7.267   3.532   9.455  1.00  0.00     0.041 C 
ATOM      9  O   UNL     1      -6.034   3.720   9.627  1.00  0.00    -0.550 OA
ATOM     10  O   UNL     1      -7.767   2.236   9.421  1.00  0.00    -0.550 OA
ENDBRANCH   7   8
ENDBRANCH   6   7
ENDBRANCH   5   6
ENDBRANCH   4   5
ENDBRANCH   3   4
ENDBRANCH   2   3
ENDBRANCH   1   2
BRANCH   1  11
ATOM     11  C   UNL     1      -3.873   6.049   4.527  1.00  0.00     0.000 C 
BRANCH  11  12
ATOM     12  C   UNL     1      -2.701   5.309   5.192  1.00  0.00     0.000 C 
BRANCH  12  13
ATOM     13  C   UNL     1      -3.136   3.993   5.858  1.00  0.00     0.000 C 
BRANCH  13  14
ATOM     14  C   UNL     1      -1.953   3.216   6.459  1.00  0.00     0.000 C 
BRANCH  14  15
ATOM     15  C   UNL     1      -2.030   3.108   7.990  1.00  0.00     0.000 C 
BRANCH  15  16
ATOM     16  C   UNL     1      -0.717   2.560   8.567  1.00  0.00     0.006 C 
BRANCH  16  17
ATOM     17  C   UNL     1      -0.917   1.888   9.933  1.00  0.00     0.053 C 
BRANCH  17  18
ATOM     18  C   UNL     1      -1.085   0.405   9.804  1.00  0.00     0.041 C 
ATOM     19  O   UNL     1      -0.137  -0.305   9.376  1.00  0.00    -0.550 OA
ATOM     20  O   UNL     1      -2.299  -0.189  10.124  1.00  0.00    -0.550 OA
ENDBRANCH  17  18
ENDBRANCH  16  17
ENDBRANCH  15  16
ENDBRANCH  14  15
ENDBRANCH  13  14
ENDBRANCH  12  13
ENDBRANCH  11  12
ENDBRANCH   1  11
TORSDOF 15
ENDMDL
MODEL 2
REMARK VINA RESULT:    -4.668      1.963      3.075
REMARK INTER + INTRA:          -9.644
REMARK INTER:                  -8.818
REMARK INTRA:                  -0.826
REMARK UNBOUND:                -0.883
REMARK SMILES O=C([O-])CCCCCCCCCCCCCCC(=O)[O-]
REMARK SMILES IDX 10 1 9 2 8 3 7 4 6 5 5 6 4 7 2 8 1 9 3 10 11 11 12 12 13 13
REMARK SMILES IDX 14 14 15 15 16 16 17 17 18 18 19 19 20 20
REMARK H PARENT
REMARK Flexibility Score: inf
ROOT
ATOM      1  C   UNL     1      -2.113   4.842   4.755  1.00  0.00     0.000 C 
ENDROOT
BRANCH   1   2
ATOM      2  C   UNL     1      -2.768   6.195   4.439  1.00  0.00     0.000 C 
BRANCH   2   3
ATOM      3  C   UNL     1      -4.113   6.382   5.161  1.00  0.00     0.000 C 
BRANCH   3   4
ATOM      4  C   UNL     1      -4.258   7.774   5.801  1.00  0.00     0.000 C 
BRANCH   4   5
ATOM      5  C   UNL     1      -4.846   7.741   7.227  1.00  0.00     0.000 C 
BRANCH   5   6
ATOM      6  C   UNL     1      -5.742   6.510   7.454  1.00  0.00     0.006 C 
BRANCH   6   7
ATOM      7  C   UNL     1      -6.711   6.707   8.627  1.00  0.00     0.053 C 
BRANCH   7   8
ATOM      8  C   UNL     1      -8.121   6.380   8.240  1.00  0.00     0.041 C 
ATOM      9  O   UNL     1      -8.411   5.234   7.807  1.00  0.00    -0.550 OA
ATOM     10  O   UNL     1      -9.110   7.351   8.330  1.00  0.00    -0.550 OA
ENDBRANCH   7   8
ENDBRANCH   6   7
ENDBRANCH   5   6
ENDBRANCH   4   5
ENDBRANCH   3   4
ENDBRANCH   2   3
ENDBRANCH   1   2
BRANCH   1  11
ATOM     11  C   UNL     1      -2.756   4.138   5.963  1.00  0.00     0.000 C 
BRANCH  11  12
ATOM     12  C   UNL     1      -1.988   2.879   6.394  1.00  0.00     0.000 C 
BRANCH  12  13
ATOM     13  C   UNL     1      -1.623   2.893   7.888  1.00  0.00     0.000 C 
BRANCH  13  14
ATOM     14  C   UNL     1      -0.631   1.779   8.265  1.00  0.00     0.000 C 
BRANCH  14  15
ATOM     15  C   UNL     1      -0.869   1.226   9.678  1.00  0.00     0.000 C 
BRANCH  15  16
ATOM     16  C   UNL     1      -0.513  -0.266   9.750  1.00  0.00     0.006 C 
BRANCH  16  17
ATOM     17  C   UNL     1      -0.090  -0.830   8.386  1.00  0.00     0.053 C 
BRANCH  17  18
ATOM     18  C   UNL     1      -0.671  -2.188   8.141  1.00  0.00     0.041 C 
ATOM     19  O   UNL     1      -0.026  -3.043   7.479  1.00  0.00    -0.550 OA
ATOM     20  O   UNL     1      -1.939  -2.499   8.616  1.00  0.00    -0.550 OA
ENDBRANCH  17  18
ENDBRANCH  16  17
ENDBRANCH  15  16
ENDBRANCH  14  15
ENDBRANCH  13  14
ENDBRANCH  12  13
ENDBRANCH  11  12
ENDBRANCH   1  11
TORSDOF 15
ENDMDL
MODEL 3
REMARK VINA RESULT:    -4.551     16.724     18.907
REMARK INTER + INTRA:          -9.426
REMARK INTER:                  -7.244
REMARK INTRA:                  -2.182
REMARK UNBOUND:                -0.883
REMARK SMILES O=C([O-])CCCCCCCCCCCCCCC(=O)[O-]
REMARK SMILES IDX 10 1 9 2 8 3 7 4 6 5 5 6 4 7 2 8 1 9 3 10 11 11 12 12 13 13
REMARK SMILES IDX 14 14 15 15 16 16 17 17 18 18 19 19 20 20
REMARK H PARENT
REMARK Flexibility Score: inf
ROOT
ATOM      1  C   UNL     1      -0.120  -6.946  -6.966  1.00  0.00     0.000 C 
ENDROOT
BRANCH   1   2
ATOM      2  C   UNL     1       0.927  -5.865  -6.656  1.00  0.00     0.000 C 
BRANCH   2   3
ATOM      3  C   UNL     1       0.313  -4.625  -5.984  1.00  0.00     0.000 C 
BRANCH   3   4
ATOM      4  C   UNL     1      -0.349  -3.668  -6.990  1.00  0.00     0.000 C 
BRANCH   4   5
ATOM      5  C   UNL     1       0.419  -3.543  -8.322  1.00  0.00     0.000 C 
BRANCH   5   6
ATOM      6  C   UNL     1       0.287  -2.137  -8.936  1.00  0.00     0.006 C 
BRANCH   6   7
ATOM      7  C   UNL     1      -0.677  -1.246  -8.142  1.00  0.00     0.053 C 
BRANCH   7   8
ATOM      8  C   UNL     1      -1.772  -0.705  -9.010  1.00  0.00     0.041 C 
ATOM      9  O   UNL     1      -2.218   0.457  -8.817  1.00  0.00    -0.550 OA
ATOM     10  O   UNL     1      -2.318  -1.494 -10.013  1.00  0.00    -0.550 OA
ENDBRANCH   7   8
ENDBRANCH   6   7
ENDBRANCH   5   6
ENDBRANCH   4   5
ENDBRANCH   3   4
ENDBRANCH   2   3
ENDBRANCH   1   2
BRANCH   1  11
ATOM     11  C   UNL     1      -0.194  -7.287  -8.465  1.00  0.00     0.000 C 
BRANCH  11  12
ATOM     12  C   UNL     1      -1.624  -7.192  -9.023  1.00  0.00     0.000 C 
BRANCH  12  13
ATOM     13  C   UNL     1      -1.790  -6.037 -10.025  1.00  0.00     0.000 C 
BRANCH  13  14
ATOM     14  C   UNL     1      -2.751  -4.949  -9.519  1.00  0.00     0.000 C 
BRANCH  14  15
ATOM     15  C   UNL     1      -3.464  -5.346  -8.217  1.00  0.00     0.000 C 
BRANCH  15  16
ATOM     16  C   UNL     1      -3.914  -4.102  -7.437  1.00  0.00     0.006 C 
BRANCH  16  17
ATOM     17  C   UNL     1      -5.437  -3.911  -7.476  1.00  0.00     0.053 C 
BRANCH  17  18
ATOM     18  C   UNL     1      -6.059  -4.122  -6.130  1.00  0.00     0.041 C 
ATOM     19  O   UNL     1      -6.277  -5.288  -5.708  1.00  0.00    -0.550 OA
ATOM     20  O   UNL     1      -6.427  -3.030  -5.354  1.00  0.00    -0.550 OA
ENDBRANCH  17  18
ENDBRANCH  16  17
ENDBRANCH  15  16
ENDBRANCH  14  15
ENDBRANCH  13  14
ENDBRANCH  12  13
ENDBRANCH  11  12
ENDBRANCH   1  11
TORSDOF 15
ENDMDL
MODEL 4
REMARK VINA RESULT:    -4.479     14.596     16.643
REMARK INTER + INTRA:          -9.290
REMARK INTER:                  -7.603
REMARK INTRA:                  -1.687
REMARK UNBOUND:                -0.883
REMARK SMILES O=C([O-])CCCCCCCCCCCCCCC(=O)[O-]
REMARK SMILES IDX 10 1 9 2 8 3 7 4 6 5 5 6 4 7 2 8 1 9 3 10 11 11 12 12 13 13
REMARK SMILES IDX 14 14 15 15 16 16 17 17 18 18 19 19 20 20
REMARK H PARENT
REMARK Flexibility Score: inf
ROOT
ATOM      1  C   UNL     1       9.274   6.341   1.803  1.00  0.00     0.000 C 
ENDROOT
BRANCH   1   2
ATOM      2  C   UNL     1       9.775   7.732   2.223  1.00  0.00     0.000 C 
BRANCH   2   3
ATOM      3  C   UNL     1       8.974   8.870   1.569  1.00  0.00     0.000 C 
BRANCH   3   4
ATOM      4  C   UNL     1       8.957   8.782   0.033  1.00  0.00     0.000 C 
BRANCH   4   5
ATOM      5  C   UNL     1       7.813   9.586  -0.620  1.00  0.00     0.000 C 
BRANCH   5   6
ATOM      6  C   UNL     1       7.297   8.916  -1.906  1.00  0.00     0.006 C 
BRANCH   6   7
ATOM      7  C   UNL     1       5.798   8.599  -1.833  1.00  0.00     0.053 C 
BRANCH   7   8
ATOM      8  C   UNL     1       4.968   9.847  -1.850  1.00  0.00     0.041 C 
ATOM      9  O   UNL     1       4.030   9.996  -1.024  1.00  0.00    -0.550 OA
ATOM     10  O   UNL     1       5.213  10.831  -2.798  1.00  0.00    -0.550 OA
ENDBRANCH   7   8
ENDBRANCH   6   7
ENDBRANCH   5   6
ENDBRANCH   4   5
ENDBRANCH   3   4
ENDBRANCH   2   3
ENDBRANCH   1   2
BRANCH   1  11
ATOM     11  C   UNL     1      10.316   5.557   0.985  1.00  0.00     0.000 C 
BRANCH  11  12
ATOM     12  C   UNL     1       9.752   5.034  -0.346  1.00  0.00     0.000 C 
BRANCH  12  13
ATOM     13  C   UNL     1       8.248   5.315  -0.500  1.00  0.00     0.000 C 
BRANCH  13  14
ATOM     14  C   UNL     1       7.583   4.413  -1.554  1.00  0.00     0.000 C 
BRANCH  14  15
ATOM     15  C   UNL     1       7.196   5.176  -2.829  1.00  0.00     0.000 C 
BRANCH  15  16
ATOM     16  C   UNL     1       8.445   5.596  -3.617  1.00  0.00     0.006 C 
BRANCH  16  17
ATOM     17  C   UNL     1       8.273   5.398  -5.130  1.00  0.00     0.053 C 
BRANCH  17  18
ATOM     18  C   UNL     1       8.084   6.701  -5.844  1.00  0.00     0.041 C 
ATOM     19  O   UNL     1       8.466   7.776  -5.312  1.00  0.00    -0.550 OA
ATOM     20  O   UNL     1       7.456   6.732  -7.082  1.00  0.00    -0.550 OA
ENDBRANCH  17  18
ENDBRANCH  16  17
ENDBRANCH  15  16
ENDBRANCH  14  15
ENDBRANCH  13  14
ENDBRANCH  12  13
ENDBRANCH  11  12
ENDBRANCH   1  11
TORSDOF 15
ENDMDL
MODEL 5
REMARK VINA RESULT:    -4.419     15.172     17.394
REMARK INTER + INTRA:          -9.177
REMARK INTER:                  -8.025
REMARK INTRA:                  -1.152
REMARK UNBOUND:                -0.883
REMARK SMILES O=C([O-])CCCCCCCCCCCCCCC(=O)[O-]
REMARK SMILES IDX 10 1 9 2 8 3 7 4 6 5 5 6 4 7 2 8 1 9 3 10 11 11 12 12 13 13
REMARK SMILES IDX 14 14 15 15 16 16 17 17 18 18 19 19 20 20
REMARK H PARENT
REMARK Flexibility Score: inf
ROOT
ATOM      1  C   UNL     1       7.243   9.905  -1.580  1.00  0.00     0.000 C 
ENDROOT
BRANCH   1   2
ATOM      2  C   UNL     1       6.798  10.804  -0.416  1.00  0.00     0.000 C 
BRANCH   2   3
ATOM      3  C   UNL     1       7.899  10.987   0.642  1.00  0.00     0.000 C 
BRANCH   3   4
ATOM      4  C   UNL     1       8.819   9.760   0.764  1.00  0.00     0.000 C 
BRANCH   4   5
ATOM      5  C   UNL     1       8.924   9.205   2.200  1.00  0.00     0.000 C 
BRANCH   5   6
ATOM      6  C   UNL     1       9.243   7.700   2.216  1.00  0.00     0.006 C 
BRANCH   6   7
ATOM      7  C   UNL     1       9.230   7.089   0.808  1.00  0.00     0.053 C 
BRANCH   7   8
ATOM      8  C   UNL     1       9.437   5.606   0.848  1.00  0.00     0.041 C 
ATOM      9  O   UNL     1      10.096   5.081   1.783  1.00  0.00    -0.550 OA
ATOM     10  O   UNL     1       8.925   4.805  -0.166  1.00  0.00    -0.550 OA
ENDBRANCH   7   8
ENDBRANCH   6   7
ENDBRANCH   5   6
ENDBRANCH   4   5
ENDBRANCH   3   4
ENDBRANCH   2   3
ENDBRANCH   1   2
BRANCH   1  11
ATOM     11  C   UNL     1       6.214   8.809  -1.911  1.00  0.00     0.000 C 
BRANCH  11  12
ATOM     12  C   UNL     1       6.824   7.398  -1.888  1.00  0.00     0.000 C 
BRANCH  12  13
ATOM     13  C   UNL     1       7.758   7.140  -3.084  1.00  0.00     0.000 C 
BRANCH  13  14
ATOM     14  C   UNL     1       7.629   5.711  -3.636  1.00  0.00     0.000 C 
BRANCH  14  15
ATOM     15  C   UNL     1       8.430   5.500  -4.930  1.00  0.00     0.000 C 
BRANCH  15  16
ATOM     16  C   UNL     1       7.688   6.094  -6.137  1.00  0.00     0.006 C 
BRANCH  16  17
ATOM     17  C   UNL     1       7.812   5.212  -7.387  1.00  0.00     0.053 C 
BRANCH  17  18
ATOM     18  C   UNL     1       8.073   6.024  -8.617  1.00  0.00     0.041 C 
ATOM     19  O   UNL     1       7.283   6.949  -8.945  1.00  0.00    -0.550 OA
ATOM     20  O   UNL     1       9.169   5.739  -9.421  1.00  0.00    -0.550 OA
ENDBRANCH  17  18
ENDBRANCH  16  17
ENDBRANCH  15  16
ENDBRANCH  14  15
ENDBRANCH  13  14
ENDBRANCH  12  13
ENDBRANCH  11  12
ENDBRANCH   1  11
TORSDOF 15
ENDMDL
MODEL 6
REMARK VINA RESULT:    -4.401     16.776     18.669
REMARK INTER + INTRA:          -9.143
REMARK INTER:                  -6.954
REMARK INTRA:                  -2.189
REMARK UNBOUND:                -0.883
REMARK SMILES O=C([O-])CCCCCCCCCCCCCCC(=O)[O-]
REMARK SMILES IDX 10 1 9 2 8 3 7 4 6 5 5 6 4 7 2 8 1 9 3 10 11 11 12 12 13 13
REMARK SMILES IDX 14 14 15 15 16 16 17 17 18 18 19 19 20 20
REMARK H PARENT
REMARK Flexibility Score: inf
ROOT
ATOM      1  C   UNL     1      -0.150  -7.108  -7.743  1.00  0.00     0.000 C 
ENDROOT
BRANCH   1   2
ATOM      2  C   UNL     1      -1.544  -6.783  -8.300  1.00  0.00     0.000 C 
BRANCH   2   3
ATOM      3  C   UNL     1      -1.486  -5.905  -9.561  1.00  0.00     0.000 C 
BRANCH   3   4
ATOM      4  C   UNL     1      -2.277  -4.594  -9.412  1.00  0.00     0.000 C 
BRANCH   4   5
ATOM      5  C   UNL     1      -2.609  -4.234  -7.949  1.00  0.00     0.000 C 
BRANCH   5   6
ATOM      6  C   UNL     1      -4.043  -3.695  -7.797  1.00  0.00     0.006 C 
BRANCH   6   7
ATOM      7  C   UNL     1      -4.761  -4.294  -6.581  1.00  0.00     0.053 C 
BRANCH   7   8
ATOM      8  C   UNL     1      -6.141  -3.732  -6.423  1.00  0.00     0.041 C 
ATOM      9  O   UNL     1      -6.631  -2.992  -7.316  1.00  0.00    -0.550 OA
ATOM     10  O   UNL     1      -6.875  -4.002  -5.275  1.00  0.00    -0.550 OA
ENDBRANCH   7   8
ENDBRANCH   6   7
ENDBRANCH   5   6
ENDBRANCH   4   5
ENDBRANCH   3   4
ENDBRANCH   2   3
ENDBRANCH   1   2
BRANCH   1  11
ATOM     11  C   UNL     1       0.142  -6.385  -6.415  1.00  0.00     0.000 C 
BRANCH  11  12
ATOM     12  C   UNL     1       1.297  -5.377  -6.531  1.00  0.00     0.000 C 
BRANCH  12  13
ATOM     13  C   UNL     1       0.938  -4.168  -7.411  1.00  0.00     0.000 C 
BRANCH  13  14
ATOM     14  C   UNL     1       1.654  -4.194  -8.771  1.00  0.00     0.000 C 
BRANCH  14  15
ATOM     15  C   UNL     1       1.143  -3.109  -9.731  1.00  0.00     0.000 C 
BRANCH  15  16
ATOM     16  C   UNL     1       0.534  -1.932  -8.954  1.00  0.00     0.006 C 
BRANCH  16  17
ATOM     17  C   UNL     1      -0.542  -1.194  -9.764  1.00  0.00     0.053 C 
BRANCH  17  18
ATOM     18  C   UNL     1      -1.598  -0.606  -8.880  1.00  0.00     0.041 C 
ATOM     19  O   UNL     1      -2.809  -0.654  -9.222  1.00  0.00    -0.550 OA
ATOM     20  O   UNL     1      -1.242   0.025  -7.695  1.00  0.00    -0.550 OA
ENDBRANCH  17  18
ENDBRANCH  16  17
ENDBRANCH  15  16
ENDBRANCH  14  15
ENDBRANCH  13  14
ENDBRANCH  12  13
ENDBRANCH  11  12
ENDBRANCH   1  11
TORSDOF 15
ENDMDL
MODEL 7
REMARK VINA RESULT:    -4.386     14.981     17.502
REMARK INTER + INTRA:          -9.115
REMARK INTER:                  -7.467
REMARK INTRA:                  -1.648
REMARK UNBOUND:                -0.883
REMARK SMILES O=C([O-])CCCCCCCCCCCCCCC(=O)[O-]
REMARK SMILES IDX 10 1 9 2 8 3 7 4 6 5 5 6 4 7 2 8 1 9 3 10 11 11 12 12 13 13
REMARK SMILES IDX 14 14 15 15 16 16 17 17 18 18 19 19 20 20
REMARK H PARENT
REMARK Flexibility Score: inf
ROOT
ATOM      1  C   UNL     1       8.669   5.256  -0.307  1.00  0.00     0.000 C 
ENDROOT
BRANCH   1   2
ATOM      2  C   UNL     1       9.446   6.548  -0.605  1.00  0.00     0.000 C 
BRANCH   2   3
ATOM      3  C   UNL     1       8.614   7.813  -0.331  1.00  0.00     0.000 C 
BRANCH   3   4
ATOM      4  C   UNL     1       8.769   8.878  -1.431  1.00  0.00     0.000 C 
BRANCH   4   5
ATOM      5  C   UNL     1       7.701   8.783  -2.539  1.00  0.00     0.000 C 
BRANCH   5   6
ATOM      6  C   UNL     1       6.274   8.941  -1.983  1.00  0.00     0.006 C 
BRANCH   6   7
ATOM      7  C   UNL     1       5.702  10.340  -2.245  1.00  0.00     0.053 C 
BRANCH   7   8
ATOM      8  C   UNL     1       4.219  10.378  -2.033  1.00  0.00     0.041 C 
ATOM      9  O   UNL     1       3.447  10.642  -2.993  1.00  0.00    -0.550 OA
ATOM     10  O   UNL     1       3.691  10.152  -0.768  1.00  0.00    -0.550 OA
ENDBRANCH   7   8
ENDBRANCH   6   7
ENDBRANCH   5   6
ENDBRANCH   4   5
ENDBRANCH   3   4
ENDBRANCH   2   3
ENDBRANCH   1   2
BRANCH   1  11
ATOM     11  C   UNL     1       8.267   4.497  -1.585  1.00  0.00     0.000 C 
BRANCH  11  12
ATOM     12  C   UNL     1       6.910   4.955  -2.144  1.00  0.00     0.000 C 
BRANCH  12  13
ATOM     13  C   UNL     1       7.002   5.419  -3.607  1.00  0.00     0.000 C 
BRANCH  13  14
ATOM     14  C   UNL     1       8.380   5.141  -4.230  1.00  0.00     0.000 C 
BRANCH  14  15
ATOM     15  C   UNL     1       8.675   6.036  -5.444  1.00  0.00     0.000 C 
BRANCH  15  16
ATOM     16  C   UNL     1       8.173   5.384  -6.740  1.00  0.00     0.006 C 
BRANCH  16  17
ATOM     17  C   UNL     1       7.396   6.369  -7.625  1.00  0.00     0.053 C 
BRANCH  17  18
ATOM     18  C   UNL     1       8.240   7.540  -8.026  1.00  0.00     0.041 C 
ATOM     19  O   UNL     1       8.096   8.651  -7.452  1.00  0.00    -0.550 OA
ATOM     20  O   UNL     1       9.162   7.413  -9.057  1.00  0.00    -0.550 OA
ENDBRANCH  17  18
ENDBRANCH  16  17
ENDBRANCH  15  16
ENDBRANCH  14  15
ENDBRANCH  13  14
ENDBRANCH  12  13
ENDBRANCH  11  12
ENDBRANCH   1  11
TORSDOF 15
ENDMDL
MODEL 8
REMARK VINA RESULT:    -4.385     16.890     18.758
REMARK INTER + INTRA:          -9.113
REMARK INTER:                  -6.863
REMARK INTRA:                  -2.250
REMARK UNBOUND:                -0.883
REMARK SMILES O=C([O-])CCCCCCCCCCCCCCC(=O)[O-]
REMARK SMILES IDX 10 1 9 2 8 3 7 4 6 5 5 6 4 7 2 8 1 9 3 10 11 11 12 12 13 13
REMARK SMILES IDX 14 14 15 15 16 16 17 17 18 18 19 19 20 20
REMARK H PARENT
REMARK Flexibility Score: inf
ROOT
ATOM      1  C   UNL     1       1.761  -5.341  -8.119  1.00  0.00     0.000 C 
ENDROOT
BRANCH   1   2
ATOM      2  C   UNL     1       1.339  -5.059  -6.669  1.00  0.00     0.000 C 
BRANCH   2   3
ATOM      3  C   UNL     1      -0.103  -5.510  -6.377  1.00  0.00     0.000 C 
BRANCH   3   4
ATOM      4  C   UNL     1      -0.717  -6.328  -7.526  1.00  0.00     0.000 C 
BRANCH   4   5
ATOM      5  C   UNL     1      -1.961  -5.671  -8.158  1.00  0.00     0.000 C 
BRANCH   5   6
ATOM      6  C   UNL     1      -2.401  -4.411  -7.391  1.00  0.00     0.006 C 
BRANCH   6   7
ATOM      7  C   UNL     1      -3.739  -3.860  -7.901  1.00  0.00     0.053 C 
BRANCH   7   8
ATOM      8  C   UNL     1      -4.902  -4.536  -7.242  1.00  0.00     0.041 C 
ATOM      9  O   UNL     1      -5.425  -5.554  -7.768  1.00  0.00    -0.550 OA
ATOM     10  O   UNL     1      -5.427  -4.025  -6.063  1.00  0.00    -0.550 OA
ENDBRANCH   7   8
ENDBRANCH   6   7
ENDBRANCH   5   6
ENDBRANCH   4   5
ENDBRANCH   3   4
ENDBRANCH   2   3
ENDBRANCH   1   2
BRANCH   1  11
ATOM     11  C   UNL     1       1.821  -4.065  -8.978  1.00  0.00     0.000 C 
BRANCH  11  12
ATOM     12  C   UNL     1       0.707  -4.010 -10.036  1.00  0.00     0.000 C 
BRANCH  12  13
ATOM     13  C   UNL     1      -0.203  -2.780  -9.871  1.00  0.00     0.000 C 
BRANCH  13  14
ATOM     14  C   UNL     1       0.178  -1.923  -8.653  1.00  0.00     0.000 C 
BRANCH  14  15
ATOM     15  C   UNL     1      -0.974  -1.026  -8.176  1.00  0.00     0.000 C 
BRANCH  15  16
ATOM     16  C   UNL     1      -1.561  -0.219  -9.343  1.00  0.00     0.006 C 
BRANCH  16  17
ATOM     17  C   UNL     1      -3.090  -0.110  -9.266  1.00  0.00     0.053 C 
BRANCH  17  18
ATOM     18  C   UNL     1      -3.529   1.246  -8.807  1.00  0.00     0.041 C 
ATOM     19  O   UNL     1      -2.763   1.956  -8.104  1.00  0.00    -0.550 OA
ATOM     20  O   UNL     1      -4.798   1.713  -9.128  1.00  0.00    -0.550 OA
ENDBRANCH  17  18
ENDBRANCH  16  17
ENDBRANCH  15  16
ENDBRANCH  14  15
ENDBRANCH  13  14
ENDBRANCH  12  13
ENDBRANCH  11  12
ENDBRANCH   1  11
TORSDOF 15
ENDMDL
MODEL 9
REMARK VINA RESULT:    -4.357     14.655     16.740
REMARK INTER + INTRA:          -9.061
REMARK INTER:                  -7.944
REMARK INTRA:                  -1.116
REMARK UNBOUND:                -0.883
REMARK SMILES O=C([O-])CCCCCCCCCCCCCCC(=O)[O-]
REMARK SMILES IDX 10 1 9 2 8 3 7 4 6 5 5 6 4 7 2 8 1 9 3 10 11 11 12 12 13 13
REMARK SMILES IDX 14 14 15 15 16 16 17 17 18 18 19 19 20 20
REMARK H PARENT
REMARK Flexibility Score: inf
ROOT
ATOM      1  C   UNL     1       6.067   9.905  -1.573  1.00  0.00     0.000 C 
ENDROOT
BRANCH   1   2
ATOM      2  C   UNL     1       6.779  10.920  -0.665  1.00  0.00     0.000 C 
BRANCH   2   3
ATOM      3  C   UNL     1       8.239  10.531  -0.378  1.00  0.00     0.000 C 
BRANCH   3   4
ATOM      4  C   UNL     1       8.452  10.033   1.062  1.00  0.00     0.000 C 
BRANCH   4   5
ATOM      5  C   UNL     1       9.177   8.674   1.146  1.00  0.00     0.000 C 
BRANCH   5   6
ATOM      6  C   UNL     1       9.205   8.121   2.582  1.00  0.00     0.006 C 
BRANCH   6   7
ATOM      7  C   UNL     1       9.361   6.596   2.614  1.00  0.00     0.053 C 
BRANCH   7   8
ATOM      8  C   UNL     1       9.698   6.103   3.988  1.00  0.00     0.041 C 
ATOM      9  O   UNL     1       9.919   4.879   4.187  1.00  0.00    -0.550 OA
ATOM     10  O   UNL     1       9.738   6.991   5.055  1.00  0.00    -0.550 OA
ENDBRANCH   7   8
ENDBRANCH   6   7
ENDBRANCH   5   6
ENDBRANCH   4   5
ENDBRANCH   3   4
ENDBRANCH   2   3
ENDBRANCH   1   2
BRANCH   1  11
ATOM     11  C   UNL     1       7.032   8.868  -2.175  1.00  0.00     0.000 C 
BRANCH  11  12
ATOM     12  C   UNL     1       6.535   7.424  -1.999  1.00  0.00     0.000 C 
BRANCH  12  13
ATOM     13  C   UNL     1       7.650   6.468  -1.543  1.00  0.00     0.000 C 
BRANCH  13  14
ATOM     14  C   UNL     1       7.707   5.182  -2.384  1.00  0.00     0.000 C 
BRANCH  14  15
ATOM     15  C   UNL     1       7.135   5.371  -3.797  1.00  0.00     0.000 C 
BRANCH  15  16
ATOM     16  C   UNL     1       8.199   5.944  -4.746  1.00  0.00     0.006 C 
BRANCH  16  17
ATOM     17  C   UNL     1       8.109   5.337  -6.153  1.00  0.00     0.053 C 
BRANCH  17  18
ATOM     18  C   UNL     1       7.868   6.384  -7.196  1.00  0.00     0.041 C 
ATOM     19  O   UNL     1       6.988   6.207  -8.080  1.00  0.00    -0.550 OA
ATOM     20  O   UNL     1       8.636   7.541  -7.213  1.00  0.00    -0.550 OA
ENDBRANCH  17  18
ENDBRANCH  16  17
ENDBRANCH  15  16
ENDBRANCH  14  15
ENDBRANCH  13  14
ENDBRANCH  12  13
ENDBRANCH  11  12
ENDBRANCH   1  11
TORSDOF 15
ENDMDL
