MODEL 1
REMARK VINA RESULT:    -5.297      0.000      0.000
REMARK INTER + INTRA:          -8.332
REMARK INTER:                  -8.084
REMARK INTRA:                  -0.249
REMARK UNBOUND:                -0.249
REMARK SMILES CC1=CCC[C@@H](C)C(=O)C[C@H](C(C)C)C(=O)C1
REMARK SMILES IDX 8 1 9 2 6 3 7 4 5 5 4 6 3 7 2 8 1 9 10 11 11 12 15 13 16 14
REMARK SMILES IDX 17 15 12 17 13 18 14 19
REMARK H PARENT
REMARK Flexibility Score: 70.00
ROOT
ATOM      1  C   UNL     1      -8.612  32.847  22.144  1.00  0.00     0.136 C 
ATOM      2  O   UNL     1      -8.140  32.671  21.028  1.00  0.00    -0.299 OA
ENDROOT
BRANCH   1   3
ATOM      3  C   UNL     1      -8.342  34.148  22.873  1.00  0.00     0.053 C 
ATOM      4  C   UNL     1      -7.454  35.046  22.007  1.00  0.00     0.016 C 
BRANCH   3   5
ATOM      5  C   UNL     1      -7.683  33.910  24.249  1.00  0.00     0.015 C 
BRANCH   5   6
ATOM      6  C   UNL     1      -8.504  34.420  25.447  1.00  0.00     0.028 C 
BRANCH   6   7
ATOM      7  C   UNL     1      -8.413  33.534  26.668  1.00  0.00    -0.028 C 
ATOM      8  C   UNL     1      -8.993  32.322  26.865  1.00  0.00    -0.070 CG0
ATOM      9  C   UNL     1      -8.649  31.607  28.152  1.00  0.00     0.039 C 
ATOM     10  G   UNL     1     -10.022  31.671  25.947  1.00  0.00     0.000 G0
ENDBRANCH   6   7
ENDBRANCH   5   6
ENDBRANCH   3   5
ENDBRANCH   1   3
BRANCH   1  11
ATOM     11  C   UNL     1      -9.481  31.773  22.747  1.00  0.00     0.087 C 
BRANCH  11  12
ATOM     12  C   UNL     1      -8.705  30.882  23.757  1.00  0.00     0.066 C 
BRANCH  12  13
ATOM     13  C   UNL     1      -9.453  30.589  25.057  1.00  0.00     0.140 C 
ATOM     14  O   UNL     1      -9.698  29.422  25.331  1.00  0.00    -0.299 OA
BRANCH  13  15
ATOM     15  C   UNL     1     -10.015  31.664  25.956  1.00  0.00     0.106 CG0
ATOM     16  G   UNL     1      -9.000  32.329  26.880  1.00  0.00     0.000 G0
ENDBRANCH  13  15
ENDBRANCH  12  13
BRANCH  12  17
ATOM     17  C   UNL     1      -8.175  29.554  23.131  1.00  0.00    -0.006 C 
ATOM     18  C   UNL     1      -6.688  29.644  22.755  1.00  0.00     0.008 C 
ATOM     19  C   UNL     1      -8.997  29.078  21.921  1.00  0.00     0.008 C 
ENDBRANCH  12  17
ENDBRANCH  11  12
ENDBRANCH   1  11
TORSDOF 1
ENDMDL
MODEL 2
REMARK VINA RESULT:    -4.739      1.754      2.918
REMARK INTER + INTRA:          -7.481
REMARK INTER:                  -7.810
REMARK INTRA:                   0.329
REMARK UNBOUND:                -0.249
REMARK SMILES CC1=CCC[C@@H](C)C(=O)C[C@H](C(C)C)C(=O)C1
REMARK SMILES IDX 8 1 9 2 6 3 7 4 5 5 4 6 3 7 2 8 1 9 10 11 11 12 15 13 16 14
REMARK SMILES IDX 17 15 12 17 13 18 14 19
REMARK H PARENT
REMARK Flexibility Score: 70.00
ROOT
ATOM      1  C   UNL     1      -8.433  34.054  24.061  1.00  0.00     0.136 C 
ATOM      2  O   UNL     1      -7.717  34.893  23.530  1.00  0.00    -0.299 OA
ENDROOT
BRANCH   1   3
ATOM      3  C   UNL     1      -8.826  34.222  25.516  1.00  0.00     0.053 C 
ATOM      4  C   UNL     1      -8.448  35.628  25.991  1.00  0.00     0.016 C 
BRANCH   3   5
ATOM      5  C   UNL     1      -8.166  33.156  26.416  1.00  0.00     0.015 C 
BRANCH   5   6
ATOM      6  C   UNL     1      -9.157  32.286  27.209  1.00  0.00     0.028 C 
BRANCH   6   7
ATOM      7  C   UNL     1      -9.759  31.159  26.402  1.00  0.00    -0.028 C 
ATOM      8  C   UNL     1      -9.139  30.354  25.499  1.00  0.00    -0.070 CG0
ATOM      9  C   UNL     1      -9.966  29.235  24.910  1.00  0.00     0.039 C 
ATOM     10  G   UNL     1      -7.720  30.542  24.971  1.00  0.00     0.000 G0
ENDBRANCH   6   7
ENDBRANCH   5   6
ENDBRANCH   3   5
ENDBRANCH   1   3
BRANCH   1  11
ATOM     11  C   UNL     1      -8.932  32.894  23.240  1.00  0.00     0.087 C 
BRANCH  11  12
ATOM     12  C   UNL     1      -7.775  32.000  22.714  1.00  0.00     0.066 C 
BRANCH  12  13
ATOM     13  C   UNL     1      -7.594  30.679  23.461  1.00  0.00     0.140 C 
ATOM     14  O   UNL     1      -7.448  29.659  22.802  1.00  0.00    -0.299 OA
BRANCH  13  15
ATOM     15  C   UNL     1      -7.715  30.547  24.961  1.00  0.00     0.106 CG0
ATOM     16  G   UNL     1      -9.136  30.357  25.480  1.00  0.00     0.000 G0
ENDBRANCH  13  15
ENDBRANCH  12  13
BRANCH  12  17
ATOM     17  C   UNL     1      -7.844  31.742  21.175  1.00  0.00    -0.006 C 
ATOM     18  C   UNL     1      -7.159  32.857  20.369  1.00  0.00     0.008 C 
ATOM     19  C   UNL     1      -9.274  31.518  20.656  1.00  0.00     0.008 C 
ENDBRANCH  12  17
ENDBRANCH  11  12
ENDBRANCH   1  11
TORSDOF 1
ENDMDL
MODEL 3
REMARK VINA RESULT:    -4.255      1.670      3.846
REMARK INTER + INTRA:          -6.743
REMARK INTER:                  -7.922
REMARK INTRA:                   1.179
REMARK UNBOUND:                -0.249
REMARK SMILES CC1=CCC[C@@H](C)C(=O)C[C@H](C(C)C)C(=O)C1
REMARK SMILES IDX 8 1 9 2 6 3 7 4 5 5 4 6 3 7 2 8 1 9 10 11 11 12 15 13 16 14
REMARK SMILES IDX 17 15 12 17 13 18 14 19
REMARK H PARENT
REMARK Flexibility Score: 70.00
ROOT
ATOM      1  C   UNL     1      -7.193  30.157  23.149  1.00  0.00     0.136 C 
ATOM      2  O   UNL     1      -6.244  30.178  23.922  1.00  0.00    -0.299 OA
ENDROOT
BRANCH   1   3
ATOM      3  C   UNL     1      -8.292  29.130  23.343  1.00  0.00     0.053 C 
ATOM      4  C   UNL     1      -8.471  28.322  22.054  1.00  0.00     0.016 C 
BRANCH   3   5
ATOM      5  C   UNL     1      -9.626  29.787  23.754  1.00  0.00     0.015 C 
BRANCH   5   6
ATOM      6  C   UNL     1      -9.981  29.636  25.244  1.00  0.00     0.028 C 
BRANCH   6   7
ATOM      7  C   UNL     1      -9.181  30.538  26.155  1.00  0.00    -0.028 C 
ATOM      8  C   UNL     1      -8.949  31.869  26.019  1.00  0.00    -0.070 CG0
ATOM      9  C   UNL     1      -8.193  32.543  27.141  1.00  0.00     0.039 C 
ATOM     10  G   UNL     1      -9.307  32.712  24.799  1.00  0.00     0.000 G0
ENDBRANCH   6   7
ENDBRANCH   5   6
ENDBRANCH   3   5
ENDBRANCH   1   3
BRANCH   1  11
ATOM     11  C   UNL     1      -7.258  31.179  22.044  1.00  0.00     0.087 C 
BRANCH  11  12
ATOM     12  C   UNL     1      -8.277  32.314  22.347  1.00  0.00     0.066 C 
BRANCH  12  13
ATOM     13  C   UNL     1      -8.199  32.884  23.762  1.00  0.00     0.140 C 
ATOM     14  O   UNL     1      -7.148  33.397  24.120  1.00  0.00    -0.299 OA
BRANCH  13  15
ATOM     15  C   UNL     1      -9.302  32.734  24.783  1.00  0.00     0.106 CG0
ATOM     16  G   UNL     1      -8.946  31.883  25.998  1.00  0.00     0.000 G0
ENDBRANCH  13  15
ENDBRANCH  12  13
BRANCH  12  17
ATOM     17  C   UNL     1      -8.243  33.470  21.299  1.00  0.00    -0.006 C 
ATOM     18  C   UNL     1      -7.344  33.138  20.097  1.00  0.00     0.008 C 
ATOM     19  C   UNL     1      -7.840  34.828  21.899  1.00  0.00     0.008 C 
ENDBRANCH  12  17
ENDBRANCH  11  12
ENDBRANCH   1  11
TORSDOF 1
ENDMDL
MODEL 4
REMARK VINA RESULT:    -4.235      1.732      3.808
REMARK INTER + INTRA:          -6.711
REMARK INTER:                  -7.253
REMARK INTRA:                   0.542
REMARK UNBOUND:                -0.249
REMARK SMILES CC1=CCC[C@@H](C)C(=O)C[C@H](C(C)C)C(=O)C1
REMARK SMILES IDX 8 1 9 2 6 3 7 4 5 5 4 6 3 7 2 8 1 9 10 11 11 12 15 13 16 14
REMARK SMILES IDX 17 15 12 17 13 18 14 19
REMARK H PARENT
REMARK Flexibility Score: 70.00
ROOT
ATOM      1  C   UNL     1      -8.745  33.129  22.004  1.00  0.00     0.136 C 
ATOM      2  O   UNL     1      -8.731  34.266  21.550  1.00  0.00    -0.299 OA
ENDROOT
BRANCH   1   3
ATOM      3  C   UNL     1      -7.690  32.134  21.563  1.00  0.00     0.053 C 
ATOM      4  C   UNL     1      -7.055  32.609  20.252  1.00  0.00     0.016 C 
BRANCH   3   5
ATOM      5  C   UNL     1      -8.272  30.715  21.394  1.00  0.00     0.015 C 
BRANCH   5   6
ATOM      6  C   UNL     1      -7.678  29.662  22.346  1.00  0.00     0.028 C 
BRANCH   6   7
ATOM      7  C   UNL     1      -8.600  29.277  23.480  1.00  0.00    -0.028 C 
ATOM      8  C   UNL     1      -8.840  29.959  24.630  1.00  0.00    -0.070 CG0
ATOM      9  C   UNL     1      -9.894  29.386  25.550  1.00  0.00     0.039 C 
ATOM     10  G   UNL     1      -8.079  31.192  25.106  1.00  0.00     0.000 G0
ENDBRANCH   6   7
ENDBRANCH   5   6
ENDBRANCH   3   5
ENDBRANCH   1   3
BRANCH   1  11
ATOM     11  C   UNL     1      -9.797  32.761  23.020  1.00  0.00     0.087 C 
BRANCH  11  12
ATOM     12  C   UNL     1      -9.508  33.375  24.418  1.00  0.00     0.066 C 
BRANCH  12  13
ATOM     13  C   UNL     1      -8.982  32.385  25.456  1.00  0.00     0.140 C 
ATOM     14  O   UNL     1      -9.203  32.616  26.637  1.00  0.00    -0.299 OA
BRANCH  13  15
ATOM     15  C   UNL     1      -8.096  31.211  25.114  1.00  0.00     0.106 CG0
ATOM     16  G   UNL     1      -8.834  29.960  24.650  1.00  0.00     0.000 G0
ENDBRANCH  13  15
ENDBRANCH  12  13
BRANCH  12  17
ATOM     17  C   UNL     1      -8.589  34.636  24.362  1.00  0.00    -0.006 C 
ATOM     18  C   UNL     1      -7.114  34.289  24.623  1.00  0.00     0.008 C 
ATOM     19  C   UNL     1      -9.039  35.765  25.304  1.00  0.00     0.008 C 
ENDBRANCH  12  17
ENDBRANCH  11  12
ENDBRANCH   1  11
TORSDOF 1
ENDMDL
MODEL 5
REMARK VINA RESULT:    -4.177      1.718      2.417
REMARK INTER + INTRA:          -6.623
REMARK INTER:                  -7.974
REMARK INTRA:                   1.351
REMARK UNBOUND:                -0.249
REMARK SMILES CC1=CCC[C@@H](C)C(=O)C[C@H](C(C)C)C(=O)C1
REMARK SMILES IDX 8 1 9 2 6 3 7 4 5 5 4 6 3 7 2 8 1 9 10 11 11 12 15 13 16 14
REMARK SMILES IDX 17 15 12 17 13 18 14 19
REMARK H PARENT
REMARK Flexibility Score: 70.00
ROOT
ATOM      1  C   UNL     1      -8.394  31.555  21.193  1.00  0.00     0.136 C 
ATOM      2  O   UNL     1      -9.480  30.995  21.113  1.00  0.00    -0.299 OA
ENDROOT
BRANCH   1   3
ATOM      3  C   UNL     1      -8.227  32.948  20.619  1.00  0.00     0.053 C 
ATOM      4  C   UNL     1      -6.776  33.147  20.170  1.00  0.00     0.016 C 
BRANCH   3   5
ATOM      5  C   UNL     1      -8.629  34.039  21.633  1.00  0.00     0.015 C 
BRANCH   5   6
ATOM      6  C   UNL     1      -7.475  34.548  22.516  1.00  0.00     0.028 C 
BRANCH   6   7
ATOM      7  C   UNL     1      -7.826  34.638  23.983  1.00  0.00    -0.028 C 
ATOM      8  C   UNL     1      -8.374  33.677  24.772  1.00  0.00    -0.070 CG0
ATOM      9  C   UNL     1      -8.526  34.010  26.239  1.00  0.00     0.039 C 
ATOM     10  G   UNL     1      -8.925  32.340  24.288  1.00  0.00     0.000 G0
ENDBRANCH   6   7
ENDBRANCH   5   6
ENDBRANCH   3   5
ENDBRANCH   1   3
BRANCH   1  11
ATOM     11  C   UNL     1      -7.260  30.851  21.893  1.00  0.00     0.087 C 
BRANCH  11  12
ATOM     12  C   UNL     1      -7.707  30.191  23.228  1.00  0.00     0.066 C 
BRANCH  12  13
ATOM     13  C   UNL     1      -7.963  31.170  24.372  1.00  0.00     0.140 C 
ATOM     14  O   UNL     1      -7.435  30.946  25.453  1.00  0.00    -0.299 OA
BRANCH  13  15
ATOM     15  C   UNL     1      -8.933  32.325  24.280  1.00  0.00     0.106 CG0
ATOM     16  G   UNL     1      -8.384  33.668  24.751  1.00  0.00     0.000 G0
ENDBRANCH  13  15
ENDBRANCH  12  13
BRANCH  12  17
ATOM     17  C   UNL     1      -8.923  29.227  23.063  1.00  0.00    -0.006 C 
ATOM     18  C   UNL     1      -9.461  28.736  24.416  1.00  0.00     0.008 C 
ATOM     19  C   UNL     1      -8.633  28.028  22.144  1.00  0.00     0.008 C 
ENDBRANCH  12  17
ENDBRANCH  11  12
ENDBRANCH   1  11
TORSDOF 1
ENDMDL
MODEL 6
REMARK VINA RESULT:    -3.946      2.182      4.045
REMARK INTER + INTRA:          -6.271
REMARK INTER:                  -6.988
REMARK INTRA:                   0.717
REMARK UNBOUND:                -0.249
REMARK SMILES CC1=CCC[C@@H](C)C(=O)C[C@H](C(C)C)C(=O)C1
REMARK SMILES IDX 8 1 9 2 6 3 7 4 5 5 4 6 3 7 2 8 1 9 10 11 11 12 15 13 16 14
REMARK SMILES IDX 17 15 12 17 13 18 14 19
REMARK H PARENT
REMARK Flexibility Score: 70.00
ROOT
ATOM      1  C   UNL     1      -9.034  33.146  25.585  1.00  0.00     0.136 C 
ATOM      2  O   UNL     1      -9.152  32.859  26.769  1.00  0.00    -0.299 OA
ENDROOT
BRANCH   1   3
ATOM      3  C   UNL     1      -8.109  34.275  25.179  1.00  0.00     0.053 C 
ATOM      4  C   UNL     1      -8.088  35.342  26.278  1.00  0.00     0.016 C 
BRANCH   3   5
ATOM      5  C   UNL     1      -8.524  34.903  23.831  1.00  0.00     0.015 C 
BRANCH   5   6
ATOM      6  C   UNL     1      -7.553  34.623  22.669  1.00  0.00     0.028 C 
BRANCH   6   7
ATOM      7  C   UNL     1      -8.125  33.718  21.603  1.00  0.00    -0.028 C 
ATOM      8  C   UNL     1      -8.194  32.361  21.608  1.00  0.00    -0.070 CG0
ATOM      9  C   UNL     1      -8.913  31.715  20.446  1.00  0.00     0.039 C 
ATOM     10  G   UNL     1      -7.535  31.443  22.632  1.00  0.00     0.000 G0
ENDBRANCH   6   7
ENDBRANCH   5   6
ENDBRANCH   3   5
ENDBRANCH   1   3
BRANCH   1  11
ATOM     11  C   UNL     1      -9.789  32.340  24.559  1.00  0.00     0.087 C 
BRANCH  11  12
ATOM     12  C   UNL     1      -9.341  30.851  24.529  1.00  0.00     0.066 C 
BRANCH  12  13
ATOM     13  C   UNL     1      -8.468  30.469  23.335  1.00  0.00     0.140 C 
ATOM     14  O   UNL     1      -8.448  29.296  22.987  1.00  0.00    -0.299 OA
BRANCH  13  15
ATOM     15  C   UNL     1      -7.534  31.433  22.642  1.00  0.00     0.106 CG0
ATOM     16  G   UNL     1      -8.198  32.360  21.630  1.00  0.00     0.000 G0
ENDBRANCH  13  15
ENDBRANCH  12  13
BRANCH  12  17
ATOM     17  C   UNL     1      -8.670  30.382  25.858  1.00  0.00    -0.006 C 
ATOM     18  C   UNL     1      -7.159  30.147  25.693  1.00  0.00     0.008 C 
ATOM     19  C   UNL     1      -9.332  29.137  26.471  1.00  0.00     0.008 C 
ENDBRANCH  12  17
ENDBRANCH  11  12
ENDBRANCH   1  11
TORSDOF 1
ENDMDL
MODEL 7
REMARK VINA RESULT:    -3.909      1.814      4.197
REMARK INTER + INTRA:          -6.215
REMARK INTER:                  -6.381
REMARK INTRA:                   0.166
REMARK UNBOUND:                -0.249
REMARK SMILES CC1=CCC[C@@H](C)C(=O)C[C@H](C(C)C)C(=O)C1
REMARK SMILES IDX 8 1 9 2 6 3 7 4 5 5 4 6 3 7 2 8 1 9 10 11 11 12 15 13 16 14
REMARK SMILES IDX 17 15 12 17 13 18 14 19
REMARK H PARENT
REMARK Flexibility Score: 70.00
ROOT
ATOM      1  C   UNL     1      -7.874  33.385  23.285  1.00  0.00     0.136 C 
ATOM      2  O   UNL     1      -6.732  33.630  23.652  1.00  0.00    -0.299 OA
ENDROOT
BRANCH   1   3
ATOM      3  C   UNL     1      -8.127  32.998  21.841  1.00  0.00     0.053 C 
ATOM      4  C   UNL     1      -7.516  34.051  20.913  1.00  0.00     0.016 C 
BRANCH   3   5
ATOM      5  C   UNL     1      -9.633  32.832  21.546  1.00  0.00     0.015 C 
BRANCH   5   6
ATOM      6  C   UNL     1     -10.035  31.436  21.037  1.00  0.00     0.028 C 
BRANCH   6   7
ATOM      7  C   UNL     1      -8.993  30.371  21.292  1.00  0.00    -0.028 C 
ATOM      8  C   UNL     1      -8.728  29.722  22.455  1.00  0.00    -0.070 CG0
ATOM      9  C   UNL     1      -7.691  28.625  22.398  1.00  0.00     0.039 C 
ATOM     10  G   UNL     1      -9.320  30.067  23.818  1.00  0.00     0.000 G0
ENDBRANCH   6   7
ENDBRANCH   5   6
ENDBRANCH   3   5
ENDBRANCH   1   3
BRANCH   1  11
ATOM     11  C   UNL     1      -8.994  33.443  24.292  1.00  0.00     0.087 C 
BRANCH  11  12
ATOM     12  C   UNL     1      -8.942  32.262  25.302  1.00  0.00     0.066 C 
BRANCH  12  13
ATOM     13  C   UNL     1      -8.464  30.935  24.713  1.00  0.00     0.140 C 
ATOM     14  O   UNL     1      -7.297  30.614  24.888  1.00  0.00    -0.299 OA
BRANCH  13  15
ATOM     15  C   UNL     1      -9.316  30.064  23.821  1.00  0.00     0.106 CG0
ATOM     16  G   UNL     1      -8.703  29.737  22.463  1.00  0.00     0.000 G0
ENDBRANCH  13  15
ENDBRANCH  12  13
BRANCH  12  17
ATOM     17  C   UNL     1      -8.141  32.594  26.600  1.00  0.00    -0.006 C 
ATOM     18  C   UNL     1      -8.701  31.861  27.830  1.00  0.00     0.008 C 
ATOM     19  C   UNL     1      -8.036  34.101  26.886  1.00  0.00     0.008 C 
ENDBRANCH  12  17
ENDBRANCH  11  12
ENDBRANCH   1  11
TORSDOF 1
ENDMDL
MODEL 8
REMARK VINA RESULT:    -3.828      2.107      4.613
REMARK INTER + INTRA:          -6.090
REMARK INTER:                  -7.281
REMARK INTRA:                   1.191
REMARK UNBOUND:                -0.249
REMARK SMILES CC1=CCC[C@@H](C)C(=O)C[C@H](C(C)C)C(=O)C1
REMARK SMILES IDX 8 1 9 2 6 3 7 4 5 5 4 6 3 7 2 8 1 9 10 11 11 12 15 13 16 14
REMARK SMILES IDX 17 15 12 17 13 18 14 19
REMARK H PARENT
REMARK Flexibility Score: 70.00
ROOT
ATOM      1  C   UNL     1      -8.677  33.563  25.230  1.00  0.00     0.136 C 
ATOM      2  O   UNL     1      -8.039  34.579  25.475  1.00  0.00    -0.299 OA
ENDROOT
BRANCH   1   3
ATOM      3  C   UNL     1      -8.868  32.521  26.315  1.00  0.00     0.053 C 
ATOM      4  C   UNL     1      -7.867  32.771  27.447  1.00  0.00     0.016 C 
BRANCH   3   5
ATOM      5  C   UNL     1      -8.712  31.086  25.768  1.00  0.00     0.015 C 
BRANCH   5   6
ATOM      6  C   UNL     1      -9.772  30.679  24.729  1.00  0.00     0.028 C 
BRANCH   6   7
ATOM      7  C   UNL     1      -9.402  29.449  23.933  1.00  0.00    -0.028 C 
ATOM      8  C   UNL     1      -8.478  29.340  22.944  1.00  0.00    -0.070 CG0
ATOM      9  C   UNL     1      -8.243  27.955  22.385  1.00  0.00     0.039 C 
ATOM     10  G   UNL     1      -7.732  30.502  22.296  1.00  0.00     0.000 G0
ENDBRANCH   6   7
ENDBRANCH   5   6
ENDBRANCH   3   5
ENDBRANCH   1   3
BRANCH   1  11
ATOM     11  C   UNL     1      -9.285  33.394  23.862  1.00  0.00     0.087 C 
BRANCH  11  12
ATOM     12  C   UNL     1      -8.222  33.052  22.780  1.00  0.00     0.066 C 
BRANCH  12  13
ATOM     13  C   UNL     1      -8.474  31.747  22.025  1.00  0.00     0.140 C 
ATOM     14  O   UNL     1      -9.418  31.703  21.249  1.00  0.00    -0.299 OA
BRANCH  13  15
ATOM     15  C   UNL     1      -7.701  30.475  22.279  1.00  0.00     0.106 CG0
ATOM     16  G   UNL     1      -8.496  29.360  22.950  1.00  0.00     0.000 G0
ENDBRANCH  13  15
ENDBRANCH  12  13
BRANCH  12  17
ATOM     17  C   UNL     1      -7.970  34.217  21.772  1.00  0.00    -0.006 C 
ATOM     18  C   UNL     1      -7.318  33.724  20.469  1.00  0.00     0.008 C 
ATOM     19  C   UNL     1      -7.151  35.374  22.366  1.00  0.00     0.008 C 
ENDBRANCH  12  17
ENDBRANCH  11  12
ENDBRANCH   1  11
TORSDOF 1
ENDMDL
MODEL 9
REMARK VINA RESULT:    -3.712      1.466      3.673
REMARK INTER + INTRA:          -5.914
REMARK INTER:                  -6.707
REMARK INTRA:                   0.793
REMARK UNBOUND:                -0.249
REMARK SMILES CC1=CCC[C@@H](C)C(=O)C[C@H](C(C)C)C(=O)C1
REMARK SMILES IDX 8 1 9 2 6 3 7 4 5 5 4 6 3 7 2 8 1 9 10 11 11 12 15 13 16 14
REMARK SMILES IDX 17 15 12 17 13 18 14 19
REMARK H PARENT
REMARK Flexibility Score: 70.00
ROOT
ATOM      1  C   UNL     1      -8.673  31.240  22.612  1.00  0.00     0.136 C 
ATOM      2  O   UNL     1      -8.222  31.362  21.481  1.00  0.00    -0.299 OA
ENDROOT
BRANCH   1   3
ATOM      3  C   UNL     1      -8.138  30.147  23.516  1.00  0.00     0.053 C 
ATOM      4  C   UNL     1      -6.694  29.819  23.123  1.00  0.00     0.016 C 
BRANCH   3   5
ATOM      5  C   UNL     1      -9.011  28.876  23.459  1.00  0.00     0.015 C 
BRANCH   5   6
ATOM      6  C   UNL     1     -10.048  28.761  24.591  1.00  0.00     0.028 C 
BRANCH   6   7
ATOM      7  C   UNL     1      -9.478  29.013  25.967  1.00  0.00    -0.028 C 
ATOM      8  C   UNL     1      -9.539  30.155  26.701  1.00  0.00    -0.070 CG0
ATOM      9  C   UNL     1      -8.965  30.095  28.098  1.00  0.00     0.039 C 
ATOM     10  G   UNL     1     -10.050  31.503  26.203  1.00  0.00     0.000 G0
ENDBRANCH   6   7
ENDBRANCH   5   6
ENDBRANCH   3   5
ENDBRANCH   1   3
BRANCH   1  11
ATOM     11  C   UNL     1      -9.726  32.208  23.087  1.00  0.00     0.087 C 
BRANCH  11  12
ATOM     12  C   UNL     1      -9.216  33.122  24.236  1.00  0.00     0.066 C 
BRANCH  12  13
ATOM     13  C   UNL     1      -8.999  32.412  25.572  1.00  0.00     0.140 C 
ATOM     14  O   UNL     1      -7.889  32.470  26.082  1.00  0.00    -0.299 OA
BRANCH  13  15
ATOM     15  C   UNL     1     -10.040  31.538  26.230  1.00  0.00     0.106 CG0
ATOM     16  G   UNL     1      -9.536  30.179  26.703  1.00  0.00     0.000 G0
ENDBRANCH  13  15
ENDBRANCH  12  13
BRANCH  12  17
ATOM     17  C   UNL     1      -7.946  33.945  23.852  1.00  0.00    -0.006 C 
ATOM     18  C   UNL     1      -7.596  35.000  24.914  1.00  0.00     0.008 C 
ATOM     19  C   UNL     1      -8.039  34.602  22.465  1.00  0.00     0.008 C 
ENDBRANCH  12  17
ENDBRANCH  11  12
ENDBRANCH   1  11
TORSDOF 1
ENDMDL
