MODEL 1
REMARK VINA RESULT:    -3.255      0.000      0.000
REMARK INTER + INTRA:          -3.934
REMARK INTER:                  -3.826
REMARK INTRA:                  -0.109
REMARK UNBOUND:                -0.109
REMARK SMILES CCCCC(=O)[O-]
REMARK SMILES IDX 4 1 5 2 6 3 7 4 3 5 2 6 1 7
REMARK H PARENT
REMARK Flexibility Score: inf
ROOT
ATOM      1  C   UNL     1      -7.888 -11.538  13.482  1.00  0.00     0.053 C 
ENDROOT
BRANCH   1   2
ATOM      2  C   UNL     1      -6.641 -11.305  14.278  1.00  0.00     0.041 C 
ATOM      3  O   UNL     1      -5.512 -11.391  13.727  1.00  0.00    -0.550 OA
ATOM      4  O   UNL     1      -6.720 -11.025  15.637  1.00  0.00    -0.550 OA
ENDBRANCH   1   2
BRANCH   1   5
ATOM      5  C   UNL     1      -9.141 -10.967  14.168  1.00  0.00     0.006 C 
BRANCH   5   6
ATOM      6  C   UNL     1     -10.184 -12.033  14.546  1.00  0.00    -0.003 C 
ATOM      7  C   UNL     1      -9.911 -12.693  15.896  1.00  0.00     0.004 C 
ENDBRANCH   5   6
ENDBRANCH   1   5
TORSDOF 3
ENDMDL
MODEL 2
REMARK VINA RESULT:    -3.226      1.569      2.002
REMARK INTER + INTRA:          -3.901
REMARK INTER:                  -3.797
REMARK INTRA:                  -0.103
REMARK UNBOUND:                -0.109
REMARK SMILES CCCCC(=O)[O-]
REMARK SMILES IDX 4 1 5 2 6 3 7 4 3 5 2 6 1 7
REMARK H PARENT
REMARK Flexibility Score: inf
ROOT
ATOM      1  C   UNL     1      -8.016 -11.547  14.977  1.00  0.00     0.053 C 
ENDROOT
BRANCH   1   2
ATOM      2  C   UNL     1      -7.291 -12.156  13.816  1.00  0.00     0.041 C 
ATOM      3  O   UNL     1      -6.035 -12.100  13.753  1.00  0.00    -0.550 OA
ATOM      4  O   UNL     1      -8.004 -12.757  12.785  1.00  0.00    -0.550 OA
ENDBRANCH   1   2
BRANCH   1   5
ATOM      5  C   UNL     1      -8.612 -12.604  15.921  1.00  0.00     0.006 C 
BRANCH   5   6
ATOM      6  C   UNL     1     -10.148 -12.685  15.875  1.00  0.00    -0.003 C 
ATOM      7  C   UNL     1     -10.665 -13.900  15.106  1.00  0.00     0.004 C 
ENDBRANCH   5   6
ENDBRANCH   1   5
TORSDOF 3
ENDMDL
MODEL 3
REMARK VINA RESULT:    -3.222      0.761      1.441
REMARK INTER + INTRA:          -3.895
REMARK INTER:                  -3.786
REMARK INTRA:                  -0.109
REMARK UNBOUND:                -0.109
REMARK SMILES CCCCC(=O)[O-]
REMARK SMILES IDX 4 1 5 2 6 3 7 4 3 5 2 6 1 7
REMARK H PARENT
REMARK Flexibility Score: inf
ROOT
ATOM      1  C   UNL     1      -7.985 -10.461  13.891  1.00  0.00     0.053 C 
ENDROOT
BRANCH   1   2
ATOM      2  C   UNL     1      -6.795 -10.983  14.636  1.00  0.00     0.041 C 
ATOM      3  O   UNL     1      -6.803 -11.028  15.894  1.00  0.00    -0.550 OA
ATOM      4  O   UNL     1      -5.660 -11.390  13.943  1.00  0.00    -0.550 OA
ENDBRANCH   1   2
BRANCH   1   5
ATOM      5  C   UNL     1      -9.297 -11.136  14.328  1.00  0.00     0.006 C 
BRANCH   5   6
ATOM      6  C   UNL     1      -9.319 -12.658  14.105  1.00  0.00    -0.003 C 
ATOM      7  C   UNL     1      -9.862 -13.435  15.304  1.00  0.00     0.004 C 
ENDBRANCH   5   6
ENDBRANCH   1   5
TORSDOF 3
ENDMDL
MODEL 4
REMARK VINA RESULT:    -3.099      5.236      6.329
REMARK INTER + INTRA:          -3.751
REMARK INTER:                  -3.690
REMARK INTRA:                  -0.061
REMARK UNBOUND:                -0.109
REMARK SMILES CCCCC(=O)[O-]
REMARK SMILES IDX 4 1 5 2 6 3 7 4 3 5 2 6 1 7
REMARK H PARENT
REMARK Flexibility Score: inf
ROOT
ATOM      1  C   UNL     1     -12.917 -14.147  14.774  1.00  0.00     0.053 C 
ENDROOT
BRANCH   1   2
ATOM      2  C   UNL     1     -13.996 -13.714  13.829  1.00  0.00     0.041 C 
ATOM      3  O   UNL     1     -14.416 -12.527  13.847  1.00  0.00    -0.550 OA
ATOM      4  O   UNL     1     -14.562 -14.628  12.948  1.00  0.00    -0.550 OA
ENDBRANCH   1   2
BRANCH   1   5
ATOM      5  C   UNL     1     -12.590 -13.074  15.827  1.00  0.00     0.006 C 
BRANCH   5   6
ATOM      6  C   UNL     1     -11.087 -12.778  15.968  1.00  0.00    -0.003 C 
ATOM      7  C   UNL     1     -10.207 -13.724  15.153  1.00  0.00     0.004 C 
ENDBRANCH   5   6
ENDBRANCH   1   5
TORSDOF 3
ENDMDL
MODEL 5
REMARK VINA RESULT:    -3.074      5.678      6.578
REMARK INTER + INTRA:          -3.722
REMARK INTER:                  -3.649
REMARK INTRA:                  -0.073
REMARK UNBOUND:                -0.109
REMARK SMILES CCCCC(=O)[O-]
REMARK SMILES IDX 4 1 5 2 6 3 7 4 3 5 2 6 1 7
REMARK H PARENT
REMARK Flexibility Score: inf
ROOT
ATOM      1  C   UNL     1     -13.609 -11.928  13.309  1.00  0.00     0.053 C 
ENDROOT
BRANCH   1   2
ATOM      2  C   UNL     1     -14.766 -12.874  13.411  1.00  0.00     0.041 C 
ATOM      3  O   UNL     1     -14.701 -14.016  12.885  1.00  0.00    -0.550 OA
ATOM      4  O   UNL     1     -15.932 -12.483  14.060  1.00  0.00    -0.550 OA
ENDBRANCH   1   2
BRANCH   1   5
ATOM      5  C   UNL     1     -12.296 -12.544  13.823  1.00  0.00     0.006 C 
BRANCH   5   6
ATOM      6  C   UNL     1     -12.290 -12.824  15.335  1.00  0.00    -0.003 C 
ATOM      7  C   UNL     1     -10.889 -12.814  15.945  1.00  0.00     0.004 C 
ENDBRANCH   5   6
ENDBRANCH   1   5
TORSDOF 3
ENDMDL
MODEL 6
REMARK VINA RESULT:    -3.053      7.362      8.610
REMARK INTER + INTRA:          -3.697
REMARK INTER:                  -3.596
REMARK INTRA:                  -0.101
REMARK UNBOUND:                -0.109
REMARK SMILES CCCCC(=O)[O-]
REMARK SMILES IDX 4 1 5 2 6 3 7 4 3 5 2 6 1 7
REMARK H PARENT
REMARK Flexibility Score: inf
ROOT
ATOM      1  C   UNL     1     -16.213 -12.787  13.830  1.00  0.00     0.053 C 
ENDROOT
BRANCH   1   2
ATOM      2  C   UNL     1     -16.819 -13.850  14.694  1.00  0.00     0.041 C 
ATOM      3  O   UNL     1     -16.541 -13.904  15.921  1.00  0.00    -0.550 OA
ATOM      4  O   UNL     1     -17.666 -14.802  14.140  1.00  0.00    -0.550 OA
ENDBRANCH   1   2
BRANCH   1   5
ATOM      5  C   UNL     1     -15.005 -13.299  13.025  1.00  0.00     0.006 C 
BRANCH   5   6
ATOM      6  C   UNL     1     -13.646 -12.959  13.659  1.00  0.00    -0.003 C 
ATOM      7  C   UNL     1     -13.118 -14.057  14.581  1.00  0.00     0.004 C 
ENDBRANCH   5   6
ENDBRANCH   1   5
TORSDOF 3
ENDMDL
MODEL 7
REMARK VINA RESULT:    -3.029      4.192      5.378
REMARK INTER + INTRA:          -3.669
REMARK INTER:                  -3.592
REMARK INTRA:                  -0.077
REMARK UNBOUND:                -0.109
REMARK SMILES CCCCC(=O)[O-]
REMARK SMILES IDX 4 1 5 2 6 3 7 4 3 5 2 6 1 7
REMARK H PARENT
REMARK Flexibility Score: inf
ROOT
ATOM      1  C   UNL     1     -12.443 -13.937  14.866  1.00  0.00     0.053 C 
ENDROOT
BRANCH   1   2
ATOM      2  C   UNL     1     -13.059 -12.596  14.610  1.00  0.00     0.041 C 
ATOM      3  O   UNL     1     -13.868 -12.101  15.439  1.00  0.00    -0.550 OA
ATOM      4  O   UNL     1     -12.767 -11.904  13.440  1.00  0.00    -0.550 OA
ENDBRANCH   1   2
BRANCH   1   5
ATOM      5  C   UNL     1     -10.909 -13.873  14.960  1.00  0.00     0.006 C 
BRANCH   5   6
ATOM      6  C   UNL     1     -10.387 -12.752  15.875  1.00  0.00    -0.003 C 
ATOM      7  C   UNL     1      -8.864 -12.739  16.005  1.00  0.00     0.004 C 
ENDBRANCH   5   6
ENDBRANCH   1   5
TORSDOF 3
ENDMDL
MODEL 8
REMARK VINA RESULT:    -2.977      2.889      3.968
REMARK INTER + INTRA:          -3.608
REMARK INTER:                  -3.509
REMARK INTRA:                  -0.099
REMARK UNBOUND:                -0.109
REMARK SMILES CCCCC(=O)[O-]
REMARK SMILES IDX 4 1 5 2 6 3 7 4 3 5 2 6 1 7
REMARK H PARENT
REMARK Flexibility Score: inf
ROOT
ATOM      1  C   UNL     1     -11.135 -13.136  15.600  1.00  0.00     0.053 C 
ENDROOT
BRANCH   1   2
ATOM      2  C   UNL     1      -9.697 -13.171  15.182  1.00  0.00     0.041 C 
ATOM      3  O   UNL     1      -8.787 -13.248  16.049  1.00  0.00    -0.550 OA
ATOM      4  O   UNL     1      -9.358 -13.085  13.837  1.00  0.00    -0.550 OA
ENDBRANCH   1   2
BRANCH   1   5
ATOM      5  C   UNL     1     -11.988 -14.186  14.868  1.00  0.00     0.006 C 
BRANCH   5   6
ATOM      6  C   UNL     1     -13.172 -13.592  14.086  1.00  0.00    -0.003 C 
ATOM      7  C   UNL     1     -12.966 -12.128  13.700  1.00  0.00     0.004 C 
ENDBRANCH   5   6
ENDBRANCH   1   5
TORSDOF 3
ENDMDL
