MODEL 1
REMARK VINA RESULT:    -4.364      0.000      0.000
REMARK INTER + INTRA:         -12.915
REMARK INTER:                  -9.466
REMARK INTRA:                  -3.449
REMARK UNBOUND:                -3.449
REMARK SMILES CCCCCCCCCCCCCCCCCCCCCC(=O)[O-]
REMARK SMILES IDX 12 1 11 2 10 3 9 4 8 5 7 6 6 7 5 8 4 9 3 10 2 11 1 12 13 13
REMARK SMILES IDX 14 14 15 15 16 16 17 17 18 18 19 19 20 20 21 21 22 22 23 23
REMARK SMILES IDX 24 24
REMARK H PARENT
REMARK Flexibility Score: inf
ROOT
ATOM      1  C   UNL     1       4.958  38.336  -2.060  1.00  0.00     0.000 C 
ENDROOT
BRANCH   1   2
ATOM      2  C   UNL     1       4.755  37.040  -2.874  1.00  0.00     0.000 C 
BRANCH   2   3
ATOM      3  C   UNL     1       3.657  36.137  -2.284  1.00  0.00     0.000 C 
BRANCH   3   4
ATOM      4  C   UNL     1       4.227  34.965  -1.468  1.00  0.00    -0.000 C 
BRANCH   4   5
ATOM      5  C   UNL     1       4.798  33.848  -2.360  1.00  0.00    -0.000 C 
BRANCH   5   6
ATOM      6  C   UNL     1       6.330  33.751  -2.278  1.00  0.00    -0.000 C 
BRANCH   6   7
ATOM      7  C   UNL     1       6.915  34.580  -1.121  1.00  0.00    -0.000 C 
BRANCH   7   8
ATOM      8  C   UNL     1       8.258  35.243  -1.481  1.00  0.00    -0.000 C 
BRANCH   8   9
ATOM      9  C   UNL     1       9.505  34.360  -1.266  1.00  0.00    -0.000 C 
BRANCH   9  10
ATOM     10  C   UNL     1       9.412  33.375  -0.088  1.00  0.00    -0.000 C 
BRANCH  10  11
ATOM     11  C   UNL     1       9.604  31.913  -0.516  1.00  0.00    -0.003 C 
ATOM     12  C   UNL     1      10.775  31.772  -1.484  1.00  0.00     0.004 C 
ENDBRANCH  10  11
ENDBRANCH   9  10
ENDBRANCH   8   9
ENDBRANCH   7   8
ENDBRANCH   6   7
ENDBRANCH   5   6
ENDBRANCH   4   5
ENDBRANCH   3   4
ENDBRANCH   2   3
ENDBRANCH   1   2
BRANCH   1  13
ATOM     13  C   UNL     1       6.259  38.357  -1.236  1.00  0.00     0.000 C 
BRANCH  13  14
ATOM     14  C   UNL     1       6.070  38.582   0.276  1.00  0.00     0.000 C 
BRANCH  14  15
ATOM     15  C   UNL     1       6.900  37.652   1.182  1.00  0.00     0.000 C 
BRANCH  15  16
ATOM     16  C   UNL     1       7.547  38.388   2.365  1.00  0.00     0.000 C 
BRANCH  16  17
ATOM     17  C   UNL     1       9.066  38.156   2.391  1.00  0.00     0.000 C 
BRANCH  17  18
ATOM     18  C   UNL     1       9.519  37.110   1.359  1.00  0.00     0.000 C 
BRANCH  18  19
ATOM     19  C   UNL     1      10.711  37.598   0.517  1.00  0.00     0.000 C 
BRANCH  19  20
ATOM     20  C   UNL     1      10.276  38.340  -0.757  1.00  0.00     0.006 C 
BRANCH  20  21
ATOM     21  C   UNL     1      10.784  39.787  -0.806  1.00  0.00     0.053 C 
BRANCH  21  22
ATOM     22  C   UNL     1       9.870  40.687  -0.038  1.00  0.00     0.041 C 
ATOM     23  O   UNL     1      10.258  41.218   1.037  1.00  0.00    -0.550 OA
ATOM     24  O   UNL     1       8.571  40.906  -0.483  1.00  0.00    -0.550 OA
ENDBRANCH  21  22
ENDBRANCH  20  21
ENDBRANCH  19  20
ENDBRANCH  18  19
ENDBRANCH  17  18
ENDBRANCH  16  17
ENDBRANCH  15  16
ENDBRANCH  14  15
ENDBRANCH  13  14
ENDBRANCH   1  13
TORSDOF 20
ENDMDL
MODEL 2
REMARK VINA RESULT:    -4.314      2.729      5.181
REMARK INTER + INTRA:         -12.807
REMARK INTER:                  -9.106
REMARK INTRA:                  -3.701
REMARK UNBOUND:                -3.449
REMARK SMILES CCCCCCCCCCCCCCCCCCCCCC(=O)[O-]
REMARK SMILES IDX 12 1 11 2 10 3 9 4 8 5 7 6 6 7 5 8 4 9 3 10 2 11 1 12 13 13
REMARK SMILES IDX 14 14 15 15 16 16 17 17 18 18 19 19 20 20 21 21 22 22 23 23
REMARK SMILES IDX 24 24
REMARK H PARENT
REMARK Flexibility Score: inf
ROOT
ATOM      1  C   UNL     1       5.849  36.122   1.565  1.00  0.00     0.000 C 
ENDROOT
BRANCH   1   2
ATOM      2  C   UNL     1       5.261  35.261   0.427  1.00  0.00     0.000 C 
BRANCH   2   3
ATOM      3  C   UNL     1       6.291  34.957  -0.676  1.00  0.00     0.000 C 
BRANCH   3   4
ATOM      4  C   UNL     1       5.655  34.859  -2.072  1.00  0.00    -0.000 C 
BRANCH   4   5
ATOM      5  C   UNL     1       4.447  33.907  -2.105  1.00  0.00    -0.000 C 
BRANCH   5   6
ATOM      6  C   UNL     1       3.118  34.647  -2.333  1.00  0.00    -0.000 C 
BRANCH   6   7
ATOM      7  C   UNL     1       3.314  36.150  -2.597  1.00  0.00    -0.000 C 
BRANCH   7   8
ATOM      8  C   UNL     1       2.933  37.024  -1.387  1.00  0.00    -0.000 C 
BRANCH   8   9
ATOM      9  C   UNL     1       3.866  38.224  -1.123  1.00  0.00    -0.000 C 
BRANCH   9  10
ATOM     10  C   UNL     1       5.070  38.336  -2.076  1.00  0.00    -0.000 C 
BRANCH  10  11
ATOM     11  C   UNL     1       6.335  38.856  -1.380  1.00  0.00    -0.003 C 
ATOM     12  C   UNL     1       6.005  39.993  -0.417  1.00  0.00     0.004 C 
ENDBRANCH  10  11
ENDBRANCH   9  10
ENDBRANCH   8   9
ENDBRANCH   7   8
ENDBRANCH   6   7
ENDBRANCH   5   6
ENDBRANCH   4   5
ENDBRANCH   3   4
ENDBRANCH   2   3
ENDBRANCH   1   2
BRANCH   1  13
ATOM     13  C   UNL     1       7.270  36.644   1.282  1.00  0.00     0.000 C 
BRANCH  13  14
ATOM     14  C   UNL     1       7.691  37.875   2.107  1.00  0.00     0.000 C 
BRANCH  14  15
ATOM     15  C   UNL     1       9.209  38.033   2.316  1.00  0.00     0.000 C 
BRANCH  15  16
ATOM     16  C   UNL     1       9.861  38.973   1.290  1.00  0.00     0.000 C 
BRANCH  16  17
ATOM     17  C   UNL     1      10.899  38.223   0.442  1.00  0.00     0.000 C 
BRANCH  17  18
ATOM     18  C   UNL     1      10.404  37.947  -0.988  1.00  0.00     0.000 C 
BRANCH  18  19
ATOM     19  C   UNL     1       9.839  36.525  -1.147  1.00  0.00     0.000 C 
BRANCH  19  20
ATOM     20  C   UNL     1      10.591  35.487  -0.299  1.00  0.00     0.006 C 
BRANCH  20  21
ATOM     21  C   UNL     1       9.755  34.233  -0.011  1.00  0.00     0.053 C 
BRANCH  21  22
ATOM     22  C   UNL     1       9.923  33.231  -1.109  1.00  0.00     0.041 C 
ATOM     23  O   UNL     1      11.070  32.810  -1.414  1.00  0.00    -0.550 OA
ATOM     24  O   UNL     1       8.816  32.796  -1.828  1.00  0.00    -0.550 OA
ENDBRANCH  21  22
ENDBRANCH  20  21
ENDBRANCH  19  20
ENDBRANCH  18  19
ENDBRANCH  17  18
ENDBRANCH  16  17
ENDBRANCH  15  16
ENDBRANCH  14  15
ENDBRANCH  13  14
ENDBRANCH   1  13
TORSDOF 20
ENDMDL
MODEL 3
REMARK VINA RESULT:    -4.278      1.527      4.480
REMARK INTER + INTRA:         -12.728
REMARK INTER:                  -8.937
REMARK INTRA:                  -3.791
REMARK UNBOUND:                -3.449
REMARK SMILES CCCCCCCCCCCCCCCCCCCCCC(=O)[O-]
REMARK SMILES IDX 12 1 11 2 10 3 9 4 8 5 7 6 6 7 5 8 4 9 3 10 2 11 1 12 13 13
REMARK SMILES IDX 14 14 15 15 16 16 17 17 18 18 19 19 20 20 21 21 22 22 23 23
REMARK SMILES IDX 24 24
REMARK H PARENT
REMARK Flexibility Score: inf
ROOT
ATOM      1  C   UNL     1       6.568  35.966  -2.702  1.00  0.00     0.000 C 
ENDROOT
BRANCH   1   2
ATOM      2  C   UNL     1       5.386  36.947  -2.550  1.00  0.00     0.000 C 
BRANCH   2   3
ATOM      3  C   UNL     1       4.032  36.225  -2.429  1.00  0.00     0.000 C 
BRANCH   3   4
ATOM      4  C   UNL     1       3.243  36.647  -1.178  1.00  0.00    -0.000 C 
BRANCH   4   5
ATOM      5  C   UNL     1       3.221  35.551  -0.097  1.00  0.00    -0.000 C 
BRANCH   5   6
ATOM      6  C   UNL     1       3.833  36.021   1.233  1.00  0.00    -0.000 C 
BRANCH   6   7
ATOM      7  C   UNL     1       5.280  35.535   1.424  1.00  0.00    -0.000 C 
BRANCH   7   8
ATOM      8  C   UNL     1       6.320  36.646   1.186  1.00  0.00    -0.000 C 
BRANCH   8   9
ATOM      9  C   UNL     1       6.325  37.776   2.237  1.00  0.00    -0.000 C 
BRANCH   9  10
ATOM     10  C   UNL     1       6.243  39.201   1.662  1.00  0.00    -0.000 C 
BRANCH  10  11
ATOM     11  C   UNL     1       5.630  39.242   0.255  1.00  0.00    -0.003 C 
ATOM     12  C   UNL     1       6.561  39.943  -0.731  1.00  0.00     0.004 C 
ENDBRANCH  10  11
ENDBRANCH   9  10
ENDBRANCH   8   9
ENDBRANCH   7   8
ENDBRANCH   6   7
ENDBRANCH   5   6
ENDBRANCH   4   5
ENDBRANCH   3   4
ENDBRANCH   2   3
ENDBRANCH   1   2
BRANCH   1  13
ATOM     13  C   UNL     1       6.374  34.634  -1.953  1.00  0.00     0.000 C 
BRANCH  13  14
ATOM     14  C   UNL     1       6.978  33.399  -2.648  1.00  0.00     0.000 C 
BRANCH  14  15
ATOM     15  C   UNL     1       8.419  33.054  -2.229  1.00  0.00     0.000 C 
BRANCH  15  16
ATOM     16  C   UNL     1       8.844  33.739  -0.921  1.00  0.00     0.000 C 
BRANCH  16  17
ATOM     17  C   UNL     1      10.368  33.922  -0.867  1.00  0.00     0.000 C 
BRANCH  17  18
ATOM     18  C   UNL     1      10.776  35.374  -0.563  1.00  0.00     0.000 C 
BRANCH  18  19
ATOM     19  C   UNL     1       9.609  36.205  -0.003  1.00  0.00     0.000 C 
BRANCH  19  20
ATOM     20  C   UNL     1       9.345  37.483  -0.815  1.00  0.00     0.006 C 
BRANCH  20  21
ATOM     21  C   UNL     1      10.561  38.417  -0.869  1.00  0.00     0.053 C 
BRANCH  21  22
ATOM     22  C   UNL     1      10.282  39.680  -0.119  1.00  0.00     0.041 C 
ATOM     23  O   UNL     1      10.599  40.795  -0.613  1.00  0.00    -0.550 OA
ATOM     24  O   UNL     1       9.715  39.626   1.148  1.00  0.00    -0.550 OA
ENDBRANCH  21  22
ENDBRANCH  20  21
ENDBRANCH  19  20
ENDBRANCH  18  19
ENDBRANCH  17  18
ENDBRANCH  16  17
ENDBRANCH  15  16
ENDBRANCH  14  15
ENDBRANCH  13  14
ENDBRANCH   1  13
TORSDOF 20
ENDMDL
MODEL 4
REMARK VINA RESULT:    -4.278      1.484      4.311
REMARK INTER + INTRA:         -12.728
REMARK INTER:                  -9.429
REMARK INTRA:                  -3.300
REMARK UNBOUND:                -3.449
REMARK SMILES CCCCCCCCCCCCCCCCCCCCCC(=O)[O-]
REMARK SMILES IDX 12 1 11 2 10 3 9 4 8 5 7 6 6 7 5 8 4 9 3 10 2 11 1 12 13 13
REMARK SMILES IDX 14 14 15 15 16 16 17 17 18 18 19 19 20 20 21 21 22 22 23 23
REMARK SMILES IDX 24 24
REMARK H PARENT
REMARK Flexibility Score: inf
ROOT
ATOM      1  C   UNL     1       8.128  33.420  -0.978  1.00  0.00     0.000 C 
ENDROOT
BRANCH   1   2
ATOM      2  C   UNL     1       7.568  33.699  -2.389  1.00  0.00     0.000 C 
BRANCH   2   3
ATOM      3  C   UNL     1       6.257  34.505  -2.355  1.00  0.00     0.000 C 
BRANCH   3   4
ATOM      4  C   UNL     1       5.010  33.619  -2.513  1.00  0.00    -0.000 C 
BRANCH   4   5
ATOM      5  C   UNL     1       3.750  34.258  -1.902  1.00  0.00    -0.000 C 
BRANCH   5   6
ATOM      6  C   UNL     1       3.757  35.793  -2.005  1.00  0.00    -0.000 C 
BRANCH   6   7
ATOM      7  C   UNL     1       3.269  36.475  -0.715  1.00  0.00    -0.000 C 
BRANCH   7   8
ATOM      8  C   UNL     1       3.251  35.522   0.495  1.00  0.00    -0.000 C 
BRANCH   8   9
ATOM      9  C   UNL     1       4.332  35.793   1.562  1.00  0.00    -0.000 C 
BRANCH   9  10
ATOM     10  C   UNL     1       5.773  35.474   1.125  1.00  0.00    -0.000 C 
BRANCH  10  11
ATOM     11  C   UNL     1       6.710  36.685   1.236  1.00  0.00    -0.003 C 
ATOM     12  C   UNL     1       6.803  37.433  -0.091  1.00  0.00     0.004 C 
ENDBRANCH  10  11
ENDBRANCH   9  10
ENDBRANCH   8   9
ENDBRANCH   7   8
ENDBRANCH   6   7
ENDBRANCH   5   6
ENDBRANCH   4   5
ENDBRANCH   3   4
ENDBRANCH   2   3
ENDBRANCH   1   2
BRANCH   1  13
ATOM     13  C   UNL     1       9.557  32.845  -0.976  1.00  0.00     0.000 C 
BRANCH  13  14
ATOM     14  C   UNL     1      10.682  33.891  -1.081  1.00  0.00     0.000 C 
BRANCH  14  15
ATOM     15  C   UNL     1      10.394  35.232  -0.380  1.00  0.00     0.000 C 
BRANCH  15  16
ATOM     16  C   UNL     1      10.190  36.393  -1.366  1.00  0.00     0.000 C 
BRANCH  16  17
ATOM     17  C   UNL     1      10.377  37.747  -0.665  1.00  0.00     0.000 C 
BRANCH  17  18
ATOM     18  C   UNL     1      11.139  37.622   0.665  1.00  0.00     0.000 C 
BRANCH  18  19
ATOM     19  C   UNL     1      10.262  37.980   1.878  1.00  0.00     0.000 C 
BRANCH  19  20
ATOM     20  C   UNL     1      10.273  39.484   2.195  1.00  0.00     0.006 C 
BRANCH  20  21
ATOM     21  C   UNL     1       8.974  40.189   1.781  1.00  0.00     0.053 C 
BRANCH  21  22
ATOM     22  C   UNL     1       9.188  40.985   0.533  1.00  0.00     0.041 C 
ATOM     23  O   UNL     1       8.319  40.980  -0.379  1.00  0.00    -0.550 OA
ATOM     24  O   UNL     1      10.369  41.696   0.354  1.00  0.00    -0.550 OA
ENDBRANCH  21  22
ENDBRANCH  20  21
ENDBRANCH  19  20
ENDBRANCH  18  19
ENDBRANCH  17  18
ENDBRANCH  16  17
ENDBRANCH  15  16
ENDBRANCH  14  15
ENDBRANCH  13  14
ENDBRANCH   1  13
TORSDOF 20
ENDMDL
MODEL 5
REMARK VINA RESULT:    -4.275      1.435      4.044
REMARK INTER + INTRA:         -12.723
REMARK INTER:                  -9.233
REMARK INTRA:                  -3.490
REMARK UNBOUND:                -3.449
REMARK SMILES CCCCCCCCCCCCCCCCCCCCCC(=O)[O-]
REMARK SMILES IDX 12 1 11 2 10 3 9 4 8 5 7 6 6 7 5 8 4 9 3 10 2 11 1 12 13 13
REMARK SMILES IDX 14 14 15 15 16 16 17 17 18 18 19 19 20 20 21 21 22 22 23 23
REMARK SMILES IDX 24 24
REMARK H PARENT
REMARK Flexibility Score: inf
ROOT
ATOM      1  C   UNL     1       9.211  32.836  -1.676  1.00  0.00     0.000 C 
ENDROOT
BRANCH   1   2
ATOM      2  C   UNL     1       7.831  33.528  -1.705  1.00  0.00     0.000 C 
BRANCH   2   3
ATOM      3  C   UNL     1       7.045  33.224  -2.993  1.00  0.00     0.000 C 
BRANCH   3   4
ATOM      4  C   UNL     1       5.537  33.482  -2.843  1.00  0.00    -0.000 C 
BRANCH   4   5
ATOM      5  C   UNL     1       5.220  34.509  -1.741  1.00  0.00    -0.000 C 
BRANCH   5   6
ATOM      6  C   UNL     1       4.333  35.661  -2.244  1.00  0.00    -0.000 C 
BRANCH   6   7
ATOM      7  C   UNL     1       5.100  36.989  -2.365  1.00  0.00    -0.000 C 
BRANCH   7   8
ATOM      8  C   UNL     1       6.607  36.836  -2.085  1.00  0.00    -0.000 C 
BRANCH   8   9
ATOM      9  C   UNL     1       7.121  37.576  -0.833  1.00  0.00    -0.000 C 
BRANCH   9  10
ATOM     10  C   UNL     1       6.266  37.387   0.433  1.00  0.00    -0.000 C 
BRANCH  10  11
ATOM     11  C   UNL     1       6.613  36.103   1.200  1.00  0.00    -0.003 C 
ATOM     12  C   UNL     1       5.372  35.499   1.851  1.00  0.00     0.004 C 
ENDBRANCH  10  11
ENDBRANCH   9  10
ENDBRANCH   8   9
ENDBRANCH   7   8
ENDBRANCH   6   7
ENDBRANCH   5   6
ENDBRANCH   4   5
ENDBRANCH   3   4
ENDBRANCH   2   3
ENDBRANCH   1   2
BRANCH   1  13
ATOM     13  C   UNL     1      10.310  33.666  -0.987  1.00  0.00     0.000 C 
BRANCH  13  14
ATOM     14  C   UNL     1       9.829  34.977  -0.336  1.00  0.00     0.000 C 
BRANCH  14  15
ATOM     15  C   UNL     1      10.531  36.251  -0.841  1.00  0.00     0.000 C 
BRANCH  15  16
ATOM     16  C   UNL     1      11.050  37.143   0.297  1.00  0.00     0.000 C 
BRANCH  16  17
ATOM     17  C   UNL     1      10.341  36.811   1.619  1.00  0.00     0.000 C 
BRANCH  17  18
ATOM     18  C   UNL     1       9.516  37.992   2.158  1.00  0.00     0.000 C 
BRANCH  18  19
ATOM     19  C   UNL     1      10.082  39.352   1.715  1.00  0.00     0.000 C 
BRANCH  19  20
ATOM     20  C   UNL     1       9.026  40.247   1.047  1.00  0.00     0.006 C 
BRANCH  20  21
ATOM     21  C   UNL     1       9.566  40.990  -0.182  1.00  0.00     0.053 C 
BRANCH  21  22
ATOM     22  C   UNL     1      10.155  42.304   0.221  1.00  0.00     0.041 C 
ATOM     23  O   UNL     1       9.494  43.103   0.937  1.00  0.00    -0.550 OA
ATOM     24  O   UNL     1      11.417  42.669  -0.233  1.00  0.00    -0.550 OA
ENDBRANCH  21  22
ENDBRANCH  20  21
ENDBRANCH  19  20
ENDBRANCH  18  19
ENDBRANCH  17  18
ENDBRANCH  16  17
ENDBRANCH  15  16
ENDBRANCH  14  15
ENDBRANCH  13  14
ENDBRANCH   1  13
TORSDOF 20
ENDMDL
MODEL 6
REMARK VINA RESULT:    -4.231      2.632      5.261
REMARK INTER + INTRA:         -12.627
REMARK INTER:                  -8.214
REMARK INTRA:                  -4.414
REMARK UNBOUND:                -3.449
REMARK SMILES CCCCCCCCCCCCCCCCCCCCCC(=O)[O-]
REMARK SMILES IDX 12 1 11 2 10 3 9 4 8 5 7 6 6 7 5 8 4 9 3 10 2 11 1 12 13 13
REMARK SMILES IDX 14 14 15 15 16 16 17 17 18 18 19 19 20 20 21 21 22 22 23 23
REMARK SMILES IDX 24 24
REMARK H PARENT
REMARK Flexibility Score: inf
ROOT
ATOM      1  C   UNL     1      10.636  35.477  -0.608  1.00  0.00     0.000 C 
ENDROOT
BRANCH   1   2
ATOM      2  C   UNL     1       9.845  34.229  -1.057  1.00  0.00     0.000 C 
BRANCH   2   3
ATOM      3  C   UNL     1       8.935  33.676   0.054  1.00  0.00     0.000 C 
BRANCH   3   4
ATOM      4  C   UNL     1       8.733  34.672   1.208  1.00  0.00    -0.000 C 
BRANCH   4   5
ATOM      5  C   UNL     1       7.299  35.229   1.263  1.00  0.00    -0.000 C 
BRANCH   5   6
ATOM      6  C   UNL     1       7.265  36.757   1.434  1.00  0.00    -0.000 C 
BRANCH   6   7
ATOM      7  C   UNL     1       6.206  37.429   0.543  1.00  0.00    -0.000 C 
BRANCH   7   8
ATOM      8  C   UNL     1       6.749  37.808  -0.848  1.00  0.00    -0.000 C 
BRANCH   8   9
ATOM      9  C   UNL     1       6.087  37.075  -2.033  1.00  0.00    -0.000 C 
BRANCH   9  10
ATOM     10  C   UNL     1       6.859  35.851  -2.557  1.00  0.00    -0.000 C 
BRANCH  10  11
ATOM     11  C   UNL     1       6.177  34.521  -2.206  1.00  0.00    -0.003 C 
ATOM     12  C   UNL     1       4.746  34.747  -1.726  1.00  0.00     0.004 C 
ENDBRANCH  10  11
ENDBRANCH   9  10
ENDBRANCH   8   9
ENDBRANCH   7   8
ENDBRANCH   6   7
ENDBRANCH   5   6
ENDBRANCH   4   5
ENDBRANCH   3   4
ENDBRANCH   2   3
ENDBRANCH   1   2
BRANCH   1  13
ATOM     13  C   UNL     1      10.216  36.773  -1.326  1.00  0.00     0.000 C 
BRANCH  13  14
ATOM     14  C   UNL     1      10.424  38.066  -0.515  1.00  0.00     0.000 C 
BRANCH  14  15
ATOM     15  C   UNL     1      10.929  37.858   0.926  1.00  0.00     0.000 C 
BRANCH  15  16
ATOM     16  C   UNL     1      10.282  38.820   1.933  1.00  0.00     0.000 C 
BRANCH  16  17
ATOM     17  C   UNL     1       9.573  39.976   1.211  1.00  0.00     0.000 C 
BRANCH  17  18
ATOM     18  C   UNL     1       8.259  40.383   1.899  1.00  0.00     0.000 C 
BRANCH  18  19
ATOM     19  C   UNL     1       8.178  39.879   3.350  1.00  0.00     0.000 C 
BRANCH  19  20
ATOM     20  C   UNL     1       6.738  39.842   3.887  1.00  0.00     0.006 C 
BRANCH  20  21
ATOM     21  C   UNL     1       6.435  38.573   4.694  1.00  0.00     0.053 C 
BRANCH  21  22
ATOM     22  C   UNL     1       4.995  38.196   4.553  1.00  0.00     0.041 C 
ATOM     23  O   UNL     1       4.094  38.962   4.988  1.00  0.00    -0.550 OA
ATOM     24  O   UNL     1       4.646  36.978   3.983  1.00  0.00    -0.550 OA
ENDBRANCH  21  22
ENDBRANCH  20  21
ENDBRANCH  19  20
ENDBRANCH  18  19
ENDBRANCH  17  18
ENDBRANCH  16  17
ENDBRANCH  15  16
ENDBRANCH  14  15
ENDBRANCH  13  14
ENDBRANCH   1  13
TORSDOF 20
ENDMDL
MODEL 7
REMARK VINA RESULT:    -4.182      2.690      5.747
REMARK INTER + INTRA:         -12.520
REMARK INTER:                  -8.593
REMARK INTRA:                  -3.927
REMARK UNBOUND:                -3.449
REMARK SMILES CCCCCCCCCCCCCCCCCCCCCC(=O)[O-]
REMARK SMILES IDX 12 1 11 2 10 3 9 4 8 5 7 6 6 7 5 8 4 9 3 10 2 11 1 12 13 13
REMARK SMILES IDX 14 14 15 15 16 16 17 17 18 18 19 19 20 20 21 21 22 22 23 23
REMARK SMILES IDX 24 24
REMARK H PARENT
REMARK Flexibility Score: inf
ROOT
ATOM      1  C   UNL     1       5.455  37.955  -2.339  1.00  0.00     0.000 C 
ENDROOT
BRANCH   1   2
ATOM      2  C   UNL     1       5.357  39.165  -1.385  1.00  0.00     0.000 C 
BRANCH   2   3
ATOM      3  C   UNL     1       6.728  39.594  -0.832  1.00  0.00     0.000 C 
BRANCH   3   4
ATOM      4  C   UNL     1       6.647  40.854   0.046  1.00  0.00    -0.000 C 
BRANCH   4   5
ATOM      5  C   UNL     1       7.267  40.644   1.438  1.00  0.00    -0.000 C 
BRANCH   5   6
ATOM      6  C   UNL     1       7.161  39.187   1.919  1.00  0.00    -0.000 C 
BRANCH   6   7
ATOM      7  C   UNL     1       8.246  38.824   2.948  1.00  0.00    -0.000 C 
BRANCH   7   8
ATOM      8  C   UNL     1       9.363  37.946   2.354  1.00  0.00    -0.000 C 
BRANCH   8   9
ATOM      9  C   UNL     1      10.481  38.714   1.618  1.00  0.00    -0.000 C 
BRANCH   9  10
ATOM     10  C   UNL     1      11.007  38.036   0.341  1.00  0.00    -0.000 C 
BRANCH  10  11
ATOM     11  C   UNL     1      10.821  38.902  -0.913  1.00  0.00    -0.003 C 
ATOM     12  C   UNL     1      10.452  40.335  -0.543  1.00  0.00     0.004 C 
ENDBRANCH  10  11
ENDBRANCH   9  10
ENDBRANCH   8   9
ENDBRANCH   7   8
ENDBRANCH   6   7
ENDBRANCH   5   6
ENDBRANCH   4   5
ENDBRANCH   3   4
ENDBRANCH   2   3
ENDBRANCH   1   2
BRANCH   1  13
ATOM     13  C   UNL     1       4.217  37.039  -2.314  1.00  0.00     0.000 C 
BRANCH  13  14
ATOM     14  C   UNL     1       4.519  35.531  -2.403  1.00  0.00     0.000 C 
BRANCH  14  15
ATOM     15  C   UNL     1       4.544  34.790  -1.053  1.00  0.00     0.000 C 
BRANCH  15  16
ATOM     16  C   UNL     1       4.221  35.703   0.140  1.00  0.00     0.000 C 
BRANCH  16  17
ATOM     17  C   UNL     1       5.484  36.003   0.960  1.00  0.00     0.000 C 
BRANCH  17  18
ATOM     18  C   UNL     1       6.702  35.192   0.485  1.00  0.00     0.000 C 
BRANCH  18  19
ATOM     19  C   UNL     1       7.764  36.076  -0.191  1.00  0.00     0.000 C 
BRANCH  19  20
ATOM     20  C   UNL     1       8.352  35.435  -1.458  1.00  0.00     0.006 C 
BRANCH  20  21
ATOM     21  C   UNL     1       8.196  33.909  -1.482  1.00  0.00     0.053 C 
BRANCH  21  22
ATOM     22  C   UNL     1       9.523  33.245  -1.294  1.00  0.00     0.041 C 
ATOM     23  O   UNL     1       9.702  32.062  -1.688  1.00  0.00    -0.550 OA
ATOM     24  O   UNL     1      10.550  33.916  -0.640  1.00  0.00    -0.550 OA
ENDBRANCH  21  22
ENDBRANCH  20  21
ENDBRANCH  19  20
ENDBRANCH  18  19
ENDBRANCH  17  18
ENDBRANCH  16  17
ENDBRANCH  15  16
ENDBRANCH  14  15
ENDBRANCH  13  14
ENDBRANCH   1  13
TORSDOF 20
ENDMDL
MODEL 8
REMARK VINA RESULT:    -4.158      2.870      6.139
REMARK INTER + INTRA:         -12.468
REMARK INTER:                  -8.950
REMARK INTRA:                  -3.518
REMARK UNBOUND:                -3.449
REMARK SMILES CCCCCCCCCCCCCCCCCCCCCC(=O)[O-]
REMARK SMILES IDX 12 1 11 2 10 3 9 4 8 5 7 6 6 7 5 8 4 9 3 10 2 11 1 12 13 13
REMARK SMILES IDX 14 14 15 15 16 16 17 17 18 18 19 19 20 20 21 21 22 22 23 23
REMARK SMILES IDX 24 24
REMARK H PARENT
REMARK Flexibility Score: inf
ROOT
ATOM      1  C   UNL     1       6.332  37.373   2.035  1.00  0.00     0.000 C 
ENDROOT
BRANCH   1   2
ATOM      2  C   UNL     1       6.077  38.732   1.348  1.00  0.00     0.000 C 
BRANCH   2   3
ATOM      3  C   UNL     1       6.794  38.850  -0.009  1.00  0.00     0.000 C 
BRANCH   3   4
ATOM      4  C   UNL     1       6.654  40.248  -0.634  1.00  0.00    -0.000 C 
BRANCH   4   5
ATOM      5  C   UNL     1       7.789  41.199  -0.216  1.00  0.00    -0.000 C 
BRANCH   5   6
ATOM      6  C   UNL     1       9.141  40.480  -0.077  1.00  0.00    -0.000 C 
BRANCH   6   7
ATOM      7  C   UNL     1       9.879  40.851   1.221  1.00  0.00    -0.000 C 
BRANCH   7   8
ATOM      8  C   UNL     1       9.972  39.676   2.212  1.00  0.00    -0.000 C 
BRANCH   8   9
ATOM      9  C   UNL     1      10.746  38.444   1.700  1.00  0.00    -0.000 C 
BRANCH   9  10
ATOM     10  C   UNL     1       9.964  37.119   1.738  1.00  0.00    -0.000 C 
BRANCH  10  11
ATOM     11  C   UNL     1       9.623  36.587   0.339  1.00  0.00    -0.003 C 
ATOM     12  C   UNL     1      10.529  37.208  -0.721  1.00  0.00     0.004 C 
ENDBRANCH  10  11
ENDBRANCH   9  10
ENDBRANCH   8   9
ENDBRANCH   7   8
ENDBRANCH   6   7
ENDBRANCH   5   6
ENDBRANCH   4   5
ENDBRANCH   3   4
ENDBRANCH   2   3
ENDBRANCH   1   2
BRANCH   1  13
ATOM     13  C   UNL     1       5.964  36.155   1.167  1.00  0.00     0.000 C 
BRANCH  13  14
ATOM     14  C   UNL     1       4.459  35.838   1.091  1.00  0.00     0.000 C 
BRANCH  14  15
ATOM     15  C   UNL     1       3.756  36.310  -0.196  1.00  0.00     0.000 C 
BRANCH  15  16
ATOM     16  C   UNL     1       4.546  35.972  -1.469  1.00  0.00     0.000 C 
BRANCH  16  17
ATOM     17  C   UNL     1       4.284  34.524  -1.910  1.00  0.00     0.000 C 
BRANCH  17  18
ATOM     18  C   UNL     1       5.542  33.844  -2.475  1.00  0.00     0.000 C 
BRANCH  18  19
ATOM     19  C   UNL     1       6.825  34.634  -2.164  1.00  0.00     0.000 C 
BRANCH  19  20
ATOM     20  C   UNL     1       7.762  33.891  -1.198  1.00  0.00     0.006 C 
BRANCH  20  21
ATOM     21  C   UNL     1       8.735  32.948  -1.918  1.00  0.00     0.053 C 
BRANCH  21  22
ATOM     22  C   UNL     1       9.899  32.627  -1.036  1.00  0.00     0.041 C 
ATOM     23  O   UNL     1      10.823  33.468  -0.873  1.00  0.00    -0.550 OA
ATOM     24  O   UNL     1       9.989  31.380  -0.429  1.00  0.00    -0.550 OA
ENDBRANCH  21  22
ENDBRANCH  20  21
ENDBRANCH  19  20
ENDBRANCH  18  19
ENDBRANCH  17  18
ENDBRANCH  16  17
ENDBRANCH  15  16
ENDBRANCH  14  15
ENDBRANCH  13  14
ENDBRANCH   1  13
TORSDOF 20
ENDMDL
MODEL 9
REMARK VINA RESULT:    -4.133      3.199      5.878
REMARK INTER + INTRA:         -12.415
REMARK INTER:                  -9.119
REMARK INTRA:                  -3.296
REMARK UNBOUND:                -3.449
REMARK SMILES CCCCCCCCCCCCCCCCCCCCCC(=O)[O-]
REMARK SMILES IDX 12 1 11 2 10 3 9 4 8 5 7 6 6 7 5 8 4 9 3 10 2 11 1 12 13 13
REMARK SMILES IDX 14 14 15 15 16 16 17 17 18 18 19 19 20 20 21 21 22 22 23 23
REMARK SMILES IDX 24 24
REMARK H PARENT
REMARK Flexibility Score: inf
ROOT
ATOM      1  C   UNL     1       9.071  38.627   2.481  1.00  0.00     0.000 C 
ENDROOT
BRANCH   1   2
ATOM      2  C   UNL     1       7.538  38.667   2.662  1.00  0.00     0.000 C 
BRANCH   2   3
ATOM      3  C   UNL     1       6.829  37.496   1.958  1.00  0.00     0.000 C 
BRANCH   3   4
ATOM      4  C   UNL     1       7.797  36.367   1.565  1.00  0.00    -0.000 C 
BRANCH   4   5
ATOM      5  C   UNL     1       7.412  35.697   0.234  1.00  0.00    -0.000 C 
BRANCH   5   6
ATOM      6  C   UNL     1       6.971  36.712  -0.833  1.00  0.00    -0.000 C 
BRANCH   6   7
ATOM      7  C   UNL     1       6.788  36.071  -2.220  1.00  0.00    -0.000 C 
BRANCH   7   8
ATOM      8  C   UNL     1       5.321  35.720  -2.527  1.00  0.00    -0.000 C 
BRANCH   8   9
ATOM      9  C   UNL     1       4.684  34.676  -1.586  1.00  0.00    -0.000 C 
BRANCH   9  10
ATOM     10  C   UNL     1       3.382  35.125  -0.900  1.00  0.00    -0.000 C 
BRANCH  10  11
ATOM     11  C   UNL     1       3.597  35.571   0.554  1.00  0.00    -0.003 C 
ATOM     12  C   UNL     1       3.402  37.077   0.702  1.00  0.00     0.004 C 
ENDBRANCH  10  11
ENDBRANCH   9  10
ENDBRANCH   8   9
ENDBRANCH   7   8
ENDBRANCH   6   7
ENDBRANCH   5   6
ENDBRANCH   4   5
ENDBRANCH   3   4
ENDBRANCH   2   3
ENDBRANCH   1   2
BRANCH   1  13
ATOM     13  C   UNL     1       9.708  40.009   2.245  1.00  0.00     0.000 C 
BRANCH  13  14
ATOM     14  C   UNL     1       9.996  40.352   0.771  1.00  0.00     0.000 C 
BRANCH  14  15
ATOM     15  C   UNL     1       9.786  39.193  -0.222  1.00  0.00     0.000 C 
BRANCH  15  16
ATOM     16  C   UNL     1      11.057  38.838  -1.008  1.00  0.00     0.000 C 
BRANCH  16  17
ATOM     17  C   UNL     1      11.883  37.778  -0.264  1.00  0.00     0.000 C 
BRANCH  17  18
ATOM     18  C   UNL     1      11.061  36.523   0.078  1.00  0.00     0.000 C 
BRANCH  18  19
ATOM     19  C   UNL     1      10.694  35.706  -1.172  1.00  0.00     0.000 C 
BRANCH  19  20
ATOM     20  C   UNL     1      11.006  34.209  -1.018  1.00  0.00     0.006 C 
BRANCH  20  21
ATOM     21  C   UNL     1       9.904  33.308  -1.592  1.00  0.00     0.053 C 
BRANCH  21  22
ATOM     22  C   UNL     1      10.191  31.873  -1.284  1.00  0.00     0.041 C 
ATOM     23  O   UNL     1      10.773  31.146  -2.133  1.00  0.00    -0.550 OA
ATOM     24  O   UNL     1       9.774  31.323  -0.078  1.00  0.00    -0.550 OA
ENDBRANCH  21  22
ENDBRANCH  20  21
ENDBRANCH  19  20
ENDBRANCH  18  19
ENDBRANCH  17  18
ENDBRANCH  16  17
ENDBRANCH  15  16
ENDBRANCH  14  15
ENDBRANCH  13  14
ENDBRANCH   1  13
TORSDOF 20
ENDMDL
