MODEL 1
REMARK VINA RESULT:    -2.629      0.000      0.000
REMARK INTER + INTRA:          -2.980
REMARK INTER:                  -3.705
REMARK INTRA:                   0.725
REMARK UNBOUND:                 0.725
REMARK SMILES CC1=CCC(=C(C)C)C(=O)CC(C)=CCC1
REMARK SMILES IDX 12 1 14 2 13 3 15 4 16 5 2 6 1 7 3 8 11 10 9 11 10 12 5 13
REMARK SMILES IDX 6 14 7 15 8 16 4 17
REMARK H PARENT
REMARK Flexibility Score: 60.00
ROOT
ATOM      1  C   UNL     1      27.976  39.242  18.054  1.00  0.00    -0.070 C 
ATOM      2  C   UNL     1      28.211  40.520  18.434  1.00  0.00    -0.027 C 
ATOM      3  C   UNL     1      29.109  38.493  17.395  1.00  0.00     0.039 C 
ENDROOT
BRANCH   2   4
ATOM      4  C   UNL     1      27.199  41.482  19.009  1.00  0.00     0.032 C 
BRANCH   4   5
ATOM      5  C   UNL     1      27.654  42.087  20.351  1.00  0.00     0.034 C 
BRANCH   5   6
ATOM      6  C   UNL     1      27.791  41.037  21.435  1.00  0.00    -0.077 C 
ATOM      7  C   UNL     1      29.032  41.052  22.293  1.00  0.00     0.039 C 
ATOM      8  C   UNL     1      26.851  40.101  21.699  1.00  0.00    -0.023 CG0
ATOM      9  G   UNL     1      25.533  39.950  20.978  1.00  0.00     0.000 G0
ENDBRANCH   5   6
ENDBRANCH   4   5
ENDBRANCH   2   4
BRANCH   1  10
ATOM     10  C   UNL     1      26.629  38.554  18.192  1.00  0.00     0.111 C 
BRANCH  10  11
ATOM     11  C   UNL     1      26.427  38.004  19.583  1.00  0.00     0.163 C 
ATOM     12  O   UNL     1      27.213  37.105  19.986  1.00  0.00    -0.294 OA
BRANCH  11  13
ATOM     13  C   UNL     1      25.365  38.531  20.497  1.00  0.00    -0.002 C 
ATOM     14  C   UNL     1      24.264  37.789  20.824  1.00  0.00    -0.069 C 
ATOM     15  C   UNL     1      23.213  38.315  21.778  1.00  0.00     0.039 C 
ATOM     16  C   UNL     1      24.021  36.423  20.221  1.00  0.00     0.039 C 
BRANCH  13  17
ATOM     17  C   UNL     1      25.525  39.958  20.989  1.00  0.00     0.066 CG0
ATOM     18  G   UNL     1      26.841  40.105  21.715  1.00  0.00     0.000 G0
ENDBRANCH  13  17
ENDBRANCH  11  13
ENDBRANCH  10  11
ENDBRANCH   1  10
TORSDOF 0
ENDMDL
MODEL 2
REMARK VINA RESULT:    -2.236      1.924      4.754
REMARK INTER + INTRA:          -2.426
REMARK INTER:                  -4.253
REMARK INTRA:                   1.827
REMARK UNBOUND:                 0.725
REMARK SMILES CC1=CCC(=C(C)C)C(=O)CC(C)=CCC1
REMARK SMILES IDX 12 1 14 2 13 3 15 4 16 5 2 6 1 7 3 8 11 10 9 11 10 12 5 13
REMARK SMILES IDX 6 14 7 15 8 16 4 17
REMARK H PARENT
REMARK Flexibility Score: 60.00
ROOT
ATOM      1  C   UNL     1      25.908  38.004  20.474  1.00  0.00    -0.070 C 
ATOM      2  C   UNL     1      27.023  37.308  20.802  1.00  0.00    -0.027 C 
ATOM      3  C   UNL     1      24.575  37.369  20.790  1.00  0.00     0.039 C 
ENDROOT
BRANCH   2   4
ATOM      4  C   UNL     1      28.446  37.701  20.483  1.00  0.00     0.032 C 
BRANCH   4   5
ATOM      5  C   UNL     1      28.837  37.379  19.029  1.00  0.00     0.034 C 
BRANCH   5   6
ATOM      6  C   UNL     1      28.856  38.617  18.154  1.00  0.00    -0.077 C 
ATOM      7  C   UNL     1      28.798  38.437  16.657  1.00  0.00     0.039 C 
ATOM      8  C   UNL     1      28.894  39.879  18.638  1.00  0.00    -0.023 CG0
ATOM      9  G   UNL     1      28.919  40.262  20.099  1.00  0.00     0.000 G0
ENDBRANCH   5   6
ENDBRANCH   4   5
ENDBRANCH   2   4
BRANCH   1  10
ATOM     10  C   UNL     1      25.927  39.340  19.752  1.00  0.00     0.111 C 
BRANCH  10  11
ATOM     11  C   UNL     1      26.410  40.450  20.653  1.00  0.00     0.163 C 
ATOM     12  O   UNL     1      25.719  40.734  21.668  1.00  0.00    -0.294 OA
BRANCH  11  13
ATOM     13  C   UNL     1      27.697  41.172  20.400  1.00  0.00    -0.002 C 
ATOM     14  C   UNL     1      27.762  42.537  20.373  1.00  0.00    -0.069 C 
ATOM     15  C   UNL     1      29.074  43.261  20.153  1.00  0.00     0.039 C 
ATOM     16  C   UNL     1      26.524  43.393  20.523  1.00  0.00     0.039 C 
BRANCH  13  17
ATOM     17  C   UNL     1      28.917  40.321  20.099  1.00  0.00     0.066 CG0
ATOM     18  G   UNL     1      28.890  39.878  18.656  1.00  0.00     0.000 G0
ENDBRANCH  13  17
ENDBRANCH  11  13
ENDBRANCH  10  11
ENDBRANCH   1  10
TORSDOF 0
ENDMDL
MODEL 3
REMARK VINA RESULT:    -1.119      1.619      2.075
REMARK INTER + INTRA:          -0.852
REMARK INTER:                  -3.232
REMARK INTRA:                   2.380
REMARK UNBOUND:                 0.725
REMARK SMILES CC1=CCC(=C(C)C)C(=O)CC(C)=CCC1
REMARK SMILES IDX 12 1 14 2 13 3 15 4 16 5 2 6 1 7 3 8 11 10 9 11 10 12 5 13
REMARK SMILES IDX 6 14 7 15 8 16 4 17
REMARK H PARENT
REMARK Flexibility Score: 60.00
ROOT
ATOM      1  C   UNL     1      28.534  39.160  17.790  1.00  0.00    -0.070 C 
ATOM      2  C   UNL     1      27.867  40.318  17.573  1.00  0.00    -0.027 C 
ATOM      3  C   UNL     1      28.731  38.239  16.611  1.00  0.00     0.039 C 
ENDROOT
BRANCH   2   4
ATOM      4  C   UNL     1      27.467  41.329  18.620  1.00  0.00     0.032 C 
BRANCH   4   5
ATOM      5  C   UNL     1      27.874  40.899  20.043  1.00  0.00     0.034 C 
BRANCH   5   6
ATOM      6  C   UNL     1      26.672  40.666  20.936  1.00  0.00    -0.077 C 
ATOM      7  C   UNL     1      26.330  41.717  21.964  1.00  0.00     0.039 C 
ATOM      8  C   UNL     1      25.869  39.582  20.849  1.00  0.00    -0.023 CG0
ATOM      9  G   UNL     1      26.026  38.446  19.866  1.00  0.00     0.000 G0
ENDBRANCH   5   6
ENDBRANCH   4   5
ENDBRANCH   2   4
BRANCH   1  10
ATOM     10  C   UNL     1      29.029  38.713  19.155  1.00  0.00     0.111 C 
BRANCH  10  11
ATOM     11  C   UNL     1      28.361  37.434  19.596  1.00  0.00     0.163 C 
ATOM     12  O   UNL     1      28.954  36.345  19.369  1.00  0.00    -0.294 OA
BRANCH  11  13
ATOM     13  C   UNL     1      27.057  37.435  20.332  1.00  0.00    -0.002 C 
ATOM     14  C   UNL     1      26.796  36.540  21.332  1.00  0.00    -0.069 C 
ATOM     15  C   UNL     1      25.490  36.571  22.097  1.00  0.00     0.039 C 
ATOM     16  C   UNL     1      27.781  35.452  21.700  1.00  0.00     0.039 C 
BRANCH  13  17
ATOM     17  C   UNL     1      26.005  38.426  19.869  1.00  0.00     0.066 CG0
ATOM     18  G   UNL     1      25.892  39.555  20.866  1.00  0.00     0.000 G0
ENDBRANCH  13  17
ENDBRANCH  11  13
ENDBRANCH  10  11
ENDBRANCH   1  10
TORSDOF 0
ENDMDL
MODEL 4
REMARK VINA RESULT:    -1.006      1.870      2.453
REMARK INTER + INTRA:          -0.692
REMARK INTER:                  -3.512
REMARK INTRA:                   2.820
REMARK UNBOUND:                 0.725
REMARK SMILES CC1=CCC(=C(C)C)C(=O)CC(C)=CCC1
REMARK SMILES IDX 12 1 14 2 13 3 15 4 16 5 2 6 1 7 3 8 11 10 9 11 10 12 5 13
REMARK SMILES IDX 6 14 7 15 8 16 4 17
REMARK H PARENT
REMARK Flexibility Score: 60.00
ROOT
ATOM      1  C   UNL     1      28.847  36.776  19.549  1.00  0.00    -0.070 C 
ATOM      2  C   UNL     1      29.063  37.562  18.467  1.00  0.00    -0.027 C 
ATOM      3  C   UNL     1      28.962  35.284  19.359  1.00  0.00     0.039 C 
ENDROOT
BRANCH   2   4
ATOM      4  C   UNL     1      28.897  39.061  18.404  1.00  0.00     0.032 C 
BRANCH   4   5
ATOM      5  C   UNL     1      28.757  39.700  19.798  1.00  0.00     0.034 C 
BRANCH   5   6
ATOM      6  C   UNL     1      27.425  40.403  19.974  1.00  0.00    -0.077 C 
ATOM      7  C   UNL     1      27.431  41.880  20.283  1.00  0.00     0.039 C 
ATOM      8  C   UNL     1      26.228  39.788  19.845  1.00  0.00    -0.023 CG0
ATOM      9  G   UNL     1      26.017  38.332  19.504  1.00  0.00     0.000 G0
ENDBRANCH   5   6
ENDBRANCH   4   5
ENDBRANCH   2   4
BRANCH   1  10
ATOM     10  C   UNL     1      28.433  37.309  20.911  1.00  0.00     0.111 C 
BRANCH  10  11
ATOM     11  C   UNL     1      27.050  36.841  21.292  1.00  0.00     0.163 C 
ATOM     12  O   UNL     1      26.950  35.913  22.139  1.00  0.00    -0.294 OA
BRANCH  11  13
ATOM     13  C   UNL     1      25.817  37.482  20.737  1.00  0.00    -0.002 C 
ATOM     14  C   UNL     1      24.585  37.270  21.291  1.00  0.00    -0.069 C 
ATOM     15  C   UNL     1      23.347  37.951  20.747  1.00  0.00     0.039 C 
ATOM     16  C   UNL     1      24.390  36.317  22.450  1.00  0.00     0.039 C 
BRANCH  13  17
ATOM     17  C   UNL     1      25.980  38.321  19.483  1.00  0.00     0.066 CG0
ATOM     18  G   UNL     1      26.224  39.763  19.860  1.00  0.00     0.000 G0
ENDBRANCH  13  17
ENDBRANCH  11  13
ENDBRANCH  10  11
ENDBRANCH   1  10
TORSDOF 0
ENDMDL
