MODEL 1
REMARK VINA RESULT:    -3.473      0.000      0.000
REMARK INTER + INTRA:          -8.326
REMARK INTER:                  -6.519
REMARK INTRA:                  -1.807
REMARK UNBOUND:                -1.807
REMARK SMILES O=C([O-])CCCCCCCCCCCCCCC(=O)[O-]
REMARK SMILES IDX 10 1 9 2 8 3 7 4 6 5 5 6 4 7 2 8 1 9 3 10 11 11 12 12 13 13
REMARK SMILES IDX 14 14 15 15 16 16 17 17 18 18 19 19 20 20
REMARK H PARENT
REMARK Flexibility Score: inf
ROOT
ATOM      1  C   UNL     1     -41.938 -46.708  66.969  1.00  0.00     0.000 C 
ENDROOT
BRANCH   1   2
ATOM      2  C   UNL     1     -43.096 -47.695  66.747  1.00  0.00     0.000 C 
BRANCH   2   3
ATOM      3  C   UNL     1     -43.938 -47.923  68.014  1.00  0.00     0.000 C 
BRANCH   3   4
ATOM      4  C   UNL     1     -43.097 -47.994  69.307  1.00  0.00     0.000 C 
BRANCH   4   5
ATOM      5  C   UNL     1     -43.930 -48.448  70.519  1.00  0.00     0.000 C 
BRANCH   5   6
ATOM      6  C   UNL     1     -45.203 -47.608  70.725  1.00  0.00     0.006 C 
BRANCH   6   7
ATOM      7  C   UNL     1     -46.496 -48.439  70.793  1.00  0.00     0.053 C 
BRANCH   7   8
ATOM      8  C   UNL     1     -47.733 -47.593  70.759  1.00  0.00     0.041 C 
ATOM      9  O   UNL     1     -47.724 -46.477  70.174  1.00  0.00    -0.550 OA
ATOM     10  O   UNL     1     -48.905 -48.050  71.348  1.00  0.00    -0.550 OA
ENDBRANCH   7   8
ENDBRANCH   6   7
ENDBRANCH   5   6
ENDBRANCH   4   5
ENDBRANCH   3   4
ENDBRANCH   2   3
ENDBRANCH   1   2
BRANCH   1  11
ATOM     11  C   UNL     1     -42.396 -45.242  66.918  1.00  0.00     0.000 C 
BRANCH  11  12
ATOM     12  C   UNL     1     -41.773 -44.390  68.038  1.00  0.00     0.000 C 
BRANCH  12  13
ATOM     13  C   UNL     1     -42.818 -43.565  68.806  1.00  0.00     0.000 C 
BRANCH  13  14
ATOM     14  C   UNL     1     -43.362 -44.305  70.040  1.00  0.00     0.000 C 
BRANCH  14  15
ATOM     15  C   UNL     1     -42.245 -44.917  70.901  1.00  0.00     0.000 C 
BRANCH  15  16
ATOM     16  C   UNL     1     -42.364 -44.539  72.385  1.00  0.00     0.006 C 
BRANCH  16  17
ATOM     17  C   UNL     1     -43.479 -45.338  73.066  1.00  0.00     0.053 C 
BRANCH  17  18
ATOM     18  C   UNL     1     -43.372 -45.226  74.554  1.00  0.00     0.041 C 
ATOM     19  O   UNL     1     -44.410 -45.227  75.267  1.00  0.00    -0.550 OA
ATOM     20  O   UNL     1     -42.127 -45.077  75.152  1.00  0.00    -0.550 OA
ENDBRANCH  17  18
ENDBRANCH  16  17
ENDBRANCH  15  16
ENDBRANCH  14  15
ENDBRANCH  13  14
ENDBRANCH  12  13
ENDBRANCH  11  12
ENDBRANCH   1  11
TORSDOF 15
ENDMDL
MODEL 2
REMARK VINA RESULT:    -3.407      3.063      3.801
REMARK INTER + INTRA:          -8.201
REMARK INTER:                  -6.635
REMARK INTRA:                  -1.567
REMARK UNBOUND:                -1.807
REMARK SMILES O=C([O-])CCCCCCCCCCCCCCC(=O)[O-]
REMARK SMILES IDX 10 1 9 2 8 3 7 4 6 5 5 6 4 7 2 8 1 9 3 10 11 11 12 12 13 13
REMARK SMILES IDX 14 14 15 15 16 16 17 17 18 18 19 19 20 20
REMARK H PARENT
REMARK Flexibility Score: inf
ROOT
ATOM      1  C   UNL     1     -42.131 -44.714  70.094  1.00  0.00     0.000 C 
ENDROOT
BRANCH   1   2
ATOM      2  C   UNL     1     -42.832 -44.446  71.436  1.00  0.00     0.000 C 
BRANCH   2   3
ATOM      3  C   UNL     1     -43.634 -45.657  71.943  1.00  0.00     0.000 C 
BRANCH   3   4
ATOM      4  C   UNL     1     -43.318 -46.965  71.185  1.00  0.00     0.000 C 
BRANCH   4   5
ATOM      5  C   UNL     1     -44.594 -47.716  70.765  1.00  0.00     0.000 C 
BRANCH   5   6
ATOM      6  C   UNL     1     -45.815 -46.792  70.610  1.00  0.00     0.006 C 
BRANCH   6   7
ATOM      7  C   UNL     1     -47.123 -47.386  71.162  1.00  0.00     0.053 C 
BRANCH   7   8
ATOM      8  C   UNL     1     -47.595 -48.575  70.381  1.00  0.00     0.041 C 
ATOM      9  O   UNL     1     -48.050 -48.430  69.215  1.00  0.00    -0.550 OA
ATOM     10  O   UNL     1     -47.503 -49.848  70.929  1.00  0.00    -0.550 OA
ENDBRANCH   7   8
ENDBRANCH   6   7
ENDBRANCH   5   6
ENDBRANCH   4   5
ENDBRANCH   3   4
ENDBRANCH   2   3
ENDBRANCH   1   2
BRANCH   1  11
ATOM     11  C   UNL     1     -42.812 -43.994  68.919  1.00  0.00     0.000 C 
BRANCH  11  12
ATOM     12  C   UNL     1     -43.428 -42.646  69.332  1.00  0.00     0.000 C 
BRANCH  12  13
ATOM     13  C   UNL     1     -42.405 -41.498  69.318  1.00  0.00     0.000 C 
BRANCH  13  14
ATOM     14  C   UNL     1     -42.706 -40.428  70.382  1.00  0.00     0.000 C 
BRANCH  14  15
ATOM     15  C   UNL     1     -43.735 -40.902  71.421  1.00  0.00     0.000 C 
BRANCH  15  16
ATOM     16  C   UNL     1     -43.183 -40.883  72.855  1.00  0.00     0.006 C 
BRANCH  16  17
ATOM     17  C   UNL     1     -44.289 -41.184  73.871  1.00  0.00     0.053 C 
BRANCH  17  18
ATOM     18  C   UNL     1     -45.208 -40.011  74.009  1.00  0.00     0.041 C 
ATOM     19  O   UNL     1     -44.839 -38.988  74.644  1.00  0.00    -0.550 OA
ATOM     20  O   UNL     1     -46.488 -40.064  73.472  1.00  0.00    -0.550 OA
ENDBRANCH  17  18
ENDBRANCH  16  17
ENDBRANCH  15  16
ENDBRANCH  14  15
ENDBRANCH  13  14
ENDBRANCH  12  13
ENDBRANCH  11  12
ENDBRANCH   1  11
TORSDOF 15
ENDMDL
MODEL 3
REMARK VINA RESULT:    -3.382      4.187      7.909
REMARK INTER + INTRA:          -8.154
REMARK INTER:                  -6.056
REMARK INTRA:                  -2.097
REMARK UNBOUND:                -1.807
REMARK SMILES O=C([O-])CCCCCCCCCCCCCCC(=O)[O-]
REMARK SMILES IDX 10 1 9 2 8 3 7 4 6 5 5 6 4 7 2 8 1 9 3 10 11 11 12 12 13 13
REMARK SMILES IDX 14 14 15 15 16 16 17 17 18 18 19 19 20 20
REMARK H PARENT
REMARK Flexibility Score: inf
ROOT
ATOM      1  C   UNL     1     -47.230 -49.876  70.350  1.00  0.00     0.000 C 
ENDROOT
BRANCH   1   2
ATOM      2  C   UNL     1     -48.367 -48.954  70.819  1.00  0.00     0.000 C 
BRANCH   2   3
ATOM      3  C   UNL     1     -47.903 -47.505  71.052  1.00  0.00     0.000 C 
BRANCH   3   4
ATOM      4  C   UNL     1     -46.599 -47.149  70.305  1.00  0.00     0.000 C 
BRANCH   4   5
ATOM      5  C   UNL     1     -45.440 -46.845  71.271  1.00  0.00     0.000 C 
BRANCH   5   6
ATOM      6  C   UNL     1     -44.110 -47.488  70.839  1.00  0.00     0.006 C 
BRANCH   6   7
ATOM      7  C   UNL     1     -44.157 -48.149  69.450  1.00  0.00     0.053 C 
BRANCH   7   8
ATOM      8  C   UNL     1     -43.612 -49.544  69.453  1.00  0.00     0.041 C 
ATOM      9  O   UNL     1     -43.016 -49.993  70.468  1.00  0.00    -0.550 OA
ATOM     10  O   UNL     1     -43.788 -50.362  68.344  1.00  0.00    -0.550 OA
ENDBRANCH   7   8
ENDBRANCH   6   7
ENDBRANCH   5   6
ENDBRANCH   4   5
ENDBRANCH   3   4
ENDBRANCH   2   3
ENDBRANCH   1   2
BRANCH   1  11
ATOM     11  C   UNL     1     -47.714 -50.956  69.369  1.00  0.00     0.000 C 
BRANCH  11  12
ATOM     12  C   UNL     1     -48.155 -50.369  68.017  1.00  0.00     0.000 C 
BRANCH  12  13
ATOM     13  C   UNL     1     -47.054 -49.526  67.351  1.00  0.00     0.000 C 
BRANCH  13  14
ATOM     14  C   UNL     1     -47.611 -48.267  66.666  1.00  0.00     0.000 C 
BRANCH  14  15
ATOM     15  C   UNL     1     -48.857 -47.711  67.374  1.00  0.00     0.000 C 
BRANCH  15  16
ATOM     16  C   UNL     1     -49.800 -46.964  66.419  1.00  0.00     0.006 C 
BRANCH  16  17
ATOM     17  C   UNL     1     -49.574 -47.404  64.969  1.00  0.00     0.053 C 
BRANCH  17  18
ATOM     18  C   UNL     1     -49.479 -46.214  64.068  1.00  0.00     0.041 C 
ATOM     19  O   UNL     1     -50.383 -45.338  64.076  1.00  0.00    -0.550 OA
ATOM     20  O   UNL     1     -48.411 -46.094  63.186  1.00  0.00    -0.550 OA
ENDBRANCH  17  18
ENDBRANCH  16  17
ENDBRANCH  15  16
ENDBRANCH  14  15
ENDBRANCH  13  14
ENDBRANCH  12  13
ENDBRANCH  11  12
ENDBRANCH   1  11
TORSDOF 15
ENDMDL
MODEL 4
REMARK VINA RESULT:    -3.313      3.253      7.834
REMARK INTER + INTRA:          -8.024
REMARK INTER:                  -6.917
REMARK INTRA:                  -1.107
REMARK UNBOUND:                -1.807
REMARK SMILES O=C([O-])CCCCCCCCCCCCCCC(=O)[O-]
REMARK SMILES IDX 10 1 9 2 8 3 7 4 6 5 5 6 4 7 2 8 1 9 3 10 11 11 12 12 13 13
REMARK SMILES IDX 14 14 15 15 16 16 17 17 18 18 19 19 20 20
REMARK H PARENT
REMARK Flexibility Score: inf
ROOT
ATOM      1  C   UNL     1     -45.726 -48.597  70.658  1.00  0.00     0.000 C 
ENDROOT
BRANCH   1   2
ATOM      2  C   UNL     1     -44.399 -48.158  70.018  1.00  0.00     0.000 C 
BRANCH   2   3
ATOM      3  C   UNL     1     -43.450 -47.478  71.020  1.00  0.00     0.000 C 
BRANCH   3   4
ATOM      4  C   UNL     1     -43.198 -45.986  70.715  1.00  0.00     0.000 C 
BRANCH   4   5
ATOM      5  C   UNL     1     -43.112 -45.137  71.996  1.00  0.00     0.000 C 
BRANCH   5   6
ATOM      6  C   UNL     1     -44.039 -45.640  73.117  1.00  0.00     0.006 C 
BRANCH   6   7
ATOM      7  C   UNL     1     -44.091 -44.715  74.346  1.00  0.00     0.053 C 
BRANCH   7   8
ATOM      8  C   UNL     1     -43.362 -45.279  75.528  1.00  0.00     0.041 C 
ATOM      9  O   UNL     1     -43.595 -44.842  76.686  1.00  0.00    -0.550 OA
ATOM     10  O   UNL     1     -42.447 -46.310  75.354  1.00  0.00    -0.550 OA
ENDBRANCH   7   8
ENDBRANCH   6   7
ENDBRANCH   5   6
ENDBRANCH   4   5
ENDBRANCH   3   4
ENDBRANCH   2   3
ENDBRANCH   1   2
BRANCH   1  11
ATOM     11  C   UNL     1     -46.543 -47.411  71.194  1.00  0.00     0.000 C 
BRANCH  11  12
ATOM     12  C   UNL     1     -47.984 -47.396  70.655  1.00  0.00     0.000 C 
BRANCH  12  13
ATOM     13  C   UNL     1     -48.488 -48.798  70.275  1.00  0.00     0.000 C 
BRANCH  13  14
ATOM     14  C   UNL     1     -49.030 -48.858  68.837  1.00  0.00     0.000 C 
BRANCH  14  15
ATOM     15  C   UNL     1     -48.578 -47.662  67.984  1.00  0.00     0.000 C 
BRANCH  15  16
ATOM     16  C   UNL     1     -48.914 -47.832  66.495  1.00  0.00     0.006 C 
BRANCH  16  17
ATOM     17  C   UNL     1     -49.949 -46.796  66.045  1.00  0.00     0.053 C 
BRANCH  17  18
ATOM     18  C   UNL     1     -49.831 -46.539  64.576  1.00  0.00     0.041 C 
ATOM     19  O   UNL     1     -49.339 -47.415  63.817  1.00  0.00    -0.550 OA
ATOM     20  O   UNL     1     -50.226 -45.315  64.051  1.00  0.00    -0.550 OA
ENDBRANCH  17  18
ENDBRANCH  16  17
ENDBRANCH  15  16
ENDBRANCH  14  15
ENDBRANCH  13  14
ENDBRANCH  12  13
ENDBRANCH  11  12
ENDBRANCH   1  11
TORSDOF 15
ENDMDL
MODEL 5
REMARK VINA RESULT:    -3.266      3.564      5.675
REMARK INTER + INTRA:          -7.936
REMARK INTER:                  -6.566
REMARK INTRA:                  -1.370
REMARK UNBOUND:                -1.807
REMARK SMILES O=C([O-])CCCCCCCCCCCCCCC(=O)[O-]
REMARK SMILES IDX 10 1 9 2 8 3 7 4 6 5 5 6 4 7 2 8 1 9 3 10 11 11 12 12 13 13
REMARK SMILES IDX 14 14 15 15 16 16 17 17 18 18 19 19 20 20
REMARK H PARENT
REMARK Flexibility Score: inf
ROOT
ATOM      1  C   UNL     1     -48.373 -47.837  71.102  1.00  0.00     0.000 C 
ENDROOT
BRANCH   1   2
ATOM      2  C   UNL     1     -48.433 -49.331  70.746  1.00  0.00     0.000 C 
BRANCH   2   3
ATOM      3  C   UNL     1     -49.801 -49.756  70.183  1.00  0.00     0.000 C 
BRANCH   3   4
ATOM      4  C   UNL     1     -49.946 -49.508  68.666  1.00  0.00     0.000 C 
BRANCH   4   5
ATOM      5  C   UNL     1     -48.595 -49.584  67.932  1.00  0.00     0.000 C 
BRANCH   5   6
ATOM      6  C   UNL     1     -48.232 -48.281  67.198  1.00  0.00     0.006 C 
BRANCH   6   7
ATOM      7  C   UNL     1     -49.207 -47.121  67.466  1.00  0.00     0.053 C 
BRANCH   7   8
ATOM      8  C   UNL     1     -50.093 -46.825  66.294  1.00  0.00     0.041 C 
ATOM      9  O   UNL     1     -51.334 -46.680  66.456  1.00  0.00    -0.550 OA
ATOM     10  O   UNL     1     -49.545 -46.679  65.026  1.00  0.00    -0.550 OA
ENDBRANCH   7   8
ENDBRANCH   6   7
ENDBRANCH   5   6
ENDBRANCH   4   5
ENDBRANCH   3   4
ENDBRANCH   2   3
ENDBRANCH   1   2
BRANCH   1  11
ATOM     11  C   UNL     1     -46.972 -47.238  70.898  1.00  0.00     0.000 C 
BRANCH  11  12
ATOM     12  C   UNL     1     -45.921 -48.306  70.543  1.00  0.00     0.000 C 
BRANCH  12  13
ATOM     13  C   UNL     1     -44.487 -47.855  70.867  1.00  0.00     0.000 C 
BRANCH  13  14
ATOM     14  C   UNL     1     -44.380 -46.334  71.067  1.00  0.00     0.000 C 
BRANCH  14  15
ATOM     15  C   UNL     1     -43.405 -45.675  70.078  1.00  0.00     0.000 C 
BRANCH  15  16
ATOM     16  C   UNL     1     -43.069 -44.223  70.451  1.00  0.00     0.006 C 
BRANCH  16  17
ATOM     17  C   UNL     1     -43.296 -43.285  69.262  1.00  0.00     0.053 C 
BRANCH  17  18
ATOM     18  C   UNL     1     -42.261 -42.205  69.240  1.00  0.00     0.041 C 
ATOM     19  O   UNL     1     -42.477 -41.107  69.819  1.00  0.00    -0.550 OA
ATOM     20  O   UNL     1     -41.073 -42.394  68.545  1.00  0.00    -0.550 OA
ENDBRANCH  17  18
ENDBRANCH  16  17
ENDBRANCH  15  16
ENDBRANCH  14  15
ENDBRANCH  13  14
ENDBRANCH  12  13
ENDBRANCH  11  12
ENDBRANCH   1  11
TORSDOF 15
ENDMDL
MODEL 6
REMARK VINA RESULT:    -3.250      1.669      5.705
REMARK INTER + INTRA:          -7.907
REMARK INTER:                  -5.815
REMARK INTRA:                  -2.092
REMARK UNBOUND:                -1.807
REMARK SMILES O=C([O-])CCCCCCCCCCCCCCC(=O)[O-]
REMARK SMILES IDX 10 1 9 2 8 3 7 4 6 5 5 6 4 7 2 8 1 9 3 10 11 11 12 12 13 13
REMARK SMILES IDX 14 14 15 15 16 16 17 17 18 18 19 19 20 20
REMARK H PARENT
REMARK Flexibility Score: inf
ROOT
ATOM      1  C   UNL     1     -42.314 -46.821  67.778  1.00  0.00     0.000 C 
ENDROOT
BRANCH   1   2
ATOM      2  C   UNL     1     -42.367 -45.405  67.182  1.00  0.00     0.000 C 
BRANCH   2   3
ATOM      3  C   UNL     1     -41.778 -44.339  68.123  1.00  0.00     0.000 C 
BRANCH   3   4
ATOM      4  C   UNL     1     -42.837 -43.378  68.704  1.00  0.00     0.000 C 
BRANCH   4   5
ATOM      5  C   UNL     1     -43.380 -43.862  70.061  1.00  0.00     0.000 C 
BRANCH   5   6
ATOM      6  C   UNL     1     -42.269 -44.284  71.040  1.00  0.00     0.006 C 
BRANCH   6   7
ATOM      7  C   UNL     1     -42.605 -44.017  72.518  1.00  0.00     0.053 C 
BRANCH   7   8
ATOM      8  C   UNL     1     -43.134 -45.231  73.220  1.00  0.00     0.041 C 
ATOM      9  O   UNL     1     -42.462 -46.296  73.242  1.00  0.00    -0.550 OA
ATOM     10  O   UNL     1     -44.356 -45.176  73.879  1.00  0.00    -0.550 OA
ENDBRANCH   7   8
ENDBRANCH   6   7
ENDBRANCH   5   6
ENDBRANCH   4   5
ENDBRANCH   3   4
ENDBRANCH   2   3
ENDBRANCH   1   2
BRANCH   1  11
ATOM     11  C   UNL     1     -43.554 -47.152  68.624  1.00  0.00     0.000 C 
BRANCH  11  12
ATOM     12  C   UNL     1     -43.225 -48.060  69.822  1.00  0.00     0.000 C 
BRANCH  12  13
ATOM     13  C   UNL     1     -44.383 -48.153  70.829  1.00  0.00     0.000 C 
BRANCH  13  14
ATOM     14  C   UNL     1     -45.260 -46.890  70.836  1.00  0.00     0.000 C 
BRANCH  14  15
ATOM     15  C   UNL     1     -46.729 -47.193  71.172  1.00  0.00     0.000 C 
BRANCH  15  16
ATOM     16  C   UNL     1     -47.246 -48.466  70.484  1.00  0.00     0.006 C 
BRANCH  16  17
ATOM     17  C   UNL     1     -47.936 -48.130  69.158  1.00  0.00     0.053 C 
BRANCH  17  18
ATOM     18  C   UNL     1     -47.164 -48.695  68.008  1.00  0.00     0.041 C 
ATOM     19  O   UNL     1     -47.439 -48.349  66.829  1.00  0.00    -0.550 OA
ATOM     20  O   UNL     1     -46.169 -49.638  68.235  1.00  0.00    -0.550 OA
ENDBRANCH  17  18
ENDBRANCH  16  17
ENDBRANCH  15  16
ENDBRANCH  14  15
ENDBRANCH  13  14
ENDBRANCH  12  13
ENDBRANCH  11  12
ENDBRANCH   1  11
TORSDOF 15
ENDMDL
MODEL 7
REMARK VINA RESULT:    -3.230      3.393      7.634
REMARK INTER + INTRA:          -7.869
REMARK INTER:                  -5.927
REMARK INTRA:                  -1.942
REMARK UNBOUND:                -1.807
REMARK SMILES O=C([O-])CCCCCCCCCCCCCCC(=O)[O-]
REMARK SMILES IDX 10 1 9 2 8 3 7 4 6 5 5 6 4 7 2 8 1 9 3 10 11 11 12 12 13 13
REMARK SMILES IDX 14 14 15 15 16 16 17 17 18 18 19 19 20 20
REMARK H PARENT
REMARK Flexibility Score: inf
ROOT
ATOM      1  C   UNL     1     -46.937 -47.404  70.807  1.00  0.00     0.000 C 
ENDROOT
BRANCH   1   2
ATOM      2  C   UNL     1     -46.028 -48.644  70.763  1.00  0.00     0.000 C 
BRANCH   2   3
ATOM      3  C   UNL     1     -45.143 -48.690  69.505  1.00  0.00     0.000 C 
BRANCH   3   4
ATOM      4  C   UNL     1     -44.031 -49.759  69.574  1.00  0.00     0.000 C 
BRANCH   4   5
ATOM      5  C   UNL     1     -42.895 -49.356  70.531  1.00  0.00     0.000 C 
BRANCH   5   6
ATOM      6  C   UNL     1     -42.436 -47.899  70.344  1.00  0.00     0.006 C 
BRANCH   6   7
ATOM      7  C   UNL     1     -42.444 -47.070  71.640  1.00  0.00     0.053 C 
BRANCH   7   8
ATOM      8  C   UNL     1     -43.502 -46.008  71.644  1.00  0.00     0.041 C 
ATOM      9  O   UNL     1     -43.980 -45.590  72.732  1.00  0.00    -0.550 OA
ATOM     10  O   UNL     1     -43.938 -45.457  70.446  1.00  0.00    -0.550 OA
ENDBRANCH   7   8
ENDBRANCH   6   7
ENDBRANCH   5   6
ENDBRANCH   4   5
ENDBRANCH   3   4
ENDBRANCH   2   3
ENDBRANCH   1   2
BRANCH   1  11
ATOM     11  C   UNL     1     -48.399 -47.756  71.125  1.00  0.00     0.000 C 
BRANCH  11  12
ATOM     12  C   UNL     1     -48.789 -49.159  70.626  1.00  0.00     0.000 C 
BRANCH  12  13
ATOM     13  C   UNL     1     -49.638 -49.116  69.345  1.00  0.00     0.000 C 
BRANCH  13  14
ATOM     14  C   UNL     1     -48.825 -49.474  68.089  1.00  0.00     0.000 C 
BRANCH  14  15
ATOM     15  C   UNL     1     -48.212 -48.238  67.411  1.00  0.00     0.000 C 
BRANCH  15  16
ATOM     16  C   UNL     1     -49.203 -47.070  67.293  1.00  0.00     0.006 C 
BRANCH  16  17
ATOM     17  C   UNL     1     -49.803 -47.001  65.886  1.00  0.00     0.053 C 
BRANCH  17  18
ATOM     18  C   UNL     1     -51.285 -47.200  65.936  1.00  0.00     0.041 C 
ATOM     19  O   UNL     1     -51.905 -47.074  67.025  1.00  0.00    -0.550 OA
ATOM     20  O   UNL     1     -51.977 -47.566  64.788  1.00  0.00    -0.550 OA
ENDBRANCH  17  18
ENDBRANCH  16  17
ENDBRANCH  15  16
ENDBRANCH  14  15
ENDBRANCH  13  14
ENDBRANCH  12  13
ENDBRANCH  11  12
ENDBRANCH   1  11
TORSDOF 15
ENDMDL
MODEL 8
REMARK VINA RESULT:    -3.229      1.913      3.349
REMARK INTER + INTRA:          -7.867
REMARK INTER:                  -6.151
REMARK INTRA:                  -1.716
REMARK UNBOUND:                -1.807
REMARK SMILES O=C([O-])CCCCCCCCCCCCCCC(=O)[O-]
REMARK SMILES IDX 10 1 9 2 8 3 7 4 6 5 5 6 4 7 2 8 1 9 3 10 11 11 12 12 13 13
REMARK SMILES IDX 14 14 15 15 16 16 17 17 18 18 19 19 20 20
REMARK H PARENT
REMARK Flexibility Score: inf
ROOT
ATOM      1  C   UNL     1     -43.889 -48.684  70.688  1.00  0.00     0.000 C 
ENDROOT
BRANCH   1   2
ATOM      2  C   UNL     1     -45.389 -48.603  70.361  1.00  0.00     0.000 C 
BRANCH   2   3
ATOM      3  C   UNL     1     -46.089 -47.425  71.059  1.00  0.00     0.000 C 
BRANCH   3   4
ATOM      4  C   UNL     1     -47.482 -47.102  70.475  1.00  0.00     0.000 C 
BRANCH   4   5
ATOM      5  C   UNL     1     -48.576 -48.031  71.032  1.00  0.00     0.000 C 
BRANCH   5   6
ATOM      6  C   UNL     1     -49.087 -49.049  69.997  1.00  0.00     0.006 C 
BRANCH   6   7
ATOM      7  C   UNL     1     -48.629 -48.761  68.557  1.00  0.00     0.053 C 
BRANCH   7   8
ATOM      8  C   UNL     1     -49.670 -48.049  67.748  1.00  0.00     0.041 C 
ATOM      9  O   UNL     1     -49.419 -46.926  67.236  1.00  0.00    -0.550 OA
ATOM     10  O   UNL     1     -50.909 -48.640  67.533  1.00  0.00    -0.550 OA
ENDBRANCH   7   8
ENDBRANCH   6   7
ENDBRANCH   5   6
ENDBRANCH   4   5
ENDBRANCH   3   4
ENDBRANCH   2   3
ENDBRANCH   1   2
BRANCH   1  11
ATOM     11  C   UNL     1     -43.015 -48.789  69.427  1.00  0.00     0.000 C 
BRANCH  11  12
ATOM     12  C   UNL     1     -42.077 -47.581  69.259  1.00  0.00     0.000 C 
BRANCH  12  13
ATOM     13  C   UNL     1     -42.739 -46.419  68.499  1.00  0.00     0.000 C 
BRANCH  13  14
ATOM     14  C   UNL     1     -42.553 -45.069  69.212  1.00  0.00     0.000 C 
BRANCH  14  15
ATOM     15  C   UNL     1     -43.506 -44.895  70.405  1.00  0.00     0.000 C 
BRANCH  15  16
ATOM     16  C   UNL     1     -42.772 -44.886  71.755  1.00  0.00     0.006 C 
BRANCH  16  17
ATOM     17  C   UNL     1     -43.578 -45.632  72.823  1.00  0.00     0.053 C 
BRANCH  17  18
ATOM     18  C   UNL     1     -43.860 -44.738  73.988  1.00  0.00     0.041 C 
ATOM     19  O   UNL     1     -43.627 -43.503  73.911  1.00  0.00    -0.550 OA
ATOM     20  O   UNL     1     -44.341 -45.275  75.176  1.00  0.00    -0.550 OA
ENDBRANCH  17  18
ENDBRANCH  16  17
ENDBRANCH  15  16
ENDBRANCH  14  15
ENDBRANCH  13  14
ENDBRANCH  12  13
ENDBRANCH  11  12
ENDBRANCH   1  11
TORSDOF 15
ENDMDL
MODEL 9
REMARK VINA RESULT:    -3.207      3.184      4.856
REMARK INTER + INTRA:          -7.827
REMARK INTER:                  -5.981
REMARK INTRA:                  -1.846
REMARK UNBOUND:                -1.807
REMARK SMILES O=C([O-])CCCCCCCCCCCCCCC(=O)[O-]
REMARK SMILES IDX 10 1 9 2 8 3 7 4 6 5 5 6 4 7 2 8 1 9 3 10 11 11 12 12 13 13
REMARK SMILES IDX 14 14 15 15 16 16 17 17 18 18 19 19 20 20
REMARK H PARENT
REMARK Flexibility Score: inf
ROOT
ATOM      1  C   UNL     1     -45.725 -48.730  70.768  1.00  0.00     0.000 C 
ENDROOT
BRANCH   1   2
ATOM      2  C   UNL     1     -46.514 -47.421  70.935  1.00  0.00     0.000 C 
BRANCH   2   3
ATOM      3  C   UNL     1     -48.035 -47.643  70.982  1.00  0.00     0.000 C 
BRANCH   3   4
ATOM      4  C   UNL     1     -48.589 -48.377  69.741  1.00  0.00     0.000 C 
BRANCH   4   5
ATOM      5  C   UNL     1     -48.432 -47.545  68.455  1.00  0.00     0.000 C 
BRANCH   5   6
ATOM      6  C   UNL     1     -48.025 -48.390  67.235  1.00  0.00     0.006 C 
BRANCH   6   7
ATOM      7  C   UNL     1     -46.515 -48.672  67.146  1.00  0.00     0.053 C 
BRANCH   7   8
ATOM      8  C   UNL     1     -46.176 -50.108  67.411  1.00  0.00     0.041 C 
ATOM      9  O   UNL     1     -47.087 -50.940  67.666  1.00  0.00    -0.550 OA
ATOM     10  O   UNL     1     -44.856 -50.535  67.347  1.00  0.00    -0.550 OA
ENDBRANCH   7   8
ENDBRANCH   6   7
ENDBRANCH   5   6
ENDBRANCH   4   5
ENDBRANCH   3   4
ENDBRANCH   2   3
ENDBRANCH   1   2
BRANCH   1  11
ATOM     11  C   UNL     1     -44.277 -48.491  70.309  1.00  0.00     0.000 C 
BRANCH  11  12
ATOM     12  C   UNL     1     -43.951 -46.996  70.141  1.00  0.00     0.000 C 
BRANCH  12  13
ATOM     13  C   UNL     1     -42.861 -46.516  71.113  1.00  0.00     0.000 C 
BRANCH  13  14
ATOM     14  C   UNL     1     -43.424 -45.630  72.238  1.00  0.00     0.000 C 
BRANCH  14  15
ATOM     15  C   UNL     1     -42.866 -44.198  72.197  1.00  0.00     0.000 C 
BRANCH  15  16
ATOM     16  C   UNL     1     -41.714 -44.038  71.193  1.00  0.00     0.006 C 
BRANCH  16  17
ATOM     17  C   UNL     1     -41.941 -42.822  70.289  1.00  0.00     0.053 C 
BRANCH  17  18
ATOM     18  C   UNL     1     -42.942 -43.139  69.224  1.00  0.00     0.041 C 
ATOM     19  O   UNL     1     -44.067 -42.572  69.222  1.00  0.00    -0.550 OA
ATOM     20  O   UNL     1     -42.650 -44.093  68.257  1.00  0.00    -0.550 OA
ENDBRANCH  17  18
ENDBRANCH  16  17
ENDBRANCH  15  16
ENDBRANCH  14  15
ENDBRANCH  13  14
ENDBRANCH  12  13
ENDBRANCH  11  12
ENDBRANCH   1  11
TORSDOF 15
ENDMDL
