MODEL 1
REMARK VINA RESULT:    -8.642      0.000      0.000
REMARK INTER + INTRA:         -13.509
REMARK INTER:                 -11.421
REMARK INTRA:                  -2.088
REMARK UNBOUND:                -2.088
REMARK SMILES CC[C@H](C=C[C@@H](C)[C@H]1CC[C@@H]2C3=CC[C@H]4C[C@@H](O)CC[C@@]4(C)[C@H]3CC[C@]21C)C(C)C
REMARK SMILES IDX 6 1 7 2 5 3 4 4 3 5 2 6 1 7 28 8 29 9 30 10 8 11 9 12 26 13
REMARK SMILES IDX 10 14 11 15 25 16 27 17 12 18 24 19 23 20 13 21 21 22 14 23
REMARK SMILES IDX 15 24 20 25 22 26 16 27 19 28 17 29 18 30
REMARK H PARENT 18 31
REMARK Flexibility Score: inf
ROOT
ATOM      1  C   UNL     1     133.758 132.046 142.654  1.00  0.00     0.012 C 
ATOM      2  C   UNL     1     133.150 132.689 143.918  1.00  0.00     0.012 C 
ENDROOT
BRANCH   1   3
ATOM      3  C   UNL     1     135.200 131.652 142.912  1.00  0.00    -0.028 C 
ATOM      4  C   UNL     1     135.652 130.397 143.103  1.00  0.00    -0.027 C 
BRANCH   4   5
ATOM      5  C   UNL     1     134.802 129.137 143.158  1.00  0.00     0.014 C 
BRANCH   5   6
ATOM      6  C   UNL     1     134.580 128.632 141.711  1.00  0.00     0.004 C 
ATOM      7  C   UNL     1     133.232 127.940 141.509  1.00  0.00     0.004 C 
ENDBRANCH   5   6
BRANCH   5   8
ATOM      8  C   UNL     1     135.428 128.073 144.114  1.00  0.00    -0.011 C 
ATOM      9  C   UNL     1     136.671 128.636 144.821  1.00  0.00     0.008 C 
ATOM     10  C   UNL     1     135.776 126.738 143.429  1.00  0.00     0.008 C 
ENDBRANCH   5   8
ENDBRANCH   4   5
ENDBRANCH   1   3
BRANCH   1  11
ATOM     11  C   UNL     1     133.586 132.866 141.323  1.00  0.00     0.002 C 
ATOM     12  C   UNL     1     134.894 133.591 140.918  1.00  0.00     0.005 C 
ATOM     13  C   UNL     1     133.134 132.152 140.006  1.00  0.00    -0.023 C 
ATOM     14  C   UNL     1     135.377 132.960 139.602  1.00  0.00     0.009 C 
ATOM     15  C   UNL     1     134.463 131.755 139.372  1.00  0.00     0.021 C 
ATOM     16  C   UNL     1     132.283 130.876 140.125  1.00  0.00     0.008 C 
ATOM     17  C   UNL     1     132.345 133.204 139.154  1.00  0.00     0.012 C 
ATOM     18  C   UNL     1     134.294 131.232 137.965  1.00  0.00    -0.067 C 
ATOM     19  C   UNL     1     131.996 130.215 138.754  1.00  0.00     0.009 C 
ATOM     20  C   UNL     1     133.059 130.399 137.597  1.00  0.00     0.021 C 
ATOM     21  C   UNL     1     135.334 131.263 137.113  1.00  0.00    -0.027 C 
ATOM     22  C   UNL     1     133.491 129.057 136.895  1.00  0.00    -0.023 C 
ATOM     23  C   UNL     1     135.260 130.667 135.738  1.00  0.00     0.031 C 
ATOM     24  C   UNL     1     134.336 129.415 135.610  1.00  0.00     0.002 C 
ATOM     25  C   UNL     1     134.320 128.180 137.889  1.00  0.00     0.010 C 
ATOM     26  C   UNL     1     132.224 128.273 136.436  1.00  0.00     0.012 C 
ATOM     27  C   UNL     1     135.101 128.200 135.019  1.00  0.00     0.036 C 
ATOM     28  C   UNL     1     134.991 126.977 137.220  1.00  0.00     0.032 C 
ATOM     29  C   UNL     1     135.901 127.414 136.069  1.00  0.00     0.114 C 
BRANCH  29  30
ATOM     30  O   UNL     1     136.967 128.180 136.569  1.00  0.00    -0.393 OA
ATOM     31  H   UNL     1     137.275 128.759 135.824  1.00  0.00     0.210 HD
ENDBRANCH  29  30
ENDBRANCH   1  11
TORSDOF 6
ENDMDL
MODEL 2
REMARK VINA RESULT:    -8.262      1.974      6.535
REMARK INTER + INTRA:         -13.007
REMARK INTER:                 -10.923
REMARK INTRA:                  -2.083
REMARK UNBOUND:                -2.088
REMARK SMILES CC[C@H](C=C[C@@H](C)[C@H]1CC[C@@H]2C3=CC[C@H]4C[C@@H](O)CC[C@@]4(C)[C@H]3CC[C@]21C)C(C)C
REMARK SMILES IDX 6 1 7 2 5 3 4 4 3 5 2 6 1 7 28 8 29 9 30 10 8 11 9 12 26 13
REMARK SMILES IDX 10 14 11 15 25 16 27 17 12 18 24 19 23 20 13 21 21 22 14 23
REMARK SMILES IDX 15 24 20 25 22 26 16 27 19 28 17 29 18 30
REMARK H PARENT 18 31
REMARK Flexibility Score: inf
ROOT
ATOM      1  C   UNL     1     134.493 125.710 138.306  1.00  0.00     0.012 C 
ATOM      2  C   UNL     1     134.616 124.183 138.126  1.00  0.00     0.012 C 
ENDROOT
BRANCH   1   3
ATOM      3  C   UNL     1     135.859 126.360 138.186  1.00  0.00    -0.028 C 
ATOM      4  C   UNL     1     136.262 127.168 137.185  1.00  0.00    -0.027 C 
BRANCH   4   5
ATOM      5  C   UNL     1     135.454 127.539 135.952  1.00  0.00     0.014 C 
BRANCH   5   6
ATOM      6  C   UNL     1     135.215 129.068 135.966  1.00  0.00     0.004 C 
ATOM      7  C   UNL     1     136.474 129.884 135.669  1.00  0.00     0.004 C 
ENDBRANCH   5   6
BRANCH   5   8
ATOM      8  C   UNL     1     136.135 127.013 134.649  1.00  0.00    -0.011 C 
ATOM      9  C   UNL     1     135.300 127.375 133.411  1.00  0.00     0.008 C 
ATOM     10  C   UNL     1     136.428 125.501 134.658  1.00  0.00     0.008 C 
ENDBRANCH   5   8
ENDBRANCH   4   5
ENDBRANCH   1   3
BRANCH   1  11
ATOM     11  C   UNL     1     133.710 126.185 139.584  1.00  0.00     0.002 C 
ATOM     12  C   UNL     1     134.589 126.116 140.859  1.00  0.00     0.005 C 
ATOM     13  C   UNL     1     133.083 127.617 139.642  1.00  0.00    -0.023 C 
ATOM     14  C   UNL     1     134.794 127.559 141.350  1.00  0.00     0.009 C 
ATOM     15  C   UNL     1     134.208 128.447 140.251  1.00  0.00     0.021 C 
ATOM     16  C   UNL     1     132.681 128.290 138.319  1.00  0.00     0.008 C 
ATOM     17  C   UNL     1     131.821 127.535 140.568  1.00  0.00     0.012 C 
ATOM     18  C   UNL     1     133.761 129.844 140.611  1.00  0.00    -0.067 C 
ATOM     19  C   UNL     1     132.173 129.740 138.512  1.00  0.00     0.009 C 
ATOM     20  C   UNL     1     132.742 130.576 139.729  1.00  0.00     0.021 C 
ATOM     21  C   UNL     1     134.443 130.545 141.534  1.00  0.00    -0.027 C 
ATOM     22  C   UNL     1     133.277 132.005 139.339  1.00  0.00    -0.023 C 
ATOM     23  C   UNL     1     134.112 131.971 141.862  1.00  0.00     0.031 C 
ATOM     24  C   UNL     1     133.560 132.812 140.667  1.00  0.00     0.002 C 
ATOM     25  C   UNL     1     134.573 131.869 138.474  1.00  0.00     0.010 C 
ATOM     26  C   UNL     1     132.187 132.773 138.532  1.00  0.00     0.012 C 
ATOM     27  C   UNL     1     134.401 134.097 140.438  1.00  0.00     0.036 C 
ATOM     28  C   UNL     1     135.300 133.200 138.261  1.00  0.00     0.032 C 
ATOM     29  C   UNL     1     135.663 133.857 139.595  1.00  0.00     0.114 C 
BRANCH  29  30
ATOM     30  O   UNL     1     136.587 133.057 140.286  1.00  0.00    -0.393 OA
ATOM     31  H   UNL     1     136.555 132.157 139.867  1.00  0.00     0.210 HD
ENDBRANCH  29  30
ENDBRANCH   1  11
TORSDOF 6
ENDMDL
MODEL 3
REMARK VINA RESULT:    -7.957      2.065      7.067
REMARK INTER + INTRA:         -12.604
REMARK INTER:                 -10.326
REMARK INTRA:                  -2.278
REMARK UNBOUND:                -2.088
REMARK SMILES CC[C@H](C=C[C@@H](C)[C@H]1CC[C@@H]2C3=CC[C@H]4C[C@@H](O)CC[C@@]4(C)[C@H]3CC[C@]21C)C(C)C
REMARK SMILES IDX 6 1 7 2 5 3 4 4 3 5 2 6 1 7 28 8 29 9 30 10 8 11 9 12 26 13
REMARK SMILES IDX 10 14 11 15 25 16 27 17 12 18 24 19 23 20 13 21 21 22 14 23
REMARK SMILES IDX 15 24 20 25 22 26 16 27 19 28 17 29 18 30
REMARK H PARENT 18 31
REMARK Flexibility Score: inf
ROOT
ATOM      1  C   UNL     1     135.131 127.685 135.012  1.00  0.00     0.012 C 
ATOM      2  C   UNL     1     134.801 127.261 133.566  1.00  0.00     0.012 C 
ENDROOT
BRANCH   1   3
ATOM      3  C   UNL     1     136.284 128.671 135.016  1.00  0.00    -0.028 C 
ATOM      4  C   UNL     1     136.342 129.813 135.729  1.00  0.00    -0.027 C 
BRANCH   4   5
ATOM      5  C   UNL     1     135.244 130.368 136.622  1.00  0.00     0.014 C 
BRANCH   5   6
ATOM      6  C   UNL     1     135.781 131.638 137.327  1.00  0.00     0.004 C 
ATOM      7  C   UNL     1     135.107 131.918 138.670  1.00  0.00     0.004 C 
ENDBRANCH   5   6
BRANCH   5   8
ATOM      8  C   UNL     1     133.924 130.596 135.821  1.00  0.00    -0.011 C 
ATOM      9  C   UNL     1     133.893 132.004 135.205  1.00  0.00     0.008 C 
ATOM     10  C   UNL     1     132.641 130.356 136.639  1.00  0.00     0.008 C 
ENDBRANCH   5   8
ENDBRANCH   4   5
ENDBRANCH   1   3
BRANCH   1  11
ATOM     11  C   UNL     1     135.340 126.509 136.036  1.00  0.00     0.002 C 
ATOM     12  C   UNL     1     136.811 126.415 136.514  1.00  0.00     0.005 C 
ATOM     13  C   UNL     1     134.514 126.459 137.364  1.00  0.00    -0.023 C 
ATOM     14  C   UNL     1     136.825 126.745 138.016  1.00  0.00     0.009 C 
ATOM     15  C   UNL     1     135.407 127.220 138.338  1.00  0.00     0.021 C 
ATOM     16  C   UNL     1     133.132 127.133 137.387  1.00  0.00     0.008 C 
ATOM     17  C   UNL     1     134.343 124.950 137.749  1.00  0.00     0.012 C 
ATOM     18  C   UNL     1     134.917 127.120 139.764  1.00  0.00    -0.067 C 
ATOM     19  C   UNL     1     132.471 127.102 138.788  1.00  0.00     0.009 C 
ATOM     20  C   UNL     1     133.411 127.094 140.059  1.00  0.00     0.021 C 
ATOM     21  C   UNL     1     135.774 127.324 140.779  1.00  0.00    -0.027 C 
ATOM     22  C   UNL     1     133.045 128.176 141.142  1.00  0.00    -0.023 C 
ATOM     23  C   UNL     1     135.329 127.340 142.212  1.00  0.00     0.031 C 
ATOM     24  C   UNL     1     133.884 127.881 142.448  1.00  0.00     0.002 C 
ATOM     25  C   UNL     1     133.349 129.607 140.589  1.00  0.00     0.010 C 
ATOM     26  C   UNL     1     131.533 128.066 141.506  1.00  0.00     0.012 C 
ATOM     27  C   UNL     1     133.873 129.055 143.464  1.00  0.00     0.036 C 
ATOM     28  C   UNL     1     133.260 130.701 141.657  1.00  0.00     0.032 C 
ATOM     29  C   UNL     1     134.202 130.414 142.829  1.00  0.00     0.114 C 
BRANCH  29  30
ATOM     30  O   UNL     1     135.535 130.456 142.390  1.00  0.00    -0.393 OA
ATOM     31  H   UNL     1     135.508 130.503 141.399  1.00  0.00     0.210 HD
ENDBRANCH  29  30
ENDBRANCH   1  11
TORSDOF 6
ENDMDL
MODEL 4
REMARK VINA RESULT:    -7.897      2.058      6.595
REMARK INTER + INTRA:         -12.524
REMARK INTER:                 -10.815
REMARK INTRA:                  -1.709
REMARK UNBOUND:                -2.088
REMARK SMILES CC[C@H](C=C[C@@H](C)[C@H]1CC[C@@H]2C3=CC[C@H]4C[C@@H](O)CC[C@@]4(C)[C@H]3CC[C@]21C)C(C)C
REMARK SMILES IDX 6 1 7 2 5 3 4 4 3 5 2 6 1 7 28 8 29 9 30 10 8 11 9 12 26 13
REMARK SMILES IDX 10 14 11 15 25 16 27 17 12 18 24 19 23 20 13 21 21 22 14 23
REMARK SMILES IDX 15 24 20 25 22 26 16 27 19 28 17 29 18 30
REMARK H PARENT 18 31
REMARK Flexibility Score: inf
ROOT
ATOM      1  C   UNL     1     135.404 129.302 135.625  1.00  0.00     0.012 C 
ATOM      2  C   UNL     1     136.467 130.232 135.005  1.00  0.00     0.012 C 
ENDROOT
BRANCH   1   3
ATOM      3  C   UNL     1     135.275 128.036 134.799  1.00  0.00    -0.028 C 
ATOM      4  C   UNL     1     135.539 126.785 135.226  1.00  0.00    -0.027 C 
BRANCH   4   5
ATOM      5  C   UNL     1     136.075 126.401 136.596  1.00  0.00     0.014 C 
BRANCH   5   6
ATOM      6  C   UNL     1     134.895 125.889 137.457  1.00  0.00     0.004 C 
ATOM      7  C   UNL     1     134.870 126.481 138.867  1.00  0.00     0.004 C 
ENDBRANCH   5   6
BRANCH   5   8
ATOM      8  C   UNL     1     137.261 125.392 136.478  1.00  0.00    -0.011 C 
ATOM      9  C   UNL     1     138.370 125.955 135.576  1.00  0.00     0.008 C 
ATOM     10  C   UNL     1     136.849 123.991 135.987  1.00  0.00     0.008 C 
ENDBRANCH   5   8
ENDBRANCH   4   5
ENDBRANCH   1   3
BRANCH   1  11
ATOM     11  C   UNL     1     134.012 129.966 135.931  1.00  0.00     0.002 C 
ATOM     12  C   UNL     1     132.904 128.907 136.160  1.00  0.00     0.005 C 
ATOM     13  C   UNL     1     133.849 130.942 137.143  1.00  0.00    -0.023 C 
ATOM     14  C   UNL     1     132.455 129.026 137.626  1.00  0.00     0.009 C 
ATOM     15  C   UNL     1     133.440 130.001 138.272  1.00  0.00     0.021 C 
ATOM     16  C   UNL     1     135.086 131.721 137.622  1.00  0.00     0.008 C 
ATOM     17  C   UNL     1     132.724 131.966 136.769  1.00  0.00     0.012 C 
ATOM     18  C   UNL     1     133.011 130.748 139.513  1.00  0.00    -0.067 C 
ATOM     19  C   UNL     1     134.811 132.566 138.890  1.00  0.00     0.009 C 
ATOM     20  C   UNL     1     133.708 132.057 139.903  1.00  0.00     0.021 C 
ATOM     21  C   UNL     1     132.216 130.142 140.413  1.00  0.00    -0.027 C 
ATOM     22  C   UNL     1     134.184 132.001 141.404  1.00  0.00    -0.023 C 
ATOM     23  C   UNL     1     131.838 130.791 141.712  1.00  0.00     0.031 C 
ATOM     24  C   UNL     1     132.923 131.737 142.318  1.00  0.00     0.002 C 
ATOM     25  C   UNL     1     135.255 130.875 141.580  1.00  0.00     0.010 C 
ATOM     26  C   UNL     1     134.796 133.375 141.813  1.00  0.00     0.012 C 
ATOM     27  C   UNL     1     133.292 131.326 143.769  1.00  0.00     0.036 C 
ATOM     28  C   UNL     1     135.588 130.582 143.046  1.00  0.00     0.032 C 
ATOM     29  C   UNL     1     134.335 130.201 143.838  1.00  0.00     0.114 C 
BRANCH  29  30
ATOM     30  O   UNL     1     133.809 128.995 143.348  1.00  0.00    -0.393 OA
ATOM     31  H   UNL     1     133.026 128.773 143.915  1.00  0.00     0.210 HD
ENDBRANCH  29  30
ENDBRANCH   1  11
TORSDOF 6
ENDMDL
MODEL 5
REMARK VINA RESULT:    -7.159      2.155      6.820
REMARK INTER + INTRA:         -11.550
REMARK INTER:                 -11.304
REMARK INTRA:                  -0.246
REMARK UNBOUND:                -2.088
REMARK SMILES CC[C@H](C=C[C@@H](C)[C@H]1CC[C@@H]2C3=CC[C@H]4C[C@@H](O)CC[C@@]4(C)[C@H]3CC[C@]21C)C(C)C
REMARK SMILES IDX 6 1 7 2 5 3 4 4 3 5 2 6 1 7 28 8 29 9 30 10 8 11 9 12 26 13
REMARK SMILES IDX 10 14 11 15 25 16 27 17 12 18 24 19 23 20 13 21 21 22 14 23
REMARK SMILES IDX 15 24 20 25 22 26 16 27 19 28 17 29 18 30
REMARK H PARENT 18 31
REMARK Flexibility Score: inf
ROOT
ATOM      1  C   UNL     1     135.545 126.031 136.701  1.00  0.00     0.012 C 
ATOM      2  C   UNL     1     136.127 124.680 136.235  1.00  0.00     0.012 C 
ENDROOT
BRANCH   1   3
ATOM      3  C   UNL     1     136.665 126.965 137.120  1.00  0.00    -0.028 C 
ATOM      4  C   UNL     1     137.064 128.065 136.452  1.00  0.00    -0.027 C 
BRANCH   4   5
ATOM      5  C   UNL     1     136.515 128.554 135.121  1.00  0.00     0.014 C 
BRANCH   5   6
ATOM      6  C   UNL     1     135.141 127.882 134.882  1.00  0.00     0.004 C 
ATOM      7  C   UNL     1     134.939 127.407 133.442  1.00  0.00     0.004 C 
ENDBRANCH   5   6
BRANCH   5   8
ATOM      8  C   UNL     1     136.478 130.114 135.063  1.00  0.00    -0.011 C 
ATOM      9  C   UNL     1     137.632 130.719 135.878  1.00  0.00     0.008 C 
ATOM     10  C   UNL     1     135.140 130.731 135.513  1.00  0.00     0.008 C 
ENDBRANCH   5   8
ENDBRANCH   4   5
ENDBRANCH   1   3
BRANCH   1  11
ATOM     11  C   UNL     1     134.400 125.943 137.777  1.00  0.00     0.002 C 
ATOM     12  C   UNL     1     134.934 125.469 139.152  1.00  0.00     0.005 C 
ATOM     13  C   UNL     1     133.544 127.205 138.126  1.00  0.00    -0.023 C 
ATOM     14  C   UNL     1     134.763 126.638 140.136  1.00  0.00     0.009 C 
ATOM     15  C   UNL     1     134.325 127.827 139.279  1.00  0.00     0.021 C 
ATOM     16  C   UNL     1     133.374 128.291 137.050  1.00  0.00     0.008 C 
ATOM     17  C   UNL     1     132.125 126.701 138.558  1.00  0.00     0.012 C 
ATOM     18  C   UNL     1     133.573 128.957 139.939  1.00  0.00    -0.067 C 
ATOM     19  C   UNL     1     132.596 129.529 137.561  1.00  0.00     0.009 C 
ATOM     20  C   UNL     1     132.695 129.892 139.097  1.00  0.00     0.021 C 
ATOM     21  C   UNL     1     133.875 129.312 141.201  1.00  0.00    -0.027 C 
ATOM     22  C   UNL     1     133.059 131.397 139.385  1.00  0.00    -0.023 C 
ATOM     23  C   UNL     1     133.235 130.489 141.876  1.00  0.00     0.031 C 
ATOM     24  C   UNL     1     132.863 131.672 140.928  1.00  0.00     0.002 C 
ATOM     25  C   UNL     1     134.533 131.680 138.944  1.00  0.00     0.010 C 
ATOM     26  C   UNL     1     132.090 132.332 138.601  1.00  0.00     0.012 C 
ATOM     27  C   UNL     1     133.504 133.006 141.400  1.00  0.00     0.036 C 
ATOM     28  C   UNL     1     135.054 133.042 139.413  1.00  0.00     0.032 C 
ATOM     29  C   UNL     1     134.957 133.182 140.935  1.00  0.00     0.114 C 
BRANCH  29  30
ATOM     30  O   UNL     1     135.802 132.248 141.555  1.00  0.00    -0.393 OA
ATOM     31  H   UNL     1     135.238 131.468 141.797  1.00  0.00     0.210 HD
ENDBRANCH  29  30
ENDBRANCH   1  11
TORSDOF 6
ENDMDL
MODEL 6
REMARK VINA RESULT:    -6.870      2.059      4.359
REMARK INTER + INTRA:         -11.168
REMARK INTER:                 -10.170
REMARK INTRA:                  -0.998
REMARK UNBOUND:                -2.088
REMARK SMILES CC[C@H](C=C[C@@H](C)[C@H]1CC[C@@H]2C3=CC[C@H]4C[C@@H](O)CC[C@@]4(C)[C@H]3CC[C@]21C)C(C)C
REMARK SMILES IDX 6 1 7 2 5 3 4 4 3 5 2 6 1 7 28 8 29 9 30 10 8 11 9 12 26 13
REMARK SMILES IDX 10 14 11 15 25 16 27 17 12 18 24 19 23 20 13 21 21 22 14 23
REMARK SMILES IDX 15 24 20 25 22 26 16 27 19 28 17 29 18 30
REMARK H PARENT 18 31
REMARK Flexibility Score: inf
ROOT
ATOM      1  C   UNL     1     134.534 133.321 140.144  1.00  0.00     0.012 C 
ATOM      2  C   UNL     1     135.421 133.027 138.916  1.00  0.00     0.012 C 
ENDROOT
BRANCH   1   3
ATOM      3  C   UNL     1     135.354 133.213 141.416  1.00  0.00    -0.028 C 
ATOM      4  C   UNL     1     134.925 133.515 142.658  1.00  0.00    -0.027 C 
BRANCH   4   5
ATOM      5  C   UNL     1     133.561 134.078 143.022  1.00  0.00     0.014 C 
BRANCH   5   6
ATOM      6  C   UNL     1     132.804 133.021 143.863  1.00  0.00     0.004 C 
ATOM      7  C   UNL     1     133.669 131.824 144.257  1.00  0.00     0.004 C 
ENDBRANCH   5   6
BRANCH   5   8
ATOM      8  C   UNL     1     133.690 135.471 143.717  1.00  0.00    -0.011 C 
ATOM      9  C   UNL     1     134.850 135.474 144.724  1.00  0.00     0.008 C 
ATOM     10  C   UNL     1     132.399 135.954 144.404  1.00  0.00     0.008 C 
ENDBRANCH   5   8
ENDBRANCH   4   5
ENDBRANCH   1   3
BRANCH   1  11
ATOM     11  C   UNL     1     133.189 132.508 140.223  1.00  0.00     0.002 C 
ATOM     12  C   UNL     1     132.362 132.631 138.918  1.00  0.00     0.005 C 
ATOM     13  C   UNL     1     133.209 130.970 140.507  1.00  0.00    -0.023 C 
ATOM     14  C   UNL     1     132.312 131.235 138.277  1.00  0.00     0.009 C 
ATOM     15  C   UNL     1     133.269 130.376 139.104  1.00  0.00     0.021 C 
ATOM     16  C   UNL     1     134.392 130.391 141.301  1.00  0.00     0.008 C 
ATOM     17  C   UNL     1     131.880 130.618 141.258  1.00  0.00     0.012 C 
ATOM     18  C   UNL     1     133.079 128.877 139.107  1.00  0.00    -0.067 C 
ATOM     19  C   UNL     1     134.340 128.848 141.419  1.00  0.00     0.009 C 
ATOM     20  C   UNL     1     133.643 128.032 140.257  1.00  0.00     0.021 C 
ATOM     21  C   UNL     1     132.659 128.257 137.990  1.00  0.00    -0.027 C 
ATOM     22  C   UNL     1     134.507 126.843 139.692  1.00  0.00    -0.023 C 
ATOM     23  C   UNL     1     132.548 126.763 137.898  1.00  0.00     0.031 C 
ATOM     24  C   UNL     1     133.595 125.970 138.742  1.00  0.00     0.002 C 
ATOM     25  C   UNL     1     135.747 127.404 138.923  1.00  0.00     0.010 C 
ATOM     26  C   UNL     1     134.985 125.936 140.867  1.00  0.00     0.012 C 
ATOM     27  C   UNL     1     134.399 124.973 137.864  1.00  0.00     0.036 C 
ATOM     28  C   UNL     1     136.504 126.334 138.131  1.00  0.00     0.032 C 
ATOM     29  C   UNL     1     135.584 125.624 137.134  1.00  0.00     0.114 C 
BRANCH  29  30
ATOM     30  O   UNL     1     135.141 126.534 136.162  1.00  0.00    -0.393 OA
ATOM     31  H   UNL     1     135.008 127.403 136.624  1.00  0.00     0.210 HD
ENDBRANCH  29  30
ENDBRANCH   1  11
TORSDOF 6
ENDMDL
MODEL 7
REMARK VINA RESULT:    -6.825      1.633      4.551
REMARK INTER + INTRA:         -11.108
REMARK INTER:                  -9.116
REMARK INTRA:                  -1.992
REMARK UNBOUND:                -2.088
REMARK SMILES CC[C@H](C=C[C@@H](C)[C@H]1CC[C@@H]2C3=CC[C@H]4C[C@@H](O)CC[C@@]4(C)[C@H]3CC[C@]21C)C(C)C
REMARK SMILES IDX 6 1 7 2 5 3 4 4 3 5 2 6 1 7 28 8 29 9 30 10 8 11 9 12 26 13
REMARK SMILES IDX 10 14 11 15 25 16 27 17 12 18 24 19 23 20 13 21 21 22 14 23
REMARK SMILES IDX 15 24 20 25 22 26 16 27 19 28 17 29 18 30
REMARK H PARENT 18 31
REMARK Flexibility Score: inf
ROOT
ATOM      1  C   UNL     1     134.538 128.433 142.738  1.00  0.00     0.012 C 
ATOM      2  C   UNL     1     135.568 127.841 143.722  1.00  0.00     0.012 C 
ENDROOT
BRANCH   1   3
ATOM      3  C   UNL     1     133.620 129.399 143.463  1.00  0.00    -0.028 C 
ATOM      4  C   UNL     1     133.531 130.724 143.234  1.00  0.00    -0.027 C 
BRANCH   4   5
ATOM      5  C   UNL     1     134.371 131.522 142.250  1.00  0.00     0.014 C 
BRANCH   5   6
ATOM      6  C   UNL     1     133.677 131.480 140.867  1.00  0.00     0.004 C 
ATOM      7  C   UNL     1     134.615 131.080 139.728  1.00  0.00     0.004 C 
ENDBRANCH   5   6
BRANCH   5   8
ATOM      8  C   UNL     1     134.647 132.965 142.780  1.00  0.00    -0.011 C 
ATOM      9  C   UNL     1     133.905 133.213 144.102  1.00  0.00     0.008 C 
ATOM     10  C   UNL     1     134.308 134.081 141.773  1.00  0.00     0.008 C 
ENDBRANCH   5   8
ENDBRANCH   4   5
ENDBRANCH   1   3
BRANCH   1  11
ATOM     11  C   UNL     1     133.747 127.388 141.868  1.00  0.00     0.002 C 
ATOM     12  C   UNL     1     132.346 127.915 141.464  1.00  0.00     0.005 C 
ATOM     13  C   UNL     1     134.348 126.861 140.524  1.00  0.00    -0.023 C 
ATOM     14  C   UNL     1     132.346 128.084 139.936  1.00  0.00     0.009 C 
ATOM     15  C   UNL     1     133.794 127.850 139.504  1.00  0.00     0.021 C 
ATOM     16  C   UNL     1     135.877 126.847 140.365  1.00  0.00     0.008 C 
ATOM     17  C   UNL     1     133.807 125.405 140.311  1.00  0.00     0.012 C 
ATOM     18  C   UNL     1     134.065 127.419 138.081  1.00  0.00    -0.067 C 
ATOM     19  C   UNL     1     136.332 126.402 138.953  1.00  0.00     0.009 C 
ATOM     20  C   UNL     1     135.375 126.702 137.730  1.00  0.00     0.021 C 
ATOM     21  C   UNL     1     133.296 127.893 137.084  1.00  0.00    -0.027 C 
ATOM     22  C   UNL     1     136.080 127.410 136.513  1.00  0.00    -0.023 C 
ATOM     23  C   UNL     1     133.575 127.584 135.643  1.00  0.00     0.031 C 
ATOM     24  C   UNL     1     135.085 127.404 135.287  1.00  0.00     0.002 C 
ATOM     25  C   UNL     1     136.482 128.869 136.907  1.00  0.00     0.010 C 
ATOM     26  C   UNL     1     137.353 126.608 136.105  1.00  0.00     0.012 C 
ATOM     27  C   UNL     1     135.518 128.358 134.140  1.00  0.00     0.036 C 
ATOM     28  C   UNL     1     136.945 129.712 135.715  1.00  0.00     0.032 C 
ATOM     29  C   UNL     1     135.873 129.772 134.624  1.00  0.00     0.114 C 
BRANCH  29  30
ATOM     30  O   UNL     1     134.737 130.440 135.108  1.00  0.00    -0.393 OA
ATOM     31  H   UNL     1     135.019 131.369 135.314  1.00  0.00     0.210 HD
ENDBRANCH  29  30
ENDBRANCH   1  11
TORSDOF 6
ENDMDL
MODEL 8
REMARK VINA RESULT:    -6.582      1.603      3.838
REMARK INTER + INTRA:         -10.787
REMARK INTER:                  -9.486
REMARK INTRA:                  -1.301
REMARK UNBOUND:                -2.088
REMARK SMILES CC[C@H](C=C[C@@H](C)[C@H]1CC[C@@H]2C3=CC[C@H]4C[C@@H](O)CC[C@@]4(C)[C@H]3CC[C@]21C)C(C)C
REMARK SMILES IDX 6 1 7 2 5 3 4 4 3 5 2 6 1 7 28 8 29 9 30 10 8 11 9 12 26 13
REMARK SMILES IDX 10 14 11 15 25 16 27 17 12 18 24 19 23 20 13 21 21 22 14 23
REMARK SMILES IDX 15 24 20 25 22 26 16 27 19 28 17 29 18 30
REMARK H PARENT 18 31
REMARK Flexibility Score: inf
ROOT
ATOM      1  C   UNL     1     132.522 131.944 139.153  1.00  0.00     0.012 C 
ATOM      2  C   UNL     1     132.385 133.480 139.108  1.00  0.00     0.012 C 
ENDROOT
BRANCH   1   3
ATOM      3  C   UNL     1     133.956 131.557 139.459  1.00  0.00    -0.028 C 
ATOM      4  C   UNL     1     134.464 131.318 140.684  1.00  0.00    -0.027 C 
BRANCH   4   5
ATOM      5  C   UNL     1     133.719 131.445 142.003  1.00  0.00     0.014 C 
BRANCH   5   6
ATOM      6  C   UNL     1     133.710 130.061 142.697  1.00  0.00     0.004 C 
ATOM      7  C   UNL     1     134.633 129.041 142.030  1.00  0.00     0.004 C 
ENDBRANCH   5   6
BRANCH   5   8
ATOM      8  C   UNL     1     134.313 132.592 142.881  1.00  0.00    -0.011 C 
ATOM      9  C   UNL     1     133.426 132.858 144.107  1.00  0.00     0.008 C 
ATOM     10  C   UNL     1     134.556 133.908 142.117  1.00  0.00     0.008 C 
ENDBRANCH   5   8
ENDBRANCH   4   5
ENDBRANCH   1   3
BRANCH   1  11
ATOM     11  C   UNL     1     131.941 131.171 137.912  1.00  0.00     0.002 C 
ATOM     12  C   UNL     1     132.386 131.813 136.573  1.00  0.00     0.005 C 
ATOM     13  C   UNL     1     132.244 129.650 137.714  1.00  0.00    -0.023 C 
ATOM     14  C   UNL     1     133.288 130.794 135.857  1.00  0.00     0.009 C 
ATOM     15  C   UNL     1     133.515 129.672 136.871  1.00  0.00     0.021 C 
ATOM     16  C   UNL     1     132.536 128.797 138.960  1.00  0.00     0.008 C 
ATOM     17  C   UNL     1     131.023 129.027 136.953  1.00  0.00     0.012 C 
ATOM     18  C   UNL     1     133.890 128.300 136.361  1.00  0.00    -0.067 C 
ATOM     19  C   UNL     1     132.922 127.337 138.613  1.00  0.00     0.009 C 
ATOM     20  C   UNL     1     133.643 127.062 137.233  1.00  0.00     0.021 C 
ATOM     21  C   UNL     1     134.676 128.185 135.276  1.00  0.00    -0.027 C 
ATOM     22  C   UNL     1     134.956 126.200 137.348  1.00  0.00    -0.023 C 
ATOM     23  C   UNL     1     135.167 126.856 134.781  1.00  0.00     0.031 C 
ATOM     24  C   UNL     1     135.412 125.787 135.893  1.00  0.00     0.002 C 
ATOM     25  C   UNL     1     136.069 127.022 138.077  1.00  0.00     0.010 C 
ATOM     26  C   UNL     1     134.659 124.896 138.148  1.00  0.00     0.012 C 
ATOM     27  C   UNL     1     136.860 125.229 135.839  1.00  0.00     0.036 C 
ATOM     28  C   UNL     1     137.449 126.361 138.012  1.00  0.00     0.032 C 
ATOM     29  C   UNL     1     137.883 126.116 136.564  1.00  0.00     0.114 C 
BRANCH  29  30
ATOM     30  O   UNL     1     138.048 127.342 135.901  1.00  0.00    -0.393 OA
ATOM     31  H   UNL     1     138.991 127.617 136.040  1.00  0.00     0.210 HD
ENDBRANCH  29  30
ENDBRANCH   1  11
TORSDOF 6
ENDMDL
MODEL 9
REMARK VINA RESULT:    -6.316      1.907      4.781
REMARK INTER + INTRA:         -10.435
REMARK INTER:                  -8.281
REMARK INTRA:                  -2.154
REMARK UNBOUND:                -2.088
REMARK SMILES CC[C@H](C=C[C@@H](C)[C@H]1CC[C@@H]2C3=CC[C@H]4C[C@@H](O)CC[C@@]4(C)[C@H]3CC[C@]21C)C(C)C
REMARK SMILES IDX 6 1 7 2 5 3 4 4 3 5 2 6 1 7 28 8 29 9 30 10 8 11 9 12 26 13
REMARK SMILES IDX 10 14 11 15 25 16 27 17 12 18 24 19 23 20 13 21 21 22 14 23
REMARK SMILES IDX 15 24 20 25 22 26 16 27 19 28 17 29 18 30
REMARK H PARENT 18 31
REMARK Flexibility Score: inf
ROOT
ATOM      1  C   UNL     1     131.999 132.818 138.406  1.00  0.00     0.012 C 
ATOM      2  C   UNL     1     131.333 134.102 137.869  1.00  0.00     0.012 C 
ENDROOT
BRANCH   1   3
ATOM      3  C   UNL     1     133.425 133.110 138.832  1.00  0.00    -0.028 C 
ATOM      4  C   UNL     1     133.929 132.938 140.071  1.00  0.00    -0.027 C 
BRANCH   4   5
ATOM      5  C   UNL     1     133.156 132.475 141.296  1.00  0.00     0.014 C 
BRANCH   5   6
ATOM      6  C   UNL     1     133.509 130.993 141.567  1.00  0.00     0.004 C 
ATOM      7  C   UNL     1     134.943 130.629 141.181  1.00  0.00     0.004 C 
ENDBRANCH   5   6
BRANCH   5   8
ATOM      8  C   UNL     1     133.404 133.421 142.513  1.00  0.00    -0.011 C 
ATOM      9  C   UNL     1     134.661 134.278 142.292  1.00  0.00     0.008 C 
ATOM     10  C   UNL     1     133.499 132.694 143.867  1.00  0.00     0.008 C 
ENDBRANCH   5   8
ENDBRANCH   4   5
ENDBRANCH   1   3
BRANCH   1  11
ATOM     11  C   UNL     1     131.896 131.556 137.474  1.00  0.00     0.002 C 
ATOM     12  C   UNL     1     133.153 131.391 136.582  1.00  0.00     0.005 C 
ATOM     13  C   UNL     1     131.687 130.132 138.089  1.00  0.00    -0.023 C 
ATOM     14  C   UNL     1     133.857 130.097 137.022  1.00  0.00     0.009 C 
ATOM     15  C   UNL     1     133.118 129.642 138.282  1.00  0.00     0.021 C 
ATOM     16  C   UNL     1     130.978 130.023 139.449  1.00  0.00     0.008 C 
ATOM     17  C   UNL     1     130.892 129.283 137.038  1.00  0.00     0.012 C 
ATOM     18  C   UNL     1     133.178 128.184 138.670  1.00  0.00    -0.067 C 
ATOM     19  C   UNL     1     130.932 128.573 139.989  1.00  0.00     0.009 C 
ATOM     20  C   UNL     1     132.098 127.585 139.580  1.00  0.00     0.021 C 
ATOM     21  C   UNL     1     134.302 127.480 138.447  1.00  0.00    -0.027 C 
ATOM     22  C   UNL     1     132.759 126.826 140.791  1.00  0.00    -0.023 C 
ATOM     23  C   UNL     1     134.460 126.059 138.900  1.00  0.00     0.031 C 
ATOM     24  C   UNL     1     133.705 125.699 140.219  1.00  0.00     0.002 C 
ATOM     25  C   UNL     1     133.557 127.836 141.680  1.00  0.00     0.010 C 
ATOM     26  C   UNL     1     131.653 126.138 141.647  1.00  0.00     0.012 C 
ATOM     27  C   UNL     1     134.667 125.105 141.283  1.00  0.00     0.036 C 
ATOM     28  C   UNL     1     134.435 127.153 142.733  1.00  0.00     0.032 C 
ATOM     29  C   UNL     1     135.420 126.174 142.089  1.00  0.00     0.114 C 
BRANCH  29  30
ATOM     30  O   UNL     1     136.325 126.875 141.276  1.00  0.00    -0.393 OA
ATOM     31  H   UNL     1     137.140 127.027 141.822  1.00  0.00     0.210 HD
ENDBRANCH  29  30
ENDBRANCH   1  11
TORSDOF 6
ENDMDL
