MODEL 1
REMARK VINA RESULT:    -3.726      0.000      0.000
REMARK INTER + INTRA:          -5.214
REMARK INTER:                  -4.815
REMARK INTRA:                  -0.400
REMARK UNBOUND:                -0.400
REMARK SMILES CCO[C@@H]1O[C@H](CO)[C@@H](O)[C@H](O)[C@@H]1O
REMARK SMILES IDX 4 1 13 2 11 3 9 4 6 5 5 6 3 7 2 8 1 9 14 10 12 12 7 14 8 15
REMARK SMILES IDX 10 17
REMARK H PARENT 14 11 12 13 8 16 10 18
REMARK Flexibility Score: inf
ROOT
ATOM      1  C   UNL     1     116.860  49.979  -4.856  1.00  0.00     0.281 C 
ATOM      2  C   UNL     1     116.164  49.582  -3.540  1.00  0.00     0.202 C 
ATOM      3  C   UNL     1     115.958  48.067  -3.458  1.00  0.00     0.179 C 
ATOM      4  C   UNL     1     117.287  47.342  -3.725  1.00  0.00     0.177 C 
ATOM      5  C   UNL     1     118.000  47.878  -4.996  1.00  0.00     0.178 C 
ATOM      6  O   UNL     1     118.097  49.298  -5.036  1.00  0.00    -0.341 OA
ENDROOT
BRANCH   1   7
ATOM      7  O   UNL     1     115.990  49.785  -5.958  1.00  0.00    -0.350 OA
BRANCH   7   8
ATOM      8  C   UNL     1     115.896  50.955  -6.750  1.00  0.00     0.160 C 
ATOM      9  C   UNL     1     116.515  52.137  -6.015  1.00  0.00     0.035 C 
ENDBRANCH   7   8
ENDBRANCH   1   7
BRANCH   2  10
ATOM     10  O   UNL     1     114.924  50.233  -3.425  1.00  0.00    -0.385 OA
ATOM     11  H   UNL     1     114.728  50.635  -4.311  1.00  0.00     0.211 HD
ENDBRANCH   2  10
BRANCH   3  12
ATOM     12  O   UNL     1     114.971  47.660  -4.372  1.00  0.00    -0.387 OA
ATOM     13  H   UNL     1     114.691  46.745  -4.106  1.00  0.00     0.211 HD
ENDBRANCH   3  12
BRANCH   5  14
ATOM     14  C   UNL     1     117.465  47.284  -6.317  1.00  0.00     0.191 C 
BRANCH  14  15
ATOM     15  O   UNL     1     116.684  46.146  -6.067  1.00  0.00    -0.394 OA
ATOM     16  H   UNL     1     117.068  45.706  -5.265  1.00  0.00     0.210 HD
ENDBRANCH  14  15
ENDBRANCH   5  14
BRANCH   4  17
ATOM     17  O   UNL     1     118.125  47.517  -2.609  1.00  0.00    -0.387 OA
ATOM     18  H   UNL     1     117.842  48.358  -2.163  1.00  0.00     0.211 HD
ENDBRANCH   4  17
TORSDOF 7
ENDMDL
MODEL 2
REMARK VINA RESULT:    -3.438      1.616      2.574
REMARK INTER + INTRA:          -4.843
REMARK INTER:                  -4.411
REMARK INTRA:                  -0.432
REMARK UNBOUND:                -0.400
REMARK SMILES CCO[C@@H]1O[C@H](CO)[C@@H](O)[C@H](O)[C@@H]1O
REMARK SMILES IDX 4 1 13 2 11 3 9 4 6 5 5 6 3 7 2 8 1 9 14 10 12 12 7 14 8 15
REMARK SMILES IDX 10 17
REMARK H PARENT 14 11 12 13 8 16 10 18
REMARK Flexibility Score: inf
ROOT
ATOM      1  C   UNL     1     116.900  49.325  -5.838  1.00  0.00     0.281 C 
ATOM      2  C   UNL     1     117.333  48.224  -4.851  1.00  0.00     0.202 C 
ATOM      3  C   UNL     1     116.268  47.130  -4.741  1.00  0.00     0.179 C 
ATOM      4  C   UNL     1     115.891  46.623  -6.143  1.00  0.00     0.177 C 
ATOM      5  C   UNL     1     115.591  47.787  -7.125  1.00  0.00     0.178 C 
ATOM      6  O   UNL     1     116.591  48.801  -7.125  1.00  0.00    -0.341 OA
ENDROOT
BRANCH   1   7
ATOM      7  O   UNL     1     115.823  50.077  -5.306  1.00  0.00    -0.350 OA
BRANCH   7   8
ATOM      8  C   UNL     1     115.929  51.444  -5.657  1.00  0.00     0.160 C 
ATOM      9  C   UNL     1     117.372  51.788  -6.003  1.00  0.00     0.035 C 
ENDBRANCH   7   8
ENDBRANCH   1   7
BRANCH   2  10
ATOM     10  O   UNL     1     117.577  48.773  -3.581  1.00  0.00    -0.385 OA
ATOM     11  H   UNL     1     116.756  49.266  -3.319  1.00  0.00     0.211 HD
ENDBRANCH   2  10
BRANCH   3  12
ATOM     12  O   UNL     1     115.138  47.617  -4.062  1.00  0.00    -0.387 OA
ATOM     13  H   UNL     1     114.675  48.239  -4.682  1.00  0.00     0.211 HD
ENDBRANCH   3  12
BRANCH   5  14
ATOM     14  C   UNL     1     114.163  48.365  -7.001  1.00  0.00     0.191 C 
BRANCH  14  15
ATOM     15  O   UNL     1     113.301  47.429  -6.411  1.00  0.00    -0.394 OA
ATOM     16  H   UNL     1     113.777  46.558  -6.417  1.00  0.00     0.210 HD
ENDBRANCH  14  15
ENDBRANCH   5  14
BRANCH   4  17
ATOM     17  O   UNL     1     116.956  45.852  -6.642  1.00  0.00    -0.387 OA
ATOM     18  H   UNL     1     116.588  44.957  -6.863  1.00  0.00     0.211 HD
ENDBRANCH   4  17
TORSDOF 7
ENDMDL
MODEL 3
REMARK VINA RESULT:    -3.376      2.051      3.552
REMARK INTER + INTRA:          -4.762
REMARK INTER:                  -4.269
REMARK INTRA:                  -0.494
REMARK UNBOUND:                -0.400
REMARK SMILES CCO[C@@H]1O[C@H](CO)[C@@H](O)[C@H](O)[C@@H]1O
REMARK SMILES IDX 4 1 13 2 11 3 9 4 6 5 5 6 3 7 2 8 1 9 14 10 12 12 7 14 8 15
REMARK SMILES IDX 10 17
REMARK H PARENT 14 11 12 13 8 16 10 18
REMARK Flexibility Score: inf
ROOT
ATOM      1  C   UNL     1     115.563  48.438  -6.538  1.00  0.00     0.281 C 
ATOM      2  C   UNL     1     115.118  49.912  -6.598  1.00  0.00     0.202 C 
ATOM      3  C   UNL     1     115.793  50.738  -5.499  1.00  0.00     0.179 C 
ATOM      4  C   UNL     1     117.315  50.524  -5.542  1.00  0.00     0.177 C 
ATOM      5  C   UNL     1     117.692  49.020  -5.610  1.00  0.00     0.178 C 
ATOM      6  O   UNL     1     116.977  48.300  -6.610  1.00  0.00    -0.341 OA
ENDROOT
BRANCH   1   7
ATOM      7  O   UNL     1     115.032  47.804  -5.387  1.00  0.00    -0.350 OA
BRANCH   7   8
ATOM      8  C   UNL     1     114.592  46.491  -5.681  1.00  0.00     0.160 C 
ATOM      9  C   UNL     1     113.396  46.536  -6.624  1.00  0.00     0.035 C 
ENDBRANCH   7   8
ENDBRANCH   1   7
BRANCH   2  10
ATOM     10  O   UNL     1     113.723  50.009  -6.470  1.00  0.00    -0.385 OA
ATOM     11  H   UNL     1     113.510  49.848  -5.514  1.00  0.00     0.211 HD
ENDBRANCH   2  10
BRANCH   3  12
ATOM     12  O   UNL     1     115.272  50.392  -4.241  1.00  0.00    -0.387 OA
ATOM     13  H   UNL     1     114.603  49.673  -4.393  1.00  0.00     0.211 HD
ENDBRANCH   3  12
BRANCH   5  14
ATOM     14  C   UNL     1     117.678  48.303  -4.242  1.00  0.00     0.191 C 
BRANCH  14  15
ATOM     15  O   UNL     1     117.842  46.920  -4.407  1.00  0.00    -0.394 OA
ATOM     16  H   UNL     1     118.423  46.610  -3.666  1.00  0.00     0.210 HD
ENDBRANCH  14  15
ENDBRANCH   5  14
BRANCH   4  17
ATOM     17  O   UNL     1     117.828  51.188  -6.671  1.00  0.00    -0.387 OA
ATOM     18  H   UNL     1     117.350  52.055  -6.740  1.00  0.00     0.211 HD
ENDBRANCH   4  17
TORSDOF 7
ENDMDL
MODEL 4
REMARK VINA RESULT:    -3.358      8.963     11.166
REMARK INTER + INTRA:          -4.739
REMARK INTER:                  -4.251
REMARK INTRA:                  -0.488
REMARK UNBOUND:                -0.400
REMARK SMILES CCO[C@@H]1O[C@H](CO)[C@@H](O)[C@H](O)[C@@H]1O
REMARK SMILES IDX 4 1 13 2 11 3 9 4 6 5 5 6 3 7 2 8 1 9 14 10 12 12 7 14 8 15
REMARK SMILES IDX 10 17
REMARK H PARENT 14 11 12 13 8 16 10 18
REMARK Flexibility Score: inf
ROOT
ATOM      1  C   UNL     1     109.024  52.843  -0.962  1.00  0.00     0.281 C 
ATOM      2  C   UNL     1     108.428  52.551  -2.353  1.00  0.00     0.202 C 
ATOM      3  C   UNL     1     106.909  52.747  -2.356  1.00  0.00     0.179 C 
ATOM      4  C   UNL     1     106.558  54.131  -1.785  1.00  0.00     0.177 C 
ATOM      5  C   UNL     1     107.292  54.414  -0.447  1.00  0.00     0.178 C 
ATOM      6  O   UNL     1     108.690  54.146  -0.497  1.00  0.00    -0.341 OA
ENDROOT
BRANCH   1   7
ATOM      7  O   UNL     1     108.640  51.842  -0.035  1.00  0.00    -0.350 OA
BRANCH   7   8
ATOM      8  C   UNL     1     109.707  51.513   0.836  1.00  0.00     0.160 C 
ATOM      9  C   UNL     1     110.594  50.449   0.202  1.00  0.00     0.035 C 
ENDBRANCH   7   8
ENDBRANCH   1   7
BRANCH   2  10
ATOM     10  O   UNL     1     108.734  51.239  -2.751  1.00  0.00    -0.385 OA
ATOM     11  H   UNL     1     109.389  50.885  -2.095  1.00  0.00     0.211 HD
ENDBRANCH   2  10
BRANCH   3  12
ATOM     12  O   UNL     1     106.285  51.726  -1.619  1.00  0.00    -0.387 OA
ATOM     13  H   UNL     1     106.974  51.346  -1.013  1.00  0.00     0.211 HD
ENDBRANCH   3  12
BRANCH   5  14
ATOM     14  C   UNL     1     106.614  53.784   0.790  1.00  0.00     0.191 C 
BRANCH  14  15
ATOM     15  O   UNL     1     107.412  53.955   1.931  1.00  0.00    -0.394 OA
ATOM     16  H   UNL     1     107.889  53.097   2.078  1.00  0.00     0.210 HD
ENDBRANCH  14  15
ENDBRANCH   5  14
BRANCH   4  17
ATOM     17  O   UNL     1     106.915  55.109  -2.731  1.00  0.00    -0.387 OA
ATOM     18  H   UNL     1     106.475  55.955  -2.453  1.00  0.00     0.211 HD
ENDBRANCH   4  17
TORSDOF 7
ENDMDL
MODEL 5
REMARK VINA RESULT:    -3.308      8.398     10.406
REMARK INTER + INTRA:          -4.674
REMARK INTER:                  -4.363
REMARK INTRA:                  -0.312
REMARK UNBOUND:                -0.400
REMARK SMILES CCO[C@@H]1O[C@H](CO)[C@@H](O)[C@H](O)[C@@H]1O
REMARK SMILES IDX 4 1 13 2 11 3 9 4 6 5 5 6 3 7 2 8 1 9 14 10 12 12 7 14 8 15
REMARK SMILES IDX 10 17
REMARK H PARENT 14 11 12 13 8 16 10 18
REMARK Flexibility Score: inf
ROOT
ATOM      1  C   UNL     1     108.524  51.697  -0.142  1.00  0.00     0.281 C 
ATOM      2  C   UNL     1     108.023  53.072   0.340  1.00  0.00     0.202 C 
ATOM      3  C   UNL     1     107.778  54.016  -0.841  1.00  0.00     0.179 C 
ATOM      4  C   UNL     1     106.876  53.332  -1.881  1.00  0.00     0.177 C 
ATOM      5  C   UNL     1     107.364  51.900  -2.227  1.00  0.00     0.178 C 
ATOM      6  O   UNL     1     107.637  51.100  -1.081  1.00  0.00    -0.341 OA
ENDROOT
BRANCH   1   7
ATOM      7  O   UNL     1     109.841  51.799  -0.658  1.00  0.00    -0.350 OA
BRANCH   7   8
ATOM      8  C   UNL     1     110.628  50.684  -0.281  1.00  0.00     0.160 C 
ATOM      9  C   UNL     1     110.706  50.586   1.238  1.00  0.00     0.035 C 
ENDBRANCH   7   8
ENDBRANCH   1   7
BRANCH   2  10
ATOM     10  O   UNL     1     108.952  53.651   1.221  1.00  0.00    -0.385 OA
ATOM     11  H   UNL     1     109.374  54.407   0.736  1.00  0.00     0.211 HD
ENDBRANCH   2  10
BRANCH   3  12
ATOM     12  O   UNL     1     109.001  54.405  -1.414  1.00  0.00    -0.387 OA
ATOM     13  H   UNL     1     109.708  53.850  -0.991  1.00  0.00     0.211 HD
ENDBRANCH   3  12
BRANCH   5  14
ATOM     14  C   UNL     1     108.510  51.857  -3.263  1.00  0.00     0.191 C 
BRANCH  14  15
ATOM     15  O   UNL     1     108.099  52.428  -4.477  1.00  0.00    -0.394 OA
ATOM     16  H   UNL     1     108.159  53.412  -4.365  1.00  0.00     0.210 HD
ENDBRANCH  14  15
ENDBRANCH   5  14
BRANCH   4  17
ATOM     17  O   UNL     1     105.568  53.269  -1.366  1.00  0.00    -0.387 OA
ATOM     18  H   UNL     1     105.576  52.596  -0.636  1.00  0.00     0.211 HD
ENDBRANCH   4  17
TORSDOF 7
ENDMDL
MODEL 6
REMARK VINA RESULT:    -3.294      9.433     11.227
REMARK INTER + INTRA:          -4.656
REMARK INTER:                  -4.396
REMARK INTRA:                  -0.261
REMARK UNBOUND:                -0.400
REMARK SMILES CCO[C@@H]1O[C@H](CO)[C@@H](O)[C@H](O)[C@@H]1O
REMARK SMILES IDX 4 1 13 2 11 3 9 4 6 5 5 6 3 7 2 8 1 9 14 10 12 12 7 14 8 15
REMARK SMILES IDX 10 17
REMARK H PARENT 14 11 12 13 8 16 10 18
REMARK Flexibility Score: inf
ROOT
ATOM      1  C   UNL     1     106.544  53.379  -0.932  1.00  0.00     0.281 C 
ATOM      2  C   UNL     1     107.059  52.774  -2.252  1.00  0.00     0.202 C 
ATOM      3  C   UNL     1     108.578  52.586  -2.218  1.00  0.00     0.179 C 
ATOM      4  C   UNL     1     108.983  51.808  -0.956  1.00  0.00     0.177 C 
ATOM      5  C   UNL     1     108.327  52.391   0.325  1.00  0.00     0.178 C 
ATOM      6  O   UNL     1     106.924  52.603   0.199  1.00  0.00    -0.341 OA
ENDROOT
BRANCH   1   7
ATOM      7  O   UNL     1     106.960  54.728  -0.805  1.00  0.00    -0.350 OA
BRANCH   7   8
ATOM      8  C   UNL     1     105.882  55.563  -0.423  1.00  0.00     0.160 C 
ATOM      9  C   UNL     1     105.469  56.454  -1.589  1.00  0.00     0.035 C 
ENDBRANCH   7   8
ENDBRANCH   1   7
BRANCH   2  10
ATOM     10  O   UNL     1     106.710  53.596  -3.336  1.00  0.00    -0.385 OA
ATOM     11  H   UNL     1     107.531  53.719  -3.880  1.00  0.00     0.211 HD
ENDBRANCH   2  10
BRANCH   3  12
ATOM     12  O   UNL     1     109.223  53.834  -2.269  1.00  0.00    -0.387 OA
ATOM     13  H   UNL     1     108.520  54.516  -2.434  1.00  0.00     0.211 HD
ENDBRANCH   3  12
BRANCH   5  14
ATOM     14  C   UNL     1     109.060  53.621   0.905  1.00  0.00     0.191 C 
BRANCH  14  15
ATOM     15  O   UNL     1     109.016  53.606   2.307  1.00  0.00    -0.394 OA
ATOM     16  H   UNL     1     109.942  53.770   2.624  1.00  0.00     0.210 HD
ENDBRANCH  14  15
ENDBRANCH   5  14
BRANCH   4  17
ATOM     17  O   UNL     1     108.592  50.466  -1.112  1.00  0.00    -0.387 OA
ATOM     18  H   UNL     1     109.415  49.945  -1.304  1.00  0.00     0.211 HD
ENDBRANCH   4  17
TORSDOF 7
ENDMDL
MODEL 7
REMARK VINA RESULT:    -3.252     13.500     15.505
REMARK INTER + INTRA:          -4.602
REMARK INTER:                  -4.195
REMARK INTRA:                  -0.407
REMARK UNBOUND:                -0.400
REMARK SMILES CCO[C@@H]1O[C@H](CO)[C@@H](O)[C@H](O)[C@@H]1O
REMARK SMILES IDX 4 1 13 2 11 3 9 4 6 5 5 6 3 7 2 8 1 9 14 10 12 12 7 14 8 15
REMARK SMILES IDX 10 17
REMARK H PARENT 14 11 12 13 8 16 10 18
REMARK Flexibility Score: inf
ROOT
ATOM      1  C   UNL     1     103.461  57.207  -4.336  1.00  0.00     0.281 C 
ATOM      2  C   UNL     1     102.961  58.336  -5.256  1.00  0.00     0.202 C 
ATOM      3  C   UNL     1     103.246  58.018  -6.727  1.00  0.00     0.179 C 
ATOM      4  C   UNL     1     102.708  56.620  -7.075  1.00  0.00     0.177 C 
ATOM      5  C   UNL     1     103.143  55.551  -6.037  1.00  0.00     0.178 C 
ATOM      6  O   UNL     1     102.910  55.943  -4.687  1.00  0.00    -0.341 OA
ENDROOT
BRANCH   1   7
ATOM      7  O   UNL     1     104.878  57.172  -4.314  1.00  0.00    -0.350 OA
BRANCH   7   8
ATOM      8  C   UNL     1     105.376  57.371  -3.004  1.00  0.00     0.160 C 
ATOM      9  C   UNL     1     106.011  56.088  -2.483  1.00  0.00     0.035 C 
ENDBRANCH   7   8
ENDBRANCH   1   7
BRANCH   2  10
ATOM     10  O   UNL     1     103.569  59.555  -4.912  1.00  0.00    -0.385 OA
ATOM     11  H   UNL     1     104.446  59.579  -5.376  1.00  0.00     0.211 HD
ENDBRANCH   2  10
BRANCH   3  12
ATOM     12  O   UNL     1     104.625  58.105  -6.985  1.00  0.00    -0.387 OA
ATOM     13  H   UNL     1     105.031  58.589  -6.219  1.00  0.00     0.211 HD
ENDBRANCH   3  12
BRANCH   5  14
ATOM     14  C   UNL     1     104.571  55.004  -6.255  1.00  0.00     0.191 C 
BRANCH  14  15
ATOM     15  O   UNL     1     104.997  54.277  -5.134  1.00  0.00    -0.394 OA
ATOM     16  H   UNL     1     104.390  54.518  -4.387  1.00  0.00     0.210 HD
ENDBRANCH  14  15
ENDBRANCH   5  14
BRANCH   4  17
ATOM     17  O   UNL     1     101.304  56.681  -7.125  1.00  0.00    -0.387 OA
ATOM     18  H   UNL     1     101.057  57.641  -7.192  1.00  0.00     0.211 HD
ENDBRANCH   4  17
TORSDOF 7
ENDMDL
MODEL 8
REMARK VINA RESULT:    -3.148     14.706     16.570
REMARK INTER + INTRA:          -4.468
REMARK INTER:                  -4.018
REMARK INTRA:                  -0.449
REMARK UNBOUND:                -0.400
REMARK SMILES CCO[C@@H]1O[C@H](CO)[C@@H](O)[C@H](O)[C@@H]1O
REMARK SMILES IDX 4 1 13 2 11 3 9 4 6 5 5 6 3 7 2 8 1 9 14 10 12 12 7 14 8 15
REMARK SMILES IDX 10 17
REMARK H PARENT 14 11 12 13 8 16 10 18
REMARK Flexibility Score: inf
ROOT
ATOM      1  C   UNL     1     101.472  57.121  -6.379  1.00  0.00     0.281 C 
ATOM      2  C   UNL     1     102.244  58.396  -5.992  1.00  0.00     0.202 C 
ATOM      3  C   UNL     1     103.524  58.056  -5.223  1.00  0.00     0.179 C 
ATOM      4  C   UNL     1     104.347  57.019  -6.006  1.00  0.00     0.177 C 
ATOM      5  C   UNL     1     103.480  55.821  -6.477  1.00  0.00     0.178 C 
ATOM      6  O   UNL     1     102.273  56.212  -7.125  1.00  0.00    -0.341 OA
ENDROOT
BRANCH   1   7
ATOM      7  O   UNL     1     100.916  56.507  -5.229  1.00  0.00    -0.350 OA
BRANCH   7   8
ATOM      8  C   UNL     1      99.575  56.111  -5.455  1.00  0.00     0.160 C 
ATOM      9  C   UNL     1      99.136  55.113  -4.390  1.00  0.00     0.035 C 
ENDBRANCH   7   8
ENDBRANCH   1   7
BRANCH   2  10
ATOM     10  O   UNL     1     101.437  59.241  -5.213  1.00  0.00    -0.385 OA
ATOM     11  H   UNL     1     101.045  58.680  -4.494  1.00  0.00     0.211 HD
ENDBRANCH   2  10
BRANCH   3  12
ATOM     12  O   UNL     1     103.207  57.580  -3.939  1.00  0.00    -0.387 OA
ATOM     13  H   UNL     1     104.031  57.162  -3.575  1.00  0.00     0.211 HD
ENDBRANCH   3  12
BRANCH   5  14
ATOM     14  C   UNL     1     103.247  54.746  -5.393  1.00  0.00     0.191 C 
BRANCH  14  15
ATOM     15  O   UNL     1     104.232  54.826  -4.397  1.00  0.00    -0.394 OA
ATOM     16  H   UNL     1     103.774  55.104  -3.562  1.00  0.00     0.210 HD
ENDBRANCH  14  15
ENDBRANCH   5  14
BRANCH   4  17
ATOM     17  O   UNL     1     104.917  57.653  -7.125  1.00  0.00    -0.387 OA
ATOM     18  H   UNL     1     104.502  58.553  -7.191  1.00  0.00     0.211 HD
ENDBRANCH   4  17
TORSDOF 7
ENDMDL
MODEL 9
REMARK VINA RESULT:    -2.978      1.793      3.821
REMARK INTER + INTRA:          -4.248
REMARK INTER:                  -4.003
REMARK INTRA:                  -0.245
REMARK UNBOUND:                -0.400
REMARK SMILES CCO[C@@H]1O[C@H](CO)[C@@H](O)[C@H](O)[C@@H]1O
REMARK SMILES IDX 4 1 13 2 11 3 9 4 6 5 5 6 3 7 2 8 1 9 14 10 12 12 7 14 8 15
REMARK SMILES IDX 10 17
REMARK H PARENT 14 11 12 13 8 16 10 18
REMARK Flexibility Score: inf
ROOT
ATOM      1  C   UNL     1     115.669  47.232  -5.143  1.00  0.00     0.281 C 
ATOM      2  C   UNL     1     117.147  46.805  -5.214  1.00  0.00     0.202 C 
ATOM      3  C   UNL     1     118.079  48.008  -5.046  1.00  0.00     0.179 C 
ATOM      4  C   UNL     1     117.699  48.794  -3.781  1.00  0.00     0.177 C 
ATOM      5  C   UNL     1     116.175  49.081  -3.707  1.00  0.00     0.178 C 
ATOM      6  O   UNL     1     115.368  47.930  -3.940  1.00  0.00    -0.341 OA
ENDROOT
BRANCH   1   7
ATOM      7  O   UNL     1     115.312  47.987  -6.289  1.00  0.00    -0.350 OA
BRANCH   7   8
ATOM      8  C   UNL     1     114.020  47.637  -6.752  1.00  0.00     0.160 C 
ATOM      9  C   UNL     1     113.706  46.191  -6.390  1.00  0.00     0.035 C 
ENDBRANCH   7   8
ENDBRANCH   1   7
BRANCH   2  10
ATOM     10  O   UNL     1     117.415  46.169  -6.438  1.00  0.00    -0.385 OA
ATOM     11  H   UNL     1     116.796  46.561  -7.107  1.00  0.00     0.211 HD
ENDBRANCH   2  10
BRANCH   3  12
ATOM     12  O   UNL     1     118.022  48.830  -6.185  1.00  0.00    -0.387 OA
ATOM     13  H   UNL     1     117.323  49.514  -6.013  1.00  0.00     0.211 HD
ENDBRANCH   3  12
BRANCH   5  14
ATOM     14  C   UNL     1     115.721  50.298  -4.543  1.00  0.00     0.191 C 
BRANCH  14  15
ATOM     15  O   UNL     1     115.338  51.357  -3.706  1.00  0.00    -0.394 OA
ATOM     16  H   UNL     1     115.300  50.993  -2.783  1.00  0.00     0.210 HD
ENDBRANCH  14  15
ENDBRANCH   5  14
BRANCH   4  17
ATOM     17  O   UNL     1     118.089  48.046  -2.655  1.00  0.00    -0.387 OA
ATOM     18  H   UNL     1     118.289  48.696  -1.931  1.00  0.00     0.211 HD
ENDBRANCH   4  17
TORSDOF 7
ENDMDL
