MODEL 1
REMARK VINA RESULT:    -4.564      0.000      0.000
REMARK INTER + INTRA:         -10.642
REMARK INTER:                  -8.566
REMARK INTRA:                  -2.076
REMARK UNBOUND:                -2.076
REMARK SMILES CCCCCCCCC=CCCCCCCCC(=O)[O-]
REMARK SMILES IDX 10 1 9 2 11 3 12 4 13 5 14 6 15 7 16 8 17 9 18 10 19 11
REMARK SMILES IDX 20 12 8 13 7 14 6 15 5 16 4 17 3 18 2 19 1 20
REMARK H PARENT
REMARK Flexibility Score: inf
ROOT
ATOM      1  C   UNL     1      21.377  -6.657  47.133  1.00  0.00    -0.031 C 
ATOM      2  C   UNL     1      20.388  -6.459  48.022  1.00  0.00    -0.031 C 
ENDROOT
BRANCH   1   3
ATOM      3  C   UNL     1      22.232  -7.900  47.057  1.00  0.00     0.027 C 
BRANCH   3   4
ATOM      4  C   UNL     1      22.381  -8.412  45.613  1.00  0.00     0.004 C 
BRANCH   4   5
ATOM      5  C   UNL     1      21.954  -7.363  44.574  1.00  0.00     0.000 C 
BRANCH   5   6
ATOM      6  C   UNL     1      20.850  -7.875  43.630  1.00  0.00     0.000 C 
BRANCH   6   7
ATOM      7  C   UNL     1      19.527  -8.269  44.313  1.00  0.00     0.000 C 
BRANCH   7   8
ATOM      8  C   UNL     1      18.574  -7.101  44.641  1.00  0.00     0.006 C 
BRANCH   8   9
ATOM      9  C   UNL     1      18.312  -6.153  43.456  1.00  0.00     0.053 C 
BRANCH   9  10
ATOM     10  C   UNL     1      18.869  -4.782  43.680  1.00  0.00     0.041 C 
ATOM     11  O   UNL     1      19.723  -4.583  44.577  1.00  0.00    -0.550 OA
ATOM     12  O   UNL     1      18.476  -3.729  42.866  1.00  0.00    -0.550 OA
ENDBRANCH   9  10
ENDBRANCH   8   9
ENDBRANCH   7   8
ENDBRANCH   6   7
ENDBRANCH   5   6
ENDBRANCH   4   5
ENDBRANCH   3   4
ENDBRANCH   1   3
BRANCH   2  13
ATOM     13  C   UNL     1      20.064  -7.409  49.152  1.00  0.00     0.027 C 
BRANCH  13  14
ATOM     14  C   UNL     1      20.672  -6.944  50.486  1.00  0.00     0.004 C 
BRANCH  14  15
ATOM     15  C   UNL     1      21.918  -7.734  50.924  1.00  0.00     0.000 C 
BRANCH  15  16
ATOM     16  C   UNL     1      23.130  -6.826  51.202  1.00  0.00     0.000 C 
BRANCH  16  17
ATOM     17  C   UNL     1      22.716  -5.343  51.198  1.00  0.00    -0.000 C 
BRANCH  17  18
ATOM     18  C   UNL     1      23.472  -4.562  50.112  1.00  0.00    -0.000 C 
BRANCH  18  19
ATOM     19  C   UNL     1      23.943  -3.179  50.600  1.00  0.00    -0.003 C 
ATOM     20  C   UNL     1      22.842  -2.120  50.513  1.00  0.00     0.004 C 
ENDBRANCH  18  19
ENDBRANCH  17  18
ENDBRANCH  16  17
ENDBRANCH  15  16
ENDBRANCH  14  15
ENDBRANCH  13  14
ENDBRANCH   2  13
TORSDOF 15
ENDMDL
MODEL 2
REMARK VINA RESULT:    -4.553      2.288      6.380
REMARK INTER + INTRA:         -10.622
REMARK INTER:                  -8.109
REMARK INTRA:                  -2.513
REMARK UNBOUND:                -2.076
REMARK SMILES CCCCCCCCC=CCCCCCCCC(=O)[O-]
REMARK SMILES IDX 10 1 9 2 11 3 12 4 13 5 14 6 15 7 16 8 17 9 18 10 19 11
REMARK SMILES IDX 20 12 8 13 7 14 6 15 5 16 4 17 3 18 2 19 1 20
REMARK H PARENT
REMARK Flexibility Score: inf
ROOT
ATOM      1  C   UNL     1      19.859  -6.512  48.685  1.00  0.00    -0.031 C 
ATOM      2  C   UNL     1      19.944  -6.370  47.350  1.00  0.00    -0.031 C 
ENDROOT
BRANCH   1   3
ATOM      3  C   UNL     1      20.641  -7.518  49.496  1.00  0.00     0.027 C 
BRANCH   3   4
ATOM      4  C   UNL     1      21.269  -6.887  50.751  1.00  0.00     0.004 C 
BRANCH   4   5
ATOM      5  C   UNL     1      22.723  -6.445  50.516  1.00  0.00     0.000 C 
BRANCH   5   6
ATOM      6  C   UNL     1      23.016  -5.040  51.076  1.00  0.00     0.000 C 
BRANCH   6   7
ATOM      7  C   UNL     1      23.234  -3.940  50.019  1.00  0.00     0.000 C 
BRANCH   7   8
ATOM      8  C   UNL     1      22.907  -4.340  48.565  1.00  0.00     0.006 C 
BRANCH   8   9
ATOM      9  C   UNL     1      23.868  -3.745  47.519  1.00  0.00     0.053 C 
BRANCH   9  10
ATOM     10  C   UNL     1      23.666  -2.276  47.319  1.00  0.00     0.041 C 
ATOM     11  O   UNL     1      24.651  -1.499  47.281  1.00  0.00    -0.550 OA
ATOM     12  O   UNL     1      22.389  -1.768  47.130  1.00  0.00    -0.550 OA
ENDBRANCH   9  10
ENDBRANCH   8   9
ENDBRANCH   7   8
ENDBRANCH   6   7
ENDBRANCH   5   6
ENDBRANCH   4   5
ENDBRANCH   3   4
ENDBRANCH   1   3
BRANCH   2  13
ATOM     13  C   UNL     1      20.753  -7.278  46.454  1.00  0.00     0.027 C 
BRANCH  13  14
ATOM     14  C   UNL     1      19.964  -7.703  45.204  1.00  0.00     0.004 C 
BRANCH  14  15
ATOM     15  C   UNL     1      18.550  -7.103  45.114  1.00  0.00     0.000 C 
BRANCH  15  16
ATOM     16  C   UNL     1      18.249  -6.494  43.732  1.00  0.00     0.000 C 
BRANCH  16  17
ATOM     17  C   UNL     1      19.383  -5.552  43.291  1.00  0.00    -0.000 C 
BRANCH  17  18
ATOM     18  C   UNL     1      19.138  -4.120  43.793  1.00  0.00    -0.000 C 
BRANCH  18  19
ATOM     19  C   UNL     1      20.192  -3.666  44.820  1.00  0.00    -0.003 C 
ATOM     20  C   UNL     1      21.584  -4.226  44.519  1.00  0.00     0.004 C 
ENDBRANCH  18  19
ENDBRANCH  17  18
ENDBRANCH  16  17
ENDBRANCH  15  16
ENDBRANCH  14  15
ENDBRANCH  13  14
ENDBRANCH   2  13
TORSDOF 15
ENDMDL
MODEL 3
REMARK VINA RESULT:    -4.514      2.385      7.062
REMARK INTER + INTRA:         -10.549
REMARK INTER:                  -8.202
REMARK INTRA:                  -2.347
REMARK UNBOUND:                -2.076
REMARK SMILES CCCCCCCCC=CCCCCCCCC(=O)[O-]
REMARK SMILES IDX 10 1 9 2 11 3 12 4 13 5 14 6 15 7 16 8 17 9 18 10 19 11
REMARK SMILES IDX 20 12 8 13 7 14 6 15 5 16 4 17 3 18 2 19 1 20
REMARK H PARENT
REMARK Flexibility Score: inf
ROOT
ATOM      1  C   UNL     1      19.851  -6.451  47.836  1.00  0.00    -0.031 C 
ATOM      2  C   UNL     1      20.138  -5.653  46.794  1.00  0.00    -0.031 C 
ENDROOT
BRANCH   1   3
ATOM      3  C   UNL     1      20.874  -7.202  48.655  1.00  0.00     0.027 C 
BRANCH   3   4
ATOM      4  C   UNL     1      20.500  -7.250  50.147  1.00  0.00     0.004 C 
BRANCH   4   5
ATOM      5  C   UNL     1      21.706  -7.585  51.040  1.00  0.00     0.000 C 
BRANCH   5   6
ATOM      6  C   UNL     1      22.970  -6.792  50.654  1.00  0.00     0.000 C 
BRANCH   6   7
ATOM      7  C   UNL     1      23.240  -5.529  51.495  1.00  0.00     0.000 C 
BRANCH   7   8
ATOM      8  C   UNL     1      23.096  -4.188  50.745  1.00  0.00     0.006 C 
BRANCH   8   9
ATOM      9  C   UNL     1      23.254  -4.303  49.217  1.00  0.00     0.053 C 
BRANCH   9  10
ATOM     10  C   UNL     1      23.553  -2.988  48.568  1.00  0.00     0.041 C 
ATOM     11  O   UNL     1      23.950  -2.944  47.378  1.00  0.00    -0.550 OA
ATOM     12  O   UNL     1      23.351  -1.805  49.264  1.00  0.00    -0.550 OA
ENDBRANCH   9  10
ENDBRANCH   8   9
ENDBRANCH   7   8
ENDBRANCH   6   7
ENDBRANCH   5   6
ENDBRANCH   4   5
ENDBRANCH   3   4
ENDBRANCH   1   3
BRANCH   2  13
ATOM     13  C   UNL     1      21.525  -5.482  46.217  1.00  0.00     0.027 C 
BRANCH  13  14
ATOM     14  C   UNL     1      21.575  -4.361  45.165  1.00  0.00     0.004 C 
BRANCH  14  15
ATOM     15  C   UNL     1      20.195  -3.840  44.728  1.00  0.00     0.000 C 
BRANCH  15  16
ATOM     16  C   UNL     1      19.958  -3.981  43.213  1.00  0.00     0.000 C 
BRANCH  16  17
ATOM     17  C   UNL     1      19.725  -5.455  42.831  1.00  0.00    -0.000 C 
BRANCH  17  18
ATOM     18  C   UNL     1      18.400  -5.973  43.411  1.00  0.00    -0.000 C 
BRANCH  18  19
ATOM     19  C   UNL     1      18.523  -7.397  43.984  1.00  0.00    -0.003 C 
ATOM     20  C   UNL     1      19.927  -7.981  43.809  1.00  0.00     0.004 C 
ENDBRANCH  18  19
ENDBRANCH  17  18
ENDBRANCH  16  17
ENDBRANCH  15  16
ENDBRANCH  14  15
ENDBRANCH  13  14
ENDBRANCH   2  13
TORSDOF 15
ENDMDL
MODEL 4
REMARK VINA RESULT:    -4.493      2.081      3.485
REMARK INTER + INTRA:         -10.508
REMARK INTER:                  -8.275
REMARK INTRA:                  -2.233
REMARK UNBOUND:                -2.076
REMARK SMILES CCCCCCCCC=CCCCCCCCC(=O)[O-]
REMARK SMILES IDX 10 1 9 2 11 3 12 4 13 5 14 6 15 7 16 8 17 9 18 10 19 11
REMARK SMILES IDX 20 12 8 13 7 14 6 15 5 16 4 17 3 18 2 19 1 20
REMARK H PARENT
REMARK Flexibility Score: inf
ROOT
ATOM      1  C   UNL     1      20.251  -7.139  49.778  1.00  0.00    -0.031 C 
ATOM      2  C   UNL     1      21.111  -6.877  50.778  1.00  0.00    -0.031 C 
ENDROOT
BRANCH   1   3
ATOM      3  C   UNL     1      20.644  -7.334  48.333  1.00  0.00     0.027 C 
BRANCH   3   4
ATOM      4  C   UNL     1      19.912  -6.356  47.396  1.00  0.00     0.004 C 
BRANCH   4   5
ATOM      5  C   UNL     1      20.699  -5.053  47.183  1.00  0.00     0.000 C 
BRANCH   5   6
ATOM      6  C   UNL     1      21.823  -5.201  46.139  1.00  0.00     0.000 C 
BRANCH   6   7
ATOM      7  C   UNL     1      21.623  -4.401  44.837  1.00  0.00     0.000 C 
BRANCH   7   8
ATOM      8  C   UNL     1      20.165  -4.017  44.509  1.00  0.00     0.006 C 
BRANCH   8   9
ATOM      9  C   UNL     1      19.567  -4.784  43.315  1.00  0.00     0.053 C 
BRANCH   9  10
ATOM     10  C   UNL     1      19.304  -6.225  43.628  1.00  0.00     0.041 C 
ATOM     11  O   UNL     1      18.243  -6.565  44.205  1.00  0.00    -0.550 OA
ATOM     12  O   UNL     1      20.213  -7.198  43.240  1.00  0.00    -0.550 OA
ENDBRANCH   9  10
ENDBRANCH   8   9
ENDBRANCH   7   8
ENDBRANCH   6   7
ENDBRANCH   5   6
ENDBRANCH   4   5
ENDBRANCH   3   4
ENDBRANCH   1   3
BRANCH   2  13
ATOM     13  C   UNL     1      22.588  -6.627  50.579  1.00  0.00     0.027 C 
BRANCH  13  14
ATOM     14  C   UNL     1      23.006  -5.231  51.070  1.00  0.00     0.004 C 
BRANCH  14  15
ATOM     15  C   UNL     1      23.229  -4.205  49.946  1.00  0.00     0.000 C 
BRANCH  15  16
ATOM     16  C   UNL     1      23.098  -2.750  50.434  1.00  0.00     0.000 C 
BRANCH  16  17
ATOM     17  C   UNL     1      22.556  -1.843  49.314  1.00  0.00    -0.000 C 
BRANCH  17  18
ATOM     18  C   UNL     1      23.261  -2.134  47.980  1.00  0.00    -0.000 C 
BRANCH  18  19
ATOM     19  C   UNL     1      22.549  -1.479  46.782  1.00  0.00    -0.003 C 
ATOM     20  C   UNL     1      23.479  -1.280  45.583  1.00  0.00     0.004 C 
ENDBRANCH  18  19
ENDBRANCH  17  18
ENDBRANCH  16  17
ENDBRANCH  15  16
ENDBRANCH  14  15
ENDBRANCH  13  14
ENDBRANCH   2  13
TORSDOF 15
ENDMDL
MODEL 5
REMARK VINA RESULT:    -4.492      1.716      2.332
REMARK INTER + INTRA:         -10.508
REMARK INTER:                  -8.041
REMARK INTRA:                  -2.466
REMARK UNBOUND:                -2.076
REMARK SMILES CCCCCCCCC=CCCCCCCCC(=O)[O-]
REMARK SMILES IDX 10 1 9 2 11 3 12 4 13 5 14 6 15 7 16 8 17 9 18 10 19 11
REMARK SMILES IDX 20 12 8 13 7 14 6 15 5 16 4 17 3 18 2 19 1 20
REMARK H PARENT
REMARK Flexibility Score: inf
ROOT
ATOM      1  C   UNL     1      20.572  -6.301  47.036  1.00  0.00    -0.031 C 
ATOM      2  C   UNL     1      19.862  -6.602  48.137  1.00  0.00    -0.031 C 
ENDROOT
BRANCH   1   3
ATOM      3  C   UNL     1      21.824  -7.020  46.594  1.00  0.00     0.027 C 
BRANCH   3   4
ATOM      4  C   UNL     1      22.720  -6.134  45.709  1.00  0.00     0.004 C 
BRANCH   4   5
ATOM      5  C   UNL     1      22.523  -4.636  45.996  1.00  0.00     0.000 C 
BRANCH   5   6
ATOM      6  C   UNL     1      22.098  -3.842  44.746  1.00  0.00     0.000 C 
BRANCH   6   7
ATOM      7  C   UNL     1      20.654  -3.304  44.765  1.00  0.00     0.000 C 
BRANCH   7   8
ATOM      8  C   UNL     1      19.590  -4.231  44.142  1.00  0.00     0.006 C 
BRANCH   8   9
ATOM      9  C   UNL     1      20.151  -5.220  43.103  1.00  0.00     0.053 C 
BRANCH   9  10
ATOM     10  C   UNL     1      19.792  -6.641  43.408  1.00  0.00     0.041 C 
ATOM     11  O   UNL     1      20.624  -7.560  43.215  1.00  0.00    -0.550 OA
ATOM     12  O   UNL     1      18.551  -6.945  43.948  1.00  0.00    -0.550 OA
ENDBRANCH   9  10
ENDBRANCH   8   9
ENDBRANCH   7   8
ENDBRANCH   6   7
ENDBRANCH   5   6
ENDBRANCH   4   5
ENDBRANCH   3   4
ENDBRANCH   1   3
BRANCH   2  13
ATOM     13  C   UNL     1      20.282  -7.635  49.157  1.00  0.00     0.027 C 
BRANCH  13  14
ATOM     14  C   UNL     1      20.597  -7.000  50.522  1.00  0.00     0.004 C 
BRANCH  14  15
ATOM     15  C   UNL     1      21.981  -7.367  51.086  1.00  0.00     0.000 C 
BRANCH  15  16
ATOM     16  C   UNL     1      22.947  -6.169  51.117  1.00  0.00     0.000 C 
BRANCH  16  17
ATOM     17  C   UNL     1      23.399  -5.793  49.694  1.00  0.00    -0.000 C 
BRANCH  17  18
ATOM     18  C   UNL     1      23.577  -4.274  49.555  1.00  0.00    -0.000 C 
BRANCH  18  19
ATOM     19  C   UNL     1      23.181  -3.513  50.834  1.00  0.00    -0.003 C 
ATOM     20  C   UNL     1      22.827  -2.050  50.562  1.00  0.00     0.004 C 
ENDBRANCH  18  19
ENDBRANCH  17  18
ENDBRANCH  16  17
ENDBRANCH  15  16
ENDBRANCH  14  15
ENDBRANCH  13  14
ENDBRANCH   2  13
TORSDOF 15
ENDMDL
MODEL 6
REMARK VINA RESULT:    -4.478      2.368      5.985
REMARK INTER + INTRA:         -10.480
REMARK INTER:                  -8.207
REMARK INTRA:                  -2.274
REMARK UNBOUND:                -2.076
REMARK SMILES CCCCCCCCC=CCCCCCCCC(=O)[O-]
REMARK SMILES IDX 10 1 9 2 11 3 12 4 13 5 14 6 15 7 16 8 17 9 18 10 19 11
REMARK SMILES IDX 20 12 8 13 7 14 6 15 5 16 4 17 3 18 2 19 1 20
REMARK H PARENT
REMARK Flexibility Score: inf
ROOT
ATOM      1  C   UNL     1      21.110  -7.170  50.843  1.00  0.00    -0.031 C 
ATOM      2  C   UNL     1      20.257  -7.366  49.822  1.00  0.00    -0.031 C 
ENDROOT
BRANCH   1   3
ATOM      3  C   UNL     1      22.582  -6.865  50.689  1.00  0.00     0.027 C 
BRANCH   3   4
ATOM      4  C   UNL     1      22.933  -5.448  51.178  1.00  0.00     0.004 C 
BRANCH   4   5
ATOM      5  C   UNL     1      23.663  -4.626  50.104  1.00  0.00     0.000 C 
BRANCH   5   6
ATOM      6  C   UNL     1      22.839  -4.469  48.811  1.00  0.00     0.000 C 
BRANCH   6   7
ATOM      7  C   UNL     1      23.496  -5.031  47.536  1.00  0.00     0.000 C 
BRANCH   7   8
ATOM      8  C   UNL     1      23.177  -4.270  46.233  1.00  0.00     0.006 C 
BRANCH   8   9
ATOM      9  C   UNL     1      22.016  -3.266  46.360  1.00  0.00     0.053 C 
BRANCH   9  10
ATOM     10  C   UNL     1      22.463  -1.845  46.216  1.00  0.00     0.041 C 
ATOM     11  O   UNL     1      21.658  -0.963  45.830  1.00  0.00    -0.550 OA
ATOM     12  O   UNL     1      23.760  -1.486  46.552  1.00  0.00    -0.550 OA
ENDBRANCH   9  10
ENDBRANCH   8   9
ENDBRANCH   7   8
ENDBRANCH   6   7
ENDBRANCH   5   6
ENDBRANCH   4   5
ENDBRANCH   3   4
ENDBRANCH   1   3
BRANCH   2  13
ATOM     13  C   UNL     1      20.674  -7.422  48.371  1.00  0.00     0.027 C 
BRANCH  13  14
ATOM     14  C   UNL     1      19.889  -6.419  47.508  1.00  0.00     0.004 C 
BRANCH  14  15
ATOM     15  C   UNL     1      20.194  -6.505  46.002  1.00  0.00     0.000 C 
BRANCH  15  16
ATOM     16  C   UNL     1      18.938  -6.787  45.157  1.00  0.00     0.000 C 
BRANCH  16  17
ATOM     17  C   UNL     1      19.184  -6.436  43.678  1.00  0.00    -0.000 C 
BRANCH  17  18
ATOM     18  C   UNL     1      20.424  -5.542  43.522  1.00  0.00    -0.000 C 
BRANCH  18  19
ATOM     19  C   UNL     1      20.061  -4.064  43.292  1.00  0.00    -0.003 C 
ATOM     20  C   UNL     1      18.666  -3.889  42.688  1.00  0.00     0.004 C 
ENDBRANCH  18  19
ENDBRANCH  17  18
ENDBRANCH  16  17
ENDBRANCH  15  16
ENDBRANCH  14  15
ENDBRANCH  13  14
ENDBRANCH   2  13
TORSDOF 15
ENDMDL
MODEL 7
REMARK VINA RESULT:    -4.467      2.307      6.701
REMARK INTER + INTRA:         -10.461
REMARK INTER:                  -8.087
REMARK INTRA:                  -2.374
REMARK UNBOUND:                -2.076
REMARK SMILES CCCCCCCCC=CCCCCCCCC(=O)[O-]
REMARK SMILES IDX 10 1 9 2 11 3 12 4 13 5 14 6 15 7 16 8 17 9 18 10 19 11
REMARK SMILES IDX 20 12 8 13 7 14 6 15 5 16 4 17 3 18 2 19 1 20
REMARK H PARENT
REMARK Flexibility Score: inf
ROOT
ATOM      1  C   UNL     1      19.826  -6.736  48.664  1.00  0.00    -0.031 C 
ATOM      2  C   UNL     1      20.381  -6.863  47.446  1.00  0.00    -0.031 C 
ENDROOT
BRANCH   1   3
ATOM      3  C   UNL     1      20.213  -7.549  49.877  1.00  0.00     0.027 C 
BRANCH   3   4
ATOM      4  C   UNL     1      21.192  -6.793  50.792  1.00  0.00     0.004 C 
BRANCH   4   5
ATOM      5  C   UNL     1      22.648  -7.239  50.583  1.00  0.00     0.000 C 
BRANCH   5   6
ATOM      6  C   UNL     1      23.657  -6.092  50.786  1.00  0.00     0.000 C 
BRANCH   6   7
ATOM      7  C   UNL     1      23.345  -4.794  50.018  1.00  0.00     0.000 C 
BRANCH   7   8
ATOM      8  C   UNL     1      23.227  -3.521  50.881  1.00  0.00     0.006 C 
BRANCH   8   9
ATOM      9  C   UNL     1      23.699  -2.237  50.175  1.00  0.00     0.053 C 
BRANCH   9  10
ATOM     10  C   UNL     1      22.575  -1.483  49.536  1.00  0.00     0.041 C 
ATOM     11  O   UNL     1      22.406  -1.528  48.293  1.00  0.00    -0.550 OA
ATOM     12  O   UNL     1      21.685  -0.764  50.320  1.00  0.00    -0.550 OA
ENDBRANCH   9  10
ENDBRANCH   8   9
ENDBRANCH   7   8
ENDBRANCH   6   7
ENDBRANCH   5   6
ENDBRANCH   4   5
ENDBRANCH   3   4
ENDBRANCH   1   3
BRANCH   2  13
ATOM     13  C   UNL     1      21.399  -7.921  47.087  1.00  0.00     0.027 C 
BRANCH  13  14
ATOM     14  C   UNL     1      22.795  -7.320  46.854  1.00  0.00     0.004 C 
BRANCH  14  15
ATOM     15  C   UNL     1      22.783  -5.860  46.368  1.00  0.00     0.000 C 
BRANCH  15  16
ATOM     16  C   UNL     1      22.947  -5.741  44.842  1.00  0.00     0.000 C 
BRANCH  16  17
ATOM     17  C   UNL     1      21.653  -5.221  44.191  1.00  0.00    -0.000 C 
BRANCH  17  18
ATOM     18  C   UNL     1      21.008  -6.299  43.306  1.00  0.00    -0.000 C 
BRANCH  18  19
ATOM     19  C   UNL     1      19.548  -6.589  43.698  1.00  0.00    -0.003 C 
ATOM     20  C   UNL     1      19.310  -8.065  44.027  1.00  0.00     0.004 C 
ENDBRANCH  18  19
ENDBRANCH  17  18
ENDBRANCH  16  17
ENDBRANCH  15  16
ENDBRANCH  14  15
ENDBRANCH  13  14
ENDBRANCH   2  13
TORSDOF 15
ENDMDL
MODEL 8
REMARK VINA RESULT:    -4.423      1.852      3.241
REMARK INTER + INTRA:         -10.377
REMARK INTER:                  -8.158
REMARK INTRA:                  -2.218
REMARK UNBOUND:                -2.076
REMARK SMILES CCCCCCCCC=CCCCCCCCC(=O)[O-]
REMARK SMILES IDX 10 1 9 2 11 3 12 4 13 5 14 6 15 7 16 8 17 9 18 10 19 11
REMARK SMILES IDX 20 12 8 13 7 14 6 15 5 16 4 17 3 18 2 19 1 20
REMARK H PARENT
REMARK Flexibility Score: inf
ROOT
ATOM      1  C   UNL     1      20.243  -7.194  49.635  1.00  0.00    -0.031 C 
ATOM      2  C   UNL     1      20.993  -7.103  50.748  1.00  0.00    -0.031 C 
ENDROOT
BRANCH   1   3
ATOM      3  C   UNL     1      20.784  -7.145  48.225  1.00  0.00     0.027 C 
BRANCH   3   4
ATOM      4  C   UNL     1      19.937  -6.242  47.311  1.00  0.00     0.004 C 
BRANCH   4   5
ATOM      5  C   UNL     1      20.603  -4.880  47.058  1.00  0.00     0.000 C 
BRANCH   5   6
ATOM      6  C   UNL     1      20.716  -4.541  45.559  1.00  0.00     0.000 C 
BRANCH   6   7
ATOM      7  C   UNL     1      21.916  -5.173  44.828  1.00  0.00     0.000 C 
BRANCH   7   8
ATOM      8  C   UNL     1      21.602  -6.438  44.003  1.00  0.00     0.006 C 
BRANCH   8   9
ATOM      9  C   UNL     1      20.214  -6.424  43.337  1.00  0.00     0.053 C 
BRANCH   9  10
ATOM     10  C   UNL     1      19.297  -7.470  43.891  1.00  0.00     0.041 C 
ATOM     11  O   UNL     1      18.059  -7.390  43.708  1.00  0.00    -0.550 OA
ATOM     12  O   UNL     1      19.817  -8.560  44.573  1.00  0.00    -0.550 OA
ENDBRANCH   9  10
ENDBRANCH   8   9
ENDBRANCH   7   8
ENDBRANCH   6   7
ENDBRANCH   5   6
ENDBRANCH   4   5
ENDBRANCH   3   4
ENDBRANCH   1   3
BRANCH   2  13
ATOM     13  C   UNL     1      22.478  -6.823  50.746  1.00  0.00     0.027 C 
BRANCH  13  14
ATOM     14  C   UNL     1      22.788  -5.365  51.122  1.00  0.00     0.004 C 
BRANCH  14  15
ATOM     15  C   UNL     1      23.888  -4.711  50.268  1.00  0.00     0.000 C 
BRANCH  15  16
ATOM     16  C   UNL     1      23.729  -5.006  48.765  1.00  0.00     0.000 C 
BRANCH  16  17
ATOM     17  C   UNL     1      24.114  -3.777  47.922  1.00  0.00    -0.000 C 
BRANCH  17  18
ATOM     18  C   UNL     1      23.892  -2.476  48.710  1.00  0.00    -0.000 C 
BRANCH  18  19
ATOM     19  C   UNL     1      22.474  -1.907  48.522  1.00  0.00    -0.003 C 
ATOM     20  C   UNL     1      21.993  -1.116  49.741  1.00  0.00     0.004 C 
ENDBRANCH  18  19
ENDBRANCH  17  18
ENDBRANCH  16  17
ENDBRANCH  15  16
ENDBRANCH  14  15
ENDBRANCH  13  14
ENDBRANCH   2  13
TORSDOF 15
ENDMDL
MODEL 9
REMARK VINA RESULT:    -4.399      2.409      3.417
REMARK INTER + INTRA:         -10.332
REMARK INTER:                  -7.974
REMARK INTRA:                  -2.358
REMARK UNBOUND:                -2.076
REMARK SMILES CCCCCCCCC=CCCCCCCCC(=O)[O-]
REMARK SMILES IDX 10 1 9 2 11 3 12 4 13 5 14 6 15 7 16 8 17 9 18 10 19 11
REMARK SMILES IDX 20 12 8 13 7 14 6 15 5 16 4 17 3 18 2 19 1 20
REMARK H PARENT
REMARK Flexibility Score: inf
ROOT
ATOM      1  C   UNL     1      22.332  -7.018  46.004  1.00  0.00    -0.031 C 
ATOM      2  C   UNL     1      22.156  -6.511  47.237  1.00  0.00    -0.031 C 
ENDROOT
BRANCH   1   3
ATOM      3  C   UNL     1      21.221  -7.295  45.019  1.00  0.00     0.027 C 
BRANCH   3   4
ATOM      4  C   UNL     1      21.543  -6.753  43.615  1.00  0.00     0.004 C 
BRANCH   4   5
ATOM      5  C   UNL     1      20.318  -6.110  42.944  1.00  0.00     0.000 C 
BRANCH   5   6
ATOM      6  C   UNL     1      19.514  -5.214  43.905  1.00  0.00     0.000 C 
BRANCH   6   7
ATOM      7  C   UNL     1      19.988  -3.750  43.995  1.00  0.00     0.000 C 
BRANCH   7   8
ATOM      8  C   UNL     1      20.917  -3.423  45.183  1.00  0.00     0.006 C 
BRANCH   8   9
ATOM      9  C   UNL     1      22.314  -2.924  44.769  1.00  0.00     0.053 C 
BRANCH   9  10
ATOM     10  C   UNL     1      22.675  -1.621  45.412  1.00  0.00     0.041 C 
ATOM     11  O   UNL     1      23.184  -0.698  44.732  1.00  0.00    -0.550 OA
ATOM     12  O   UNL     1      22.407  -1.411  46.757  1.00  0.00    -0.550 OA
ENDBRANCH   9  10
ENDBRANCH   8   9
ENDBRANCH   7   8
ENDBRANCH   6   7
ENDBRANCH   5   6
ENDBRANCH   4   5
ENDBRANCH   3   4
ENDBRANCH   1   3
BRANCH   2  13
ATOM     13  C   UNL     1      20.804  -6.252  47.859  1.00  0.00     0.027 C 
BRANCH  13  14
ATOM     14  C   UNL     1      20.361  -7.406  48.774  1.00  0.00     0.004 C 
BRANCH  14  15
ATOM     15  C   UNL     1      20.359  -7.061  50.273  1.00  0.00     0.000 C 
BRANCH  15  16
ATOM     16  C   UNL     1      21.411  -7.856  51.068  1.00  0.00     0.000 C 
BRANCH  16  17
ATOM     17  C   UNL     1      22.774  -7.139  51.042  1.00  0.00    -0.000 C 
BRANCH  17  18
ATOM     18  C   UNL     1      22.602  -5.622  51.214  1.00  0.00    -0.000 C 
BRANCH  18  19
ATOM     19  C   UNL     1      23.521  -4.814  50.279  1.00  0.00    -0.003 C 
ATOM     20  C   UNL     1      24.694  -5.641  49.750  1.00  0.00     0.004 C 
ENDBRANCH  18  19
ENDBRANCH  17  18
ENDBRANCH  16  17
ENDBRANCH  15  16
ENDBRANCH  14  15
ENDBRANCH  13  14
ENDBRANCH   2  13
TORSDOF 15
ENDMDL
