MODEL 1
REMARK VINA RESULT:     4.460      0.000      0.000
REMARK INTER + INTRA:           4.548
REMARK INTER:                   4.851
REMARK INTRA:                  -0.304
REMARK UNBOUND:                -0.304
REMARK SMILES C[C@H]1[C@H]2C3=CC[C@H]4[C@]5(C)CC[C@H](O)C(C)(C)[C@@H]5CC[C@@]4(C)[C@]3(C)CC[C@@]2(C(=O)[O-])CC[C@@H]1C
REMARK SMILES IDX 26 1 30 2 25 3 3 4 31 5 24 6 4 7 2 8 32 9 22 10 5 11 1 12
REMARK SMILES IDX 33 13 23 14 20 15 6 16 7 17 19 18 21 19 8 20 18 21 17 22
REMARK SMILES IDX 10 23 9 24 14 25 11 26 12 27 15 28 16 29 27 30 28 31 29 32
REMARK SMILES IDX 13 33
REMARK H PARENT 13 34
REMARK Flexibility Score: inf
ROOT
ATOM      1  C   UNL     1      -0.807 -17.326  15.827  1.00  0.00     0.017 C 
ATOM      2  C   UNL     1      -2.357 -17.108  15.779  1.00  0.00     0.014 C 
ATOM      3  C   UNL     1      -0.330 -17.404  14.349  1.00  0.00     0.014 C 
ATOM      4  C   UNL     1      -0.438 -18.636  16.622  1.00  0.00     0.030 C 
ATOM      5  C   UNL     1      -3.077 -17.526  17.066  1.00  0.00     0.004 C 
ATOM      6  C   UNL     1       1.150 -17.750  14.164  1.00  0.00     0.013 C 
ATOM      7  C   UNL     1       0.865 -19.336  16.186  1.00  0.00    -0.063 C 
ATOM      8  C   UNL     1      -1.614 -19.664  16.782  1.00  0.00    -0.003 C 
ATOM      9  C   UNL     1      -2.907 -19.027  17.388  1.00  0.00    -0.011 C 
ATOM     10  C   UNL     1       1.608 -19.074  14.858  1.00  0.00    -0.006 C 
ATOM     11  C   UNL     1       1.402 -20.229  17.050  1.00  0.00    -0.027 C 
ATOM     12  C   UNL     1      -1.926 -20.469  15.507  1.00  0.00     0.008 C 
ATOM     13  C   UNL     1      -2.968 -19.238  18.909  1.00  0.00     0.008 C 
ATOM     14  C   UNL     1       1.209 -20.212  13.875  1.00  0.00     0.017 C 
ATOM     15  C   UNL     1       3.192 -19.033  15.179  1.00  0.00    -0.020 C 
ATOM     16  C   UNL     1       2.574 -21.103  16.694  1.00  0.00     0.032 C 
ATOM     17  C   UNL     1       3.698 -20.360  15.912  1.00  0.00     0.006 C 
ATOM     18  C   UNL     1       4.035 -18.755  13.896  1.00  0.00     0.008 C 
ATOM     19  C   UNL     1       3.482 -17.837  16.171  1.00  0.00     0.012 C 
ATOM     20  C   UNL     1       4.674 -21.324  15.104  1.00  0.00    -0.025 C 
ATOM     21  C   UNL     1       5.525 -19.012  14.110  1.00  0.00     0.005 C 
ATOM     22  C   UNL     1       5.872 -20.494  14.456  1.00  0.00     0.003 C 
ATOM     23  C   UNL     1       5.208 -22.422  16.091  1.00  0.00     0.010 C 
ATOM     24  C   UNL     1       3.939 -22.101  13.968  1.00  0.00     0.012 C 
ATOM     25  C   UNL     1       7.279 -20.643  15.168  1.00  0.00    -0.006 C 
ATOM     26  C   UNL     1       6.485 -23.125  15.627  1.00  0.00     0.033 C 
ATOM     27  C   UNL     1       7.643 -22.168  15.243  1.00  0.00     0.120 C 
ATOM     28  C   UNL     1       8.370 -19.955  14.301  1.00  0.00     0.014 C 
ATOM     29  C   UNL     1       7.343 -19.962  16.569  1.00  0.00     0.014 C 
ENDROOT
BRANCH   1  30
ATOM     30  C   UNL     1      -0.185 -16.111  16.538  1.00  0.00     0.048 C 
ATOM     31  O   UNL     1      -0.230 -14.958  16.041  1.00  0.00    -0.550 OA
ATOM     32  O   UNL     1       0.515 -16.271  17.728  1.00  0.00    -0.550 OA
ENDBRANCH   1  30
BRANCH  27  33
ATOM     33  O   UNL     1       8.783 -22.396  16.040  1.00  0.00    -0.393 OA
ATOM     34  H   UNL     1       9.445 -21.685  15.841  1.00  0.00     0.210 HD
ENDBRANCH  27  33
TORSDOF 2
ENDMDL
