MODEL 1
REMARK VINA RESULT:    28.884      0.000      0.000
REMARK INTER + INTRA:          35.214
REMARK INTER:                  34.794
REMARK INTRA:                   0.420
REMARK UNBOUND:                 0.420
REMARK SMILES Oc1cc(O)c2c(c1)O[C@H](c1ccc(O)c(O)c1)[C@@H](O)C2
REMARK SMILES IDX 21 1 19 2 10 3 9 4 7 5 8 6 2 7 3 8 4 9 6 10 20 11 11 13
REMARK SMILES IDX 18 14 12 15 16 16 13 17 14 18 17 19 15 21 5 23 1 25
REMARK H PARENT 20 12 17 20 15 22 5 24 1 26
REMARK Flexibility Score: inf
ROOT
ATOM      1  C   UNL     1      16.600  53.097  26.573  1.00  0.00     0.079 C 
ATOM      2  C   UNL     1      16.642  54.119  25.421  1.00  0.00     0.164 C 
ATOM      3  C   UNL     1      15.913  53.551  24.192  1.00  0.00     0.232 C 
ATOM      4  O   UNL     1      16.498  52.305  23.815  1.00  0.00    -0.482 OA
ATOM      5  C   UNL     1      16.933  51.368  24.759  1.00  0.00     0.131 A 
ATOM      6  C   UNL     1      17.319  50.098  24.325  1.00  0.00     0.093 A 
ATOM      7  C   UNL     1      17.742  49.137  25.245  1.00  0.00     0.122 A 
ATOM      8  C   UNL     1      17.771  49.446  26.609  1.00  0.00     0.092 A 
ATOM      9  C   UNL     1      17.387  50.714  27.062  1.00  0.00     0.126 A 
ATOM     10  C   UNL     1      16.999  51.705  26.129  1.00  0.00     0.039 A 
ENDROOT
BRANCH   2  11
ATOM     11  O   UNL     1      16.028  55.315  25.825  1.00  0.00    -0.389 OA
ATOM     12  H   UNL     1      16.205  55.413  26.798  1.00  0.00     0.211 HD
ENDBRANCH   2  11
BRANCH   3  13
ATOM     13  C   UNL     1      15.976  54.512  23.028  1.00  0.00    -0.001 A 
ATOM     14  C   UNL     1      15.876  54.045  21.707  1.00  0.00     0.057 A 
ATOM     15  C   UNL     1      16.183  55.881  23.252  1.00  0.00     0.012 A 
ATOM     16  C   UNL     1      15.961  54.926  20.622  1.00  0.00     0.157 A 
ATOM     17  C   UNL     1      16.268  56.767  22.177  1.00  0.00     0.050 A 
ATOM     18  C   UNL     1      16.157  56.307  20.861  1.00  0.00     0.157 A 
BRANCH  16  19
ATOM     19  O   UNL     1      15.849  54.391  19.338  1.00  0.00    -0.504 OA
ATOM     20  H   UNL     1      16.350  54.741  18.534  1.00  0.00     0.293 HD
ENDBRANCH  16  19
BRANCH  18  21
ATOM     21  O   UNL     1      16.249  57.245  19.830  1.00  0.00    -0.504 OA
ATOM     22  H   UNL     1      15.902  58.191  19.895  1.00  0.00     0.293 HD
ENDBRANCH  18  21
ENDBRANCH   3  13
BRANCH   9  23
ATOM     23  O   UNL     1      17.393  50.950  28.439  1.00  0.00    -0.507 OA
ATOM     24  H   UNL     1      17.164  51.844  28.851  1.00  0.00     0.293 HD
ENDBRANCH   9  23
BRANCH   7  25
ATOM     25  O   UNL     1      18.125  47.875  24.795  1.00  0.00    -0.508 OA
ATOM     26  H   UNL     1      17.880  47.546  23.869  1.00  0.00     0.293 HD
ENDBRANCH   7  25
TORSDOF 6
ENDMDL
