MODEL 1
REMARK VINA RESULT:    -5.251      0.000      0.000
REMARK INTER + INTRA:         -19.598
REMARK INTER:                 -13.846
REMARK INTRA:                  -5.753
REMARK UNBOUND:                -5.753
REMARK SMILES CCCCCCCCCCCCCCCCCCCCCCCCCCCCCC(=O)[O-]
REMARK SMILES IDX 16 1 17 2 18 3 19 4 20 5 21 6 22 7 23 8 24 9 25 10 26 11
REMARK SMILES IDX 27 12 28 13 29 14 30 15 31 16 32 17 15 18 14 19 13 20 12 21
REMARK SMILES IDX 11 22 10 23 9 24 8 25 7 26 6 27 5 28 4 29 3 30 2 31 1 32
REMARK H PARENT
REMARK Flexibility Score: inf
ROOT
ATOM      1  C   UNL     1     123.362 177.043 122.192  1.00  0.00     0.000 C 
ENDROOT
BRANCH   1   2
ATOM      2  C   UNL     1     122.640 177.541 123.450  1.00  0.00     0.000 C 
BRANCH   2   3
ATOM      3  C   UNL     1     122.388 176.386 124.432  1.00  0.00     0.000 C 
BRANCH   3   4
ATOM      4  C   UNL     1     122.566 176.811 125.899  1.00  0.00     0.000 C 
BRANCH   4   5
ATOM      5  C   UNL     1     123.013 178.278 126.030  1.00  0.00     0.000 C 
BRANCH   5   6
ATOM      6  C   UNL     1     122.322 179.012 127.194  1.00  0.00     0.000 C 
BRANCH   6   7
ATOM      7  C   UNL     1     120.791 179.141 127.067  1.00  0.00     0.000 C 
BRANCH   7   8
ATOM      8  C   UNL     1     120.294 179.757 125.744  1.00  0.00     0.000 C 
BRANCH   8   9
ATOM      9  C   UNL     1     119.493 178.800 124.837  1.00  0.00     0.000 C 
BRANCH   9  10
ATOM     10  C   UNL     1     118.471 177.916 125.572  1.00  0.00     0.000 C 
BRANCH  10  11
ATOM     11  C   UNL     1     118.924 176.451 125.690  1.00  0.00     0.000 C 
BRANCH  11  12
ATOM     12  C   UNL     1     119.013 175.971 127.147  1.00  0.00     0.000 C 
BRANCH  12  13
ATOM     13  C   UNL     1     119.755 174.633 127.284  1.00  0.00     0.006 C 
BRANCH  13  14
ATOM     14  C   UNL     1     119.594 173.780 126.020  1.00  0.00     0.053 C 
BRANCH  14  15
ATOM     15  C   UNL     1     120.714 172.793 125.891  1.00  0.00     0.041 C 
ATOM     16  O   UNL     1     120.480 171.555 125.927  1.00  0.00    -0.550 OA
ATOM     17  O   UNL     1     122.019 173.242 125.715  1.00  0.00    -0.550 OA
ENDBRANCH  14  15
ENDBRANCH  13  14
ENDBRANCH  12  13
ENDBRANCH  11  12
ENDBRANCH  10  11
ENDBRANCH   9  10
ENDBRANCH   8   9
ENDBRANCH   7   8
ENDBRANCH   6   7
ENDBRANCH   5   6
ENDBRANCH   4   5
ENDBRANCH   3   4
ENDBRANCH   2   3
ENDBRANCH   1   2
BRANCH   1  18
ATOM     18  C   UNL     1     123.381 178.128 121.102  1.00  0.00     0.000 C 
BRANCH  18  19
ATOM     19  C   UNL     1     124.696 178.140 120.307  1.00  0.00     0.000 C 
BRANCH  19  20
ATOM     20  C   UNL     1     125.119 176.735 119.848  1.00  0.00     0.000 C 
BRANCH  20  21
ATOM     21  C   UNL     1     126.627 176.485 120.018  1.00  0.00     0.000 C 
BRANCH  21  22
ATOM     22  C   UNL     1     127.439 177.725 120.444  1.00  0.00     0.000 C 
BRANCH  22  23
ATOM     23  C   UNL     1     128.638 177.395 121.364  1.00  0.00     0.000 C 
BRANCH  23  24
ATOM     24  C   UNL     1     128.507 178.008 122.773  1.00  0.00    -0.000 C 
BRANCH  24  25
ATOM     25  C   UNL     1     127.111 178.607 123.051  1.00  0.00    -0.000 C 
BRANCH  25  26
ATOM     26  C   UNL     1     126.304 177.854 124.128  1.00  0.00    -0.000 C 
BRANCH  26  27
ATOM     27  C   UNL     1     126.770 176.403 124.361  1.00  0.00    -0.000 C 
BRANCH  27  28
ATOM     28  C   UNL     1     126.008 175.394 123.483  1.00  0.00    -0.000 C 
BRANCH  28  29
ATOM     29  C   UNL     1     126.817 174.118 123.208  1.00  0.00    -0.000 C 
BRANCH  29  30
ATOM     30  C   UNL     1     128.322 174.301 123.458  1.00  0.00    -0.000 C 
BRANCH  30  31
ATOM     31  C   UNL     1     129.145 173.560 122.397  1.00  0.00    -0.003 C 
ATOM     32  C   UNL     1     128.443 173.573 121.043  1.00  0.00     0.004 C 
ENDBRANCH  30  31
ENDBRANCH  29  30
ENDBRANCH  28  29
ENDBRANCH  27  28
ENDBRANCH  26  27
ENDBRANCH  25  26
ENDBRANCH  24  25
ENDBRANCH  23  24
ENDBRANCH  22  23
ENDBRANCH  21  22
ENDBRANCH  20  21
ENDBRANCH  19  20
ENDBRANCH  18  19
ENDBRANCH   1  18
TORSDOF 28
ENDMDL
MODEL 2
REMARK VINA RESULT:    -5.179      2.050      8.525
REMARK INTER + INTRA:         -19.410
REMARK INTER:                 -14.478
REMARK INTRA:                  -4.932
REMARK UNBOUND:                -5.753
REMARK SMILES CCCCCCCCCCCCCCCCCCCCCCCCCCCCCC(=O)[O-]
REMARK SMILES IDX 16 1 17 2 18 3 19 4 20 5 21 6 22 7 23 8 24 9 25 10 26 11
REMARK SMILES IDX 27 12 28 13 29 14 30 15 31 16 32 17 15 18 14 19 13 20 12 21
REMARK SMILES IDX 11 22 10 23 9 24 8 25 7 26 6 27 5 28 4 29 3 30 2 31 1 32
REMARK H PARENT
REMARK Flexibility Score: inf
ROOT
ATOM      1  C   UNL     1     122.850 176.190 125.498  1.00  0.00     0.000 C 
ENDROOT
BRANCH   1   2
ATOM      2  C   UNL     1     123.699 177.165 124.673  1.00  0.00     0.000 C 
BRANCH   2   3
ATOM      3  C   UNL     1     123.076 177.396 123.286  1.00  0.00     0.000 C 
BRANCH   3   4
ATOM      4  C   UNL     1     124.122 177.371 122.160  1.00  0.00     0.000 C 
BRANCH   4   5
ATOM      5  C   UNL     1     123.563 177.912 120.832  1.00  0.00     0.000 C 
BRANCH   5   6
ATOM      6  C   UNL     1     124.447 177.561 119.623  1.00  0.00     0.000 C 
BRANCH   6   7
ATOM      7  C   UNL     1     125.405 176.371 119.837  1.00  0.00     0.000 C 
BRANCH   7   8
ATOM      8  C   UNL     1     126.900 176.693 119.644  1.00  0.00     0.000 C 
BRANCH   8   9
ATOM      9  C   UNL     1     127.710 176.845 120.947  1.00  0.00     0.000 C 
BRANCH   9  10
ATOM     10  C   UNL     1     127.595 178.221 121.624  1.00  0.00     0.000 C 
BRANCH  10  11
ATOM     11  C   UNL     1     128.094 178.216 123.079  1.00  0.00     0.000 C 
BRANCH  11  12
ATOM     12  C   UNL     1     127.239 177.329 123.998  1.00  0.00     0.000 C 
BRANCH  12  13
ATOM     13  C   UNL     1     127.945 176.019 124.379  1.00  0.00     0.006 C 
BRANCH  13  14
ATOM     14  C   UNL     1     127.024 174.812 124.162  1.00  0.00     0.053 C 
BRANCH  14  15
ATOM     15  C   UNL     1     127.556 173.914 123.088  1.00  0.00     0.041 C 
ATOM     16  O   UNL     1     126.798 173.500 122.169  1.00  0.00    -0.550 OA
ATOM     17  O   UNL     1     128.897 173.543 123.093  1.00  0.00    -0.550 OA
ENDBRANCH  14  15
ENDBRANCH  13  14
ENDBRANCH  12  13
ENDBRANCH  11  12
ENDBRANCH  10  11
ENDBRANCH   9  10
ENDBRANCH   8   9
ENDBRANCH   7   8
ENDBRANCH   6   7
ENDBRANCH   5   6
ENDBRANCH   4   5
ENDBRANCH   3   4
ENDBRANCH   2   3
ENDBRANCH   1   2
BRANCH   1  18
ATOM     18  C   UNL     1     121.776 175.520 124.625  1.00  0.00     0.000 C 
BRANCH  18  19
ATOM     19  C   UNL     1     120.923 174.512 125.411  1.00  0.00     0.000 C 
BRANCH  19  20
ATOM     20  C   UNL     1     119.574 175.103 125.853  1.00  0.00     0.000 C 
BRANCH  20  21
ATOM     21  C   UNL     1     119.349 174.993 127.371  1.00  0.00     0.000 C 
BRANCH  21  22
ATOM     22  C   UNL     1     120.609 175.233 128.226  1.00  0.00     0.000 C 
BRANCH  22  23
ATOM     23  C   UNL     1     120.527 176.498 129.112  1.00  0.00     0.000 C 
BRANCH  23  24
ATOM     24  C   UNL     1     120.299 177.791 128.303  1.00  0.00    -0.000 C 
BRANCH  24  25
ATOM     25  C   UNL     1     121.591 178.604 128.074  1.00  0.00    -0.000 C 
BRANCH  25  26
ATOM     26  C   UNL     1     121.616 179.392 126.748  1.00  0.00    -0.000 C 
BRANCH  26  27
ATOM     27  C   UNL     1     120.227 179.584 126.108  1.00  0.00    -0.000 C 
BRANCH  27  28
ATOM     28  C   UNL     1     120.194 179.140 124.635  1.00  0.00    -0.000 C 
BRANCH  28  29
ATOM     29  C   UNL     1     118.990 178.244 124.311  1.00  0.00    -0.000 C 
BRANCH  29  30
ATOM     30  C   UNL     1     117.662 178.824 124.824  1.00  0.00    -0.000 C 
BRANCH  30  31
ATOM     31  C   UNL     1     116.751 177.711 125.358  1.00  0.00    -0.003 C 
ATOM     32  C   UNL     1     116.821 177.622 126.879  1.00  0.00     0.004 C 
ENDBRANCH  30  31
ENDBRANCH  29  30
ENDBRANCH  28  29
ENDBRANCH  27  28
ENDBRANCH  26  27
ENDBRANCH  25  26
ENDBRANCH  24  25
ENDBRANCH  23  24
ENDBRANCH  22  23
ENDBRANCH  21  22
ENDBRANCH  20  21
ENDBRANCH  19  20
ENDBRANCH  18  19
ENDBRANCH   1  18
TORSDOF 28
ENDMDL
MODEL 3
REMARK VINA RESULT:    -5.161      2.685      8.733
REMARK INTER + INTRA:         -19.362
REMARK INTER:                 -14.817
REMARK INTRA:                  -4.545
REMARK UNBOUND:                -5.753
REMARK SMILES CCCCCCCCCCCCCCCCCCCCCCCCCCCCCC(=O)[O-]
REMARK SMILES IDX 16 1 17 2 18 3 19 4 20 5 21 6 22 7 23 8 24 9 25 10 26 11
REMARK SMILES IDX 27 12 28 13 29 14 30 15 31 16 32 17 15 18 14 19 13 20 12 21
REMARK SMILES IDX 11 22 10 23 9 24 8 25 7 26 6 27 5 28 4 29 3 30 2 31 1 32
REMARK H PARENT
REMARK Flexibility Score: inf
ROOT
ATOM      1  C   UNL     1     122.937 177.743 122.760  1.00  0.00     0.000 C 
ENDROOT
BRANCH   1   2
ATOM      2  C   UNL     1     124.043 177.195 121.850  1.00  0.00     0.000 C 
BRANCH   2   3
ATOM      3  C   UNL     1     123.862 177.693 120.407  1.00  0.00     0.000 C 
BRANCH   3   4
ATOM      4  C   UNL     1     125.075 178.493 119.904  1.00  0.00     0.000 C 
BRANCH   4   5
ATOM      5  C   UNL     1     126.288 177.591 119.614  1.00  0.00     0.000 C 
BRANCH   5   6
ATOM      6  C   UNL     1     127.602 178.154 120.184  1.00  0.00     0.000 C 
BRANCH   6   7
ATOM      7  C   UNL     1     127.947 177.689 121.614  1.00  0.00     0.000 C 
BRANCH   7   8
ATOM      8  C   UNL     1     127.423 178.601 122.742  1.00  0.00     0.000 C 
BRANCH   8   9
ATOM      9  C   UNL     1     126.697 177.871 123.889  1.00  0.00     0.000 C 
BRANCH   9  10
ATOM     10  C   UNL     1     127.350 176.551 124.332  1.00  0.00     0.000 C 
BRANCH  10  11
ATOM     11  C   UNL     1     126.457 175.326 124.071  1.00  0.00     0.000 C 
BRANCH  11  12
ATOM     12  C   UNL     1     127.259 174.080 123.663  1.00  0.00     0.000 C 
BRANCH  12  13
ATOM     13  C   UNL     1     126.739 173.440 122.367  1.00  0.00     0.006 C 
BRANCH  13  14
ATOM     14  C   UNL     1     127.064 174.314 121.150  1.00  0.00     0.053 C 
BRANCH  14  15
ATOM     15  C   UNL     1     128.435 174.016 120.623  1.00  0.00     0.041 C 
ATOM     16  O   UNL     1     129.006 174.822 119.840  1.00  0.00    -0.550 OA
ATOM     17  O   UNL     1     129.088 172.850 121.008  1.00  0.00    -0.550 OA
ENDBRANCH  14  15
ENDBRANCH  13  14
ENDBRANCH  12  13
ENDBRANCH  11  12
ENDBRANCH  10  11
ENDBRANCH   9  10
ENDBRANCH   8   9
ENDBRANCH   7   8
ENDBRANCH   6   7
ENDBRANCH   5   6
ENDBRANCH   4   5
ENDBRANCH   3   4
ENDBRANCH   2   3
ENDBRANCH   1   2
BRANCH   1  18
ATOM     18  C   UNL     1     122.332 176.625 123.625  1.00  0.00     0.000 C 
BRANCH  18  19
ATOM     19  C   UNL     1     122.998 176.524 125.007  1.00  0.00     0.000 C 
BRANCH  19  20
ATOM     20  C   UNL     1     123.559 177.873 125.488  1.00  0.00     0.000 C 
BRANCH  20  21
ATOM     21  C   UNL     1     123.050 178.260 126.887  1.00  0.00     0.000 C 
BRANCH  21  22
ATOM     22  C   UNL     1     121.856 179.237 126.888  1.00  0.00     0.000 C 
BRANCH  22  23
ATOM     23  C   UNL     1     120.740 178.852 127.886  1.00  0.00     0.000 C 
BRANCH  23  24
ATOM     24  C   UNL     1     120.675 177.337 128.169  1.00  0.00    -0.000 C 
BRANCH  24  25
ATOM     25  C   UNL     1     119.233 176.804 128.315  1.00  0.00    -0.000 C 
BRANCH  25  26
ATOM     26  C   UNL     1     118.381 176.928 127.035  1.00  0.00    -0.000 C 
BRANCH  26  27
ATOM     27  C   UNL     1     119.146 176.596 125.738  1.00  0.00    -0.000 C 
BRANCH  27  28
ATOM     28  C   UNL     1     119.105 177.751 124.722  1.00  0.00    -0.000 C 
BRANCH  28  29
ATOM     29  C   UNL     1     117.990 178.764 125.019  1.00  0.00    -0.000 C 
BRANCH  29  30
ATOM     30  C   UNL     1     116.865 178.735 123.972  1.00  0.00    -0.000 C 
BRANCH  30  31
ATOM     31  C   UNL     1     115.508 178.470 124.637  1.00  0.00    -0.003 C 
ATOM     32  C   UNL     1     115.499 178.946 126.086  1.00  0.00     0.004 C 
ENDBRANCH  30  31
ENDBRANCH  29  30
ENDBRANCH  28  29
ENDBRANCH  27  28
ENDBRANCH  26  27
ENDBRANCH  25  26
ENDBRANCH  24  25
ENDBRANCH  23  24
ENDBRANCH  22  23
ENDBRANCH  21  22
ENDBRANCH  20  21
ENDBRANCH  19  20
ENDBRANCH  18  19
ENDBRANCH   1  18
TORSDOF 28
ENDMDL
MODEL 4
REMARK VINA RESULT:    -5.112      2.673      4.786
REMARK INTER + INTRA:         -19.233
REMARK INTER:                 -14.452
REMARK INTRA:                  -4.781
REMARK UNBOUND:                -5.753
REMARK SMILES CCCCCCCCCCCCCCCCCCCCCCCCCCCCCC(=O)[O-]
REMARK SMILES IDX 16 1 17 2 18 3 19 4 20 5 21 6 22 7 23 8 24 9 25 10 26 11
REMARK SMILES IDX 27 12 28 13 29 14 30 15 31 16 32 17 15 18 14 19 13 20 12 21
REMARK SMILES IDX 11 22 10 23 9 24 8 25 7 26 6 27 5 28 4 29 3 30 2 31 1 32
REMARK H PARENT
REMARK Flexibility Score: inf
ROOT
ATOM      1  C   UNL     1     121.540 176.766 124.000  1.00  0.00     0.000 C 
ENDROOT
BRANCH   1   2
ATOM      2  C   UNL     1     121.501 178.294 123.878  1.00  0.00     0.000 C 
BRANCH   2   3
ATOM      3  C   UNL     1     120.089 178.831 124.161  1.00  0.00     0.000 C 
BRANCH   3   4
ATOM      4  C   UNL     1     119.990 179.535 125.525  1.00  0.00     0.000 C 
BRANCH   4   5
ATOM      5  C   UNL     1     121.308 179.462 126.315  1.00  0.00     0.000 C 
BRANCH   5   6
ATOM      6  C   UNL     1     121.217 178.545 127.548  1.00  0.00     0.000 C 
BRANCH   6   7
ATOM      7  C   UNL     1     122.304 177.453 127.632  1.00  0.00     0.000 C 
BRANCH   7   8
ATOM      8  C   UNL     1     121.801 176.064 128.072  1.00  0.00     0.000 C 
BRANCH   8   9
ATOM      9  C   UNL     1     120.270 175.886 128.054  1.00  0.00     0.000 C 
BRANCH   9  10
ATOM     10  C   UNL     1     119.696 175.356 126.728  1.00  0.00     0.000 C 
BRANCH  10  11
ATOM     11  C   UNL     1     118.539 176.216 126.192  1.00  0.00     0.000 C 
BRANCH  11  12
ATOM     12  C   UNL     1     117.840 177.027 127.294  1.00  0.00     0.000 C 
BRANCH  12  13
ATOM     13  C   UNL     1     116.597 177.771 126.783  1.00  0.00     0.006 C 
BRANCH  13  14
ATOM     14  C   UNL     1     116.623 177.907 125.256  1.00  0.00     0.053 C 
BRANCH  14  15
ATOM     15  C   UNL     1     116.118 179.251 124.826  1.00  0.00     0.041 C 
ATOM     16  O   UNL     1     116.571 180.301 125.356  1.00  0.00    -0.550 OA
ATOM     17  O   UNL     1     115.155 179.343 123.827  1.00  0.00    -0.550 OA
ENDBRANCH  14  15
ENDBRANCH  13  14
ENDBRANCH  12  13
ENDBRANCH  11  12
ENDBRANCH  10  11
ENDBRANCH   9  10
ENDBRANCH   8   9
ENDBRANCH   7   8
ENDBRANCH   6   7
ENDBRANCH   5   6
ENDBRANCH   4   5
ENDBRANCH   3   4
ENDBRANCH   2   3
ENDBRANCH   1   2
BRANCH   1  18
ATOM     18  C   UNL     1     122.969 176.273 124.283  1.00  0.00     0.000 C 
BRANCH  18  19
ATOM     19  C   UNL     1     124.031 177.079 123.519  1.00  0.00     0.000 C 
BRANCH  19  20
ATOM     20  C   UNL     1     125.263 177.396 124.383  1.00  0.00     0.000 C 
BRANCH  20  21
ATOM     21  C   UNL     1     126.538 177.595 123.545  1.00  0.00     0.000 C 
BRANCH  21  22
ATOM     22  C   UNL     1     127.803 176.938 124.135  1.00  0.00     0.000 C 
BRANCH  22  23
ATOM     23  C   UNL     1     127.684 175.406 124.307  1.00  0.00     0.000 C 
BRANCH  23  24
ATOM     24  C   UNL     1     127.042 174.707 123.091  1.00  0.00    -0.000 C 
BRANCH  24  25
ATOM     25  C   UNL     1     127.965 174.665 121.854  1.00  0.00    -0.000 C 
BRANCH  25  26
ATOM     26  C   UNL     1     127.362 175.319 120.594  1.00  0.00    -0.000 C 
BRANCH  26  27
ATOM     27  C   UNL     1     128.342 176.233 119.832  1.00  0.00    -0.000 C 
BRANCH  27  28
ATOM     28  C   UNL     1     128.129 177.722 120.161  1.00  0.00    -0.000 C 
BRANCH  28  29
ATOM     29  C   UNL     1     127.401 178.479 119.041  1.00  0.00    -0.000 C 
BRANCH  29  30
ATOM     30  C   UNL     1     125.979 177.952 118.793  1.00  0.00    -0.000 C 
BRANCH  30  31
ATOM     31  C   UNL     1     125.059 178.288 119.974  1.00  0.00    -0.003 C 
ATOM     32  C   UNL     1     123.769 177.477 119.919  1.00  0.00     0.004 C 
ENDBRANCH  30  31
ENDBRANCH  29  30
ENDBRANCH  28  29
ENDBRANCH  27  28
ENDBRANCH  26  27
ENDBRANCH  25  26
ENDBRANCH  24  25
ENDBRANCH  23  24
ENDBRANCH  22  23
ENDBRANCH  21  22
ENDBRANCH  20  21
ENDBRANCH  19  20
ENDBRANCH  18  19
ENDBRANCH   1  18
TORSDOF 28
ENDMDL
MODEL 5
REMARK VINA RESULT:    -5.100      2.529      4.792
REMARK INTER + INTRA:         -19.201
REMARK INTER:                 -14.652
REMARK INTRA:                  -4.548
REMARK UNBOUND:                -5.753
REMARK SMILES CCCCCCCCCCCCCCCCCCCCCCCCCCCCCC(=O)[O-]
REMARK SMILES IDX 16 1 17 2 18 3 19 4 20 5 21 6 22 7 23 8 24 9 25 10 26 11
REMARK SMILES IDX 27 12 28 13 29 14 30 15 31 16 32 17 15 18 14 19 13 20 12 21
REMARK SMILES IDX 11 22 10 23 9 24 8 25 7 26 6 27 5 28 4 29 3 30 2 31 1 32
REMARK H PARENT
REMARK Flexibility Score: inf
ROOT
ATOM      1  C   UNL     1     124.365 177.025 124.206  1.00  0.00     0.000 C 
ENDROOT
BRANCH   1   2
ATOM      2  C   UNL     1     123.370 177.721 125.142  1.00  0.00     0.000 C 
BRANCH   2   3
ATOM      3  C   UNL     1     124.105 178.475 126.262  1.00  0.00     0.000 C 
BRANCH   3   4
ATOM      4  C   UNL     1     123.165 178.891 127.405  1.00  0.00     0.000 C 
BRANCH   4   5
ATOM      5  C   UNL     1     121.729 179.148 126.915  1.00  0.00     0.000 C 
BRANCH   5   6
ATOM      6  C   UNL     1     120.666 178.818 127.978  1.00  0.00     0.000 C 
BRANCH   6   7
ATOM      7  C   UNL     1     120.967 177.575 128.839  1.00  0.00     0.000 C 
BRANCH   7   8
ATOM      8  C   UNL     1     120.344 176.260 128.329  1.00  0.00     0.000 C 
BRANCH   8   9
ATOM      9  C   UNL     1     121.285 175.372 127.490  1.00  0.00     0.000 C 
BRANCH   9  10
ATOM     10  C   UNL     1     120.942 175.298 125.993  1.00  0.00     0.000 C 
BRANCH  10  11
ATOM     11  C   UNL     1     119.624 176.012 125.646  1.00  0.00     0.000 C 
BRANCH  11  12
ATOM     12  C   UNL     1     119.822 177.196 124.687  1.00  0.00     0.000 C 
BRANCH  12  13
ATOM     13  C   UNL     1     118.632 178.168 124.693  1.00  0.00     0.006 C 
BRANCH  13  14
ATOM     14  C   UNL     1     117.598 177.769 125.753  1.00  0.00     0.053 C 
BRANCH  14  15
ATOM     15  C   UNL     1     116.268 178.400 125.472  1.00  0.00     0.041 C 
ATOM     16  O   UNL     1     115.529 178.776 126.421  1.00  0.00    -0.550 OA
ATOM     17  O   UNL     1     115.851 178.585 124.158  1.00  0.00    -0.550 OA
ENDBRANCH  14  15
ENDBRANCH  13  14
ENDBRANCH  12  13
ENDBRANCH  11  12
ENDBRANCH  10  11
ENDBRANCH   9  10
ENDBRANCH   8   9
ENDBRANCH   7   8
ENDBRANCH   6   7
ENDBRANCH   5   6
ENDBRANCH   4   5
ENDBRANCH   3   4
ENDBRANCH   2   3
ENDBRANCH   1   2
BRANCH   1  18
ATOM     18  C   UNL     1     125.815 177.324 124.625  1.00  0.00     0.000 C 
BRANCH  18  19
ATOM     19  C   UNL     1     126.658 177.881 123.468  1.00  0.00     0.000 C 
BRANCH  19  20
ATOM     20  C   UNL     1     128.133 177.453 123.555  1.00  0.00     0.000 C 
BRANCH  20  21
ATOM     21  C   UNL     1     128.377 176.392 124.643  1.00  0.00     0.000 C 
BRANCH  21  22
ATOM     22  C   UNL     1     128.264 174.934 124.155  1.00  0.00     0.000 C 
BRANCH  22  23
ATOM     23  C   UNL     1     128.460 174.773 122.629  1.00  0.00     0.000 C 
BRANCH  23  24
ATOM     24  C   UNL     1     127.184 174.307 121.899  1.00  0.00    -0.000 C 
BRANCH  24  25
ATOM     25  C   UNL     1     126.634 175.352 120.903  1.00  0.00    -0.000 C 
BRANCH  25  26
ATOM     26  C   UNL     1     127.660 175.822 119.851  1.00  0.00    -0.000 C 
BRANCH  26  27
ATOM     27  C   UNL     1     128.101 177.290 120.018  1.00  0.00    -0.000 C 
BRANCH  27  28
ATOM     28  C   UNL     1     127.230 178.260 119.199  1.00  0.00    -0.000 C 
BRANCH  28  29
ATOM     29  C   UNL     1     126.214 177.534 118.305  1.00  0.00    -0.000 C 
BRANCH  29  30
ATOM     30  C   UNL     1     124.795 178.114 118.424  1.00  0.00    -0.000 C 
BRANCH  30  31
ATOM     31  C   UNL     1     123.956 177.302 119.418  1.00  0.00    -0.003 C 
ATOM     32  C   UNL     1     123.850 178.013 120.763  1.00  0.00     0.004 C 
ENDBRANCH  30  31
ENDBRANCH  29  30
ENDBRANCH  28  29
ENDBRANCH  27  28
ENDBRANCH  26  27
ENDBRANCH  25  26
ENDBRANCH  24  25
ENDBRANCH  23  24
ENDBRANCH  22  23
ENDBRANCH  21  22
ENDBRANCH  20  21
ENDBRANCH  19  20
ENDBRANCH  18  19
ENDBRANCH   1  18
TORSDOF 28
ENDMDL
MODEL 6
REMARK VINA RESULT:    -5.094      1.990      8.257
REMARK INTER + INTRA:         -19.185
REMARK INTER:                 -14.589
REMARK INTRA:                  -4.596
REMARK UNBOUND:                -5.753
REMARK SMILES CCCCCCCCCCCCCCCCCCCCCCCCCCCCCC(=O)[O-]
REMARK SMILES IDX 16 1 17 2 18 3 19 4 20 5 21 6 22 7 23 8 24 9 25 10 26 11
REMARK SMILES IDX 27 12 28 13 29 14 30 15 31 16 32 17 15 18 14 19 13 20 12 21
REMARK SMILES IDX 11 22 10 23 9 24 8 25 7 26 6 27 5 28 4 29 3 30 2 31 1 32
REMARK H PARENT
REMARK Flexibility Score: inf
ROOT
ATOM      1  C   UNL     1     123.906 177.378 119.751  1.00  0.00     0.000 C 
ENDROOT
BRANCH   1   2
ATOM      2  C   UNL     1     125.428 177.208 119.677  1.00  0.00     0.000 C 
BRANCH   2   3
ATOM      3  C   UNL     1     126.004 177.952 118.461  1.00  0.00     0.000 C 
BRANCH   3   4
ATOM      4  C   UNL     1     127.512 177.707 118.282  1.00  0.00     0.000 C 
BRANCH   4   5
ATOM      5  C   UNL     1     127.990 176.448 119.026  1.00  0.00     0.000 C 
BRANCH   5   6
ATOM      6  C   UNL     1     129.161 176.727 119.984  1.00  0.00     0.000 C 
BRANCH   6   7
ATOM      7  C   UNL     1     129.137 178.114 120.659  1.00  0.00     0.000 C 
BRANCH   7   8
ATOM      8  C   UNL     1     128.761 178.106 122.154  1.00  0.00     0.000 C 
BRANCH   8   9
ATOM      9  C   UNL     1     127.284 178.423 122.459  1.00  0.00     0.000 C 
BRANCH   9  10
ATOM     10  C   UNL     1     126.795 177.960 123.842  1.00  0.00     0.000 C 
BRANCH  10  11
ATOM     11  C   UNL     1     127.668 176.845 124.442  1.00  0.00     0.000 C 
BRANCH  11  12
ATOM     12  C   UNL     1     127.097 175.441 124.191  1.00  0.00     0.000 C 
BRANCH  12  13
ATOM     13  C   UNL     1     127.956 174.618 123.218  1.00  0.00     0.006 C 
BRANCH  13  14
ATOM     14  C   UNL     1     127.140 174.174 121.999  1.00  0.00     0.053 C 
BRANCH  14  15
ATOM     15  C   UNL     1     126.971 172.685 121.976  1.00  0.00     0.041 C 
ATOM     16  O   UNL     1     127.204 172.034 120.923  1.00  0.00    -0.550 OA
ATOM     17  O   UNL     1     126.569 172.014 123.127  1.00  0.00    -0.550 OA
ENDBRANCH  14  15
ENDBRANCH  13  14
ENDBRANCH  12  13
ENDBRANCH  11  12
ENDBRANCH  10  11
ENDBRANCH   9  10
ENDBRANCH   8   9
ENDBRANCH   7   8
ENDBRANCH   6   7
ENDBRANCH   5   6
ENDBRANCH   4   5
ENDBRANCH   3   4
ENDBRANCH   2   3
ENDBRANCH   1   2
BRANCH   1  18
ATOM     18  C   UNL     1     123.488 178.013 121.088  1.00  0.00     0.000 C 
BRANCH  18  19
ATOM     19  C   UNL     1     123.781 177.100 122.289  1.00  0.00     0.000 C 
BRANCH  19  20
ATOM     20  C   UNL     1     122.922 177.450 123.517  1.00  0.00     0.000 C 
BRANCH  20  21
ATOM     21  C   UNL     1     121.804 176.425 123.769  1.00  0.00     0.000 C 
BRANCH  21  22
ATOM     22  C   UNL     1     122.071 175.457 124.939  1.00  0.00     0.000 C 
BRANCH  22  23
ATOM     23  C   UNL     1     120.814 174.688 125.408  1.00  0.00     0.000 C 
BRANCH  23  24
ATOM     24  C   UNL     1     120.018 175.433 126.498  1.00  0.00    -0.000 C 
BRANCH  24  25
ATOM     25  C   UNL     1     120.901 176.328 127.395  1.00  0.00    -0.000 C 
BRANCH  25  26
ATOM     26  C   UNL     1     120.139 177.479 128.083  1.00  0.00    -0.000 C 
BRANCH  26  27
ATOM     27  C   UNL     1     120.665 178.883 127.724  1.00  0.00    -0.000 C 
BRANCH  27  28
ATOM     28  C   UNL     1     120.909 179.048 126.214  1.00  0.00    -0.000 C 
BRANCH  28  29
ATOM     29  C   UNL     1     119.675 179.578 125.468  1.00  0.00    -0.000 C 
BRANCH  29  30
ATOM     30  C   UNL     1     119.058 178.535 124.522  1.00  0.00    -0.000 C 
BRANCH  30  31
ATOM     31  C   UNL     1     117.534 178.482 124.688  1.00  0.00    -0.003 C 
ATOM     32  C   UNL     1     117.143 177.781 125.985  1.00  0.00     0.004 C 
ENDBRANCH  30  31
ENDBRANCH  29  30
ENDBRANCH  28  29
ENDBRANCH  27  28
ENDBRANCH  26  27
ENDBRANCH  25  26
ENDBRANCH  24  25
ENDBRANCH  23  24
ENDBRANCH  22  23
ENDBRANCH  21  22
ENDBRANCH  20  21
ENDBRANCH  19  20
ENDBRANCH  18  19
ENDBRANCH   1  18
TORSDOF 28
ENDMDL
MODEL 7
REMARK VINA RESULT:    -5.086      2.416      4.589
REMARK INTER + INTRA:         -19.163
REMARK INTER:                 -14.611
REMARK INTRA:                  -4.553
REMARK UNBOUND:                -5.753
REMARK SMILES CCCCCCCCCCCCCCCCCCCCCCCCCCCCCC(=O)[O-]
REMARK SMILES IDX 16 1 17 2 18 3 19 4 20 5 21 6 22 7 23 8 24 9 25 10 26 11
REMARK SMILES IDX 27 12 28 13 29 14 30 15 31 16 32 17 15 18 14 19 13 20 12 21
REMARK SMILES IDX 11 22 10 23 9 24 8 25 7 26 6 27 5 28 4 29 3 30 2 31 1 32
REMARK H PARENT
REMARK Flexibility Score: inf
ROOT
ATOM      1  C   UNL     1     122.229 178.447 125.828  1.00  0.00     0.000 C 
ENDROOT
BRANCH   1   2
ATOM      2  C   UNL     1     122.204 178.969 127.270  1.00  0.00     0.000 C 
BRANCH   2   3
ATOM      3  C   UNL     1     122.698 177.892 128.251  1.00  0.00     0.000 C 
BRANCH   3   4
ATOM      4  C   UNL     1     121.541 177.127 128.915  1.00  0.00     0.000 C 
BRANCH   4   5
ATOM      5  C   UNL     1     121.868 175.637 129.118  1.00  0.00     0.000 C 
BRANCH   5   6
ATOM      6  C   UNL     1     120.616 174.743 129.108  1.00  0.00     0.000 C 
BRANCH   6   7
ATOM      7  C   UNL     1     120.777 173.399 128.369  1.00  0.00     0.000 C 
BRANCH   7   8
ATOM      8  C   UNL     1     122.110 173.226 127.612  1.00  0.00     0.000 C 
BRANCH   8   9
ATOM      9  C   UNL     1     122.150 173.853 126.205  1.00  0.00     0.000 C 
BRANCH   9  10
ATOM     10  C   UNL     1     120.780 173.988 125.518  1.00  0.00     0.000 C 
BRANCH  10  11
ATOM     11  C   UNL     1     120.309 175.449 125.408  1.00  0.00     0.000 C 
BRANCH  11  12
ATOM     12  C   UNL     1     118.920 175.675 126.025  1.00  0.00     0.000 C 
BRANCH  12  13
ATOM     13  C   UNL     1     118.728 177.109 126.540  1.00  0.00     0.006 C 
BRANCH  13  14
ATOM     14  C   UNL     1     117.245 177.415 126.784  1.00  0.00     0.053 C 
BRANCH  14  15
ATOM     15  C   UNL     1     116.636 178.107 125.602  1.00  0.00     0.041 C 
ATOM     16  O   UNL     1     117.325 178.331 124.570  1.00  0.00    -0.550 OA
ATOM     17  O   UNL     1     115.301 178.494 125.636  1.00  0.00    -0.550 OA
ENDBRANCH  14  15
ENDBRANCH  13  14
ENDBRANCH  12  13
ENDBRANCH  11  12
ENDBRANCH  10  11
ENDBRANCH   9  10
ENDBRANCH   8   9
ENDBRANCH   7   8
ENDBRANCH   6   7
ENDBRANCH   5   6
ENDBRANCH   4   5
ENDBRANCH   3   4
ENDBRANCH   2   3
ENDBRANCH   1   2
BRANCH   1  18
ATOM     18  C   UNL     1     123.564 177.749 125.519  1.00  0.00     0.000 C 
BRANCH  18  19
ATOM     19  C   UNL     1     123.448 176.743 124.363  1.00  0.00     0.000 C 
BRANCH  19  20
ATOM     20  C   UNL     1     123.031 177.411 123.041  1.00  0.00     0.000 C 
BRANCH  20  21
ATOM     21  C   UNL     1     124.142 177.363 121.978  1.00  0.00     0.000 C 
BRANCH  21  22
ATOM     22  C   UNL     1     123.646 177.503 120.525  1.00  0.00     0.000 C 
BRANCH  22  23
ATOM     23  C   UNL     1     124.788 177.615 119.488  1.00  0.00     0.000 C 
BRANCH  23  24
ATOM     24  C   UNL     1     126.119 178.096 120.101  1.00  0.00    -0.000 C 
BRANCH  24  25
ATOM     25  C   UNL     1     127.286 177.110 119.879  1.00  0.00    -0.000 C 
BRANCH  25  26
ATOM     26  C   UNL     1     127.114 175.756 120.599  1.00  0.00    -0.000 C 
BRANCH  26  27
ATOM     27  C   UNL     1     128.363 175.297 121.377  1.00  0.00    -0.000 C 
BRANCH  27  28
ATOM     28  C   UNL     1     128.013 174.730 122.764  1.00  0.00    -0.000 C 
BRANCH  28  29
ATOM     29  C   UNL     1     128.247 175.741 123.895  1.00  0.00    -0.000 C 
BRANCH  29  30
ATOM     30  C   UNL     1     126.980 176.535 124.256  1.00  0.00    -0.000 C 
BRANCH  30  31
ATOM     31  C   UNL     1     127.133 178.011 123.871  1.00  0.00    -0.003 C 
ATOM     32  C   UNL     1     128.562 178.324 123.437  1.00  0.00     0.004 C 
ENDBRANCH  30  31
ENDBRANCH  29  30
ENDBRANCH  28  29
ENDBRANCH  27  28
ENDBRANCH  26  27
ENDBRANCH  25  26
ENDBRANCH  24  25
ENDBRANCH  23  24
ENDBRANCH  22  23
ENDBRANCH  21  22
ENDBRANCH  20  21
ENDBRANCH  19  20
ENDBRANCH  18  19
ENDBRANCH   1  18
TORSDOF 28
ENDMDL
MODEL 8
REMARK VINA RESULT:    -5.077      2.579      8.296
REMARK INTER + INTRA:         -19.140
REMARK INTER:                 -13.667
REMARK INTRA:                  -5.473
REMARK UNBOUND:                -5.753
REMARK SMILES CCCCCCCCCCCCCCCCCCCCCCCCCCCCCC(=O)[O-]
REMARK SMILES IDX 16 1 17 2 18 3 19 4 20 5 21 6 22 7 23 8 24 9 25 10 26 11
REMARK SMILES IDX 27 12 28 13 29 14 30 15 31 16 32 17 15 18 14 19 13 20 12 21
REMARK SMILES IDX 11 22 10 23 9 24 8 25 7 26 6 27 5 28 4 29 3 30 2 31 1 32
REMARK H PARENT
REMARK Flexibility Score: inf
ROOT
ATOM      1  C   UNL     1     124.155 177.750 121.769  1.00  0.00     0.000 C 
ENDROOT
BRANCH   1   2
ATOM      2  C   UNL     1     124.357 176.984 120.455  1.00  0.00     0.000 C 
BRANCH   2   3
ATOM      3  C   UNL     1     124.495 177.954 119.271  1.00  0.00     0.000 C 
BRANCH   3   4
ATOM      4  C   UNL     1     125.935 178.031 118.738  1.00  0.00     0.000 C 
BRANCH   4   5
ATOM      5  C   UNL     1     126.827 176.912 119.304  1.00  0.00     0.000 C 
BRANCH   5   6
ATOM      6  C   UNL     1     128.324 177.265 119.272  1.00  0.00     0.000 C 
BRANCH   6   7
ATOM      7  C   UNL     1     128.837 178.052 120.495  1.00  0.00     0.000 C 
BRANCH   7   8
ATOM      8  C   UNL     1     127.837 178.167 121.664  1.00  0.00     0.000 C 
BRANCH   8   9
ATOM      9  C   UNL     1     128.254 177.436 122.956  1.00  0.00     0.000 C 
BRANCH   9  10
ATOM     10  C   UNL     1     127.123 177.231 123.978  1.00  0.00     0.000 C 
BRANCH  10  11
ATOM     11  C   UNL     1     126.830 175.747 124.254  1.00  0.00     0.000 C 
BRANCH  11  12
ATOM     12  C   UNL     1     126.337 174.995 123.008  1.00  0.00     0.000 C 
BRANCH  12  13
ATOM     13  C   UNL     1     127.263 173.833 122.614  1.00  0.00     0.006 C 
BRANCH  13  14
ATOM     14  C   UNL     1     127.934 174.095 121.261  1.00  0.00     0.053 C 
BRANCH  14  15
ATOM     15  C   UNL     1     129.093 173.171 121.046  1.00  0.00     0.041 C 
ATOM     16  O   UNL     1     129.544 172.482 122.001  1.00  0.00    -0.550 OA
ATOM     17  O   UNL     1     129.668 173.059 119.784  1.00  0.00    -0.550 OA
ENDBRANCH  14  15
ENDBRANCH  13  14
ENDBRANCH  12  13
ENDBRANCH  11  12
ENDBRANCH  10  11
ENDBRANCH   9  10
ENDBRANCH   8   9
ENDBRANCH   7   8
ENDBRANCH   6   7
ENDBRANCH   5   6
ENDBRANCH   4   5
ENDBRANCH   3   4
ENDBRANCH   2   3
ENDBRANCH   1   2
BRANCH   1  18
ATOM     18  C   UNL     1     123.088 177.070 122.643  1.00  0.00     0.000 C 
BRANCH  18  19
ATOM     19  C   UNL     1     123.378 177.214 124.145  1.00  0.00     0.000 C 
BRANCH  19  20
ATOM     20  C   UNL     1     122.987 175.959 124.943  1.00  0.00     0.000 C 
BRANCH  20  21
ATOM     21  C   UNL     1     121.515 175.562 124.739  1.00  0.00     0.000 C 
BRANCH  21  22
ATOM     22  C   UNL     1     120.846 174.919 125.971  1.00  0.00     0.000 C 
BRANCH  22  23
ATOM     23  C   UNL     1     121.831 174.617 127.124  1.00  0.00     0.000 C 
BRANCH  23  24
ATOM     24  C   UNL     1     121.588 175.491 128.372  1.00  0.00    -0.000 C 
BRANCH  24  25
ATOM     25  C   UNL     1     120.255 176.269 128.323  1.00  0.00    -0.000 C 
BRANCH  25  26
ATOM     26  C   UNL     1     120.420 177.802 128.277  1.00  0.00    -0.000 C 
BRANCH  26  27
ATOM     27  C   UNL     1     121.838 178.269 127.891  1.00  0.00    -0.000 C 
BRANCH  27  28
ATOM     28  C   UNL     1     121.830 179.235 126.693  1.00  0.00    -0.000 C 
BRANCH  28  29
ATOM     29  C   UNL     1     120.431 179.419 126.088  1.00  0.00    -0.000 C 
BRANCH  29  30
ATOM     30  C   UNL     1     120.441 179.415 124.550  1.00  0.00    -0.000 C 
BRANCH  30  31
ATOM     31  C   UNL     1     119.507 178.329 124.002  1.00  0.00    -0.003 C 
ATOM     32  C   UNL     1     118.517 177.862 125.064  1.00  0.00     0.004 C 
ENDBRANCH  30  31
ENDBRANCH  29  30
ENDBRANCH  28  29
ENDBRANCH  27  28
ENDBRANCH  26  27
ENDBRANCH  25  26
ENDBRANCH  24  25
ENDBRANCH  23  24
ENDBRANCH  22  23
ENDBRANCH  21  22
ENDBRANCH  20  21
ENDBRANCH  19  20
ENDBRANCH  18  19
ENDBRANCH   1  18
TORSDOF 28
ENDMDL
MODEL 9
REMARK VINA RESULT:    -5.054      1.539      2.364
REMARK INTER + INTRA:         -19.080
REMARK INTER:                 -13.899
REMARK INTRA:                  -5.181
REMARK UNBOUND:                -5.753
REMARK SMILES CCCCCCCCCCCCCCCCCCCCCCCCCCCCCC(=O)[O-]
REMARK SMILES IDX 16 1 17 2 18 3 19 4 20 5 21 6 22 7 23 8 24 9 25 10 26 11
REMARK SMILES IDX 27 12 28 13 29 14 30 15 31 16 32 17 15 18 14 19 13 20 12 21
REMARK SMILES IDX 11 22 10 23 9 24 8 25 7 26 6 27 5 28 4 29 3 30 2 31 1 32
REMARK H PARENT
REMARK Flexibility Score: inf
ROOT
ATOM      1  C   UNL     1     123.766 177.457 120.345  1.00  0.00     0.000 C 
ENDROOT
BRANCH   1   2
ATOM      2  C   UNL     1     124.117 177.215 121.818  1.00  0.00     0.000 C 
BRANCH   2   3
ATOM      3  C   UNL     1     123.002 177.732 122.740  1.00  0.00     0.000 C 
BRANCH   3   4
ATOM      4  C   UNL     1     122.334 176.605 123.546  1.00  0.00     0.000 C 
BRANCH   4   5
ATOM      5  C   UNL     1     122.943 176.454 124.951  1.00  0.00     0.000 C 
BRANCH   5   6
ATOM      6  C   UNL     1     123.460 177.785 125.526  1.00  0.00     0.000 C 
BRANCH   6   7
ATOM      7  C   UNL     1     122.974 178.115 126.952  1.00  0.00     0.000 C 
BRANCH   7   8
ATOM      8  C   UNL     1     122.164 179.420 127.080  1.00  0.00     0.000 C 
BRANCH   8   9
ATOM      9  C   UNL     1     120.648 179.276 126.841  1.00  0.00     0.000 C 
BRANCH   9  10
ATOM     10  C   UNL     1     120.202 179.470 125.381  1.00  0.00     0.000 C 
BRANCH  10  11
ATOM     11  C   UNL     1     119.436 178.257 124.825  1.00  0.00     0.000 C 
BRANCH  11  12
ATOM     12  C   UNL     1     118.920 177.321 125.929  1.00  0.00     0.000 C 
BRANCH  12  13
ATOM     13  C   UNL     1     119.411 175.876 125.757  1.00  0.00     0.006 C 
BRANCH  13  14
ATOM     14  C   UNL     1     119.362 175.113 127.086  1.00  0.00     0.053 C 
BRANCH  14  15
ATOM     15  C   UNL     1     120.479 175.536 127.991  1.00  0.00     0.041 C 
ATOM     16  O   UNL     1     121.630 175.039 127.858  1.00  0.00    -0.550 OA
ATOM     17  O   UNL     1     120.252 176.493 128.975  1.00  0.00    -0.550 OA
ENDBRANCH  14  15
ENDBRANCH  13  14
ENDBRANCH  12  13
ENDBRANCH  11  12
ENDBRANCH  10  11
ENDBRANCH   9  10
ENDBRANCH   8   9
ENDBRANCH   7   8
ENDBRANCH   6   7
ENDBRANCH   5   6
ENDBRANCH   4   5
ENDBRANCH   3   4
ENDBRANCH   2   3
ENDBRANCH   1   2
BRANCH   1  18
ATOM     18  C   UNL     1     124.954 177.109 119.432  1.00  0.00     0.000 C 
BRANCH  18  19
ATOM     19  C   UNL     1     125.585 178.354 118.788  1.00  0.00     0.000 C 
BRANCH  19  20
ATOM     20  C   UNL     1     126.892 178.032 118.045  1.00  0.00     0.000 C 
BRANCH  20  21
ATOM     21  C   UNL     1     127.485 176.671 118.451  1.00  0.00     0.000 C 
BRANCH  21  22
ATOM     22  C   UNL     1     129.017 176.665 118.626  1.00  0.00     0.000 C 
BRANCH  22  23
ATOM     23  C   UNL     1     129.473 176.647 120.104  1.00  0.00     0.000 C 
BRANCH  23  24
ATOM     24  C   UNL     1     129.334 178.018 120.797  1.00  0.00    -0.000 C 
BRANCH  24  25
ATOM     25  C   UNL     1     128.024 178.165 121.602  1.00  0.00    -0.000 C 
BRANCH  25  26
ATOM     26  C   UNL     1     128.203 178.037 123.129  1.00  0.00    -0.000 C 
BRANCH  26  27
ATOM     27  C   UNL     1     126.879 177.914 123.908  1.00  0.00    -0.000 C 
BRANCH  27  28
ATOM     28  C   UNL     1     126.670 176.503 124.489  1.00  0.00    -0.000 C 
BRANCH  28  29
ATOM     29  C   UNL     1     127.889 175.592 124.286  1.00  0.00    -0.000 C 
BRANCH  29  30
ATOM     30  C   UNL     1     127.519 174.227 123.684  1.00  0.00    -0.000 C 
BRANCH  30  31
ATOM     31  C   UNL     1     127.898 174.164 122.199  1.00  0.00    -0.003 C 
ATOM     32  C   UNL     1     126.696 174.459 121.308  1.00  0.00     0.004 C 
ENDBRANCH  30  31
ENDBRANCH  29  30
ENDBRANCH  28  29
ENDBRANCH  27  28
ENDBRANCH  26  27
ENDBRANCH  25  26
ENDBRANCH  24  25
ENDBRANCH  23  24
ENDBRANCH  22  23
ENDBRANCH  21  22
ENDBRANCH  20  21
ENDBRANCH  19  20
ENDBRANCH  18  19
ENDBRANCH   1  18
TORSDOF 28
ENDMDL
