MODEL 1
REMARK VINA RESULT:    -1.990      0.000      0.000
REMARK INTER + INTRA:          -5.322
REMARK INTER:                  -3.619
REMARK INTRA:                  -1.703
REMARK UNBOUND:                -1.703
REMARK SMILES CCCCCCCCCCCCCC[C@@H](C)C(=O)[O-]
REMARK SMILES IDX 9 1 10 2 11 3 12 4 13 5 14 6 15 7 16 8 17 9 18 10 19 11 8 12
REMARK SMILES IDX 7 13 6 14 5 15 4 16 3 17 2 18 1 19
REMARK H PARENT
REMARK Flexibility Score: inf
ROOT
ATOM      1  C   UNL     1      -1.565 -10.169   2.731  1.00  0.00     0.000 C 
ENDROOT
BRANCH   1   2
ATOM      2  C   UNL     1      -2.792 -11.094   2.696  1.00  0.00     0.000 C 
BRANCH   2   3
ATOM      3  C   UNL     1      -4.119 -10.317   2.738  1.00  0.00     0.000 C 
BRANCH   3   4
ATOM      4  C   UNL     1      -4.639  -9.941   1.338  1.00  0.00     0.000 C 
BRANCH   4   5
ATOM      5  C   UNL     1      -5.512  -8.674   1.281  1.00  0.00     0.001 C 
BRANCH   5   6
ATOM      6  C   UNL     1      -5.062  -7.588   2.275  1.00  0.00     0.009 C 
BRANCH   6   7
ATOM      7  C   UNL     1      -6.173  -7.225   3.281  1.00  0.00     0.032 C 
ATOM      8  C   UNL     1      -6.197  -8.222   4.443  1.00  0.00     0.014 C 
BRANCH   7   9
ATOM      9  C   UNL     1      -5.994  -5.828   3.816  1.00  0.00     0.044 C 
ATOM     10  O   UNL     1      -6.911  -5.285   4.486  1.00  0.00    -0.550 OA
ATOM     11  O   UNL     1      -4.814  -5.132   3.580  1.00  0.00    -0.550 OA
ENDBRANCH   7   9
ENDBRANCH   6   7
ENDBRANCH   5   6
ENDBRANCH   4   5
ENDBRANCH   3   4
ENDBRANCH   2   3
ENDBRANCH   1   2
BRANCH   1  12
ATOM     12  C   UNL     1      -0.261 -10.897   2.353  1.00  0.00     0.000 C 
BRANCH  12  13
ATOM     13  C   UNL     1       0.730 -10.973   3.525  1.00  0.00    -0.000 C 
BRANCH  13  14
ATOM     14  C   UNL     1       0.362 -10.012   4.671  1.00  0.00    -0.000 C 
BRANCH  14  15
ATOM     15  C   UNL     1       1.469  -8.986   4.962  1.00  0.00    -0.000 C 
BRANCH  15  16
ATOM     16  C   UNL     1       0.924  -7.553   5.091  1.00  0.00    -0.000 C 
BRANCH  16  17
ATOM     17  C   UNL     1      -0.228  -7.268   4.115  1.00  0.00    -0.000 C 
BRANCH  17  18
ATOM     18  C   UNL     1      -1.471  -6.698   4.815  1.00  0.00    -0.003 C 
ATOM     19  C   UNL     1      -2.566  -7.753   4.934  1.00  0.00     0.004 C 
ENDBRANCH  17  18
ENDBRANCH  16  17
ENDBRANCH  15  16
ENDBRANCH  14  15
ENDBRANCH  13  14
ENDBRANCH  12  13
ENDBRANCH   1  12
TORSDOF 14
ENDMDL
MODEL 2
REMARK VINA RESULT:    -1.946      1.852      5.957
REMARK INTER + INTRA:          -5.243
REMARK INTER:                  -4.178
REMARK INTRA:                  -1.064
REMARK UNBOUND:                -1.703
REMARK SMILES CCCCCCCCCCCCCC[C@@H](C)C(=O)[O-]
REMARK SMILES IDX 9 1 10 2 11 3 12 4 13 5 14 6 15 7 16 8 17 9 18 10 19 11 8 12
REMARK SMILES IDX 7 13 6 14 5 15 4 16 3 17 2 18 1 19
REMARK H PARENT
REMARK Flexibility Score: inf
ROOT
ATOM      1  C   UNL     1      -3.704  -9.811   2.558  1.00  0.00     0.000 C 
ENDROOT
BRANCH   1   2
ATOM      2  C   UNL     1      -2.252  -9.406   2.855  1.00  0.00     0.000 C 
BRANCH   2   3
ATOM      3  C   UNL     1      -1.728 -10.012   4.168  1.00  0.00     0.000 C 
BRANCH   3   4
ATOM      4  C   UNL     1      -0.194  -9.937   4.295  1.00  0.00     0.000 C 
BRANCH   4   5
ATOM      5  C   UNL     1       0.338  -8.754   5.125  1.00  0.00     0.001 C 
BRANCH   5   6
ATOM      6  C   UNL     1      -0.554  -7.503   5.031  1.00  0.00     0.009 C 
BRANCH   6   7
ATOM      7  C   UNL     1       0.261  -6.228   4.733  1.00  0.00     0.032 C 
ATOM      8  C   UNL     1       0.946  -6.331   3.367  1.00  0.00     0.014 C 
BRANCH   7   9
ATOM      9  C   UNL     1      -0.608  -4.999   4.772  1.00  0.00     0.044 C 
ATOM     10  O   UNL     1      -1.854  -5.101   4.622  1.00  0.00    -0.550 OA
ATOM     11  O   UNL     1      -0.044  -3.746   4.980  1.00  0.00    -0.550 OA
ENDBRANCH   7   9
ENDBRANCH   6   7
ENDBRANCH   5   6
ENDBRANCH   4   5
ENDBRANCH   3   4
ENDBRANCH   2   3
ENDBRANCH   1   2
BRANCH   1  12
ATOM     12  C   UNL     1      -4.526  -8.666   1.938  1.00  0.00     0.000 C 
BRANCH  12  13
ATOM     13  C   UNL     1      -5.902  -9.132   1.440  1.00  0.00    -0.000 C 
BRANCH  13  14
ATOM     14  C   UNL     1      -7.062  -8.489   2.223  1.00  0.00    -0.000 C 
BRANCH  14  15
ATOM     15  C   UNL     1      -7.024  -8.828   3.722  1.00  0.00    -0.000 C 
BRANCH  15  16
ATOM     16  C   UNL     1      -6.916  -7.575   4.608  1.00  0.00    -0.000 C 
BRANCH  16  17
ATOM     17  C   UNL     1      -7.080  -6.271   3.809  1.00  0.00    -0.000 C 
BRANCH  17  18
ATOM     18  C   UNL     1      -6.432  -5.064   4.506  1.00  0.00    -0.003 C 
ATOM     19  C   UNL     1      -5.365  -4.428   3.621  1.00  0.00     0.004 C 
ENDBRANCH  17  18
ENDBRANCH  16  17
ENDBRANCH  15  16
ENDBRANCH  14  15
ENDBRANCH  13  14
ENDBRANCH  12  13
ENDBRANCH   1  12
TORSDOF 14
ENDMDL
MODEL 3
REMARK VINA RESULT:    -1.535      2.512      4.740
REMARK INTER + INTRA:          -4.494
REMARK INTER:                  -3.179
REMARK INTRA:                  -1.315
REMARK UNBOUND:                -1.703
REMARK SMILES CCCCCCCCCCCCCC[C@@H](C)C(=O)[O-]
REMARK SMILES IDX 9 1 10 2 11 3 12 4 13 5 14 6 15 7 16 8 17 9 18 10 19 11 8 12
REMARK SMILES IDX 7 13 6 14 5 15 4 16 3 17 2 18 1 19
REMARK H PARENT
REMARK Flexibility Score: inf
ROOT
ATOM      1  C   UNL     1      -0.530  -8.174   3.248  1.00  0.00     0.000 C 
ENDROOT
BRANCH   1   2
ATOM      2  C   UNL     1      -0.384  -9.658   2.876  1.00  0.00     0.000 C 
BRANCH   2   3
ATOM      3  C   UNL     1      -1.527 -10.522   3.435  1.00  0.00     0.000 C 
BRANCH   3   4
ATOM      4  C   UNL     1      -2.419 -11.125   2.333  1.00  0.00     0.000 C 
BRANCH   4   5
ATOM      5  C   UNL     1      -3.934 -11.013   2.581  1.00  0.00     0.001 C 
BRANCH   5   6
ATOM      6  C   UNL     1      -4.616  -9.971   1.676  1.00  0.00     0.009 C 
BRANCH   6   7
ATOM      7  C   UNL     1      -5.940 -10.495   1.082  1.00  0.00     0.032 C 
ATOM      8  C   UNL     1      -7.093 -10.292   2.070  1.00  0.00     0.014 C 
BRANCH   7   9
ATOM      9  C   UNL     1      -6.264  -9.815  -0.221  1.00  0.00     0.044 C 
ATOM     10  O   UNL     1      -6.027  -8.587  -0.370  1.00  0.00    -0.550 OA
ATOM     11  O   UNL     1      -6.820 -10.537  -1.271  1.00  0.00    -0.550 OA
ENDBRANCH   7   9
ENDBRANCH   6   7
ENDBRANCH   5   6
ENDBRANCH   4   5
ENDBRANCH   3   4
ENDBRANCH   2   3
ENDBRANCH   1   2
BRANCH   1  12
ATOM     12  C   UNL     1      -1.017  -7.969   4.694  1.00  0.00     0.000 C 
BRANCH  12  13
ATOM     13  C   UNL     1      -2.329  -7.172   4.765  1.00  0.00    -0.000 C 
BRANCH  13  14
ATOM     14  C   UNL     1      -3.445  -7.796   3.907  1.00  0.00    -0.000 C 
BRANCH  14  15
ATOM     15  C   UNL     1      -4.842  -7.596   4.516  1.00  0.00    -0.000 C 
BRANCH  15  16
ATOM     16  C   UNL     1      -5.806  -6.875   3.559  1.00  0.00    -0.000 C 
BRANCH  16  17
ATOM     17  C   UNL     1      -6.059  -5.414   3.964  1.00  0.00    -0.000 C 
BRANCH  17  18
ATOM     18  C   UNL     1      -4.793  -4.548   3.881  1.00  0.00    -0.003 C 
ATOM     19  C   UNL     1      -4.943  -3.458   2.824  1.00  0.00     0.004 C 
ENDBRANCH  17  18
ENDBRANCH  16  17
ENDBRANCH  15  16
ENDBRANCH  14  15
ENDBRANCH  13  14
ENDBRANCH  12  13
ENDBRANCH   1  12
TORSDOF 14
ENDMDL
MODEL 4
REMARK VINA RESULT:    -1.466      1.031      3.762
REMARK INTER + INTRA:          -4.369
REMARK INTER:                  -2.762
REMARK INTRA:                  -1.607
REMARK UNBOUND:                -1.703
REMARK SMILES CCCCCCCCCCCCCC[C@@H](C)C(=O)[O-]
REMARK SMILES IDX 9 1 10 2 11 3 12 4 13 5 14 6 15 7 16 8 17 9 18 10 19 11 8 12
REMARK SMILES IDX 7 13 6 14 5 15 4 16 3 17 2 18 1 19
REMARK H PARENT
REMARK Flexibility Score: inf
ROOT
ATOM      1  C   UNL     1       0.374  -7.125   3.886  1.00  0.00     0.000 C 
ENDROOT
BRANCH   1   2
ATOM      2  C   UNL     1      -0.241  -6.137   4.889  1.00  0.00     0.000 C 
BRANCH   2   3
ATOM      3  C   UNL     1      -1.773  -6.055   4.773  1.00  0.00     0.000 C 
BRANCH   3   4
ATOM      4  C   UNL     1      -2.378  -7.223   3.973  1.00  0.00     0.000 C 
BRANCH   4   5
ATOM      5  C   UNL     1      -3.831  -7.583   4.334  1.00  0.00     0.001 C 
BRANCH   5   6
ATOM      6  C   UNL     1      -4.827  -7.269   3.204  1.00  0.00     0.009 C 
BRANCH   6   7
ATOM      7  C   UNL     1      -6.142  -6.666   3.740  1.00  0.00     0.032 C 
ATOM      8  C   UNL     1      -6.616  -7.422   4.985  1.00  0.00     0.014 C 
BRANCH   7   9
ATOM      9  C   UNL     1      -5.983  -5.204   4.066  1.00  0.00     0.044 C 
ATOM     10  O   UNL     1      -5.128  -4.510   3.457  1.00  0.00    -0.550 OA
ATOM     11  O   UNL     1      -6.783  -4.610   5.036  1.00  0.00    -0.550 OA
ENDBRANCH   7   9
ENDBRANCH   6   7
ENDBRANCH   5   6
ENDBRANCH   4   5
ENDBRANCH   3   4
ENDBRANCH   2   3
ENDBRANCH   1   2
BRANCH   1  12
ATOM     12  C   UNL     1       0.931  -8.391   4.563  1.00  0.00     0.000 C 
BRANCH  12  13
ATOM     13  C   UNL     1      -0.169  -9.408   4.902  1.00  0.00    -0.000 C 
BRANCH  13  14
ATOM     14  C   UNL     1       0.082 -10.784   4.257  1.00  0.00    -0.000 C 
BRANCH  14  15
ATOM     15  C   UNL     1      -0.945 -11.123   3.165  1.00  0.00    -0.000 C 
BRANCH  15  16
ATOM     16  C   UNL     1      -2.389 -11.125   3.694  1.00  0.00    -0.000 C 
BRANCH  16  17
ATOM     17  C   UNL     1      -3.431 -11.030   2.567  1.00  0.00    -0.000 C 
BRANCH  17  18
ATOM     18  C   UNL     1      -4.869 -10.923   3.097  1.00  0.00    -0.003 C 
ATOM     19  C   UNL     1      -5.830 -10.492   1.994  1.00  0.00     0.004 C 
ENDBRANCH  17  18
ENDBRANCH  16  17
ENDBRANCH  15  16
ENDBRANCH  14  15
ENDBRANCH  13  14
ENDBRANCH  12  13
ENDBRANCH   1  12
TORSDOF 14
ENDMDL
MODEL 5
REMARK VINA RESULT:    -1.453      0.982      4.276
REMARK INTER + INTRA:          -4.345
REMARK INTER:                  -3.182
REMARK INTRA:                  -1.162
REMARK UNBOUND:                -1.703
REMARK SMILES CCCCCCCCCCCCCC[C@@H](C)C(=O)[O-]
REMARK SMILES IDX 9 1 10 2 11 3 12 4 13 5 14 6 15 7 16 8 17 9 18 10 19 11 8 12
REMARK SMILES IDX 7 13 6 14 5 15 4 16 3 17 2 18 1 19
REMARK H PARENT
REMARK Flexibility Score: inf
ROOT
ATOM      1  C   UNL     1       0.468  -9.457   4.469  1.00  0.00     0.000 C 
ENDROOT
BRANCH   1   2
ATOM      2  C   UNL     1      -0.119  -8.336   3.598  1.00  0.00     0.000 C 
BRANCH   2   3
ATOM      3  C   UNL     1      -0.396  -7.051   4.397  1.00  0.00     0.000 C 
BRANCH   3   4
ATOM      4  C   UNL     1      -1.791  -7.036   5.048  1.00  0.00     0.000 C 
BRANCH   4   5
ATOM      5  C   UNL     1      -2.963  -7.334   4.095  1.00  0.00     0.001 C 
BRANCH   5   6
ATOM      6  C   UNL     1      -4.248  -7.752   4.832  1.00  0.00     0.009 C 
BRANCH   6   7
ATOM      7  C   UNL     1      -5.513  -7.499   3.987  1.00  0.00     0.032 C 
ATOM      8  C   UNL     1      -6.706  -8.276   4.552  1.00  0.00     0.014 C 
BRANCH   7   9
ATOM      9  C   UNL     1      -5.847  -6.032   3.926  1.00  0.00     0.044 C 
ATOM     10  O   UNL     1      -4.976  -5.199   3.563  1.00  0.00    -0.550 OA
ATOM     11  O   UNL     1      -7.121  -5.587   4.263  1.00  0.00    -0.550 OA
ENDBRANCH   7   9
ENDBRANCH   6   7
ENDBRANCH   5   6
ENDBRANCH   4   5
ENDBRANCH   3   4
ENDBRANCH   2   3
ENDBRANCH   1   2
BRANCH   1  12
ATOM     12  C   UNL     1       0.085 -10.862   3.968  1.00  0.00     0.000 C 
BRANCH  12  13
ATOM     13  C   UNL     1      -1.426 -11.125   4.053  1.00  0.00    -0.000 C 
BRANCH  13  14
ATOM     14  C   UNL     1      -2.189 -10.581   2.830  1.00  0.00    -0.000 C 
BRANCH  14  15
ATOM     15  C   UNL     1      -3.712 -10.722   2.972  1.00  0.00    -0.000 C 
BRANCH  15  16
ATOM     16  C   UNL     1      -4.404 -11.030   1.632  1.00  0.00    -0.000 C 
BRANCH  16  17
ATOM     17  C   UNL     1      -5.916 -10.760   1.673  1.00  0.00    -0.000 C 
BRANCH  17  18
ATOM     18  C   UNL     1      -6.278  -9.342   1.204  1.00  0.00    -0.003 C 
ATOM     19  C   UNL     1      -5.403  -8.912   0.031  1.00  0.00     0.004 C 
ENDBRANCH  17  18
ENDBRANCH  16  17
ENDBRANCH  15  16
ENDBRANCH  14  15
ENDBRANCH  13  14
ENDBRANCH  12  13
ENDBRANCH   1  12
TORSDOF 14
ENDMDL
MODEL 6
REMARK VINA RESULT:    -1.446      2.507      3.115
REMARK INTER + INTRA:          -4.333
REMARK INTER:                  -3.568
REMARK INTRA:                  -0.765
REMARK UNBOUND:                -1.703
REMARK SMILES CCCCCCCCCCCCCC[C@@H](C)C(=O)[O-]
REMARK SMILES IDX 9 1 10 2 11 3 12 4 13 5 14 6 15 7 16 8 17 9 18 10 19 11 8 12
REMARK SMILES IDX 7 13 6 14 5 15 4 16 3 17 2 18 1 19
REMARK H PARENT
REMARK Flexibility Score: inf
ROOT
ATOM      1  C   UNL     1      -1.556  -8.959   2.712  1.00  0.00     0.000 C 
ENDROOT
BRANCH   1   2
ATOM      2  C   UNL     1      -2.788  -9.224   3.593  1.00  0.00     0.000 C 
BRANCH   2   3
ATOM      3  C   UNL     1      -3.795 -10.176   2.927  1.00  0.00     0.000 C 
BRANCH   3   4
ATOM      4  C   UNL     1      -4.715 -10.883   3.940  1.00  0.00     0.000 C 
BRANCH   4   5
ATOM      5  C   UNL     1      -6.222 -10.782   3.641  1.00  0.00     0.001 C 
BRANCH   5   6
ATOM      6  C   UNL     1      -6.563 -11.074   2.168  1.00  0.00     0.009 C 
BRANCH   6   7
ATOM      7  C   UNL     1      -7.125  -9.833   1.444  1.00  0.00     0.032 C 
ATOM      8  C   UNL     1      -7.085  -8.607   2.362  1.00  0.00     0.014 C 
BRANCH   7   9
ATOM      9  C   UNL     1      -6.361  -9.543   0.180  1.00  0.00     0.044 C 
ATOM     10  O   UNL     1      -5.165  -9.917   0.063  1.00  0.00    -0.550 OA
ATOM     11  O   UNL     1      -6.972  -8.867  -0.871  1.00  0.00    -0.550 OA
ENDBRANCH   7   9
ENDBRANCH   6   7
ENDBRANCH   5   6
ENDBRANCH   4   5
ENDBRANCH   3   4
ENDBRANCH   2   3
ENDBRANCH   1   2
BRANCH   1  12
ATOM     12  C   UNL     1      -0.601 -10.165   2.648  1.00  0.00     0.000 C 
BRANCH  12  13
ATOM     13  C   UNL     1      -0.503 -10.909   3.988  1.00  0.00    -0.000 C 
BRANCH  13  14
ATOM     14  C   UNL     1       0.052 -10.021   5.117  1.00  0.00    -0.000 C 
BRANCH  14  15
ATOM     15  C   UNL     1       1.239  -9.157   4.661  1.00  0.00    -0.000 C 
BRANCH  15  16
ATOM     16  C   UNL     1       1.114  -7.694   5.119  1.00  0.00    -0.000 C 
BRANCH  16  17
ATOM     17  C   UNL     1       0.298  -6.836   4.139  1.00  0.00    -0.000 C 
BRANCH  17  18
ATOM     18  C   UNL     1      -0.759  -5.973   4.846  1.00  0.00    -0.003 C 
ATOM     19  C   UNL     1      -0.405  -4.492   4.758  1.00  0.00     0.004 C 
ENDBRANCH  17  18
ENDBRANCH  16  17
ENDBRANCH  15  16
ENDBRANCH  14  15
ENDBRANCH  13  14
ENDBRANCH  12  13
ENDBRANCH   1  12
TORSDOF 14
ENDMDL
MODEL 7
REMARK VINA RESULT:    -1.300      2.299      4.038
REMARK INTER + INTRA:          -4.067
REMARK INTER:                  -2.745
REMARK INTRA:                  -1.322
REMARK UNBOUND:                -1.703
REMARK SMILES CCCCCCCCCCCCCC[C@@H](C)C(=O)[O-]
REMARK SMILES IDX 9 1 10 2 11 3 12 4 13 5 14 6 15 7 16 8 17 9 18 10 19 11 8 12
REMARK SMILES IDX 7 13 6 14 5 15 4 16 3 17 2 18 1 19
REMARK H PARENT
REMARK Flexibility Score: inf
ROOT
ATOM      1  C   UNL     1      -2.442  -6.951   4.095  1.00  0.00     0.000 C 
ENDROOT
BRANCH   1   2
ATOM      2  C   UNL     1      -3.977  -6.880   4.105  1.00  0.00     0.000 C 
BRANCH   2   3
ATOM      3  C   UNL     1      -4.611  -7.937   5.024  1.00  0.00     0.000 C 
BRANCH   3   4
ATOM      4  C   UNL     1      -6.098  -8.191   4.712  1.00  0.00     0.000 C 
BRANCH   4   5
ATOM      5  C   UNL     1      -6.589  -7.637   3.362  1.00  0.00     0.001 C 
BRANCH   5   6
ATOM      6  C   UNL     1      -7.115  -8.733   2.417  1.00  0.00     0.009 C 
BRANCH   6   7
ATOM      7  C   UNL     1      -5.983  -9.640   1.892  1.00  0.00     0.032 C 
ATOM      8  C   UNL     1      -6.224 -11.096   2.304  1.00  0.00     0.014 C 
BRANCH   7   9
ATOM      9  C   UNL     1      -5.859  -9.552   0.394  1.00  0.00     0.044 C 
ATOM     10  O   UNL     1      -6.320 -10.469  -0.334  1.00  0.00    -0.550 OA
ATOM     11  O   UNL     1      -5.242  -8.455  -0.195  1.00  0.00    -0.550 OA
ENDBRANCH   7   9
ENDBRANCH   6   7
ENDBRANCH   5   6
ENDBRANCH   4   5
ENDBRANCH   3   4
ENDBRANCH   2   3
ENDBRANCH   1   2
BRANCH   1  12
ATOM     12  C   UNL     1      -1.782  -5.616   4.486  1.00  0.00     0.000 C 
BRANCH  12  13
ATOM     13  C   UNL     1      -0.349  -5.800   5.010  1.00  0.00    -0.000 C 
BRANCH  13  14
ATOM     14  C   UNL     1       0.437  -6.860   4.217  1.00  0.00    -0.000 C 
BRANCH  14  15
ATOM     15  C   UNL     1       1.091  -7.915   5.125  1.00  0.00    -0.000 C 
BRANCH  15  16
ATOM     16  C   UNL     1       0.371  -9.273   5.064  1.00  0.00    -0.000 C 
BRANCH  16  17
ATOM     17  C   UNL     1      -0.428  -9.461   3.765  1.00  0.00    -0.000 C 
BRANCH  17  18
ATOM     18  C   UNL     1      -1.758 -10.198   3.988  1.00  0.00    -0.003 C 
ATOM     19  C   UNL     1      -2.076 -11.121   2.816  1.00  0.00     0.004 C 
ENDBRANCH  17  18
ENDBRANCH  16  17
ENDBRANCH  15  16
ENDBRANCH  14  15
ENDBRANCH  13  14
ENDBRANCH  12  13
ENDBRANCH   1  12
TORSDOF 14
ENDMDL
