MODEL 1
REMARK VINA RESULT:    -3.505      0.000      0.000
REMARK INTER + INTRA:          -5.151
REMARK INTER:                  -5.759
REMARK INTRA:                   0.607
REMARK UNBOUND:                 0.607
REMARK SMILES C[C@@H]1O[C@H](OC[C@H]2O[C@@H](Oc3c(-c4ccc(O)c(O)c4)oc4cc(O)cc(O)c4c3=O)[C@H](O)[C@H](O)[C@H]2O)[C@H](O)[C@H](O)[C@@H]1O
REMARK SMILES IDX 7 1 36 2 34 3 32 4 9 5 8 6 6 7 5 8 4 9 1 10 2 11 42 12 3 13
REMARK SMILES IDX 40 14 38 15 43 16 41 18 39 20 37 22 35 24 10 26 11 27 12 28
REMARK SMILES IDX 30 29 21 30 29 31 31 32 22 33 27 34 23 35 26 36 24 37 13 38
REMARK SMILES IDX 20 39 14 40 18 41 15 42 16 43 19 44 17 46 28 48 25 50 33 52
REMARK H PARENT 43 17 41 19 39 21 37 23 35 25 19 45 17 47 28 49 25 51 33 53
REMARK Flexibility Score: inf
ROOT
ATOM      1  C   UNL     1      58.668 153.660   6.312  1.00  0.00     0.180 C 
ATOM      2  C   UNL     1      59.197 155.116   6.251  1.00  0.00     0.177 C 
ATOM      3  C   UNL     1      60.666 155.184   6.687  1.00  0.00     0.180 C 
ATOM      4  C   UNL     1      60.819 154.519   8.057  1.00  0.00     0.214 C 
ATOM      5  C   UNL     1      60.227 153.096   8.042  1.00  0.00     0.339 C 
ATOM      6  O   UNL     1      58.876 153.064   7.590  1.00  0.00    -0.332 OA
ENDROOT
BRANCH   1   7
ATOM      7  C   UNL     1      59.161 152.753   5.164  1.00  0.00     0.198 C 
BRANCH   7   8
ATOM      8  O   UNL     1      58.980 153.396   3.911  1.00  0.00    -0.347 OA
BRANCH   8   9
ATOM      9  C   UNL     1      58.732 152.454   2.878  1.00  0.00     0.281 C 
ATOM     10  C   UNL     1      58.864 155.337   1.637  1.00  0.00     0.041 C 
ATOM     11  C   UNL     1      58.757 153.943   0.996  1.00  0.00     0.150 C 
ATOM     12  C   UNL     1      60.104 153.360   0.489  1.00  0.00     0.174 C 
ATOM     13  O   UNL     1      58.007 153.032   1.795  1.00  0.00    -0.344 OA
ATOM     14  C   UNL     1      60.932 152.745   1.626  1.00  0.00     0.179 C 
ATOM     15  C   UNL     1      60.040 151.778   2.413  1.00  0.00     0.202 C 
BRANCH  12  16
ATOM     16  O   UNL     1      60.860 154.333  -0.184  1.00  0.00    -0.388 OA
ATOM     17  H   UNL     1      60.313 154.641  -0.952  1.00  0.00     0.211 HD
ENDBRANCH  12  16
BRANCH  14  18
ATOM     18  O   UNL     1      61.449 153.741   2.472  1.00  0.00    -0.387 OA
ATOM     19  H   UNL     1      62.323 153.410   2.810  1.00  0.00     0.211 HD
ENDBRANCH  14  18
BRANCH  15  20
ATOM     20  O   UNL     1      60.732 151.192   3.488  1.00  0.00    -0.385 OA
ATOM     21  H   UNL     1      60.439 150.249   3.571  1.00  0.00     0.211 HD
ENDBRANCH  15  20
ENDBRANCH   8   9
ENDBRANCH   7   8
ENDBRANCH   1   7
BRANCH   2  22
ATOM     22  O   UNL     1      59.060 155.650   4.960  1.00  0.00    -0.387 OA
ATOM     23  H   UNL     1      59.281 156.615   5.025  1.00  0.00     0.211 HD
ENDBRANCH   2  22
BRANCH   3  24
ATOM     24  O   UNL     1      61.079 156.524   6.770  1.00  0.00    -0.387 OA
ATOM     25  H   UNL     1      61.408 156.670   7.694  1.00  0.00     0.211 HD
ENDBRANCH   3  24
BRANCH   5  26
ATOM     26  O   UNL     1      61.062 152.214   7.287  1.00  0.00    -0.454 OA
BRANCH  26  27
ATOM     27  C   UNL     1      60.949 150.809   7.226  1.00  0.00     0.214 A 
ATOM     28  C   UNL     1      61.933 150.092   6.521  1.00  0.00     0.180 A 
ATOM     29  C   UNL     1      59.917 150.080   7.858  1.00  0.00     0.239 A 
ATOM     30  O   UNL     1      61.926 148.763   6.517  1.00  0.00    -0.452 OA
ATOM     31  C   UNL     1      59.934 148.668   7.819  1.00  0.00     0.111 A 
ATOM     32  O   UNL     1      58.981 150.684   8.446  1.00  0.00    -0.285 OA
ATOM     33  C   UNL     1      60.995 148.040   7.126  1.00  0.00     0.146 A 
ATOM     34  C   UNL     1      58.946 147.865   8.439  1.00  0.00     0.134 A 
ATOM     35  C   UNL     1      61.071 146.646   7.067  1.00  0.00     0.094 A 
ATOM     36  C   UNL     1      59.040 146.467   8.366  1.00  0.00     0.093 A 
ATOM     37  C   UNL     1      60.095 145.858   7.685  1.00  0.00     0.123 A 
BRANCH  28  38
ATOM     38  C   UNL     1      63.005 150.787   5.786  1.00  0.00     0.025 A 
ATOM     39  C   UNL     1      63.646 151.895   6.361  1.00  0.00     0.062 A 
ATOM     40  C   UNL     1      63.421 150.325   4.529  1.00  0.00     0.016 A 
ATOM     41  C   UNL     1      64.665 152.561   5.668  1.00  0.00     0.158 A 
ATOM     42  C   UNL     1      64.433 150.987   3.834  1.00  0.00     0.051 A 
ATOM     43  C   UNL     1      65.057 152.110   4.395  1.00  0.00     0.157 A 
BRANCH  41  44
ATOM     44  O   UNL     1      65.272 153.670   6.257  1.00  0.00    -0.504 OA
ATOM     45  H   UNL     1      65.060 153.957   7.204  1.00  0.00     0.293 HD
ENDBRANCH  41  44
BRANCH  43  46
ATOM     46  O   UNL     1      66.065 152.774   3.696  1.00  0.00    -0.504 OA
ATOM     47  H   UNL     1      67.021 152.439   3.701  1.00  0.00     0.293 HD
ENDBRANCH  43  46
ENDBRANCH  28  38
BRANCH  34  48
ATOM     48  O   UNL     1      57.875 148.441   9.125  1.00  0.00    -0.507 OA
ATOM     49  H   UNL     1      57.322 149.186   8.717  1.00  0.00     0.293 HD
ENDBRANCH  34  48
BRANCH  37  50
ATOM     50  O   UNL     1      60.166 144.468   7.628  1.00  0.00    -0.508 OA
ATOM     51  H   UNL     1      59.358 143.905   7.392  1.00  0.00     0.293 HD
ENDBRANCH  37  50
ENDBRANCH  26  27
ENDBRANCH   5  26
BRANCH   4  52
ATOM     52  O   UNL     1      60.174 155.293   9.036  1.00  0.00    -0.384 OA
ATOM     53  H   UNL     1      60.607 155.085   9.905  1.00  0.00     0.211 HD
ENDBRANCH   4  52
TORSDOF 16
ENDMDL
MODEL 2
REMARK VINA RESULT:    -3.425      1.912      6.581
REMARK INTER + INTRA:          -5.020
REMARK INTER:                  -6.776
REMARK INTRA:                   1.756
REMARK UNBOUND:                 0.607
REMARK SMILES C[C@@H]1O[C@H](OC[C@H]2O[C@@H](Oc3c(-c4ccc(O)c(O)c4)oc4cc(O)cc(O)c4c3=O)[C@H](O)[C@H](O)[C@H]2O)[C@H](O)[C@H](O)[C@@H]1O
REMARK SMILES IDX 7 1 36 2 34 3 32 4 9 5 8 6 6 7 5 8 4 9 1 10 2 11 42 12 3 13
REMARK SMILES IDX 40 14 38 15 43 16 41 18 39 20 37 22 35 24 10 26 11 27 12 28
REMARK SMILES IDX 30 29 21 30 29 31 31 32 22 33 27 34 23 35 26 36 24 37 13 38
REMARK SMILES IDX 20 39 14 40 18 41 15 42 16 43 19 44 17 46 28 48 25 50 33 52
REMARK H PARENT 43 17 41 19 39 21 37 23 35 25 19 45 17 47 28 49 25 51 33 53
REMARK Flexibility Score: inf
ROOT
ATOM      1  C   UNL     1      60.495 150.610   8.430  1.00  0.00     0.180 C 
ATOM      2  C   UNL     1      61.181 149.235   8.224  1.00  0.00     0.177 C 
ATOM      3  C   UNL     1      61.652 149.069   6.775  1.00  0.00     0.180 C 
ATOM      4  C   UNL     1      60.480 149.332   5.827  1.00  0.00     0.214 C 
ATOM      5  C   UNL     1      59.828 150.696   6.131  1.00  0.00     0.339 C 
ATOM      6  O   UNL     1      59.442 150.833   7.496  1.00  0.00    -0.332 OA
ENDROOT
BRANCH   1   7
ATOM      7  C   UNL     1      61.469 151.805   8.499  1.00  0.00     0.198 C 
BRANCH   7   8
ATOM      8  O   UNL     1      60.750 153.030   8.532  1.00  0.00    -0.347 OA
BRANCH   8   9
ATOM      9  C   UNL     1      60.471 153.501   7.223  1.00  0.00     0.281 C 
ATOM     10  C   UNL     1      58.091 154.267   9.125  1.00  0.00     0.041 C 
ATOM     11  C   UNL     1      58.396 154.624   7.660  1.00  0.00     0.150 C 
ATOM     12  C   UNL     1      59.050 156.017   7.458  1.00  0.00     0.174 C 
ATOM     13  O   UNL     1      59.069 153.574   6.972  1.00  0.00    -0.344 OA
ATOM     14  C   UNL     1      60.559 155.995   7.738  1.00  0.00     0.179 C 
ATOM     15  C   UNL     1      61.186 154.841   6.946  1.00  0.00     0.202 C 
BRANCH  12  16
ATOM     16  O   UNL     1      58.428 156.993   8.253  1.00  0.00    -0.388 OA
ATOM     17  H   UNL     1      58.916 157.843   8.099  1.00  0.00     0.211 HD
ENDBRANCH  12  16
BRANCH  14  18
ATOM     18  O   UNL     1      60.816 155.849   9.112  1.00  0.00    -0.387 OA
ATOM     19  H   UNL     1      61.631 156.381   9.313  1.00  0.00     0.211 HD
ENDBRANCH  14  18
BRANCH  15  20
ATOM     20  O   UNL     1      62.571 154.748   7.175  1.00  0.00    -0.385 OA
ATOM     21  H   UNL     1      62.780 153.818   7.448  1.00  0.00     0.211 HD
ENDBRANCH  15  20
ENDBRANCH   8   9
ENDBRANCH   7   8
ENDBRANCH   1   7
BRANCH   2  22
ATOM     22  O   UNL     1      62.268 149.077   9.098  1.00  0.00    -0.387 OA
ATOM     23  H   UNL     1      62.230 148.144   9.435  1.00  0.00     0.211 HD
ENDBRANCH   2  22
BRANCH   3  24
ATOM     24  O   UNL     1      62.132 147.765   6.573  1.00  0.00    -0.387 OA
ATOM     25  H   UNL     1      61.571 147.160   7.125  1.00  0.00     0.211 HD
ENDBRANCH   3  24
BRANCH   5  26
ATOM     26  O   UNL     1      60.680 151.764   5.708  1.00  0.00    -0.454 OA
BRANCH  26  27
ATOM     27  C   UNL     1      60.804 152.260   4.394  1.00  0.00     0.214 A 
ATOM     28  C   UNL     1      61.958 151.927   3.662  1.00  0.00     0.180 A 
ATOM     29  C   UNL     1      59.820 153.052   3.762  1.00  0.00     0.239 A 
ATOM     30  O   UNL     1      62.077 152.286   2.389  1.00  0.00    -0.452 OA
ATOM     31  C   UNL     1      59.988 153.430   2.412  1.00  0.00     0.111 A 
ATOM     32  O   UNL     1      58.801 153.428   4.400  1.00  0.00    -0.285 OA
ATOM     33  C   UNL     1      61.161 153.001   1.748  1.00  0.00     0.146 A 
ATOM     34  C   UNL     1      59.042 154.210   1.702  1.00  0.00     0.134 A 
ATOM     35  C   UNL     1      61.374 153.333   0.408  1.00  0.00     0.094 A 
ATOM     36  C   UNL     1      59.276 154.533   0.357  1.00  0.00     0.093 A 
ATOM     37  C   UNL     1      60.434 154.099  -0.290  1.00  0.00     0.123 A 
BRANCH  28  38
ATOM     38  C   UNL     1      63.055 151.155   4.276  1.00  0.00     0.025 A 
ATOM     39  C   UNL     1      63.371 149.877   3.792  1.00  0.00     0.062 A 
ATOM     40  C   UNL     1      63.817 151.707   5.315  1.00  0.00     0.016 A 
ATOM     41  C   UNL     1      64.410 149.138   4.370  1.00  0.00     0.158 A 
ATOM     42  C   UNL     1      64.853 150.974   5.896  1.00  0.00     0.051 A 
ATOM     43  C   UNL     1      65.152 149.686   5.433  1.00  0.00     0.157 A 
BRANCH  41  44
ATOM     44  O   UNL     1      64.690 147.862   3.879  1.00  0.00    -0.504 OA
ATOM     45  H   UNL     1      63.982 147.292   3.436  1.00  0.00     0.293 HD
ENDBRANCH  41  44
BRANCH  43  46
ATOM     46  O   UNL     1      66.183 148.951   6.018  1.00  0.00    -0.504 OA
ATOM     47  H   UNL     1      66.598 148.154   5.549  1.00  0.00     0.293 HD
ENDBRANCH  43  46
ENDBRANCH  28  38
BRANCH  34  48
ATOM     48  O   UNL     1      57.875 154.664   2.319  1.00  0.00    -0.507 OA
ATOM     49  H   UNL     1      57.172 154.020   2.665  1.00  0.00     0.293 HD
ENDBRANCH  34  48
BRANCH  37  50
ATOM     50  O   UNL     1      60.643 154.432  -1.625  1.00  0.00    -0.508 OA
ATOM     51  H   UNL     1      61.395 154.020  -2.164  1.00  0.00     0.293 HD
ENDBRANCH  37  50
ENDBRANCH  26  27
ENDBRANCH   5  26
BRANCH   4  52
ATOM     52  O   UNL     1      59.525 148.309   5.957  1.00  0.00    -0.384 OA
ATOM     53  H   UNL     1      59.508 148.046   6.914  1.00  0.00     0.211 HD
ENDBRANCH   4  52
TORSDOF 16
ENDMDL
MODEL 3
REMARK VINA RESULT:    -1.876      1.684      4.660
REMARK INTER + INTRA:          -2.475
REMARK INTER:                  -2.826
REMARK INTRA:                   0.351
REMARK UNBOUND:                 0.607
REMARK SMILES C[C@@H]1O[C@H](OC[C@H]2O[C@@H](Oc3c(-c4ccc(O)c(O)c4)oc4cc(O)cc(O)c4c3=O)[C@H](O)[C@H](O)[C@H]2O)[C@H](O)[C@H](O)[C@@H]1O
REMARK SMILES IDX 7 1 36 2 34 3 32 4 9 5 8 6 6 7 5 8 4 9 1 10 2 11 42 12 3 13
REMARK SMILES IDX 40 14 38 15 43 16 41 18 39 20 37 22 35 24 10 26 11 27 12 28
REMARK SMILES IDX 30 29 21 30 29 31 31 32 22 33 27 34 23 35 26 36 24 37 13 38
REMARK SMILES IDX 20 39 14 40 18 41 15 42 16 43 19 44 17 46 28 48 25 50 33 52
REMARK H PARENT 43 17 41 19 39 21 37 23 35 25 19 45 17 47 28 49 25 51 33 53
REMARK Flexibility Score: inf
ROOT
ATOM      1  C   UNL     1      63.247 151.503   3.275  1.00  0.00     0.180 C 
ATOM      2  C   UNL     1      64.356 150.520   3.726  1.00  0.00     0.177 C 
ATOM      3  C   UNL     1      63.945 149.776   5.002  1.00  0.00     0.180 C 
ATOM      4  C   UNL     1      63.535 150.792   6.071  1.00  0.00     0.214 C 
ATOM      5  C   UNL     1      62.464 151.757   5.524  1.00  0.00     0.339 C 
ATOM      6  O   UNL     1      62.862 152.397   4.315  1.00  0.00    -0.332 OA
ENDROOT
BRANCH   1   7
ATOM      7  C   UNL     1      62.026 150.827   2.613  1.00  0.00     0.198 C 
BRANCH   7   8
ATOM      8  O   UNL     1      61.275 151.776   1.870  1.00  0.00    -0.347 OA
BRANCH   8   9
ATOM      9  C   UNL     1      61.180 153.014   2.558  1.00  0.00     0.281 C 
ATOM     10  C   UNL     1      60.967 153.533  -0.533  1.00  0.00     0.041 C 
ATOM     11  C   UNL     1      60.799 154.462   0.682  1.00  0.00     0.150 C 
ATOM     12  C   UNL     1      59.327 154.708   1.108  1.00  0.00     0.174 C 
ATOM     13  O   UNL     1      61.652 154.101   1.765  1.00  0.00    -0.344 OA
ATOM     14  C   UNL     1      58.765 153.551   1.947  1.00  0.00     0.179 C 
ATOM     15  C   UNL     1      59.748 153.251   3.085  1.00  0.00     0.202 C 
BRANCH  12  16
ATOM     16  O   UNL     1      58.504 154.935  -0.007  1.00  0.00    -0.388 OA
ATOM     17  H   UNL     1      57.689 155.393   0.326  1.00  0.00     0.211 HD
ENDBRANCH  12  16
BRANCH  14  18
ATOM     18  O   UNL     1      58.558 152.407   1.158  1.00  0.00    -0.387 OA
ATOM     19  H   UNL     1      59.385 152.270   0.624  1.00  0.00     0.211 HD
ENDBRANCH  14  18
BRANCH  15  20
ATOM     20  O   UNL     1      59.305 152.182   3.885  1.00  0.00    -0.385 OA
ATOM     21  H   UNL     1      58.367 152.360   4.151  1.00  0.00     0.211 HD
ENDBRANCH  15  20
ENDBRANCH   8   9
ENDBRANCH   7   8
ENDBRANCH   1   7
BRANCH   2  22
ATOM     22  O   UNL     1      64.656 149.595   2.713  1.00  0.00    -0.387 OA
ATOM     23  H   UNL     1      64.216 149.925   1.887  1.00  0.00     0.211 HD
ENDBRANCH   2  22
BRANCH   3  24
ATOM     24  O   UNL     1      65.020 149.007   5.477  1.00  0.00    -0.387 OA
ATOM     25  H   UNL     1      64.713 148.064   5.504  1.00  0.00     0.211 HD
ENDBRANCH   3  24
BRANCH   5  26
ATOM     26  O   UNL     1      61.209 151.085   5.384  1.00  0.00    -0.454 OA
BRANCH  26  27
ATOM     27  C   UNL     1      60.749 150.008   6.170  1.00  0.00     0.214 A 
ATOM     28  C   UNL     1      59.899 150.291   7.254  1.00  0.00     0.180 A 
ATOM     29  C   UNL     1      61.074 148.658   5.911  1.00  0.00     0.239 A 
ATOM     30  O   UNL     1      59.361 149.306   7.964  1.00  0.00    -0.452 OA
ATOM     31  C   UNL     1      60.495 147.637   6.699  1.00  0.00     0.111 A 
ATOM     32  O   UNL     1      61.882 148.363   4.992  1.00  0.00    -0.285 OA
ATOM     33  C   UNL     1      59.612 148.023   7.734  1.00  0.00     0.146 A 
ATOM     34  C   UNL     1      60.757 146.260   6.495  1.00  0.00     0.134 A 
ATOM     35  C   UNL     1      58.999 147.056   8.534  1.00  0.00     0.094 A 
ATOM     36  C   UNL     1      60.132 145.306   7.311  1.00  0.00     0.093 A 
ATOM     37  C   UNL     1      59.257 145.698   8.326  1.00  0.00     0.123 A 
BRANCH  28  38
ATOM     38  C   UNL     1      59.566 151.680   7.622  1.00  0.00     0.025 A 
ATOM     39  C   UNL     1      60.559 152.527   8.136  1.00  0.00     0.062 A 
ATOM     40  C   UNL     1      58.270 152.176   7.423  1.00  0.00     0.016 A 
ATOM     41  C   UNL     1      60.250 153.847   8.488  1.00  0.00     0.158 A 
ATOM     42  C   UNL     1      57.956 153.490   7.775  1.00  0.00     0.051 A 
ATOM     43  C   UNL     1      58.940 154.330   8.313  1.00  0.00     0.157 A 
BRANCH  41  44
ATOM     44  O   UNL     1      61.254 154.661   9.012  1.00  0.00    -0.504 OA
ATOM     45  H   UNL     1      61.921 154.319   9.691  1.00  0.00     0.293 HD
ENDBRANCH  41  44
BRANCH  43  46
ATOM     46  O   UNL     1      58.624 155.641   8.670  1.00  0.00    -0.504 OA
ATOM     47  H   UNL     1      58.620 155.940   9.638  1.00  0.00     0.293 HD
ENDBRANCH  43  46
ENDBRANCH  28  38
BRANCH  34  48
ATOM     48  O   UNL     1      61.629 145.833   5.492  1.00  0.00    -0.507 OA
ATOM     49  H   UNL     1      62.076 144.925   5.528  1.00  0.00     0.293 HD
ENDBRANCH  34  48
BRANCH  37  50
ATOM     50  O   UNL     1      58.649 144.731   9.122  1.00  0.00    -0.508 OA
ATOM     51  H   UNL     1      58.919 143.755   9.072  1.00  0.00     0.293 HD
ENDBRANCH  37  50
ENDBRANCH  26  27
ENDBRANCH   5  26
BRANCH   4  52
ATOM     52  O   UNL     1      64.661 151.519   6.492  1.00  0.00    -0.384 OA
ATOM     53  H   UNL     1      65.259 150.883   6.965  1.00  0.00     0.211 HD
ENDBRANCH   4  52
TORSDOF 16
ENDMDL
