MODEL 1
REMARK VINA RESULT:    -3.604      0.000      0.000
REMARK INTER + INTRA:          -6.462
REMARK INTER:                  -5.079
REMARK INTRA:                  -1.384
REMARK UNBOUND:                -1.384
REMARK SMILES COc1c(O[C@@H]2O[C@@H](C(=O)[O-])[C@H](O)[C@@H](O)[C@H]2O)cc(O)c2c(=O)cc(-c3ccccc3)oc12
REMARK SMILES IDX 5 1 6 2 8 3 12 4 7 5 14 6 16 7 9 8 10 9 11 10 13 11 15 13
REMARK SMILES IDX 17 15 4 17 3 18 18 19 33 20 19 21 21 22 32 23 22 24 25 25
REMARK SMILES IDX 24 26 23 27 2 28 1 29 20 30 26 32 27 33 31 34 28 35 30 36
REMARK SMILES IDX 29 37
REMARK H PARENT 13 12 15 14 17 16 20 31
REMARK Flexibility Score: inf
ROOT
ATOM      1  O   UNL     1       1.697  51.413  58.553  1.00  0.00    -0.458 OA
ENDROOT
BRANCH   1   2
ATOM      2  C   UNL     1       1.042  50.586  57.581  1.00  0.00     0.339 C 
ATOM      3  C   UNL     1       0.351  49.048  59.219  1.00  0.00     0.199 C 
ATOM      4  C   UNL     1       1.286  47.933  58.696  1.00  0.00     0.180 C 
ATOM      5  O   UNL     1      -0.058  49.909  58.169  1.00  0.00    -0.328 OA
ATOM      6  C   UNL     1       2.497  48.565  57.988  1.00  0.00     0.181 C 
ATOM      7  C   UNL     1       2.025  49.584  56.937  1.00  0.00     0.214 C 
BRANCH   3   8
ATOM      8  C   UNL     1      -0.875  48.440  59.833  1.00  0.00     0.073 C 
ATOM      9  O   UNL     1      -1.971  48.459  59.212  1.00  0.00    -0.547 OA
ATOM     10  O   UNL     1      -0.815  47.875  61.101  1.00  0.00    -0.547 OA
ENDBRANCH   3   8
BRANCH   4  11
ATOM     11  O   UNL     1       1.741  47.147  59.771  1.00  0.00    -0.387 OA
ATOM     12  H   UNL     1       1.266  47.459  60.584  1.00  0.00     0.211 HD
ENDBRANCH   4  11
BRANCH   6  13
ATOM     13  O   UNL     1       3.274  47.573  57.368  1.00  0.00    -0.387 OA
ATOM     14  H   UNL     1       3.983  48.039  56.855  1.00  0.00     0.211 HD
ENDBRANCH   6  13
BRANCH   7  15
ATOM     15  O   UNL     1       1.377  48.930  55.876  1.00  0.00    -0.384 OA
ATOM     16  H   UNL     1       2.085  48.562  55.286  1.00  0.00     0.211 HD
ENDBRANCH   7  15
ENDBRANCH   1   2
BRANCH   1  17
ATOM     17  C   UNL     1       1.594  52.813  58.660  1.00  0.00     0.172 A 
ATOM     18  C   UNL     1       1.188  53.345  59.892  1.00  0.00     0.205 A 
ATOM     19  C   UNL     1       1.868  53.669  57.581  1.00  0.00     0.097 A 
ATOM     20  C   UNL     1       1.069  54.751  60.045  1.00  0.00     0.188 A 
ATOM     21  C   UNL     1       1.744  55.054  57.713  1.00  0.00     0.134 A 
ATOM     22  C   UNL     1       1.341  55.609  58.947  1.00  0.00     0.111 A 
ATOM     23  O   UNL     1       0.705  55.272  61.214  1.00  0.00    -0.452 OA
ATOM     24  C   UNL     1       1.197  56.999  59.143  1.00  0.00     0.197 A 
ATOM     25  C   UNL     1       0.555  56.578  61.428  1.00  0.00     0.138 A 
ATOM     26  C   UNL     1       0.800  57.482  60.387  1.00  0.00     0.100 A 
ATOM     27  O   UNL     1       1.425  57.822  58.215  1.00  0.00    -0.289 OA
BRANCH  18  28
ATOM     28  O   UNL     1       0.919  52.421  60.919  1.00  0.00    -0.490 OA
ATOM     29  C   UNL     1      -0.364  51.953  61.324  1.00  0.00     0.278 C 
ENDBRANCH  18  28
BRANCH  21  30
ATOM     30  O   UNL     1       2.023  55.871  56.616  1.00  0.00    -0.507 OA
ATOM     31  H   UNL     1       2.970  56.140  56.377  1.00  0.00     0.293 HD
ENDBRANCH  21  30
BRANCH  25  32
ATOM     32  C   UNL     1       0.141  57.046  62.772  1.00  0.00     0.017 A 
ATOM     33  C   UNL     1      -0.336  56.121  63.717  1.00  0.00     0.012 A 
ATOM     34  C   UNL     1       0.195  58.410  63.124  1.00  0.00     0.012 A 
ATOM     35  C   UNL     1      -0.734  56.545  64.988  1.00  0.00     0.001 A 
ATOM     36  C   UNL     1      -0.206  58.829  64.396  1.00  0.00     0.001 A 
ATOM     37  C   UNL     1      -0.668  57.898  65.328  1.00  0.00     0.000 A 
ENDBRANCH  25  32
ENDBRANCH   1  17
TORSDOF 9
ENDMDL
MODEL 2
REMARK VINA RESULT:    -3.567      1.881      2.343
REMARK INTER + INTRA:          -6.410
REMARK INTER:                  -5.075
REMARK INTRA:                  -1.335
REMARK UNBOUND:                -1.384
REMARK SMILES COc1c(O[C@@H]2O[C@@H](C(=O)[O-])[C@H](O)[C@@H](O)[C@H]2O)cc(O)c2c(=O)cc(-c3ccccc3)oc12
REMARK SMILES IDX 5 1 6 2 8 3 12 4 7 5 14 6 16 7 9 8 10 9 11 10 13 11 15 13
REMARK SMILES IDX 17 15 4 17 3 18 18 19 33 20 19 21 21 22 32 23 22 24 25 25
REMARK SMILES IDX 24 26 23 27 2 28 1 29 20 30 26 32 27 33 31 34 28 35 30 36
REMARK SMILES IDX 29 37
REMARK H PARENT 13 12 15 14 17 16 20 31
REMARK Flexibility Score: inf
ROOT
ATOM      1  O   UNL     1      -0.423  50.687  58.150  1.00  0.00    -0.458 OA
ENDROOT
BRANCH   1   2
ATOM      2  C   UNL     1      -0.086  49.732  57.134  1.00  0.00     0.339 C 
ATOM      3  C   UNL     1      -0.338  47.925  58.616  1.00  0.00     0.199 C 
ATOM      4  C   UNL     1       1.173  47.599  58.618  1.00  0.00     0.180 C 
ATOM      5  O   UNL     1      -0.737  48.496  57.380  1.00  0.00    -0.328 OA
ATOM      6  C   UNL     1       1.977  48.874  58.307  1.00  0.00     0.181 C 
ATOM      7  C   UNL     1       1.442  49.538  57.026  1.00  0.00     0.214 C 
BRANCH   3   8
ATOM      8  C   UNL     1      -1.131  46.670  58.832  1.00  0.00     0.073 C 
ATOM      9  O   UNL     1      -1.178  46.138  59.972  1.00  0.00    -0.547 OA
ATOM     10  O   UNL     1      -1.798  46.073  57.769  1.00  0.00    -0.547 OA
ENDBRANCH   3   8
BRANCH   4  11
ATOM     11  O   UNL     1       1.555  47.113  59.882  1.00  0.00    -0.387 OA
ATOM     12  H   UNL     1       1.023  46.294  60.055  1.00  0.00     0.211 HD
ENDBRANCH   4  11
BRANCH   6  13
ATOM     13  O   UNL     1       3.338  48.567  58.147  1.00  0.00    -0.387 OA
ATOM     14  H   UNL     1       3.568  48.754  57.201  1.00  0.00     0.211 HD
ENDBRANCH   6  13
BRANCH   7  15
ATOM     15  O   UNL     1       1.721  48.737  55.905  1.00  0.00    -0.384 OA
ATOM     16  H   UNL     1       2.430  48.097  56.175  1.00  0.00     0.211 HD
ENDBRANCH   7  15
ENDBRANCH   1   2
BRANCH   1  17
ATOM     17  C   UNL     1      -0.177  52.071  58.106  1.00  0.00     0.172 A 
ATOM     18  C   UNL     1       0.434  52.662  59.222  1.00  0.00     0.205 A 
ATOM     19  C   UNL     1      -0.533  52.862  57.001  1.00  0.00     0.097 A 
ATOM     20  C   UNL     1       0.700  54.055  59.222  1.00  0.00     0.188 A 
ATOM     21  C   UNL     1      -0.288  54.237  56.992  1.00  0.00     0.134 A 
ATOM     22  C   UNL     1       0.330  54.848  58.104  1.00  0.00     0.111 A 
ATOM     23  O   UNL     1       1.298  54.627  60.265  1.00  0.00    -0.452 OA
ATOM     24  C   UNL     1       0.604  56.231  58.155  1.00  0.00     0.197 A 
ATOM     25  C   UNL     1       1.564  55.928  60.345  1.00  0.00     0.138 A 
ATOM     26  C   UNL     1       1.219  56.771  59.281  1.00  0.00     0.100 A 
ATOM     27  O   UNL     1       0.307  56.997  57.198  1.00  0.00    -0.289 OA
BRANCH  18  28
ATOM     28  O   UNL     1       0.748  51.805  60.294  1.00  0.00    -0.490 OA
ATOM     29  C   UNL     1      -0.012  51.623  61.485  1.00  0.00     0.278 C 
ENDBRANCH  18  28
BRANCH  21  30
ATOM     30  O   UNL     1      -0.659  54.987  55.875  1.00  0.00    -0.507 OA
ATOM     31  H   UNL     1      -1.353  55.723  55.932  1.00  0.00     0.293 HD
ENDBRANCH  21  30
BRANCH  25  32
ATOM     32  C   UNL     1       2.230  56.456  61.560  1.00  0.00     0.017 A 
ATOM     33  C   UNL     1       3.016  57.619  61.474  1.00  0.00     0.012 A 
ATOM     34  C   UNL     1       2.111  55.807  62.804  1.00  0.00     0.012 A 
ATOM     35  C   UNL     1       3.654  58.129  62.608  1.00  0.00     0.001 A 
ATOM     36  C   UNL     1       2.752  56.321  63.936  1.00  0.00     0.001 A 
ATOM     37  C   UNL     1       3.522  57.482  63.838  1.00  0.00     0.000 A 
ENDBRANCH  25  32
ENDBRANCH   1  17
TORSDOF 9
ENDMDL
MODEL 3
REMARK VINA RESULT:    -3.558      2.196      2.718
REMARK INTER + INTRA:          -6.398
REMARK INTER:                  -5.007
REMARK INTRA:                  -1.390
REMARK UNBOUND:                -1.384
REMARK SMILES COc1c(O[C@@H]2O[C@@H](C(=O)[O-])[C@H](O)[C@@H](O)[C@H]2O)cc(O)c2c(=O)cc(-c3ccccc3)oc12
REMARK SMILES IDX 5 1 6 2 8 3 12 4 7 5 14 6 16 7 9 8 10 9 11 10 13 11 15 13
REMARK SMILES IDX 17 15 4 17 3 18 18 19 33 20 19 21 21 22 32 23 22 24 25 25
REMARK SMILES IDX 24 26 23 27 2 28 1 29 20 30 26 32 27 33 31 34 28 35 30 36
REMARK SMILES IDX 29 37
REMARK H PARENT 13 12 15 14 17 16 20 31
REMARK Flexibility Score: inf
ROOT
ATOM      1  O   UNL     1      -0.089  51.466  57.602  1.00  0.00    -0.458 OA
ENDROOT
BRANCH   1   2
ATOM      2  C   UNL     1       0.578  50.762  56.545  1.00  0.00     0.339 C 
ATOM      3  C   UNL     1      -0.477  48.736  57.102  1.00  0.00     0.199 C 
ATOM      4  C   UNL     1       0.835  48.083  57.592  1.00  0.00     0.180 C 
ATOM      5  O   UNL     1      -0.225  49.688  56.081  1.00  0.00    -0.328 OA
ATOM      6  C   UNL     1       1.807  49.174  58.074  1.00  0.00     0.181 C 
ATOM      7  C   UNL     1       1.967  50.256  56.992  1.00  0.00     0.214 C 
BRANCH   3   8
ATOM      8  C   UNL     1      -1.396  47.687  56.549  1.00  0.00     0.073 C 
ATOM      9  O   UNL     1      -0.940  46.567  56.196  1.00  0.00    -0.547 OA
ATOM     10  O   UNL     1      -2.751  47.953  56.399  1.00  0.00    -0.547 OA
ENDBRANCH   3   8
BRANCH   4  11
ATOM     11  O   UNL     1       0.563  47.207  58.659  1.00  0.00    -0.387 OA
ATOM     12  H   UNL     1       1.430  46.992  59.091  1.00  0.00     0.211 HD
ENDBRANCH   4  11
BRANCH   6  13
ATOM     13  O   UNL     1       3.061  48.615  58.373  1.00  0.00    -0.387 OA
ATOM     14  H   UNL     1       3.709  49.364  58.410  1.00  0.00     0.211 HD
ENDBRANCH   6  13
BRANCH   7  15
ATOM     15  O   UNL     1       2.643  49.736  55.875  1.00  0.00    -0.384 OA
ATOM     16  H   UNL     1       2.063  49.895  55.085  1.00  0.00     0.211 HD
ENDBRANCH   7  15
ENDBRANCH   1   2
BRANCH   1  17
ATOM     17  C   UNL     1       0.417  52.567  58.316  1.00  0.00     0.172 A 
ATOM     18  C   UNL     1       0.484  52.464  59.713  1.00  0.00     0.205 A 
ATOM     19  C   UNL     1       0.833  53.748  57.680  1.00  0.00     0.097 A 
ATOM     20  C   UNL     1       0.986  53.551  60.475  1.00  0.00     0.188 A 
ATOM     21  C   UNL     1       1.318  54.830  58.417  1.00  0.00     0.134 A 
ATOM     22  C   UNL     1       1.397  54.744  59.823  1.00  0.00     0.111 A 
ATOM     23  O   UNL     1       1.076  53.460  61.800  1.00  0.00    -0.452 OA
ATOM     24  C   UNL     1       1.878  55.802  60.623  1.00  0.00     0.197 A 
ATOM     25  C   UNL     1       1.519  54.443  62.582  1.00  0.00     0.138 A 
ATOM     26  C   UNL     1       1.935  55.650  62.006  1.00  0.00     0.100 A 
ATOM     27  O   UNL     1       2.264  56.889  60.114  1.00  0.00    -0.289 OA
BRANCH  18  28
ATOM     28  O   UNL     1       0.036  51.255  60.277  1.00  0.00    -0.490 OA
ATOM     29  C   UNL     1      -1.244  51.010  60.852  1.00  0.00     0.278 C 
ENDBRANCH  18  28
BRANCH  21  30
ATOM     30  O   UNL     1       1.719  55.986  57.745  1.00  0.00    -0.507 OA
ATOM     31  H   UNL     1       1.491  56.911  58.089  1.00  0.00     0.293 HD
ENDBRANCH  21  30
BRANCH  25  32
ATOM     32  C   UNL     1       1.571  54.231  64.048  1.00  0.00     0.017 A 
ATOM     33  C   UNL     1       2.542  54.899  64.814  1.00  0.00     0.012 A 
ATOM     34  C   UNL     1       0.677  53.356  64.696  1.00  0.00     0.012 A 
ATOM     35  C   UNL     1       2.608  54.710  66.197  1.00  0.00     0.001 A 
ATOM     36  C   UNL     1       0.748  53.169  66.080  1.00  0.00     0.001 A 
ATOM     37  C   UNL     1       1.711  53.846  66.831  1.00  0.00     0.000 A 
ENDBRANCH  25  32
ENDBRANCH   1  17
TORSDOF 9
ENDMDL
MODEL 4
REMARK VINA RESULT:    -3.421      2.435      8.032
REMARK INTER + INTRA:          -6.204
REMARK INTER:                  -4.967
REMARK INTRA:                  -1.237
REMARK UNBOUND:                -1.384
REMARK SMILES COc1c(O[C@@H]2O[C@@H](C(=O)[O-])[C@H](O)[C@@H](O)[C@H]2O)cc(O)c2c(=O)cc(-c3ccccc3)oc12
REMARK SMILES IDX 5 1 6 2 8 3 12 4 7 5 14 6 16 7 9 8 10 9 11 10 13 11 15 13
REMARK SMILES IDX 17 15 4 17 3 18 18 19 33 20 19 21 21 22 32 23 22 24 25 25
REMARK SMILES IDX 24 26 23 27 2 28 1 29 20 30 26 32 27 33 31 34 28 35 30 36
REMARK SMILES IDX 29 37
REMARK H PARENT 13 12 15 14 17 16 20 31
REMARK Flexibility Score: inf
ROOT
ATOM      1  O   UNL     1       1.043  53.005  57.593  1.00  0.00    -0.458 OA
ENDROOT
BRANCH   1   2
ATOM      2  C   UNL     1       2.056  53.977  57.297  1.00  0.00     0.339 C 
ATOM      3  C   UNL     1       1.440  55.315  59.130  1.00  0.00     0.199 C 
ATOM      4  C   UNL     1       0.896  56.450  58.234  1.00  0.00     0.180 C 
ATOM      5  O   UNL     1       2.493  54.615  58.487  1.00  0.00    -0.328 OA
ATOM      6  C   UNL     1       0.438  55.869  56.885  1.00  0.00     0.181 C 
ATOM      7  C   UNL     1       1.558  55.015  56.268  1.00  0.00     0.214 C 
BRANCH   3   8
ATOM      8  C   UNL     1       1.970  55.885  60.412  1.00  0.00     0.073 C 
ATOM      9  O   UNL     1       2.630  56.957  60.405  1.00  0.00    -0.547 OA
ATOM     10  O   UNL     1       1.757  55.219  61.613  1.00  0.00    -0.547 OA
ENDBRANCH   3   8
BRANCH   4  11
ATOM     11  O   UNL     1      -0.200  57.071  58.862  1.00  0.00    -0.387 OA
ATOM     12  H   UNL     1      -0.918  57.155  58.183  1.00  0.00     0.211 HD
ENDBRANCH   4  11
BRANCH   6  13
ATOM     13  O   UNL     1       0.089  56.902  55.999  1.00  0.00    -0.387 OA
ATOM     14  H   UNL     1       0.936  57.284  55.653  1.00  0.00     0.211 HD
ENDBRANCH   6  13
BRANCH   7  15
ATOM     15  O   UNL     1       2.639  55.828  55.883  1.00  0.00    -0.384 OA
ATOM     16  H   UNL     1       2.885  55.564  54.958  1.00  0.00     0.211 HD
ENDBRANCH   7  15
ENDBRANCH   1   2
BRANCH   1  17
ATOM     17  C   UNL     1       1.228  51.614  57.689  1.00  0.00     0.172 A 
ATOM     18  C   UNL     1       0.613  50.945  58.757  1.00  0.00     0.205 A 
ATOM     19  C   UNL     1       2.009  50.896  56.769  1.00  0.00     0.097 A 
ATOM     20  C   UNL     1       0.773  49.542  58.894  1.00  0.00     0.188 A 
ATOM     21  C   UNL     1       2.185  49.516  56.897  1.00  0.00     0.134 A 
ATOM     22  C   UNL     1       1.570  48.825  57.963  1.00  0.00     0.111 A 
ATOM     23  O   UNL     1       0.178  48.890  59.891  1.00  0.00    -0.452 OA
ATOM     24  C   UNL     1       1.710  47.434  58.146  1.00  0.00     0.197 A 
ATOM     25  C   UNL     1       0.296  47.580  60.094  1.00  0.00     0.138 A 
ATOM     26  C   UNL     1       1.073  46.812  59.217  1.00  0.00     0.100 A 
ATOM     27  O   UNL     1       2.399  46.731  57.358  1.00  0.00    -0.289 OA
BRANCH  18  28
ATOM     28  O   UNL     1      -0.141  51.736  59.644  1.00  0.00    -0.490 OA
ATOM     29  C   UNL     1       0.224  52.108  60.970  1.00  0.00     0.278 C 
ENDBRANCH  18  28
BRANCH  21  30
ATOM     30  O   UNL     1       2.970  48.840  55.962  1.00  0.00    -0.507 OA
ATOM     31  H   UNL     1       2.834  47.857  55.760  1.00  0.00     0.293 HD
ENDBRANCH  21  30
BRANCH  25  32
ATOM     32  C   UNL     1      -0.408  46.960  61.241  1.00  0.00     0.017 A 
ATOM     33  C   UNL     1      -1.439  46.033  61.008  1.00  0.00     0.012 A 
ATOM     34  C   UNL     1      -0.082  47.295  62.571  1.00  0.00     0.012 A 
ATOM     35  C   UNL     1      -2.116  45.441  62.078  1.00  0.00     0.001 A 
ATOM     36  C   UNL     1      -0.764  46.700  63.638  1.00  0.00     0.001 A 
ATOM     37  C   UNL     1      -1.779  45.773  63.392  1.00  0.00     0.000 A 
ENDBRANCH  25  32
ENDBRANCH   1  17
TORSDOF 9
ENDMDL
MODEL 5
REMARK VINA RESULT:    -3.363      2.903      8.725
REMARK INTER + INTRA:          -6.123
REMARK INTER:                  -4.775
REMARK INTRA:                  -1.348
REMARK UNBOUND:                -1.384
REMARK SMILES COc1c(O[C@@H]2O[C@@H](C(=O)[O-])[C@H](O)[C@@H](O)[C@H]2O)cc(O)c2c(=O)cc(-c3ccccc3)oc12
REMARK SMILES IDX 5 1 6 2 8 3 12 4 7 5 14 6 16 7 9 8 10 9 11 10 13 11 15 13
REMARK SMILES IDX 17 15 4 17 3 18 18 19 33 20 19 21 21 22 32 23 22 24 25 25
REMARK SMILES IDX 24 26 23 27 2 28 1 29 20 30 26 32 27 33 31 34 28 35 30 36
REMARK SMILES IDX 29 37
REMARK H PARENT 13 12 15 14 17 16 20 31
REMARK Flexibility Score: inf
ROOT
ATOM      1  O   UNL     1       1.049  51.950  57.609  1.00  0.00    -0.458 OA
ENDROOT
BRANCH   1   2
ATOM      2  C   UNL     1       1.612  52.840  58.582  1.00  0.00     0.339 C 
ATOM      3  C   UNL     1      -0.408  54.022  58.807  1.00  0.00     0.199 C 
ATOM      4  C   UNL     1       0.162  55.300  58.150  1.00  0.00     0.180 C 
ATOM      5  O   UNL     1       0.608  53.294  59.477  1.00  0.00    -0.328 OA
ATOM      6  C   UNL     1       1.303  54.922  57.190  1.00  0.00     0.181 C 
ATOM      7  C   UNL     1       2.329  54.031  57.911  1.00  0.00     0.214 C 
BRANCH   3   8
ATOM      8  C   UNL     1      -1.461  54.390  59.810  1.00  0.00     0.073 C 
ATOM      9  O   UNL     1      -2.631  54.659  59.431  1.00  0.00    -0.547 OA
ATOM     10  O   UNL     1      -1.145  54.460  61.161  1.00  0.00    -0.547 OA
ENDBRANCH   3   8
BRANCH   4  11
ATOM     11  O   UNL     1      -0.850  55.956  57.425  1.00  0.00    -0.387 OA
ATOM     12  H   UNL     1      -0.503  56.106  56.508  1.00  0.00     0.211 HD
ENDBRANCH   4  11
BRANCH   6  13
ATOM     13  O   UNL     1       1.938  56.077  56.705  1.00  0.00    -0.387 OA
ATOM     14  H   UNL     1       2.264  56.581  57.494  1.00  0.00     0.211 HD
ENDBRANCH   6  13
BRANCH   7  15
ATOM     15  O   UNL     1       3.010  54.766  58.897  1.00  0.00    -0.384 OA
ATOM     16  H   UNL     1       3.782  55.203  58.451  1.00  0.00     0.211 HD
ENDBRANCH   7  15
ENDBRANCH   1   2
BRANCH   1  17
ATOM     17  C   UNL     1       1.036  50.545  57.674  1.00  0.00     0.172 A 
ATOM     18  C   UNL     1      -0.180  49.916  57.978  1.00  0.00     0.205 A 
ATOM     19  C   UNL     1       2.191  49.774  57.462  1.00  0.00     0.097 A 
ATOM     20  C   UNL     1      -0.239  48.500  58.055  1.00  0.00     0.188 A 
ATOM     21  C   UNL     1       2.151  48.380  57.546  1.00  0.00     0.134 A 
ATOM     22  C   UNL     1       0.935  47.729  57.847  1.00  0.00     0.111 A 
ATOM     23  O   UNL     1      -1.390  47.888  58.322  1.00  0.00    -0.452 OA
ATOM     24  C   UNL     1       0.830  46.326  57.946  1.00  0.00     0.197 A 
ATOM     25  C   UNL     1      -1.520  46.567  58.429  1.00  0.00     0.138 A 
ATOM     26  C   UNL     1      -0.401  45.746  58.241  1.00  0.00     0.100 A 
ATOM     27  O   UNL     1       1.829  45.576  57.770  1.00  0.00    -0.289 OA
BRANCH  18  28
ATOM     28  O   UNL     1      -1.288  50.758  58.190  1.00  0.00    -0.490 OA
ATOM     29  C   UNL     1      -2.273  51.121  57.228  1.00  0.00     0.278 C 
ENDBRANCH  18  28
BRANCH  21  30
ATOM     30  O   UNL     1       3.321  47.651  57.330  1.00  0.00    -0.507 OA
ATOM     31  H   UNL     1       3.364  46.651  57.484  1.00  0.00     0.293 HD
ENDBRANCH  21  30
BRANCH  25  32
ATOM     32  C   UNL     1      -2.852  45.994  58.734  1.00  0.00     0.017 A 
ATOM     33  C   UNL     1      -3.617  45.421  57.703  1.00  0.00     0.012 A 
ATOM     34  C   UNL     1      -3.385  46.027  60.038  1.00  0.00     0.012 A 
ATOM     35  C   UNL     1      -4.877  44.878  57.972  1.00  0.00     0.001 A 
ATOM     36  C   UNL     1      -4.646  45.484  60.302  1.00  0.00     0.001 A 
ATOM     37  C   UNL     1      -5.391  44.909  59.271  1.00  0.00     0.000 A 
ENDBRANCH  25  32
ENDBRANCH   1  17
TORSDOF 9
ENDMDL
MODEL 6
REMARK VINA RESULT:    -3.341      2.574      8.461
REMARK INTER + INTRA:          -6.092
REMARK INTER:                  -4.878
REMARK INTRA:                  -1.214
REMARK UNBOUND:                -1.384
REMARK SMILES COc1c(O[C@@H]2O[C@@H](C(=O)[O-])[C@H](O)[C@@H](O)[C@H]2O)cc(O)c2c(=O)cc(-c3ccccc3)oc12
REMARK SMILES IDX 5 1 6 2 8 3 12 4 7 5 14 6 16 7 9 8 10 9 11 10 13 11 15 13
REMARK SMILES IDX 17 15 4 17 3 18 18 19 33 20 19 21 21 22 32 23 22 24 25 25
REMARK SMILES IDX 24 26 23 27 2 28 1 29 20 30 26 32 27 33 31 34 28 35 30 36
REMARK SMILES IDX 29 37
REMARK H PARENT 13 12 15 14 17 16 20 31
REMARK Flexibility Score: inf
ROOT
ATOM      1  O   UNL     1      -0.272  53.022  61.762  1.00  0.00    -0.458 OA
ENDROOT
BRANCH   1   2
ATOM      2  C   UNL     1      -0.497  54.336  62.291  1.00  0.00     0.339 C 
ATOM      3  C   UNL     1       1.351  54.173  63.734  1.00  0.00     0.199 C 
ATOM      4  C   UNL     1       0.471  54.134  65.004  1.00  0.00     0.180 C 
ATOM      5  O   UNL     1       0.729  54.921  62.702  1.00  0.00    -0.328 OA
ATOM      6  C   UNL     1      -0.912  53.559  64.656  1.00  0.00     0.181 C 
ATOM      7  C   UNL     1      -1.512  54.310  63.455  1.00  0.00     0.214 C 
BRANCH   3   8
ATOM      8  C   UNL     1       2.671  54.814  64.047  1.00  0.00     0.073 C 
ATOM      9  O   UNL     1       3.531  54.195  64.728  1.00  0.00    -0.547 OA
ATOM     10  O   UNL     1       2.943  56.105  63.610  1.00  0.00    -0.547 OA
ENDBRANCH   3   8
BRANCH   4  11
ATOM     11  O   UNL     1       1.075  53.318  65.979  1.00  0.00    -0.387 OA
ATOM     12  H   UNL     1       1.215  53.879  66.785  1.00  0.00     0.211 HD
ENDBRANCH   4  11
BRANCH   6  13
ATOM     13  O   UNL     1      -1.777  53.662  65.758  1.00  0.00    -0.387 OA
ATOM     14  H   UNL     1      -2.561  54.192  65.462  1.00  0.00     0.211 HD
ENDBRANCH   6  13
BRANCH   7  15
ATOM     15  O   UNL     1      -1.828  55.632  63.812  1.00  0.00    -0.384 OA
ATOM     16  H   UNL     1      -2.374  56.009  63.074  1.00  0.00     0.211 HD
ENDBRANCH   7  15
ENDBRANCH   1   2
BRANCH   1  17
ATOM     17  C   UNL     1       0.277  52.714  60.504  1.00  0.00     0.172 A 
ATOM     18  C   UNL     1       0.571  51.370  60.230  1.00  0.00     0.205 A 
ATOM     19  C   UNL     1       0.545  53.700  59.541  1.00  0.00     0.097 A 
ATOM     20  C   UNL     1       1.126  51.014  58.975  1.00  0.00     0.188 A 
ATOM     21  C   UNL     1       1.103  53.366  58.305  1.00  0.00     0.134 A 
ATOM     22  C   UNL     1       1.401  52.019  58.010  1.00  0.00     0.111 A 
ATOM     23  O   UNL     1       1.391  49.740  58.693  1.00  0.00    -0.452 OA
ATOM     24  C   UNL     1       1.965  51.618  56.781  1.00  0.00     0.197 A 
ATOM     25  C   UNL     1       1.928  49.332  57.545  1.00  0.00     0.138 A 
ATOM     26  C   UNL     1       2.231  50.271  56.551  1.00  0.00     0.100 A 
ATOM     27  O   UNL     1       2.233  52.453  55.875  1.00  0.00    -0.289 OA
BRANCH  18  28
ATOM     28  O   UNL     1       0.285  50.444  61.251  1.00  0.00    -0.490 OA
ATOM     29  C   UNL     1      -0.852  49.589  61.326  1.00  0.00     0.278 C 
ENDBRANCH  18  28
BRANCH  21  30
ATOM     30  O   UNL     1       1.356  54.377  57.377  1.00  0.00    -0.507 OA
ATOM     31  H   UNL     1       0.712  54.585  56.623  1.00  0.00     0.293 HD
ENDBRANCH  21  30
BRANCH  25  32
ATOM     32  C   UNL     1       2.185  47.886  57.342  1.00  0.00     0.017 A 
ATOM     33  C   UNL     1       3.258  47.475  56.532  1.00  0.00     0.012 A 
ATOM     34  C   UNL     1       1.361  46.904  57.929  1.00  0.00     0.012 A 
ATOM     35  C   UNL     1       3.512  46.116  56.326  1.00  0.00     0.001 A 
ATOM     36  C   UNL     1       1.619  45.546  57.719  1.00  0.00     0.001 A 
ATOM     37  C   UNL     1       2.695  45.152  56.920  1.00  0.00     0.000 A 
ENDBRANCH  25  32
ENDBRANCH   1  17
TORSDOF 9
ENDMDL
MODEL 7
REMARK VINA RESULT:    -3.310      1.595      1.960
REMARK INTER + INTRA:          -6.048
REMARK INTER:                  -5.097
REMARK INTRA:                  -0.952
REMARK UNBOUND:                -1.384
REMARK SMILES COc1c(O[C@@H]2O[C@@H](C(=O)[O-])[C@H](O)[C@@H](O)[C@H]2O)cc(O)c2c(=O)cc(-c3ccccc3)oc12
REMARK SMILES IDX 5 1 6 2 8 3 12 4 7 5 14 6 16 7 9 8 10 9 11 10 13 11 15 13
REMARK SMILES IDX 17 15 4 17 3 18 18 19 33 20 19 21 21 22 32 23 22 24 25 25
REMARK SMILES IDX 24 26 23 27 2 28 1 29 20 30 26 32 27 33 31 34 28 35 30 36
REMARK SMILES IDX 29 37
REMARK H PARENT 13 12 15 14 17 16 20 31
REMARK Flexibility Score: inf
ROOT
ATOM      1  O   UNL     1       0.073  50.733  58.941  1.00  0.00    -0.458 OA
ENDROOT
BRANCH   1   2
ATOM      2  C   UNL     1       0.215  50.197  57.618  1.00  0.00     0.339 C 
ATOM      3  C   UNL     1      -0.316  48.024  58.341  1.00  0.00     0.199 C 
ATOM      4  C   UNL     1       1.114  47.494  58.090  1.00  0.00     0.180 C 
ATOM      5  O   UNL     1      -0.638  49.075  57.445  1.00  0.00    -0.328 OA
ATOM      6  C   UNL     1       2.121  48.651  58.204  1.00  0.00     0.181 C 
ATOM      7  C   UNL     1       1.682  49.825  57.313  1.00  0.00     0.214 C 
BRANCH   3   8
ATOM      8  C   UNL     1      -1.312  46.919  58.145  1.00  0.00     0.073 C 
ATOM      9  O   UNL     1      -2.062  46.914  57.133  1.00  0.00    -0.547 OA
ATOM     10  O   UNL     1      -1.432  45.910  59.092  1.00  0.00    -0.547 OA
ENDBRANCH   3   8
BRANCH   4  11
ATOM     11  O   UNL     1       1.434  46.511  59.045  1.00  0.00    -0.387 OA
ATOM     12  H   UNL     1       2.118  45.919  58.639  1.00  0.00     0.211 HD
ENDBRANCH   4  11
BRANCH   6  13
ATOM     13  O   UNL     1       3.404  48.223  57.824  1.00  0.00    -0.387 OA
ATOM     14  H   UNL     1       3.684  48.792  57.062  1.00  0.00     0.211 HD
ENDBRANCH   6  13
BRANCH   7  15
ATOM     15  O   UNL     1       1.790  49.478  55.955  1.00  0.00    -0.384 OA
ATOM     16  H   UNL     1       2.626  49.893  55.616  1.00  0.00     0.211 HD
ENDBRANCH   7  15
ENDBRANCH   1   2
BRANCH   1  17
ATOM     17  C   UNL     1       0.478  52.011  59.369  1.00  0.00     0.172 A 
ATOM     18  C   UNL     1      -0.264  52.623  60.390  1.00  0.00     0.205 A 
ATOM     19  C   UNL     1       1.574  52.679  58.801  1.00  0.00     0.097 A 
ATOM     20  C   UNL     1       0.107  53.912  60.852  1.00  0.00     0.188 A 
ATOM     21  C   UNL     1       1.944  53.954  59.238  1.00  0.00     0.134 A 
ATOM     22  C   UNL     1       1.212  54.584  60.267  1.00  0.00     0.111 A 
ATOM     23  O   UNL     1      -0.575  54.497  61.834  1.00  0.00    -0.452 OA
ATOM     24  C   UNL     1       1.536  55.869  60.751  1.00  0.00     0.197 A 
ATOM     25  C   UNL     1      -0.298  55.710  62.308  1.00  0.00     0.138 A 
ATOM     26  C   UNL     1       0.775  56.432  61.772  1.00  0.00     0.100 A 
ATOM     27  O   UNL     1       2.506  56.524  60.282  1.00  0.00    -0.289 OA
BRANCH  18  28
ATOM     28  O   UNL     1      -1.356  51.894  60.897  1.00  0.00    -0.490 OA
ATOM     29  C   UNL     1      -2.727  52.073  60.557  1.00  0.00     0.278 C 
ENDBRANCH  18  28
BRANCH  21  30
ATOM     30  O   UNL     1       3.039  54.585  58.646  1.00  0.00    -0.507 OA
ATOM     31  H   UNL     1       3.816  54.935  59.194  1.00  0.00     0.293 HD
ENDBRANCH  21  30
BRANCH  25  32
ATOM     32  C   UNL     1      -1.129  56.265  63.402  1.00  0.00     0.017 A 
ATOM     33  C   UNL     1      -0.690  57.402  64.103  1.00  0.00     0.012 A 
ATOM     34  C   UNL     1      -2.350  55.666  63.774  1.00  0.00     0.012 A 
ATOM     35  C   UNL     1      -1.459  57.937  65.140  1.00  0.00     0.001 A 
ATOM     36  C   UNL     1      -3.115  56.205  64.813  1.00  0.00     0.001 A 
ATOM     37  C   UNL     1      -2.671  57.340  65.495  1.00  0.00     0.000 A 
ENDBRANCH  25  32
ENDBRANCH   1  17
TORSDOF 9
ENDMDL
MODEL 8
REMARK VINA RESULT:    -3.217     16.777     19.268
REMARK INTER + INTRA:          -5.917
REMARK INTER:                  -4.675
REMARK INTRA:                  -1.241
REMARK UNBOUND:                -1.384
REMARK SMILES COc1c(O[C@@H]2O[C@@H](C(=O)[O-])[C@H](O)[C@@H](O)[C@H]2O)cc(O)c2c(=O)cc(-c3ccccc3)oc12
REMARK SMILES IDX 5 1 6 2 8 3 12 4 7 5 14 6 16 7 9 8 10 9 11 10 13 11 15 13
REMARK SMILES IDX 17 15 4 17 3 18 18 19 33 20 19 21 21 22 32 23 22 24 25 25
REMARK SMILES IDX 24 26 23 27 2 28 1 29 20 30 26 32 27 33 31 34 28 35 30 36
REMARK SMILES IDX 29 37
REMARK H PARENT 13 12 15 14 17 16 20 31
REMARK Flexibility Score: inf
ROOT
ATOM      1  O   UNL     1     -13.235  55.395  73.277  1.00  0.00    -0.458 OA
ENDROOT
BRANCH   1   2
ATOM      2  C   UNL     1     -13.888  54.325  73.974  1.00  0.00     0.339 C 
ATOM      3  C   UNL     1     -12.084  52.863  73.612  1.00  0.00     0.199 C 
ATOM      4  C   UNL     1     -12.889  51.962  72.648  1.00  0.00     0.180 C 
ATOM      5  O   UNL     1     -12.930  53.469  74.576  1.00  0.00    -0.328 OA
ATOM      6  C   UNL     1     -13.999  52.789  71.975  1.00  0.00     0.181 C 
ATOM      7  C   UNL     1     -14.826  53.531  73.039  1.00  0.00     0.214 C 
BRANCH   3   8
ATOM      8  C   UNL     1     -11.057  52.045  74.338  1.00  0.00     0.073 C 
ATOM      9  O   UNL     1     -11.360  51.445  75.402  1.00  0.00    -0.547 OA
ATOM     10  O   UNL     1      -9.757  51.966  73.853  1.00  0.00    -0.547 OA
ENDBRANCH   3   8
BRANCH   4  11
ATOM     11  O   UNL     1     -12.038  51.442  71.656  1.00  0.00    -0.387 OA
ATOM     12  H   UNL     1     -11.149  51.865  71.781  1.00  0.00     0.211 HD
ENDBRANCH   4  11
BRANCH   6  13
ATOM     13  O   UNL     1     -14.840  51.956  71.220  1.00  0.00    -0.387 OA
ATOM     14  H   UNL     1     -14.839  51.067  71.660  1.00  0.00     0.211 HD
ENDBRANCH   6  13
BRANCH   7  15
ATOM     15  O   UNL     1     -15.569  52.619  73.808  1.00  0.00    -0.384 OA
ATOM     16  H   UNL     1     -16.251  53.144  74.301  1.00  0.00     0.211 HD
ENDBRANCH   7  15
ENDBRANCH   1   2
BRANCH   1  17
ATOM     17  C   UNL     1     -12.693  56.558  73.856  1.00  0.00     0.172 A 
ATOM     18  C   UNL     1     -11.297  56.697  73.857  1.00  0.00     0.205 A 
ATOM     19  C   UNL     1     -13.497  57.553  74.433  1.00  0.00     0.097 A 
ATOM     20  C   UNL     1     -10.707  57.852  74.430  1.00  0.00     0.188 A 
ATOM     21  C   UNL     1     -12.930  58.691  75.012  1.00  0.00     0.134 A 
ATOM     22  C   UNL     1     -11.528  58.850  75.019  1.00  0.00     0.111 A 
ATOM     23  O   UNL     1      -9.385  58.008  74.421  1.00  0.00    -0.452 OA
ATOM     24  C   UNL     1     -10.895  59.975  75.588  1.00  0.00     0.197 A 
ATOM     25  C   UNL     1      -8.758  59.055  74.955  1.00  0.00     0.138 A 
ATOM     26  C   UNL     1      -9.507  60.074  75.558  1.00  0.00     0.100 A 
ATOM     27  O   UNL     1     -11.559  60.904  76.125  1.00  0.00    -0.289 OA
BRANCH  18  28
ATOM     28  O   UNL     1     -10.560  55.650  73.271  1.00  0.00    -0.490 OA
ATOM     29  C   UNL     1     -10.179  55.543  71.903  1.00  0.00     0.278 C 
ENDBRANCH  18  28
BRANCH  21  30
ATOM     30  O   UNL     1     -13.765  59.656  75.577  1.00  0.00    -0.507 OA
ATOM     31  H   UNL     1     -13.568  60.646  75.497  1.00  0.00     0.293 HD
ENDBRANCH  21  30
BRANCH  25  32
ATOM     32  C   UNL     1      -7.279  59.122  74.890  1.00  0.00     0.017 A 
ATOM     33  C   UNL     1      -6.595  58.438  73.870  1.00  0.00     0.012 A 
ATOM     34  C   UNL     1      -6.534  59.844  75.843  1.00  0.00     0.012 A 
ATOM     35  C   UNL     1      -5.200  58.487  73.795  1.00  0.00     0.001 A 
ATOM     36  C   UNL     1      -5.138  59.889  75.764  1.00  0.00     0.001 A 
ATOM     37  C   UNL     1      -4.472  59.213  74.740  1.00  0.00     0.000 A 
ENDBRANCH  25  32
ENDBRANCH   1  17
TORSDOF 9
ENDMDL
MODEL 9
REMARK VINA RESULT:    -3.212      2.523      2.728
REMARK INTER + INTRA:          -5.910
REMARK INTER:                  -4.802
REMARK INTRA:                  -1.108
REMARK UNBOUND:                -1.384
REMARK SMILES COc1c(O[C@@H]2O[C@@H](C(=O)[O-])[C@H](O)[C@@H](O)[C@H]2O)cc(O)c2c(=O)cc(-c3ccccc3)oc12
REMARK SMILES IDX 5 1 6 2 8 3 12 4 7 5 14 6 16 7 9 8 10 9 11 10 13 11 15 13
REMARK SMILES IDX 17 15 4 17 3 18 18 19 33 20 19 21 21 22 32 23 22 24 25 25
REMARK SMILES IDX 24 26 23 27 2 28 1 29 20 30 26 32 27 33 31 34 28 35 30 36
REMARK SMILES IDX 29 37
REMARK H PARENT 13 12 15 14 17 16 20 31
REMARK Flexibility Score: inf
ROOT
ATOM      1  O   UNL     1       0.059  50.807  58.797  1.00  0.00    -0.458 OA
ENDROOT
BRANCH   1   2
ATOM      2  C   UNL     1       0.134  50.109  57.546  1.00  0.00     0.339 C 
ATOM      3  C   UNL     1      -0.286  48.036  58.572  1.00  0.00     0.199 C 
ATOM      4  C   UNL     1       1.141  47.509  58.298  1.00  0.00     0.180 C 
ATOM      5  O   UNL     1      -0.693  48.957  57.573  1.00  0.00    -0.328 OA
ATOM      6  C   UNL     1       2.119  48.693  58.198  1.00  0.00     0.181 C 
ATOM      7  C   UNL     1       1.590  49.733  57.196  1.00  0.00     0.214 C 
BRANCH   3   8
ATOM      8  C   UNL     1      -1.259  46.894  58.584  1.00  0.00     0.073 C 
ATOM      9  O   UNL     1      -0.943  45.787  58.075  1.00  0.00    -0.547 OA
ATOM     10  O   UNL     1      -2.525  47.061  59.132  1.00  0.00    -0.547 OA
ENDBRANCH   3   8
BRANCH   4  11
ATOM     11  O   UNL     1       1.548  46.664  59.348  1.00  0.00    -0.387 OA
ATOM     12  H   UNL     1       0.726  46.316  59.780  1.00  0.00     0.211 HD
ENDBRANCH   4  11
BRANCH   6  13
ATOM     13  O   UNL     1       3.387  48.247  57.792  1.00  0.00    -0.387 OA
ATOM     14  H   UNL     1       3.242  47.500  57.157  1.00  0.00     0.211 HD
ENDBRANCH   6  13
BRANCH   7  15
ATOM     15  O   UNL     1       1.624  49.216  55.889  1.00  0.00    -0.384 OA
ATOM     16  H   UNL     1       2.016  48.306  55.947  1.00  0.00     0.211 HD
ENDBRANCH   7  15
ENDBRANCH   1   2
BRANCH   1  17
ATOM     17  C   UNL     1       0.276  52.183  58.996  1.00  0.00     0.172 A 
ATOM     18  C   UNL     1      -0.827  52.974  59.349  1.00  0.00     0.205 A 
ATOM     19  C   UNL     1       1.541  52.774  58.839  1.00  0.00     0.097 A 
ATOM     20  C   UNL     1      -0.654  54.367  59.559  1.00  0.00     0.188 A 
ATOM     21  C   UNL     1       1.723  54.145  59.030  1.00  0.00     0.134 A 
ATOM     22  C   UNL     1       0.626  54.956  59.390  1.00  0.00     0.111 A 
ATOM     23  O   UNL     1      -1.688  55.127  59.915  1.00  0.00    -0.452 OA
ATOM     24  C   UNL     1       0.746  56.347  59.598  1.00  0.00     0.197 A 
ATOM     25  C   UNL     1      -1.608  56.441  60.111  1.00  0.00     0.138 A 
ATOM     26  C   UNL     1      -0.376  57.089  59.956  1.00  0.00     0.100 A 
ATOM     27  O   UNL     1       1.852  56.939  59.470  1.00  0.00    -0.289 OA
BRANCH  18  28
ATOM     28  O   UNL     1      -2.062  52.311  59.474  1.00  0.00    -0.490 OA
ATOM     29  C   UNL     1      -2.666  51.866  60.684  1.00  0.00     0.278 C 
ENDBRANCH  18  28
BRANCH  21  30
ATOM     30  O   UNL     1       2.996  54.693  58.862  1.00  0.00    -0.507 OA
ATOM     31  H   UNL     1       3.588  54.441  58.080  1.00  0.00     0.293 HD
ENDBRANCH  21  30
BRANCH  25  32
ATOM     32  C   UNL     1      -2.827  57.189  60.502  1.00  0.00     0.017 A 
ATOM     33  C   UNL     1      -3.188  57.274  61.857  1.00  0.00     0.012 A 
ATOM     34  C   UNL     1      -3.650  57.806  59.538  1.00  0.00     0.012 A 
ATOM     35  C   UNL     1      -4.335  57.972  62.244  1.00  0.00     0.001 A 
ATOM     36  C   UNL     1      -4.798  58.502  59.930  1.00  0.00     0.001 A 
ATOM     37  C   UNL     1      -5.139  58.587  61.281  1.00  0.00     0.000 A 
ENDBRANCH  25  32
ENDBRANCH   1  17
TORSDOF 9
ENDMDL
