MODEL 1
REMARK VINA RESULT:    22.225      0.000      0.000
REMARK INTER + INTRA:          26.279
REMARK INTER:                  26.123
REMARK INTRA:                   0.156
REMARK UNBOUND:                 0.156
REMARK SMILES Oc1ccc(-c2[o+]c3cc(O)cc(O)c3cc2O)cc1
REMARK SMILES IDX 6 1 7 2 8 3 9 4 10 5 12 6 13 7 15 8 16 9 17 10 5 11 4 12
REMARK SMILES IDX 3 13 2 14 19 15 20 16 1 17 18 19 11 21 14 23
REMARK H PARENT 1 18 18 20 11 22 14 24
REMARK Flexibility Score: inf
ROOT
ATOM      1  C   UNL     1      28.515 -13.861 -24.212  1.00  0.00     0.401 A 
ATOM      2  O   UNL     1      28.928 -14.756 -23.318  1.00  0.00    -0.202 OA
ATOM      3  C   UNL     1      29.083 -16.046 -23.595  1.00  0.00     0.368 A 
ATOM      4  C   UNL     1      29.520 -16.910 -22.588  1.00  0.00     0.162 A 
ATOM      5  C   UNL     1      29.689 -18.270 -22.850  1.00  0.00     0.128 A 
ATOM      6  C   UNL     1      29.420 -18.773 -24.127  1.00  0.00     0.093 A 
ATOM      7  C   UNL     1      28.982 -17.928 -25.154  1.00  0.00     0.136 A 
ATOM      8  C   UNL     1      28.811 -16.543 -24.894  1.00  0.00     0.125 A 
ATOM      9  C   UNL     1      28.389 -15.620 -25.863  1.00  0.00     0.078 A 
ATOM     10  C   UNL     1      28.248 -14.269 -25.533  1.00  0.00     0.223 A 
ENDROOT
BRANCH   1  11
ATOM     11  C   UNL     1      28.371 -12.452 -23.778  1.00  0.00     0.084 A 
ATOM     12  C   UNL     1      29.228 -11.944 -22.788  1.00  0.00     0.022 A 
ATOM     13  C   UNL     1      29.096 -10.623 -22.347  1.00  0.00     0.047 A 
ATOM     14  C   UNL     1      28.097  -9.800 -22.881  1.00  0.00     0.115 A 
ATOM     15  C   UNL     1      27.356 -11.625 -24.295  1.00  0.00     0.022 A 
ATOM     16  C   UNL     1      27.227 -10.306 -23.851  1.00  0.00     0.047 A 
BRANCH  14  17
ATOM     17  O   UNL     1      27.956  -8.483 -22.450  1.00  0.00    -0.508 OA
ATOM     18  H   UNL     1      28.358  -8.165 -21.575  1.00  0.00     0.293 HD
ENDBRANCH  14  17
ENDBRANCH   1  11
BRANCH  10  19
ATOM     19  O   UNL     1      27.877 -13.345 -26.508  1.00  0.00    -0.500 OA
ATOM     20  H   UNL     1      27.473 -13.634 -27.391  1.00  0.00     0.294 HD
ENDBRANCH  10  19
BRANCH   5  21
ATOM     21  O   UNL     1      30.125 -19.115 -21.832  1.00  0.00    -0.507 OA
ATOM     22  H   UNL     1      31.062 -19.047 -21.452  1.00  0.00     0.293 HD
ENDBRANCH   5  21
BRANCH   7  23
ATOM     23  O   UNL     1      28.732 -18.506 -26.402  1.00  0.00    -0.507 OA
ATOM     24  H   UNL     1      28.785 -18.013 -27.281  1.00  0.00     0.293 HD
ENDBRANCH   7  23
TORSDOF 5
ENDMDL
MODEL 2
REMARK VINA RESULT:    24.822     11.262     12.867
REMARK INTER + INTRA:          29.332
REMARK INTER:                  29.620
REMARK INTRA:                  -0.289
REMARK UNBOUND:                 0.156
REMARK SMILES Oc1ccc(-c2[o+]c3cc(O)cc(O)c3cc2O)cc1
REMARK SMILES IDX 6 1 7 2 8 3 9 4 10 5 12 6 13 7 15 8 16 9 17 10 5 11 4 12
REMARK SMILES IDX 3 13 2 14 19 15 20 16 1 17 18 19 11 21 14 23
REMARK H PARENT 1 18 18 20 11 22 14 24
REMARK Flexibility Score: inf
ROOT
ATOM      1  C   UNL     1      20.022 -12.537 -15.426  1.00  0.00     0.401 A 
ATOM      2  O   UNL     1      20.085 -12.643 -16.751  1.00  0.00    -0.202 OA
ATOM      3  C   UNL     1      21.181 -12.378 -17.454  1.00  0.00     0.368 A 
ATOM      4  C   UNL     1      21.148 -12.517 -18.844  1.00  0.00     0.162 A 
ATOM      5  C   UNL     1      22.283 -12.242 -19.607  1.00  0.00     0.128 A 
ATOM      6  C   UNL     1      23.462 -11.827 -18.978  1.00  0.00     0.093 A 
ATOM      7  C   UNL     1      23.521 -11.680 -17.587  1.00  0.00     0.136 A 
ATOM      8  C   UNL     1      22.370 -11.961 -16.806  1.00  0.00     0.125 A 
ATOM      9  C   UNL     1      22.340 -11.855 -15.406  1.00  0.00     0.078 A 
ATOM     10  C   UNL     1      21.168 -12.153 -14.704  1.00  0.00     0.223 A 
ENDROOT
BRANCH   1  11
ATOM     11  C   UNL     1      18.738 -12.851 -14.758  1.00  0.00     0.084 A 
ATOM     12  C   UNL     1      17.910 -11.802 -14.327  1.00  0.00     0.022 A 
ATOM     13  C   UNL     1      16.703 -12.075 -13.674  1.00  0.00     0.047 A 
ATOM     14  C   UNL     1      16.317 -13.400 -13.434  1.00  0.00     0.115 A 
ATOM     15  C   UNL     1      18.353 -14.179 -14.495  1.00  0.00     0.022 A 
ATOM     16  C   UNL     1      17.147 -14.448 -13.842  1.00  0.00     0.047 A 
BRANCH  14  17
ATOM     17  O   UNL     1      15.117 -13.683 -12.786  1.00  0.00    -0.508 OA
ATOM     18  H   UNL     1      14.571 -14.504 -13.018  1.00  0.00     0.293 HD
ENDBRANCH  14  17
ENDBRANCH   1  11
BRANCH  10  19
ATOM     19  O   UNL     1      21.154 -12.097 -13.311  1.00  0.00    -0.500 OA
ATOM     20  H   UNL     1      20.303 -11.905 -12.794  1.00  0.00     0.294 HD
ENDBRANCH  10  19
BRANCH   5  21
ATOM     21  O   UNL     1      22.230 -12.386 -20.991  1.00  0.00    -0.507 OA
ATOM     22  H   UNL     1      21.396 -12.723 -21.457  1.00  0.00     0.293 HD
ENDBRANCH   5  21
BRANCH   7  23
ATOM     23  O   UNL     1      24.734 -11.258 -17.034  1.00  0.00    -0.507 OA
ATOM     24  H   UNL     1      25.497 -11.873 -16.794  1.00  0.00     0.293 HD
ENDBRANCH   7  23
TORSDOF 5
ENDMDL
