MODEL 1
REMARK VINA RESULT:    -6.143      0.000      0.000
REMARK INTER + INTRA:          -7.139
REMARK INTER:                  -7.580
REMARK INTRA:                   0.441
REMARK UNBOUND:                 0.441
REMARK SMILES O=c1c(O)c(-c2cc(O)c(O)c(O)c2)oc2cc(O)cc(O)c12
REMARK SMILES IDX 5 1 3 2 2 3 1 4 23 5 21 6 20 7 18 8 17 9 16 10 15 11 6 12
REMARK SMILES IDX 7 13 8 14 14 15 10 16 12 17 9 18 11 20 13 22 4 24 22 26
REMARK SMILES IDX 19 28
REMARK H PARENT 9 19 11 21 13 23 4 25 22 27 19 29
REMARK Flexibility Score: inf
ROOT
ATOM      1  C   UNL     1       9.204  -2.823  19.346  1.00  0.00     0.180 A 
ATOM      2  C   UNL     1       7.946  -2.251  19.087  1.00  0.00     0.208 A 
ATOM      3  C   UNL     1       7.860  -0.868  18.864  1.00  0.00     0.238 A 
ATOM      4  O   UNL     1       6.725  -0.354  18.686  1.00  0.00    -0.285 OA
ATOM      5  C   UNL     1       9.034  -0.076  18.886  1.00  0.00     0.111 A 
ATOM      6  C   UNL     1       9.068   1.329  18.633  1.00  0.00     0.134 A 
ATOM      7  C   UNL     1      10.266   2.032  18.810  1.00  0.00     0.093 A 
ATOM      8  C   UNL     1      11.443   1.372  19.167  1.00  0.00     0.123 A 
ATOM      9  C   UNL     1      11.433  -0.008  19.358  1.00  0.00     0.094 A 
ATOM     10  C   UNL     1      10.245  -0.732  19.225  1.00  0.00     0.146 A 
ATOM     11  O   UNL     1      10.277  -2.044  19.426  1.00  0.00    -0.452 OA
ENDROOT
BRANCH   1  12
ATOM     12  C   UNL     1       9.379  -4.277  19.567  1.00  0.00     0.029 A 
ATOM     13  C   UNL     1      10.667  -4.798  19.748  1.00  0.00     0.062 A 
ATOM     14  C   UNL     1      10.870  -6.170  19.939  1.00  0.00     0.162 A 
ATOM     15  C   UNL     1       8.284  -5.155  19.542  1.00  0.00     0.062 A 
ATOM     16  C   UNL     1       9.760  -7.047  19.935  1.00  0.00     0.200 A 
ATOM     17  C   UNL     1       8.472  -6.530  19.731  1.00  0.00     0.162 A 
BRANCH  14  18
ATOM     18  O   UNL     1      12.181  -6.614  20.124  1.00  0.00    -0.504 OA
ATOM     19  H   UNL     1      12.436  -7.402  20.700  1.00  0.00     0.293 HD
ENDBRANCH  14  18
BRANCH  16  20
ATOM     20  O   UNL     1       9.891  -8.425  20.125  1.00  0.00    -0.502 OA
ATOM     21  H   UNL     1       9.499  -9.122  19.508  1.00  0.00     0.293 HD
ENDBRANCH  16  20
BRANCH  17  22
ATOM     22  O   UNL     1       7.379  -7.396  19.711  1.00  0.00    -0.504 OA
ATOM     23  H   UNL     1       6.427  -7.049  19.711  1.00  0.00     0.293 HD
ENDBRANCH  17  22
ENDBRANCH   1  12
BRANCH   2  24
ATOM     24  O   UNL     1       6.798  -3.048  19.091  1.00  0.00    -0.502 OA
ATOM     25  H   UNL     1       6.111  -3.007  19.834  1.00  0.00     0.293 HD
ENDBRANCH   2  24
BRANCH   6  26
ATOM     26  O   UNL     1       7.971   2.067  18.183  1.00  0.00    -0.507 OA
ATOM     27  H   UNL     1       7.432   1.852  17.358  1.00  0.00     0.293 HD
ENDBRANCH   6  26
BRANCH   8  28
ATOM     28  O   UNL     1      12.634   2.078  19.327  1.00  0.00    -0.508 OA
ATOM     29  H   UNL     1      12.767   2.993  18.913  1.00  0.00     0.293 HD
ENDBRANCH   8  28
TORSDOF 7
ENDMDL
MODEL 2
REMARK VINA RESULT:    -6.050      1.249      7.277
REMARK INTER + INTRA:          -7.024
REMARK INTER:                  -7.371
REMARK INTRA:                   0.348
REMARK UNBOUND:                 0.441
REMARK SMILES O=c1c(O)c(-c2cc(O)c(O)c(O)c2)oc2cc(O)cc(O)c12
REMARK SMILES IDX 5 1 3 2 2 3 1 4 23 5 21 6 20 7 18 8 17 9 16 10 15 11 6 12
REMARK SMILES IDX 7 13 8 14 14 15 10 16 12 17 9 18 11 20 13 22 4 24 22 26
REMARK SMILES IDX 19 28
REMARK H PARENT 9 19 11 21 13 23 4 25 22 27 19 29
REMARK Flexibility Score: inf
ROOT
ATOM      1  C   UNL     1       9.818  -2.146  19.379  1.00  0.00     0.180 A 
ATOM      2  C   UNL     1      11.141  -2.550  19.629  1.00  0.00     0.208 A 
ATOM      3  C   UNL     1      11.407  -3.911  19.847  1.00  0.00     0.238 A 
ATOM      4  O   UNL     1      12.584  -4.260  20.124  1.00  0.00    -0.285 OA
ATOM      5  C   UNL     1      10.351  -4.854  19.796  1.00  0.00     0.111 A 
ATOM      6  C   UNL     1      10.513  -6.262  19.961  1.00  0.00     0.134 A 
ATOM      7  C   UNL     1       9.381  -7.084  20.019  1.00  0.00     0.093 A 
ATOM      8  C   UNL     1       8.098  -6.557  19.854  1.00  0.00     0.123 A 
ATOM      9  C   UNL     1       7.934  -5.192  19.633  1.00  0.00     0.094 A 
ATOM     10  C   UNL     1       9.042  -4.341  19.605  1.00  0.00     0.146 A 
ATOM     11  O   UNL     1       8.840  -3.044  19.402  1.00  0.00    -0.452 OA
ENDROOT
BRANCH   1  12
ATOM     12  C   UNL     1       9.462  -0.733  19.116  1.00  0.00     0.029 A 
ATOM     13  C   UNL     1      10.261   0.290  19.645  1.00  0.00     0.062 A 
ATOM     14  C   UNL     1       9.942   1.637  19.433  1.00  0.00     0.162 A 
ATOM     15  C   UNL     1       8.307  -0.394  18.395  1.00  0.00     0.062 A 
ATOM     16  C   UNL     1       8.788   1.972  18.685  1.00  0.00     0.200 A 
ATOM     17  C   UNL     1       7.975   0.950  18.176  1.00  0.00     0.162 A 
BRANCH  14  18
ATOM     18  O   UNL     1      10.792   2.601  19.980  1.00  0.00    -0.504 OA
ATOM     19  H   UNL     1      11.743   2.752  19.680  1.00  0.00     0.293 HD
ENDBRANCH  14  18
BRANCH  16  20
ATOM     20  O   UNL     1       8.416   3.294  18.432  1.00  0.00    -0.502 OA
ATOM     21  H   UNL     1       7.900   3.872  19.080  1.00  0.00     0.293 HD
ENDBRANCH  16  20
BRANCH  17  22
ATOM     22  O   UNL     1       6.829   1.279  17.453  1.00  0.00    -0.504 OA
ATOM     23  H   UNL     1       6.880   1.806  16.589  1.00  0.00     0.293 HD
ENDBRANCH  17  22
ENDBRANCH   1  12
BRANCH   2  24
ATOM     24  O   UNL     1      12.165  -1.601  19.698  1.00  0.00    -0.502 OA
ATOM     25  H   UNL     1      12.975  -1.631  19.091  1.00  0.00     0.293 HD
ENDBRANCH   2  24
BRANCH   6  26
ATOM     26  O   UNL     1      11.753  -6.900  20.042  1.00  0.00    -0.507 OA
ATOM     27  H   UNL     1      12.137  -7.505  19.332  1.00  0.00     0.293 HD
ENDBRANCH   6  26
BRANCH   8  28
ATOM     28  O   UNL     1       6.978  -7.385  19.899  1.00  0.00    -0.508 OA
ATOM     29  H   UNL     1       6.785  -7.972  20.702  1.00  0.00     0.293 HD
ENDBRANCH   8  28
TORSDOF 7
ENDMDL
MODEL 3
REMARK VINA RESULT:    -5.963      1.921      4.110
REMARK INTER + INTRA:          -6.917
REMARK INTER:                  -7.341
REMARK INTRA:                   0.424
REMARK UNBOUND:                 0.441
REMARK SMILES O=c1c(O)c(-c2cc(O)c(O)c(O)c2)oc2cc(O)cc(O)c12
REMARK SMILES IDX 5 1 3 2 2 3 1 4 23 5 21 6 20 7 18 8 17 9 16 10 15 11 6 12
REMARK SMILES IDX 7 13 8 14 14 15 10 16 12 17 9 18 11 20 13 22 4 24 22 26
REMARK SMILES IDX 19 28
REMARK H PARENT 9 19 11 21 13 23 4 25 22 27 19 29
REMARK Flexibility Score: inf
ROOT
ATOM      1  C   UNL     1      10.942  -3.813  19.764  1.00  0.00     0.180 A 
ATOM      2  C   UNL     1      12.288  -4.195  19.900  1.00  0.00     0.208 A 
ATOM      3  C   UNL     1      13.282  -3.205  19.880  1.00  0.00     0.238 A 
ATOM      4  O   UNL     1      14.488  -3.558  19.949  1.00  0.00    -0.285 OA
ATOM      5  C   UNL     1      12.919  -1.843  19.741  1.00  0.00     0.111 A 
ATOM      6  C   UNL     1      13.841  -0.754  19.749  1.00  0.00     0.134 A 
ATOM      7  C   UNL     1      13.382   0.540  19.474  1.00  0.00     0.093 A 
ATOM      8  C   UNL     1      12.026   0.793  19.255  1.00  0.00     0.123 A 
ATOM      9  C   UNL     1      11.111  -0.256  19.304  1.00  0.00     0.094 A 
ATOM     10  C   UNL     1      11.543  -1.563  19.541  1.00  0.00     0.146 A 
ATOM     11  O   UNL     1      10.638  -2.535  19.569  1.00  0.00    -0.452 OA
ENDROOT
BRANCH   1  12
ATOM     12  C   UNL     1       9.835  -4.796  19.799  1.00  0.00     0.029 A 
ATOM     13  C   UNL     1       8.515  -4.346  19.940  1.00  0.00     0.062 A 
ATOM     14  C   UNL     1       7.448  -5.249  19.997  1.00  0.00     0.162 A 
ATOM     15  C   UNL     1      10.085  -6.177  19.753  1.00  0.00     0.062 A 
ATOM     16  C   UNL     1       7.704  -6.639  19.927  1.00  0.00     0.200 A 
ATOM     17  C   UNL     1       9.026  -7.092  19.811  1.00  0.00     0.162 A 
BRANCH  14  18
ATOM     18  O   UNL     1       6.159  -4.726  20.125  1.00  0.00    -0.504 OA
ATOM     19  H   UNL     1       5.350  -5.270  20.385  1.00  0.00     0.293 HD
ENDBRANCH  14  18
BRANCH  16  20
ATOM     20  O   UNL     1       6.686  -7.594  19.973  1.00  0.00    -0.502 OA
ATOM     21  H   UNL     1       6.828  -8.582  19.823  1.00  0.00     0.293 HD
ENDBRANCH  16  20
BRANCH  17  22
ATOM     22  O   UNL     1       9.281  -8.462  19.758  1.00  0.00    -0.504 OA
ATOM     23  H   UNL     1      10.208  -8.836  19.924  1.00  0.00     0.293 HD
ENDBRANCH  17  22
ENDBRANCH   1  12
BRANCH   2  24
ATOM     24  O   UNL     1      12.626  -5.547  20.015  1.00  0.00    -0.502 OA
ATOM     25  H   UNL     1      13.331  -5.878  20.662  1.00  0.00     0.293 HD
ENDBRANCH   2  24
BRANCH   6  26
ATOM     26  O   UNL     1      15.200  -0.884  20.048  1.00  0.00    -0.507 OA
ATOM     27  H   UNL     1      15.715  -0.271  20.662  1.00  0.00     0.293 HD
ENDBRANCH   6  26
BRANCH   8  28
ATOM     28  O   UNL     1      11.576   2.086  18.996  1.00  0.00    -0.508 OA
ATOM     29  H   UNL     1      11.932   2.624  18.214  1.00  0.00     0.293 HD
ENDBRANCH   8  28
TORSDOF 7
ENDMDL
MODEL 4
REMARK VINA RESULT:    -5.910      1.263      2.765
REMARK INTER + INTRA:          -6.850
REMARK INTER:                  -7.285
REMARK INTRA:                   0.434
REMARK UNBOUND:                 0.441
REMARK SMILES O=c1c(O)c(-c2cc(O)c(O)c(O)c2)oc2cc(O)cc(O)c12
REMARK SMILES IDX 5 1 3 2 2 3 1 4 23 5 21 6 20 7 18 8 17 9 16 10 15 11 6 12
REMARK SMILES IDX 7 13 8 14 14 15 10 16 12 17 9 18 11 20 13 22 4 24 22 26
REMARK SMILES IDX 19 28
REMARK H PARENT 9 19 11 21 13 23 4 25 22 27 19 29
REMARK Flexibility Score: inf
ROOT
ATOM      1  C   UNL     1       9.775  -2.952  19.151  1.00  0.00     0.180 A 
ATOM      2  C   UNL     1      10.954  -2.283  18.781  1.00  0.00     0.208 A 
ATOM      3  C   UNL     1      10.910  -0.897  18.563  1.00  0.00     0.238 A 
ATOM      4  O   UNL     1      11.957  -0.312  18.179  1.00  0.00    -0.285 OA
ATOM      5  C   UNL     1       9.693  -0.195  18.733  1.00  0.00     0.111 A 
ATOM      6  C   UNL     1       9.543   1.216  18.578  1.00  0.00     0.134 A 
ATOM      7  C   UNL     1       8.265   1.785  18.644  1.00  0.00     0.093 A 
ATOM      8  C   UNL     1       7.142   1.004  18.923  1.00  0.00     0.123 A 
ATOM      9  C   UNL     1       7.286  -0.365  19.135  1.00  0.00     0.094 A 
ATOM     10  C   UNL     1       8.543  -0.967  19.040  1.00  0.00     0.146 A 
ATOM     11  O   UNL     1       8.635  -2.277  19.239  1.00  0.00    -0.452 OA
ENDROOT
BRANCH   1  12
ATOM     12  C   UNL     1       9.747  -4.408  19.423  1.00  0.00     0.029 A 
ATOM     13  C   UNL     1      10.949  -5.092  19.651  1.00  0.00     0.062 A 
ATOM     14  C   UNL     1      10.961  -6.471  19.891  1.00  0.00     0.162 A 
ATOM     15  C   UNL     1       8.544  -5.132  19.399  1.00  0.00     0.062 A 
ATOM     16  C   UNL     1       9.742  -7.190  19.888  1.00  0.00     0.200 A 
ATOM     17  C   UNL     1       8.540  -6.512  19.636  1.00  0.00     0.162 A 
BRANCH  14  18
ATOM     18  O   UNL     1      12.195  -7.081  20.123  1.00  0.00    -0.504 OA
ATOM     19  H   UNL     1      12.858  -6.771  20.817  1.00  0.00     0.293 HD
ENDBRANCH  14  18
BRANCH  16  20
ATOM     20  O   UNL     1       9.682  -8.565  20.125  1.00  0.00    -0.502 OA
ATOM     21  H   UNL     1      10.032  -9.266  19.488  1.00  0.00     0.293 HD
ENDBRANCH  16  20
BRANCH  17  22
ATOM     22  O   UNL     1       7.341  -7.223  19.617  1.00  0.00    -0.504 OA
ATOM     23  H   UNL     1       7.297  -8.197  19.891  1.00  0.00     0.293 HD
ENDBRANCH  17  22
ENDBRANCH   1  12
BRANCH   2  24
ATOM     24  O   UNL     1      12.140  -3.000  18.598  1.00  0.00    -0.502 OA
ATOM     25  H   UNL     1      12.152  -3.956  18.266  1.00  0.00     0.293 HD
ENDBRANCH   2  24
BRANCH   6  26
ATOM     26  O   UNL     1      10.610   2.098  18.388  1.00  0.00    -0.507 OA
ATOM     27  H   UNL     1      10.985   2.362  17.490  1.00  0.00     0.293 HD
ENDBRANCH   6  26
BRANCH   8  28
ATOM     28  O   UNL     1       5.876   1.581  19.001  1.00  0.00    -0.508 OA
ATOM     29  H   UNL     1       5.456   1.819  19.892  1.00  0.00     0.293 HD
ENDBRANCH   8  28
TORSDOF 7
ENDMDL
MODEL 5
REMARK VINA RESULT:    -5.813      1.194      7.472
REMARK INTER + INTRA:          -6.731
REMARK INTER:                  -7.109
REMARK INTRA:                   0.377
REMARK UNBOUND:                 0.441
REMARK SMILES O=c1c(O)c(-c2cc(O)c(O)c(O)c2)oc2cc(O)cc(O)c12
REMARK SMILES IDX 5 1 3 2 2 3 1 4 23 5 21 6 20 7 18 8 17 9 16 10 15 11 6 12
REMARK SMILES IDX 7 13 8 14 14 15 10 16 12 17 9 18 11 20 13 22 4 24 22 26
REMARK SMILES IDX 19 28
REMARK H PARENT 9 19 11 21 13 23 4 25 22 27 19 29
REMARK Flexibility Score: inf
ROOT
ATOM      1  C   UNL     1       9.807  -2.268  19.435  1.00  0.00     0.180 A 
ATOM      2  C   UNL     1      11.119  -2.722  19.654  1.00  0.00     0.208 A 
ATOM      3  C   UNL     1      11.337  -4.091  19.875  1.00  0.00     0.238 A 
ATOM      4  O   UNL     1      12.507  -4.485  20.124  1.00  0.00    -0.285 OA
ATOM      5  C   UNL     1      10.244  -4.992  19.858  1.00  0.00     0.111 A 
ATOM      6  C   UNL     1      10.355  -6.404  20.029  1.00  0.00     0.134 A 
ATOM      7  C   UNL     1       9.194  -7.181  20.123  1.00  0.00     0.093 A 
ATOM      8  C   UNL     1       7.928  -6.605  19.988  1.00  0.00     0.123 A 
ATOM      9  C   UNL     1       7.812  -5.235  19.761  1.00  0.00     0.094 A 
ATOM     10  C   UNL     1       8.951  -4.429  19.698  1.00  0.00     0.146 A 
ATOM     11  O   UNL     1       8.796  -3.127  19.491  1.00  0.00    -0.452 OA
ENDROOT
BRANCH   1  12
ATOM     12  C   UNL     1       9.500  -0.843  19.171  1.00  0.00     0.029 A 
ATOM     13  C   UNL     1       8.169  -0.405  19.208  1.00  0.00     0.062 A 
ATOM     14  C   UNL     1       7.842   0.930  18.943  1.00  0.00     0.162 A 
ATOM     15  C   UNL     1      10.510   0.069  18.826  1.00  0.00     0.062 A 
ATOM     16  C   UNL     1       8.867   1.849  18.618  1.00  0.00     0.200 A 
ATOM     17  C   UNL     1      10.197   1.407  18.557  1.00  0.00     0.162 A 
BRANCH  14  18
ATOM     18  O   UNL     1       6.495   1.295  19.011  1.00  0.00    -0.504 OA
ATOM     19  H   UNL     1       6.078   1.772  19.795  1.00  0.00     0.293 HD
ENDBRANCH  14  18
BRANCH  16  20
ATOM     20  O   UNL     1       8.611   3.195  18.349  1.00  0.00    -0.502 OA
ATOM     21  H   UNL     1       9.300   3.844  17.997  1.00  0.00     0.293 HD
ENDBRANCH  16  20
BRANCH  17  22
ATOM     22  O   UNL     1      11.206   2.309  18.223  1.00  0.00    -0.504 OA
ATOM     23  H   UNL     1      10.998   3.206  17.799  1.00  0.00     0.293 HD
ENDBRANCH  17  22
ENDBRANCH   1  12
BRANCH   2  24
ATOM     24  O   UNL     1      12.181  -1.814  19.688  1.00  0.00    -0.502 OA
ATOM     25  H   UNL     1      12.241  -1.074  20.377  1.00  0.00     0.293 HD
ENDBRANCH   2  24
BRANCH   6  26
ATOM     26  O   UNL     1      11.571  -7.091  20.083  1.00  0.00    -0.507 OA
ATOM     27  H   UNL     1      12.382  -6.784  20.598  1.00  0.00     0.293 HD
ENDBRANCH   6  26
BRANCH   8  28
ATOM     28  O   UNL     1       6.778  -7.387  20.068  1.00  0.00    -0.508 OA
ATOM     29  H   UNL     1       6.727  -8.192  20.681  1.00  0.00     0.293 HD
ENDBRANCH   8  28
TORSDOF 7
ENDMDL
MODEL 6
REMARK VINA RESULT:    -5.805      3.244      5.965
REMARK INTER + INTRA:          -6.721
REMARK INTER:                  -6.459
REMARK INTRA:                  -0.262
REMARK UNBOUND:                 0.441
REMARK SMILES O=c1c(O)c(-c2cc(O)c(O)c(O)c2)oc2cc(O)cc(O)c12
REMARK SMILES IDX 5 1 3 2 2 3 1 4 23 5 21 6 20 7 18 8 17 9 16 10 15 11 6 12
REMARK SMILES IDX 7 13 8 14 14 15 10 16 12 17 9 18 11 20 13 22 4 24 22 26
REMARK SMILES IDX 19 28
REMARK H PARENT 9 19 11 21 13 23 4 25 22 27 19 29
REMARK Flexibility Score: inf
ROOT
ATOM      1  C   UNL     1      11.504  -2.332  18.307  1.00  0.00     0.180 A 
ATOM      2  C   UNL     1      12.055  -1.078  18.623  1.00  0.00     0.208 A 
ATOM      3  C   UNL     1      13.352  -1.019  19.157  1.00  0.00     0.238 A 
ATOM      4  O   UNL     1      13.819   0.101  19.489  1.00  0.00    -0.285 OA
ATOM      5  C   UNL     1      14.089  -2.213  19.353  1.00  0.00     0.111 A 
ATOM      6  C   UNL     1      15.426  -2.267  19.850  1.00  0.00     0.134 A 
ATOM      7  C   UNL     1      16.009  -3.510  20.125  1.00  0.00     0.093 A 
ATOM      8  C   UNL     1      15.328  -4.700  19.862  1.00  0.00     0.123 A 
ATOM      9  C   UNL     1      14.045  -4.658  19.321  1.00  0.00     0.094 A 
ATOM     10  C   UNL     1      13.422  -3.433  19.069  1.00  0.00     0.146 A 
ATOM     11  O   UNL     1      12.194  -3.437  18.564  1.00  0.00    -0.452 OA
ENDROOT
BRANCH   1  12
ATOM     12  C   UNL     1      10.153  -2.473  17.718  1.00  0.00     0.029 A 
ATOM     13  C   UNL     1       9.930  -2.068  16.395  1.00  0.00     0.062 A 
ATOM     14  C   UNL     1       8.661  -2.169  15.813  1.00  0.00     0.162 A 
ATOM     15  C   UNL     1       9.073  -2.951  18.477  1.00  0.00     0.062 A 
ATOM     16  C   UNL     1       7.581  -2.673  16.577  1.00  0.00     0.200 A 
ATOM     17  C   UNL     1       7.797  -3.056  17.908  1.00  0.00     0.162 A 
BRANCH  14  18
ATOM     18  O   UNL     1       8.519  -1.757  14.486  1.00  0.00    -0.504 OA
ATOM     19  H   UNL     1       7.833  -2.132  13.848  1.00  0.00     0.293 HD
ENDBRANCH  14  18
BRANCH  16  20
ATOM     20  O   UNL     1       6.292  -2.805  16.057  1.00  0.00    -0.502 OA
ATOM     21  H   UNL     1       5.782  -3.677  16.019  1.00  0.00     0.293 HD
ENDBRANCH  16  20
BRANCH  17  22
ATOM     22  O   UNL     1       6.731  -3.539  18.666  1.00  0.00    -0.504 OA
ATOM     23  H   UNL     1       6.348  -3.011  19.442  1.00  0.00     0.293 HD
ENDBRANCH  17  22
ENDBRANCH   1  12
BRANCH   2  24
ATOM     24  O   UNL     1      11.303   0.086  18.442  1.00  0.00    -0.502 OA
ATOM     25  H   UNL     1      11.433   0.699  17.647  1.00  0.00     0.293 HD
ENDBRANCH   2  24
BRANCH   6  26
ATOM     26  O   UNL     1      16.227  -1.142  20.060  1.00  0.00    -0.507 OA
ATOM     27  H   UNL     1      16.523  -0.807  20.964  1.00  0.00     0.293 HD
ENDBRANCH   6  26
BRANCH   8  28
ATOM     28  O   UNL     1      15.921  -5.933  20.125  1.00  0.00    -0.508 OA
ATOM     29  H   UNL     1      15.562  -6.551  20.844  1.00  0.00     0.293 HD
ENDBRANCH   8  28
TORSDOF 7
ENDMDL
MODEL 7
REMARK VINA RESULT:    -5.405      1.342      6.660
REMARK INTER + INTRA:          -6.228
REMARK INTER:                  -6.614
REMARK INTRA:                   0.386
REMARK UNBOUND:                 0.441
REMARK SMILES O=c1c(O)c(-c2cc(O)c(O)c(O)c2)oc2cc(O)cc(O)c12
REMARK SMILES IDX 5 1 3 2 2 3 1 4 23 5 21 6 20 7 18 8 17 9 16 10 15 11 6 12
REMARK SMILES IDX 7 13 8 14 14 15 10 16 12 17 9 18 11 20 13 22 4 24 22 26
REMARK SMILES IDX 19 28
REMARK H PARENT 9 19 11 21 13 23 4 25 22 27 19 29
REMARK Flexibility Score: inf
ROOT
ATOM      1  C   UNL     1       9.779  -2.394  19.110  1.00  0.00     0.180 A 
ATOM      2  C   UNL     1       8.789  -3.391  19.083  1.00  0.00     0.208 A 
ATOM      3  C   UNL     1       9.157  -4.723  19.329  1.00  0.00     0.238 A 
ATOM      4  O   UNL     1       8.276  -5.618  19.251  1.00  0.00    -0.285 OA
ATOM      5  C   UNL     1      10.507  -5.040  19.616  1.00  0.00     0.111 A 
ATOM      6  C   UNL     1      10.985  -6.350  19.921  1.00  0.00     0.134 A 
ATOM      7  C   UNL     1      12.361  -6.567  20.061  1.00  0.00     0.093 A 
ATOM      8  C   UNL     1      13.270  -5.511  19.970  1.00  0.00     0.123 A 
ATOM      9  C   UNL     1      12.808  -4.219  19.732  1.00  0.00     0.094 A 
ATOM     10  C   UNL     1      11.444  -3.976  19.552  1.00  0.00     0.146 A 
ATOM     11  O   UNL     1      11.047  -2.731  19.317  1.00  0.00    -0.452 OA
ENDROOT
BRANCH   1  12
ATOM     12  C   UNL     1       9.465  -0.964  18.884  1.00  0.00     0.029 A 
ATOM     13  C   UNL     1      10.509  -0.048  18.699  1.00  0.00     0.062 A 
ATOM     14  C   UNL     1      10.249   1.313  18.503  1.00  0.00     0.162 A 
ATOM     15  C   UNL     1       8.142  -0.496  18.910  1.00  0.00     0.062 A 
ATOM     16  C   UNL     1       8.911   1.776  18.507  1.00  0.00     0.200 A 
ATOM     17  C   UNL     1       7.866   0.864  18.716  1.00  0.00     0.162 A 
BRANCH  14  18
ATOM     18  O   UNL     1      11.340   2.164  18.313  1.00  0.00    -0.504 OA
ATOM     19  H   UNL     1      11.262   3.156  18.149  1.00  0.00     0.293 HD
ENDBRANCH  14  18
BRANCH  16  20
ATOM     20  O   UNL     1       8.581   3.119  18.313  1.00  0.00    -0.502 OA
ATOM     21  H   UNL     1       7.682   3.439  17.981  1.00  0.00     0.293 HD
ENDBRANCH  16  20
BRANCH  17  22
ATOM     22  O   UNL     1       6.549   1.321  18.736  1.00  0.00    -0.504 OA
ATOM     23  H   UNL     1       6.270   2.113  19.304  1.00  0.00     0.293 HD
ENDBRANCH  17  22
ENDBRANCH   1  12
BRANCH   2  24
ATOM     24  O   UNL     1       7.466  -3.059  18.776  1.00  0.00    -0.502 OA
ATOM     25  H   UNL     1       7.014  -3.362  17.922  1.00  0.00     0.293 HD
ENDBRANCH   2  24
BRANCH   6  26
ATOM     26  O   UNL     1      10.155  -7.456  20.124  1.00  0.00    -0.507 OA
ATOM     27  H   UNL     1      10.175  -8.299  19.572  1.00  0.00     0.293 HD
ENDBRANCH   6  26
BRANCH   8  28
ATOM     28  O   UNL     1      14.637  -5.733  20.125  1.00  0.00    -0.508 OA
ATOM     29  H   UNL     1      15.032  -6.665  20.069  1.00  0.00     0.293 HD
ENDBRANCH   8  28
TORSDOF 7
ENDMDL
MODEL 8
REMARK VINA RESULT:    -5.237      3.936      7.582
REMARK INTER + INTRA:          -6.020
REMARK INTER:                  -6.317
REMARK INTRA:                   0.297
REMARK UNBOUND:                 0.441
REMARK SMILES O=c1c(O)c(-c2cc(O)c(O)c(O)c2)oc2cc(O)cc(O)c12
REMARK SMILES IDX 5 1 3 2 2 3 1 4 23 5 21 6 20 7 18 8 17 9 16 10 15 11 6 12
REMARK SMILES IDX 7 13 8 14 14 15 10 16 12 17 9 18 11 20 13 22 4 24 22 26
REMARK SMILES IDX 19 28
REMARK H PARENT 9 19 11 21 13 23 4 25 22 27 19 29
REMARK Flexibility Score: inf
ROOT
ATOM      1  C   UNL     1      13.354  -1.409  19.237  1.00  0.00     0.180 A 
ATOM      2  C   UNL     1      13.005  -2.770  19.229  1.00  0.00     0.208 A 
ATOM      3  C   UNL     1      14.008  -3.731  19.431  1.00  0.00     0.238 A 
ATOM      4  O   UNL     1      13.699  -4.950  19.370  1.00  0.00    -0.285 OA
ATOM      5  C   UNL     1      15.344  -3.319  19.655  1.00  0.00     0.111 A 
ATOM      6  C   UNL     1      16.433  -4.206  19.911  1.00  0.00     0.134 A 
ATOM      7  C   UNL     1      17.734  -3.695  19.989  1.00  0.00     0.093 A 
ATOM      8  C   UNL     1      17.978  -2.324  19.884  1.00  0.00     0.123 A 
ATOM      9  C   UNL     1      16.915  -1.445  19.693  1.00  0.00     0.094 A 
ATOM     10  C   UNL     1      15.609  -1.928  19.576  1.00  0.00     0.146 A 
ATOM     11  O   UNL     1      14.625  -1.056  19.383  1.00  0.00    -0.452 OA
ENDROOT
BRANCH   1  12
ATOM     12  C   UNL     1      12.348  -0.336  19.055  1.00  0.00     0.029 A 
ATOM     13  C   UNL     1      12.559   0.915  19.650  1.00  0.00     0.062 A 
ATOM     14  C   UNL     1      11.620   1.945  19.515  1.00  0.00     0.162 A 
ATOM     15  C   UNL     1      11.158  -0.565  18.347  1.00  0.00     0.062 A 
ATOM     16  C   UNL     1      10.432   1.715  18.781  1.00  0.00     0.200 A 
ATOM     17  C   UNL     1      10.209   0.456  18.206  1.00  0.00     0.162 A 
BRANCH  14  18
ATOM     18  O   UNL     1      11.904   3.169  20.125  1.00  0.00    -0.504 OA
ATOM     19  H   UNL     1      11.278   3.960  20.126  1.00  0.00     0.293 HD
ENDBRANCH  14  18
BRANCH  16  20
ATOM     20  O   UNL     1       9.457   2.699  18.603  1.00  0.00    -0.502 OA
ATOM     21  H   UNL     1       9.069   3.255  19.353  1.00  0.00     0.293 HD
ENDBRANCH  16  20
BRANCH  17  22
ATOM     22  O   UNL     1       9.032   0.224  17.495  1.00  0.00    -0.504 OA
ATOM     23  H   UNL     1       9.012  -0.384  16.684  1.00  0.00     0.293 HD
ENDBRANCH  17  22
ENDBRANCH   1  12
BRANCH   2  24
ATOM     24  O   UNL     1      11.684  -3.155  18.985  1.00  0.00    -0.502 OA
ATOM     25  H   UNL     1      10.961  -2.492  18.732  1.00  0.00     0.293 HD
ENDBRANCH   2  24
BRANCH   6  26
ATOM     26  O   UNL     1      16.288  -5.579  20.124  1.00  0.00    -0.507 OA
ATOM     27  H   UNL     1      15.426  -6.090  20.012  1.00  0.00     0.293 HD
ENDBRANCH   6  26
BRANCH   8  28
ATOM     28  O   UNL     1      19.275  -1.822  19.977  1.00  0.00    -0.508 OA
ATOM     29  H   UNL     1      19.496  -0.872  19.705  1.00  0.00     0.293 HD
ENDBRANCH   8  28
TORSDOF 7
ENDMDL
MODEL 9
REMARK VINA RESULT:    -4.951      2.527      4.367
REMARK INTER + INTRA:          -5.668
REMARK INTER:                  -6.092
REMARK INTRA:                   0.424
REMARK UNBOUND:                 0.441
REMARK SMILES O=c1c(O)c(-c2cc(O)c(O)c(O)c2)oc2cc(O)cc(O)c12
REMARK SMILES IDX 5 1 3 2 2 3 1 4 23 5 21 6 20 7 18 8 17 9 16 10 15 11 6 12
REMARK SMILES IDX 7 13 8 14 14 15 10 16 12 17 9 18 11 20 13 22 4 24 22 26
REMARK SMILES IDX 19 28
REMARK H PARENT 9 19 11 21 13 23 4 25 22 27 19 29
REMARK Flexibility Score: inf
ROOT
ATOM      1  C   UNL     1      11.186  -1.822  19.078  1.00  0.00     0.180 A 
ATOM      2  C   UNL     1      10.102  -2.696  18.885  1.00  0.00     0.208 A 
ATOM      3  C   UNL     1       8.833  -2.157  18.623  1.00  0.00     0.238 A 
ATOM      4  O   UNL     1       7.856  -2.941  18.504  1.00  0.00    -0.285 OA
ATOM      5  C   UNL     1       8.666  -0.753  18.540  1.00  0.00     0.111 A 
ATOM      6  C   UNL     1       7.432  -0.100  18.240  1.00  0.00     0.134 A 
ATOM      7  C   UNL     1       7.356   1.296  18.312  1.00  0.00     0.093 A 
ATOM      8  C   UNL     1       8.483   2.065  18.612  1.00  0.00     0.123 A 
ATOM      9  C   UNL     1       9.705   1.440  18.848  1.00  0.00     0.094 A 
ATOM     10  C   UNL     1       9.804   0.047  18.818  1.00  0.00     0.146 A 
ATOM     11  O   UNL     1      10.986  -0.510  19.060  1.00  0.00    -0.452 OA
ENDROOT
BRANCH   1  12
ATOM     12  C   UNL     1      12.560  -2.315  19.335  1.00  0.00     0.029 A 
ATOM     13  C   UNL     1      13.641  -1.429  19.237  1.00  0.00     0.062 A 
ATOM     14  C   UNL     1      14.953  -1.866  19.453  1.00  0.00     0.162 A 
ATOM     15  C   UNL     1      12.808  -3.668  19.617  1.00  0.00     0.062 A 
ATOM     16  C   UNL     1      15.195  -3.226  19.760  1.00  0.00     0.200 A 
ATOM     17  C   UNL     1      14.116  -4.119  19.834  1.00  0.00     0.162 A 
BRANCH  14  18
ATOM     18  O   UNL     1      15.978  -0.922  19.351  1.00  0.00    -0.504 OA
ATOM     19  H   UNL     1      16.275  -0.325  20.108  1.00  0.00     0.293 HD
ENDBRANCH  14  18
BRANCH  16  20
ATOM     20  O   UNL     1      16.478  -3.726  19.992  1.00  0.00    -0.502 OA
ATOM     21  H   UNL     1      16.977  -4.327  19.351  1.00  0.00     0.293 HD
ENDBRANCH  16  20
BRANCH  17  22
ATOM     22  O   UNL     1      14.355  -5.462  20.121  1.00  0.00    -0.504 OA
ATOM     23  H   UNL     1      14.954  -5.743  20.889  1.00  0.00     0.293 HD
ENDBRANCH  17  22
ENDBRANCH   1  12
BRANCH   2  24
ATOM     24  O   UNL     1      10.285  -4.077  18.992  1.00  0.00    -0.502 OA
ATOM     25  H   UNL     1       9.729  -4.741  18.467  1.00  0.00     0.293 HD
ENDBRANCH   2  24
BRANCH   6  26
ATOM     26  O   UNL     1       6.273  -0.769  17.839  1.00  0.00    -0.507 OA
ATOM     27  H   UNL     1       5.344  -0.378  17.870  1.00  0.00     0.293 HD
ENDBRANCH   6  26
BRANCH   8  28
ATOM     28  O   UNL     1       8.401   3.455  18.668  1.00  0.00    -0.508 OA
ATOM     29  H   UNL     1       9.216   4.026  18.859  1.00  0.00     0.293 HD
ENDBRANCH   8  28
TORSDOF 7
ENDMDL
