MODEL 1
REMARK VINA RESULT:    -5.871      0.000      0.000
REMARK INTER + INTRA:          -6.437
REMARK INTER:                  -6.386
REMARK INTRA:                  -0.051
REMARK UNBOUND:                -0.051
REMARK SMILES COc1cc2ccc(=O)oc2cc1O
REMARK SMILES IDX 3 1 13 2 12 3 11 4 5 5 4 6 6 7 7 8 8 9 9 10 10 11 2 12 1 13
REMARK SMILES IDX 14 14
REMARK H PARENT 14 15
REMARK Flexibility Score: inf
ROOT
ATOM      1  C   UNL     1     -38.741  -6.945 -13.827  1.00  0.00     0.161 A 
ATOM      2  C   UNL     1     -38.689  -7.739 -14.983  1.00  0.00     0.161 A 
ATOM      3  C   UNL     1     -37.625  -7.603 -15.888  1.00  0.00     0.098 A 
ATOM      4  C   UNL     1     -36.608  -6.678 -15.646  1.00  0.00     0.142 A 
ATOM      5  C   UNL     1     -36.652  -5.876 -14.487  1.00  0.00     0.022 A 
ATOM      6  C   UNL     1     -37.715  -6.011 -13.581  1.00  0.00     0.062 A 
ATOM      7  C   UNL     1     -35.619  -4.959 -14.271  1.00  0.00     0.019 A 
ATOM      8  C   UNL     1     -34.584  -4.862 -15.201  1.00  0.00     0.094 A 
ATOM      9  C   UNL     1     -34.606  -5.690 -16.328  1.00  0.00     0.336 A 
ATOM     10  O   UNL     1     -33.681  -5.619 -17.179  1.00  0.00    -0.246 OA
ATOM     11  O   UNL     1     -35.601  -6.555 -16.508  1.00  0.00    -0.423 OA
ENDROOT
BRANCH   1  12
ATOM     12  O   UNL     1     -39.823  -7.114 -12.950  1.00  0.00    -0.493 OA
ATOM     13  C   UNL     1     -40.508  -6.048 -12.300  1.00  0.00     0.278 C 
ENDBRANCH   1  12
BRANCH   2  14
ATOM     14  O   UNL     1     -39.703  -8.664 -15.227  1.00  0.00    -0.504 OA
ATOM     15  H   UNL     1     -39.862  -9.452 -14.610  1.00  0.00     0.293 HD
ENDBRANCH   2  14
TORSDOF 2
ENDMDL
MODEL 2
REMARK VINA RESULT:    -5.816      4.473      8.237
REMARK INTER + INTRA:          -6.377
REMARK INTER:                  -6.355
REMARK INTRA:                  -0.022
REMARK UNBOUND:                -0.051
REMARK SMILES COc1cc2ccc(=O)oc2cc1O
REMARK SMILES IDX 3 1 13 2 12 3 11 4 5 5 4 6 6 7 7 8 8 9 9 10 10 11 2 12 1 13
REMARK SMILES IDX 14 14
REMARK H PARENT 14 15
REMARK Flexibility Score: inf
ROOT
ATOM      1  C   UNL     1     -31.379  -2.164 -19.558  1.00  0.00     0.161 A 
ATOM      2  C   UNL     1     -32.650  -2.285 -20.139  1.00  0.00     0.161 A 
ATOM      3  C   UNL     1     -33.655  -3.025 -19.498  1.00  0.00     0.098 A 
ATOM      4  C   UNL     1     -33.399  -3.648 -18.275  1.00  0.00     0.142 A 
ATOM      5  C   UNL     1     -32.124  -3.531 -17.683  1.00  0.00     0.022 A 
ATOM      6  C   UNL     1     -31.119  -2.792 -18.323  1.00  0.00     0.062 A 
ATOM      7  C   UNL     1     -31.898  -4.165 -16.457  1.00  0.00     0.019 A 
ATOM      8  C   UNL     1     -32.931  -4.889 -15.860  1.00  0.00     0.094 A 
ATOM      9  C   UNL     1     -34.169  -4.961 -16.505  1.00  0.00     0.336 A 
ATOM     10  O   UNL     1     -35.113  -5.609 -15.983  1.00  0.00    -0.246 OA
ATOM     11  O   UNL     1     -34.357  -4.348 -17.671  1.00  0.00    -0.423 OA
ENDROOT
BRANCH   1  12
ATOM     12  O   UNL     1     -30.404  -1.415 -20.235  1.00  0.00    -0.493 OA
ATOM     13  C   UNL     1     -29.531  -1.940 -21.230  1.00  0.00     0.278 C 
ENDBRANCH   1  12
BRANCH   2  14
ATOM     14  O   UNL     1     -32.908  -1.665 -21.361  1.00  0.00    -0.504 OA
ATOM     15  H   UNL     1     -33.719  -1.071 -21.494  1.00  0.00     0.293 HD
ENDBRANCH   2  14
TORSDOF 2
ENDMDL
MODEL 3
REMARK VINA RESULT:    -5.798      2.008      5.168
REMARK INTER + INTRA:          -6.357
REMARK INTER:                  -6.292
REMARK INTRA:                  -0.065
REMARK UNBOUND:                -0.051
REMARK SMILES COc1cc2ccc(=O)oc2cc1O
REMARK SMILES IDX 3 1 13 2 12 3 11 4 5 5 4 6 6 7 7 8 8 9 9 10 10 11 2 12 1 13
REMARK SMILES IDX 14 14
REMARK H PARENT 14 15
REMARK Flexibility Score: inf
ROOT
ATOM      1  C   UNL     1     -35.989  -5.010 -14.100  1.00  0.00     0.161 A 
ATOM      2  C   UNL     1     -37.197  -4.301 -14.026  1.00  0.00     0.161 A 
ATOM      3  C   UNL     1     -38.410  -4.985 -13.853  1.00  0.00     0.098 A 
ATOM      4  C   UNL     1     -38.425  -6.378 -13.752  1.00  0.00     0.142 A 
ATOM      5  C   UNL     1     -37.215  -7.098 -13.824  1.00  0.00     0.022 A 
ATOM      6  C   UNL     1     -36.002  -6.416 -13.997  1.00  0.00     0.062 A 
ATOM      7  C   UNL     1     -37.262  -8.492 -13.719  1.00  0.00     0.019 A 
ATOM      8  C   UNL     1     -38.493  -9.125 -13.548  1.00  0.00     0.094 A 
ATOM      9  C   UNL     1     -39.652  -8.345 -13.485  1.00  0.00     0.336 A 
ATOM     10  O   UNL     1     -40.773  -8.897 -13.330  1.00  0.00    -0.246 OA
ATOM     11  O   UNL     1     -39.579  -7.021 -13.587  1.00  0.00    -0.423 OA
ENDROOT
BRANCH   1  12
ATOM     12  O   UNL     1     -34.799  -4.285 -14.273  1.00  0.00    -0.493 OA
ATOM     13  C   UNL     1     -34.039  -4.260 -15.478  1.00  0.00     0.278 C 
ENDBRANCH   1  12
BRANCH   2  14
ATOM     14  O   UNL     1     -37.185  -2.911 -14.127  1.00  0.00    -0.504 OA
ATOM     15  H   UNL     1     -36.716  -2.333 -13.439  1.00  0.00     0.293 HD
ENDBRANCH   2  14
TORSDOF 2
ENDMDL
MODEL 4
REMARK VINA RESULT:    -5.771      3.535      7.530
REMARK INTER + INTRA:          -6.328
REMARK INTER:                  -6.264
REMARK INTRA:                  -0.063
REMARK UNBOUND:                -0.051
REMARK SMILES COc1cc2ccc(=O)oc2cc1O
REMARK SMILES IDX 3 1 13 2 12 3 11 4 5 5 4 6 6 7 7 8 8 9 9 10 10 11 2 12 1 13
REMARK SMILES IDX 14 14
REMARK H PARENT 14 15
REMARK Flexibility Score: inf
ROOT
ATOM      1  C   UNL     1     -32.000  -2.804 -18.644  1.00  0.00     0.161 A 
ATOM      2  C   UNL     1     -31.423  -3.404 -17.515  1.00  0.00     0.161 A 
ATOM      3  C   UNL     1     -32.147  -4.344 -16.765  1.00  0.00     0.098 A 
ATOM      4  C   UNL     1     -33.447  -4.691 -17.136  1.00  0.00     0.142 A 
ATOM      5  C   UNL     1     -34.034  -4.094 -18.271  1.00  0.00     0.022 A 
ATOM      6  C   UNL     1     -33.312  -3.154 -19.021  1.00  0.00     0.062 A 
ATOM      7  C   UNL     1     -35.338  -4.462 -18.619  1.00  0.00     0.019 A 
ATOM      8  C   UNL     1     -36.015  -5.401 -17.841  1.00  0.00     0.094 A 
ATOM      9  C   UNL     1     -35.368  -5.952 -16.730  1.00  0.00     0.336 A 
ATOM     10  O   UNL     1     -35.962  -6.802 -16.015  1.00  0.00    -0.246 OA
ATOM     11  O   UNL     1     -34.128  -5.584 -16.422  1.00  0.00    -0.423 OA
ENDROOT
BRANCH   1  12
ATOM     12  O   UNL     1     -31.240  -1.869 -19.365  1.00  0.00    -0.493 OA
ATOM     13  C   UNL     1     -30.749  -2.076 -20.686  1.00  0.00     0.278 C 
ENDBRANCH   1  12
BRANCH   2  14
ATOM     14  O   UNL     1     -30.125  -3.059 -17.141  1.00  0.00    -0.504 OA
ATOM     15  H   UNL     1     -29.412  -3.763 -16.992  1.00  0.00     0.293 HD
ENDBRANCH   2  14
TORSDOF 2
ENDMDL
MODEL 5
REMARK VINA RESULT:    -5.671      1.430      5.382
REMARK INTER + INTRA:          -6.220
REMARK INTER:                  -6.158
REMARK INTRA:                  -0.062
REMARK UNBOUND:                -0.051
REMARK SMILES COc1cc2ccc(=O)oc2cc1O
REMARK SMILES IDX 3 1 13 2 12 3 11 4 5 5 4 6 6 7 7 8 8 9 9 10 10 11 2 12 1 13
REMARK SMILES IDX 14 14
REMARK H PARENT 14 15
REMARK Flexibility Score: inf
ROOT
ATOM      1  C   UNL     1     -35.006  -5.394 -15.790  1.00  0.00     0.161 A 
ATOM      2  C   UNL     1     -35.158  -4.987 -14.456  1.00  0.00     0.161 A 
ATOM      3  C   UNL     1     -36.173  -5.537 -13.659  1.00  0.00     0.098 A 
ATOM      4  C   UNL     1     -37.042  -6.494 -14.186  1.00  0.00     0.142 A 
ATOM      5  C   UNL     1     -36.897  -6.909 -15.526  1.00  0.00     0.022 A 
ATOM      6  C   UNL     1     -35.882  -6.361 -16.324  1.00  0.00     0.062 A 
ATOM      7  C   UNL     1     -37.781  -7.870 -16.026  1.00  0.00     0.019 A 
ATOM      8  C   UNL     1     -38.774  -8.386 -15.193  1.00  0.00     0.094 A 
ATOM      9  C   UNL     1     -38.858  -7.927 -13.875  1.00  0.00     0.336 A 
ATOM     10  O   UNL     1     -39.746  -8.381 -13.106  1.00  0.00    -0.246 OA
ATOM     11  O   UNL     1     -38.003  -7.013 -13.425  1.00  0.00    -0.423 OA
ENDROOT
BRANCH   1  12
ATOM     12  O   UNL     1     -33.977  -4.817 -16.551  1.00  0.00    -0.493 OA
ATOM     13  C   UNL     1     -32.869  -5.537 -17.084  1.00  0.00     0.278 C 
ENDBRANCH   1  12
BRANCH   2  14
ATOM     14  O   UNL     1     -34.292  -4.031 -13.927  1.00  0.00    -0.504 OA
ATOM     15  H   UNL     1     -34.499  -3.040 -13.981  1.00  0.00     0.293 HD
ENDBRANCH   2  14
TORSDOF 2
ENDMDL
MODEL 6
REMARK VINA RESULT:    -5.649      3.139      5.074
REMARK INTER + INTRA:          -6.195
REMARK INTER:                  -6.140
REMARK INTRA:                  -0.055
REMARK UNBOUND:                -0.051
REMARK SMILES COc1cc2ccc(=O)oc2cc1O
REMARK SMILES IDX 3 1 13 2 12 3 11 4 5 5 4 6 6 7 7 8 8 9 9 10 10 11 2 12 1 13
REMARK SMILES IDX 14 14
REMARK H PARENT 14 15
REMARK Flexibility Score: inf
ROOT
ATOM      1  C   UNL     1     -35.134  -5.559 -16.932  1.00  0.00     0.161 A 
ATOM      2  C   UNL     1     -35.725  -4.997 -18.074  1.00  0.00     0.161 A 
ATOM      3  C   UNL     1     -35.012  -4.080 -18.861  1.00  0.00     0.098 A 
ATOM      4  C   UNL     1     -33.708  -3.718 -18.515  1.00  0.00     0.142 A 
ATOM      5  C   UNL     1     -33.107  -4.279 -17.370  1.00  0.00     0.022 A 
ATOM      6  C   UNL     1     -33.818  -5.196 -16.582  1.00  0.00     0.062 A 
ATOM      7  C   UNL     1     -31.800  -3.898 -17.049  1.00  0.00     0.019 A 
ATOM      8  C   UNL     1     -31.134  -2.982 -17.864  1.00  0.00     0.094 A 
ATOM      9  C   UNL     1     -31.794  -2.469 -18.984  1.00  0.00     0.336 A 
ATOM     10  O   UNL     1     -31.210  -1.641 -19.733  1.00  0.00    -0.246 OA
ATOM     11  O   UNL     1     -33.037  -2.848 -19.266  1.00  0.00    -0.423 OA
ENDROOT
BRANCH   1  12
ATOM     12  O   UNL     1     -35.884  -6.472 -16.174  1.00  0.00    -0.493 OA
ATOM     13  C   UNL     1     -36.064  -6.393 -14.763  1.00  0.00     0.278 C 
ENDBRANCH   1  12
BRANCH   2  14
ATOM     14  O   UNL     1     -37.026  -5.355 -18.422  1.00  0.00    -0.504 OA
ATOM     15  H   UNL     1     -37.710  -5.615 -17.720  1.00  0.00     0.293 HD
ENDBRANCH   2  14
TORSDOF 2
ENDMDL
MODEL 7
REMARK VINA RESULT:    -5.635      2.591      5.115
REMARK INTER + INTRA:          -6.181
REMARK INTER:                  -6.130
REMARK INTRA:                  -0.050
REMARK UNBOUND:                -0.051
REMARK SMILES COc1cc2ccc(=O)oc2cc1O
REMARK SMILES IDX 3 1 13 2 12 3 11 4 5 5 4 6 6 7 7 8 8 9 9 10 10 11 2 12 1 13
REMARK SMILES IDX 14 14
REMARK H PARENT 14 15
REMARK Flexibility Score: inf
ROOT
ATOM      1  C   UNL     1     -37.093  -3.765 -12.542  1.00  0.00     0.161 A 
ATOM      2  C   UNL     1     -36.217  -4.715 -13.089  1.00  0.00     0.161 A 
ATOM      3  C   UNL     1     -36.695  -5.974 -13.481  1.00  0.00     0.098 A 
ATOM      4  C   UNL     1     -38.045  -6.295 -13.330  1.00  0.00     0.142 A 
ATOM      5  C   UNL     1     -38.933  -5.346 -12.781  1.00  0.00     0.022 A 
ATOM      6  C   UNL     1     -38.457  -4.086 -12.389  1.00  0.00     0.062 A 
ATOM      7  C   UNL     1     -40.280  -5.695 -12.643  1.00  0.00     0.019 A 
ATOM      8  C   UNL     1     -40.704  -6.960 -13.048  1.00  0.00     0.094 A 
ATOM      9  C   UNL     1     -39.767  -7.849 -13.584  1.00  0.00     0.336 A 
ATOM     10  O   UNL     1     -40.130  -8.996 -13.957  1.00  0.00    -0.246 OA
ATOM     11  O   UNL     1     -38.492  -7.491 -13.705  1.00  0.00    -0.423 OA
ENDROOT
BRANCH   1  12
ATOM     12  O   UNL     1     -36.572  -2.517 -12.163  1.00  0.00    -0.493 OA
ATOM     13  C   UNL     1     -37.246  -1.275 -12.342  1.00  0.00     0.278 C 
ENDBRANCH   1  12
BRANCH   2  14
ATOM     14  O   UNL     1     -34.868  -4.398 -13.241  1.00  0.00    -0.504 OA
ATOM     15  H   UNL     1     -34.353  -3.911 -12.517  1.00  0.00     0.293 HD
ENDBRANCH   2  14
TORSDOF 2
ENDMDL
MODEL 8
REMARK VINA RESULT:    -5.612      2.410      5.239
REMARK INTER + INTRA:          -6.156
REMARK INTER:                  -6.105
REMARK INTRA:                  -0.051
REMARK UNBOUND:                -0.051
REMARK SMILES COc1cc2ccc(=O)oc2cc1O
REMARK SMILES IDX 3 1 13 2 12 3 11 4 5 5 4 6 6 7 7 8 8 9 9 10 10 11 2 12 1 13
REMARK SMILES IDX 14 14
REMARK H PARENT 14 15
REMARK Flexibility Score: inf
ROOT
ATOM      1  C   UNL     1     -38.596  -6.931 -14.526  1.00  0.00     0.161 A 
ATOM      2  C   UNL     1     -39.724  -7.617 -14.052  1.00  0.00     0.161 A 
ATOM      3  C   UNL     1     -40.461  -7.108 -12.972  1.00  0.00     0.098 A 
ATOM      4  C   UNL     1     -40.079  -5.913 -12.359  1.00  0.00     0.142 A 
ATOM      5  C   UNL     1     -38.946  -5.216 -12.830  1.00  0.00     0.022 A 
ATOM      6  C   UNL     1     -38.209  -5.724 -13.909  1.00  0.00     0.062 A 
ATOM      7  C   UNL     1     -38.588  -4.022 -12.197  1.00  0.00     0.019 A 
ATOM      8  C   UNL     1     -39.354  -3.557 -11.128  1.00  0.00     0.094 A 
ATOM      9  C   UNL     1     -40.464  -4.301 -10.716  1.00  0.00     0.336 A 
ATOM     10  O   UNL     1     -41.168  -3.898  -9.753  1.00  0.00    -0.246 OA
ATOM     11  O   UNL     1     -40.782  -5.434 -11.336  1.00  0.00    -0.423 OA
ENDROOT
BRANCH   1  12
ATOM     12  O   UNL     1     -37.889  -7.478 -15.608  1.00  0.00    -0.493 OA
ATOM     13  C   UNL     1     -36.761  -8.339 -15.481  1.00  0.00     0.278 C 
ENDBRANCH   1  12
BRANCH   2  14
ATOM     14  O   UNL     1     -40.108  -8.811 -14.661  1.00  0.00    -0.504 OA
ATOM     15  H   UNL     1     -40.034  -9.700 -14.180  1.00  0.00     0.293 HD
ENDBRANCH   2  14
TORSDOF 2
ENDMDL
MODEL 9
REMARK VINA RESULT:    -5.514      1.632      4.868
REMARK INTER + INTRA:          -6.048
REMARK INTER:                  -5.986
REMARK INTRA:                  -0.062
REMARK UNBOUND:                -0.051
REMARK SMILES COc1cc2ccc(=O)oc2cc1O
REMARK SMILES IDX 3 1 13 2 12 3 11 4 5 5 4 6 6 7 7 8 8 9 9 10 10 11 2 12 1 13
REMARK SMILES IDX 14 14
REMARK H PARENT 14 15
REMARK Flexibility Score: inf
ROOT
ATOM      1  C   UNL     1     -36.497  -4.832 -15.492  1.00  0.00     0.161 A 
ATOM      2  C   UNL     1     -36.232  -6.085 -16.065  1.00  0.00     0.161 A 
ATOM      3  C   UNL     1     -37.012  -7.200 -15.723  1.00  0.00     0.098 A 
ATOM      4  C   UNL     1     -38.060  -7.073 -14.809  1.00  0.00     0.142 A 
ATOM      5  C   UNL     1     -38.334  -5.817 -14.228  1.00  0.00     0.022 A 
ATOM      6  C   UNL     1     -37.555  -4.702 -14.569  1.00  0.00     0.062 A 
ATOM      7  C   UNL     1     -39.390  -5.720 -13.317  1.00  0.00     0.019 A 
ATOM      8  C   UNL     1     -40.137  -6.858 -13.010  1.00  0.00     0.094 A 
ATOM      9  C   UNL     1     -39.807  -8.070 -13.625  1.00  0.00     0.336 A 
ATOM     10  O   UNL     1     -40.468  -9.109 -13.362  1.00  0.00    -0.246 OA
ATOM     11  O   UNL     1     -38.797  -8.134 -14.489  1.00  0.00    -0.423 OA
ENDROOT
BRANCH   1  12
ATOM     12  O   UNL     1     -35.691  -3.744 -15.863  1.00  0.00    -0.493 OA
ATOM     13  C   UNL     1     -36.157  -2.603 -16.578  1.00  0.00     0.278 C 
ENDBRANCH   1  12
BRANCH   2  14
ATOM     14  O   UNL     1     -35.186  -6.215 -16.977  1.00  0.00    -0.504 OA
ATOM     15  H   UNL     1     -34.725  -5.405 -17.375  1.00  0.00     0.293 HD
ENDBRANCH   2  14
TORSDOF 2
ENDMDL
