MODEL 1
REMARK VINA RESULT:    -3.057      0.000      0.000
REMARK INTER + INTRA:          -3.883
REMARK INTER:                  -3.772
REMARK INTRA:                  -0.111
REMARK UNBOUND:                -0.111
REMARK SMILES CCCCCC(=O)[O-]
REMARK SMILES IDX 4 1 5 2 6 3 7 4 8 5 3 6 2 7 1 8
REMARK H PARENT
REMARK Flexibility Score: inf
ROOT
ATOM      1  C   UNL     1       2.365  70.151  19.663  1.00  0.00     0.006 C 
ENDROOT
BRANCH   1   2
ATOM      2  C   UNL     1       3.258  71.268  19.102  1.00  0.00     0.053 C 
BRANCH   2   3
ATOM      3  C   UNL     1       2.483  72.520  18.828  1.00  0.00     0.041 C 
ATOM      4  O   UNL     1       2.949  73.399  18.056  1.00  0.00    -0.550 OA
ATOM      5  O   UNL     1       1.260  72.730  19.452  1.00  0.00    -0.550 OA
ENDBRANCH   2   3
ENDBRANCH   1   2
BRANCH   1   6
ATOM      6  C   UNL     1       2.979  69.373  20.845  1.00  0.00     0.000 C 
BRANCH   6   7
ATOM      7  C   UNL     1       4.503  69.526  21.000  1.00  0.00    -0.003 C 
ATOM      8  C   UNL     1       4.984  69.292  22.431  1.00  0.00     0.004 C 
ENDBRANCH   6   7
ENDBRANCH   1   6
TORSDOF 4
ENDMDL
MODEL 2
REMARK VINA RESULT:    -2.955     13.899     14.749
REMARK INTER + INTRA:          -3.757
REMARK INTER:                  -3.639
REMARK INTRA:                  -0.118
REMARK UNBOUND:                -0.111
REMARK SMILES CCCCCC(=O)[O-]
REMARK SMILES IDX 4 1 5 2 6 3 7 4 8 5 3 6 2 7 1 8
REMARK H PARENT
REMARK Flexibility Score: inf
ROOT
ATOM      1  C   UNL     1       2.587  65.308   8.007  1.00  0.00     0.006 C 
ENDROOT
BRANCH   1   2
ATOM      2  C   UNL     1       3.285  63.944   8.107  1.00  0.00     0.053 C 
BRANCH   2   3
ATOM      3  C   UNL     1       2.307  62.829   8.318  1.00  0.00     0.041 C 
ATOM      4  O   UNL     1       2.596  61.866   9.075  1.00  0.00    -0.550 OA
ATOM      5  O   UNL     1       1.089  62.839   7.650  1.00  0.00    -0.550 OA
ENDBRANCH   2   3
ENDBRANCH   1   2
BRANCH   1   6
ATOM      6  C   UNL     1       2.659  65.963   6.611  1.00  0.00     0.000 C 
BRANCH   6   7
ATOM      7  C   UNL     1       3.960  66.733   6.323  1.00  0.00    -0.003 C 
ATOM      8  C   UNL     1       4.593  66.358   4.985  1.00  0.00     0.004 C 
ENDBRANCH   6   7
ENDBRANCH   1   6
TORSDOF 4
ENDMDL
MODEL 3
REMARK VINA RESULT:    -2.785     12.490     13.148
REMARK INTER + INTRA:          -3.547
REMARK INTER:                  -3.366
REMARK INTRA:                  -0.181
REMARK UNBOUND:                -0.111
REMARK SMILES CCCCCC(=O)[O-]
REMARK SMILES IDX 4 1 5 2 6 3 7 4 8 5 3 6 2 7 1 8
REMARK H PARENT
REMARK Flexibility Score: inf
ROOT
ATOM      1  C   UNL     1       1.988  65.449   8.261  1.00  0.00     0.006 C 
ENDROOT
BRANCH   1   2
ATOM      2  C   UNL     1       2.905  64.234   8.057  1.00  0.00     0.053 C 
BRANCH   2   3
ATOM      3  C   UNL     1       2.169  62.941   8.238  1.00  0.00     0.041 C 
ATOM      4  O   UNL     1       2.631  62.049   8.995  1.00  0.00    -0.550 OA
ATOM      5  O   UNL     1       0.988  62.711   7.543  1.00  0.00    -0.550 OA
ENDBRANCH   2   3
ENDBRANCH   1   2
BRANCH   1   6
ATOM      6  C   UNL     1       1.428  65.596   9.691  1.00  0.00     0.000 C 
BRANCH   6   7
ATOM      7  C   UNL     1       2.480  65.511  10.811  1.00  0.00    -0.003 C 
ATOM      8  C   UNL     1       3.095  66.866  11.157  1.00  0.00     0.004 C 
ENDBRANCH   6   7
ENDBRANCH   1   6
TORSDOF 4
ENDMDL
MODEL 4
REMARK VINA RESULT:    -2.780     13.098     13.929
REMARK INTER + INTRA:          -3.541
REMARK INTER:                  -3.312
REMARK INTRA:                  -0.229
REMARK UNBOUND:                -0.111
REMARK SMILES CCCCCC(=O)[O-]
REMARK SMILES IDX 4 1 5 2 6 3 7 4 8 5 3 6 2 7 1 8
REMARK H PARENT
REMARK Flexibility Score: inf
ROOT
ATOM      1  C   UNL     1       2.731  65.025   7.500  1.00  0.00     0.006 C 
ENDROOT
BRANCH   1   2
ATOM      2  C   UNL     1       3.325  63.865   8.312  1.00  0.00     0.053 C 
BRANCH   2   3
ATOM      3  C   UNL     1       2.361  62.725   8.447  1.00  0.00     0.041 C 
ATOM      4  O   UNL     1       2.642  61.741   9.179  1.00  0.00    -0.550 OA
ATOM      5  O   UNL     1       1.167  62.738   7.737  1.00  0.00    -0.550 OA
ENDBRANCH   2   3
ENDBRANCH   1   2
BRANCH   1   6
ATOM      6  C   UNL     1       2.465  66.308   8.315  1.00  0.00     0.000 C 
BRANCH   6   7
ATOM      7  C   UNL     1       1.301  66.209   9.317  1.00  0.00    -0.003 C 
ATOM      8  C   UNL     1      -0.042  65.924   8.646  1.00  0.00     0.004 C 
ENDBRANCH   6   7
ENDBRANCH   1   6
TORSDOF 4
ENDMDL
MODEL 5
REMARK VINA RESULT:    -2.760      2.206      3.308
REMARK INTER + INTRA:          -3.516
REMARK INTER:                  -3.366
REMARK INTRA:                  -0.150
REMARK UNBOUND:                -0.111
REMARK SMILES CCCCCC(=O)[O-]
REMARK SMILES IDX 4 1 5 2 6 3 7 4 8 5 3 6 2 7 1 8
REMARK H PARENT
REMARK Flexibility Score: inf
ROOT
ATOM      1  C   UNL     1       2.702  70.334  18.456  1.00  0.00     0.006 C 
ENDROOT
BRANCH   1   2
ATOM      2  C   UNL     1       3.381  71.625  18.937  1.00  0.00     0.053 C 
BRANCH   2   3
ATOM      3  C   UNL     1       2.503  72.824  18.745  1.00  0.00     0.041 C 
ATOM      4  O   UNL     1       2.873  73.769  18.000  1.00  0.00    -0.550 OA
ATOM      5  O   UNL     1       1.290  72.911  19.416  1.00  0.00    -0.550 OA
ENDBRANCH   2   3
ENDBRANCH   1   2
BRANCH   1   6
ATOM      6  C   UNL     1       2.196  70.382  16.999  1.00  0.00     0.000 C 
BRANCH   6   7
ATOM      7  C   UNL     1       3.073  69.628  15.983  1.00  0.00    -0.003 C 
ATOM      8  C   UNL     1       3.228  68.145  16.313  1.00  0.00     0.004 C 
ENDBRANCH   6   7
ENDBRANCH   1   6
TORSDOF 4
ENDMDL
MODEL 6
REMARK VINA RESULT:    -2.746     13.894     14.564
REMARK INTER + INTRA:          -3.498
REMARK INTER:                  -3.359
REMARK INTRA:                  -0.139
REMARK UNBOUND:                -0.111
REMARK SMILES CCCCCC(=O)[O-]
REMARK SMILES IDX 4 1 5 2 6 3 7 4 8 5 3 6 2 7 1 8
REMARK H PARENT
REMARK Flexibility Score: inf
ROOT
ATOM      1  C   UNL     1       2.976  65.436   7.718  1.00  0.00     0.006 C 
ENDROOT
BRANCH   1   2
ATOM      2  C   UNL     1       3.799  66.044   6.573  1.00  0.00     0.053 C 
BRANCH   2   3
ATOM      3  C   UNL     1       2.933  66.486   5.434  1.00  0.00     0.041 C 
ATOM      4  O   UNL     1       3.412  66.586   4.274  1.00  0.00    -0.550 OA
ATOM      5  O   UNL     1       1.603  66.819   5.661  1.00  0.00    -0.550 OA
ENDBRANCH   2   3
ENDBRANCH   1   2
BRANCH   1   6
ATOM      6  C   UNL     1       3.423  64.023   8.148  1.00  0.00     0.000 C 
BRANCH   6   7
ATOM      7  C   UNL     1       2.298  62.974   8.195  1.00  0.00    -0.003 C 
ATOM      8  C   UNL     1       0.963  63.505   7.676  1.00  0.00     0.004 C 
ENDBRANCH   6   7
ENDBRANCH   1   6
TORSDOF 4
ENDMDL
MODEL 7
REMARK VINA RESULT:    -2.702     13.418     14.323
REMARK INTER + INTRA:          -3.444
REMARK INTER:                  -3.297
REMARK INTRA:                  -0.148
REMARK UNBOUND:                -0.111
REMARK SMILES CCCCCC(=O)[O-]
REMARK SMILES IDX 4 1 5 2 6 3 7 4 8 5 3 6 2 7 1 8
REMARK H PARENT
REMARK Flexibility Score: inf
ROOT
ATOM      1  C   UNL     1       2.245  65.594   7.200  1.00  0.00     0.006 C 
ENDROOT
BRANCH   1   2
ATOM      2  C   UNL     1       1.662  64.348   7.885  1.00  0.00     0.053 C 
BRANCH   2   3
ATOM      3  C   UNL     1       2.470  63.935   9.077  1.00  0.00     0.041 C 
ATOM      4  O   UNL     1       3.005  62.796   9.117  1.00  0.00    -0.550 OA
ATOM      5  O   UNL     1       2.606  64.798  10.158  1.00  0.00    -0.550 OA
ENDBRANCH   2   3
ENDBRANCH   1   2
BRANCH   1   6
ATOM      6  C   UNL     1       3.753  65.505   6.888  1.00  0.00     0.000 C 
BRANCH   6   7
ATOM      7  C   UNL     1       4.202  66.274   5.633  1.00  0.00    -0.003 C 
ATOM      8  C   UNL     1       3.033  66.850   4.835  1.00  0.00     0.004 C 
ENDBRANCH   6   7
ENDBRANCH   1   6
TORSDOF 4
ENDMDL
MODEL 8
REMARK VINA RESULT:    -2.624      2.916      4.164
REMARK INTER + INTRA:          -3.348
REMARK INTER:                  -3.144
REMARK INTRA:                  -0.204
REMARK UNBOUND:                -0.111
REMARK SMILES CCCCCC(=O)[O-]
REMARK SMILES IDX 4 1 5 2 6 3 7 4 8 5 3 6 2 7 1 8
REMARK H PARENT
REMARK Flexibility Score: inf
ROOT
ATOM      1  C   UNL     1       2.894  70.438  18.754  1.00  0.00     0.006 C 
ENDROOT
BRANCH   1   2
ATOM      2  C   UNL     1       2.599  69.259  17.814  1.00  0.00     0.053 C 
BRANCH   2   3
ATOM      3  C   UNL     1       3.008  69.553  16.403  1.00  0.00     0.041 C 
ATOM      4  O   UNL     1       2.640  70.619  15.845  1.00  0.00    -0.550 OA
ATOM      5  O   UNL     1       3.768  68.631  15.694  1.00  0.00    -0.550 OA
ENDBRANCH   2   3
ENDBRANCH   1   2
BRANCH   1   6
ATOM      6  C   UNL     1       1.645  71.221  19.210  1.00  0.00     0.000 C 
BRANCH   6   7
ATOM      7  C   UNL     1       1.749  72.749  19.064  1.00  0.00    -0.003 C 
ATOM      8  C   UNL     1       2.955  73.189  18.236  1.00  0.00     0.004 C 
ENDBRANCH   6   7
ENDBRANCH   1   6
TORSDOF 4
ENDMDL
MODEL 9
REMARK VINA RESULT:    -2.615      3.379      4.893
REMARK INTER + INTRA:          -3.337
REMARK INTER:                  -3.288
REMARK INTRA:                  -0.050
REMARK UNBOUND:                -0.111
REMARK SMILES CCCCCC(=O)[O-]
REMARK SMILES IDX 4 1 5 2 6 3 7 4 8 5 3 6 2 7 1 8
REMARK H PARENT
REMARK Flexibility Score: inf
ROOT
ATOM      1  C   UNL     1       4.133  69.823  20.464  1.00  0.00     0.006 C 
ENDROOT
BRANCH   1   2
ATOM      2  C   UNL     1       3.655  69.060  21.709  1.00  0.00     0.053 C 
BRANCH   2   3
ATOM      3  C   UNL     1       4.616  69.194  22.851  1.00  0.00     0.041 C 
ATOM      4  O   UNL     1       4.196  69.199  24.037  1.00  0.00    -0.550 OA
ATOM      5  O   UNL     1       5.975  69.346  22.601  1.00  0.00    -0.550 OA
ENDBRANCH   2   3
ENDBRANCH   1   2
BRANCH   1   6
ATOM      6  C   UNL     1       2.998  70.412  19.601  1.00  0.00     0.000 C 
BRANCH   6   7
ATOM      7  C   UNL     1       3.341  71.737  18.897  1.00  0.00    -0.003 C 
ATOM      8  C   UNL     1       2.180  72.730  18.894  1.00  0.00     0.004 C 
ENDBRANCH   6   7
ENDBRANCH   1   6
TORSDOF 4
ENDMDL
