MODEL 1
REMARK VINA RESULT:    -5.271      0.000      0.000
REMARK INTER + INTRA:          -5.271
REMARK INTER:                  -5.271
REMARK INTRA:                   0.000
REMARK UNBOUND:                 0.000
REMARK SMILES O=c1ccc2ccccc2o1
REMARK SMILES IDX 7 1 8 2 9 3 10 4 5 5 6 6 4 7 3 8 2 9 1 10 11 11
REMARK H PARENT
REMARK Flexibility Score: inf
ROOT
ATOM      1  C   UNL     1      19.633  -0.822 -17.966  1.00  0.00     0.001 A 
ATOM      2  C   UNL     1      20.349   0.336 -17.643  1.00  0.00     0.004 A 
ATOM      3  C   UNL     1      21.071   1.015 -18.630  1.00  0.00     0.048 A 
ATOM      4  C   UNL     1      21.078   0.540 -19.945  1.00  0.00     0.138 A 
ATOM      5  C   UNL     1      20.354  -0.630 -20.272  1.00  0.00     0.018 A 
ATOM      6  C   UNL     1      19.634  -1.307 -19.278  1.00  0.00     0.012 A 
ATOM      7  C   UNL     1      20.381  -1.081 -21.595  1.00  0.00     0.019 A 
ATOM      8  C   UNL     1      21.113  -0.371 -22.546  1.00  0.00     0.094 A 
ATOM      9  C   UNL     1      21.805   0.778 -22.150  1.00  0.00     0.336 A 
ATOM     10  O   UNL     1      22.472   1.432 -22.994  1.00  0.00    -0.246 OA
ATOM     11  O   UNL     1      21.764   1.187 -20.884  1.00  0.00    -0.423 OA
ENDROOT
TORSDOF 0
ENDMDL
MODEL 2
REMARK VINA RESULT:    -5.151      2.519      3.881
REMARK INTER + INTRA:          -5.151
REMARK INTER:                  -5.151
REMARK INTRA:                   0.000
REMARK UNBOUND:                 0.000
REMARK SMILES O=c1ccc2ccccc2o1
REMARK SMILES IDX 7 1 8 2 9 3 10 4 5 5 6 6 4 7 3 8 2 9 1 10 11 11
REMARK H PARENT
REMARK Flexibility Score: inf
ROOT
ATOM      1  C   UNL     1      19.257  -0.541 -20.486  1.00  0.00     0.001 A 
ATOM      2  C   UNL     1      18.892  -1.123 -19.268  1.00  0.00     0.004 A 
ATOM      3  C   UNL     1      19.578  -0.790 -18.096  1.00  0.00     0.048 A 
ATOM      4  C   UNL     1      20.633   0.128 -18.137  1.00  0.00     0.138 A 
ATOM      5  C   UNL     1      21.001   0.718 -19.369  1.00  0.00     0.018 A 
ATOM      6  C   UNL     1      20.310   0.379 -20.540  1.00  0.00     0.012 A 
ATOM      7  C   UNL     1      22.059   1.632 -19.379  1.00  0.00     0.019 A 
ATOM      8  C   UNL     1      22.714   1.934 -18.186  1.00  0.00     0.094 A 
ATOM      9  C   UNL     1      22.294   1.312 -17.005  1.00  0.00     0.336 A 
ATOM     10  O   UNL     1      22.874   1.572 -15.918  1.00  0.00    -0.246 OA
ATOM     11  O   UNL     1      21.285   0.446 -17.022  1.00  0.00    -0.423 OA
ENDROOT
TORSDOF 0
ENDMDL
MODEL 3
REMARK VINA RESULT:    -5.136      1.756      3.867
REMARK INTER + INTRA:          -5.136
REMARK INTER:                  -5.136
REMARK INTRA:                   0.000
REMARK UNBOUND:                 0.000
REMARK SMILES O=c1ccc2ccccc2o1
REMARK SMILES IDX 7 1 8 2 9 3 10 4 5 5 6 6 4 7 3 8 2 9 1 10 11 11
REMARK H PARENT
REMARK Flexibility Score: inf
ROOT
ATOM      1  C   UNL     1      21.490  -0.155 -22.539  1.00  0.00     0.001 A 
ATOM      2  C   UNL     1      21.900   1.063 -21.987  1.00  0.00     0.004 A 
ATOM      3  C   UNL     1      21.542   1.397 -20.676  1.00  0.00     0.048 A 
ATOM      4  C   UNL     1      20.772   0.513 -19.913  1.00  0.00     0.138 A 
ATOM      5  C   UNL     1      20.358  -0.718 -20.471  1.00  0.00     0.018 A 
ATOM      6  C   UNL     1      20.720  -1.046 -21.785  1.00  0.00     0.012 A 
ATOM      7  C   UNL     1      19.590  -1.581 -19.684  1.00  0.00     0.019 A 
ATOM      8  C   UNL     1      19.258  -1.207 -18.382  1.00  0.00     0.094 A 
ATOM      9  C   UNL     1      19.703   0.027 -17.897  1.00  0.00     0.336 A 
ATOM     10  O   UNL     1      19.413   0.383 -16.724  1.00  0.00    -0.246 OA
ATOM     11  O   UNL     1      20.433   0.831 -18.666  1.00  0.00    -0.423 OA
ENDROOT
TORSDOF 0
ENDMDL
MODEL 4
REMARK VINA RESULT:    -4.898      2.043      4.284
REMARK INTER + INTRA:          -4.898
REMARK INTER:                  -4.898
REMARK INTRA:                   0.000
REMARK UNBOUND:                 0.000
REMARK SMILES O=c1ccc2ccccc2o1
REMARK SMILES IDX 7 1 8 2 9 3 10 4 5 5 6 6 4 7 3 8 2 9 1 10 11 11
REMARK H PARENT
REMARK Flexibility Score: inf
ROOT
ATOM      1  C   UNL     1      21.961   1.486 -21.859  1.00  0.00     0.001 A 
ATOM      2  C   UNL     1      21.706   0.342 -22.623  1.00  0.00     0.004 A 
ATOM      3  C   UNL     1      21.013  -0.736 -22.066  1.00  0.00     0.048 A 
ATOM      4  C   UNL     1      20.571  -0.676 -20.739  1.00  0.00     0.138 A 
ATOM      5  C   UNL     1      20.828   0.480 -19.967  1.00  0.00     0.018 A 
ATOM      6  C   UNL     1      21.525   1.557 -20.532  1.00  0.00     0.012 A 
ATOM      7  C   UNL     1      20.374   0.511 -18.645  1.00  0.00     0.019 A 
ATOM      8  C   UNL     1      19.686  -0.587 -18.131  1.00  0.00     0.094 A 
ATOM      9  C   UNL     1      19.468  -1.697 -18.955  1.00  0.00     0.336 A 
ATOM     10  O   UNL     1      18.850  -2.698 -18.508  1.00  0.00    -0.246 OA
ATOM     11  O   UNL     1      19.911  -1.702 -20.209  1.00  0.00    -0.423 OA
ENDROOT
TORSDOF 0
ENDMDL
MODEL 5
REMARK VINA RESULT:    -4.893      1.796      2.804
REMARK INTER + INTRA:          -4.893
REMARK INTER:                  -4.893
REMARK INTRA:                   0.000
REMARK UNBOUND:                 0.000
REMARK SMILES O=c1ccc2ccccc2o1
REMARK SMILES IDX 7 1 8 2 9 3 10 4 5 5 6 6 4 7 3 8 2 9 1 10 11 11
REMARK H PARENT
REMARK Flexibility Score: inf
ROOT
ATOM      1  C   UNL     1      20.252   1.104 -15.592  1.00  0.00     0.001 A 
ATOM      2  C   UNL     1      21.515   1.388 -16.119  1.00  0.00     0.004 A 
ATOM      3  C   UNL     1      21.829   1.020 -17.432  1.00  0.00     0.048 A 
ATOM      4  C   UNL     1      20.878   0.366 -18.223  1.00  0.00     0.138 A 
ATOM      5  C   UNL     1      19.600   0.080 -17.690  1.00  0.00     0.018 A 
ATOM      6  C   UNL     1      19.293   0.450 -16.373  1.00  0.00     0.012 A 
ATOM      7  C   UNL     1      18.671  -0.575 -18.503  1.00  0.00     0.019 A 
ATOM      8  C   UNL     1      19.026  -0.922 -19.806  1.00  0.00     0.094 A 
ATOM      9  C   UNL     1      20.309  -0.606 -20.266  1.00  0.00     0.336 A 
ATOM     10  O   UNL     1      20.649  -0.912 -21.439  1.00  0.00    -0.246 OA
ATOM     11  O   UNL     1      21.175   0.017 -19.471  1.00  0.00    -0.423 OA
ENDROOT
TORSDOF 0
ENDMDL
MODEL 6
REMARK VINA RESULT:    -4.877     16.409     18.329
REMARK INTER + INTRA:          -4.877
REMARK INTER:                  -4.877
REMARK INTRA:                   0.000
REMARK UNBOUND:                 0.000
REMARK SMILES O=c1ccc2ccccc2o1
REMARK SMILES IDX 7 1 8 2 9 3 10 4 5 5 6 6 4 7 3 8 2 9 1 10 11 11
REMARK H PARENT
REMARK Flexibility Score: inf
ROOT
ATOM      1  C   UNL     1       7.552  -7.751  -6.038  1.00  0.00     0.001 A 
ATOM      2  C   UNL     1       7.813  -6.392  -5.832  1.00  0.00     0.004 A 
ATOM      3  C   UNL     1       8.850  -5.762  -6.528  1.00  0.00     0.048 A 
ATOM      4  C   UNL     1       9.630  -6.488  -7.434  1.00  0.00     0.138 A 
ATOM      5  C   UNL     1       9.365  -7.861  -7.643  1.00  0.00     0.018 A 
ATOM      6  C   UNL     1       8.326  -8.488  -6.941  1.00  0.00     0.012 A 
ATOM      7  C   UNL     1      10.162  -8.561  -8.554  1.00  0.00     0.019 A 
ATOM      8  C   UNL     1      11.183  -7.891  -9.226  1.00  0.00     0.094 A 
ATOM      9  C   UNL     1      11.386  -6.531  -8.969  1.00  0.00     0.336 A 
ATOM     10  O   UNL     1      12.304  -5.910  -9.566  1.00  0.00    -0.246 OA
ATOM     11  O   UNL     1      10.615  -5.888  -8.097  1.00  0.00    -0.423 OA
ENDROOT
TORSDOF 0
ENDMDL
MODEL 7
REMARK VINA RESULT:    -4.849      1.269      2.355
REMARK INTER + INTRA:          -4.849
REMARK INTER:                  -4.849
REMARK INTRA:                   0.000
REMARK UNBOUND:                 0.000
REMARK SMILES O=c1ccc2ccccc2o1
REMARK SMILES IDX 7 1 8 2 9 3 10 4 5 5 6 6 4 7 3 8 2 9 1 10 11 11
REMARK H PARENT
REMARK Flexibility Score: inf
ROOT
ATOM      1  C   UNL     1      19.264  -0.970 -17.546  1.00  0.00     0.001 A 
ATOM      2  C   UNL     1      18.739  -1.418 -18.763  1.00  0.00     0.004 A 
ATOM      3  C   UNL     1      19.198  -0.879 -19.969  1.00  0.00     0.048 A 
ATOM      4  C   UNL     1      20.186   0.112 -19.963  1.00  0.00     0.138 A 
ATOM      5  C   UNL     1      20.718   0.565 -18.734  1.00  0.00     0.018 A 
ATOM      6  C   UNL     1      20.252   0.020 -17.528  1.00  0.00     0.012 A 
ATOM      7  C   UNL     1      21.704   1.555 -18.759  1.00  0.00     0.019 A 
ATOM      8  C   UNL     1      22.132   2.063 -19.985  1.00  0.00     0.094 A 
ATOM      9  C   UNL     1      21.560   1.567 -21.162  1.00  0.00     0.336 A 
ATOM     10  O   UNL     1      21.933   2.014 -22.278  1.00  0.00    -0.246 OA
ATOM     11  O   UNL     1      20.623   0.624 -21.110  1.00  0.00    -0.423 OA
ENDROOT
TORSDOF 0
ENDMDL
MODEL 8
REMARK VINA RESULT:    -4.828     19.116     20.312
REMARK INTER + INTRA:          -4.828
REMARK INTER:                  -4.828
REMARK INTRA:                   0.000
REMARK UNBOUND:                 0.000
REMARK SMILES O=c1ccc2ccccc2o1
REMARK SMILES IDX 7 1 8 2 9 3 10 4 5 5 6 6 4 7 3 8 2 9 1 10 11 11
REMARK H PARENT
REMARK Flexibility Score: inf
ROOT
ATOM      1  C   UNL     1       5.698   3.270  -7.349  1.00  0.00     0.001 A 
ATOM      2  C   UNL     1       4.472   3.774  -6.901  1.00  0.00     0.004 A 
ATOM      3  C   UNL     1       3.875   4.856  -7.556  1.00  0.00     0.048 A 
ATOM      4  C   UNL     1       4.502   5.439  -8.663  1.00  0.00     0.138 A 
ATOM      5  C   UNL     1       5.741   4.929  -9.115  1.00  0.00     0.018 A 
ATOM      6  C   UNL     1       6.335   3.845  -8.453  1.00  0.00     0.012 A 
ATOM      7  C   UNL     1       6.344   5.532 -10.223  1.00  0.00     0.019 A 
ATOM      8  C   UNL     1       5.712   6.608 -10.845  1.00  0.00     0.094 A 
ATOM      9  C   UNL     1       4.487   7.059 -10.342  1.00  0.00     0.336 A 
ATOM     10  O   UNL     1       3.902   8.029 -10.890  1.00  0.00    -0.246 OA
ATOM     11  O   UNL     1       3.934   6.468  -9.286  1.00  0.00    -0.423 OA
ENDROOT
TORSDOF 0
ENDMDL
MODEL 9
REMARK VINA RESULT:    -2.452     18.514     19.979
REMARK INTER + INTRA:          -2.452
REMARK INTER:                  -2.452
REMARK INTRA:                   0.000
REMARK UNBOUND:                 0.000
REMARK SMILES O=c1ccc2ccccc2o1
REMARK SMILES IDX 7 1 8 2 9 3 10 4 5 5 6 6 4 7 3 8 2 9 1 10 11 11
REMARK H PARENT
REMARK Flexibility Score: inf
ROOT
ATOM      1  C   UNL     1       5.718   2.995  -7.317  1.00  0.00     0.001 A 
ATOM      2  C   UNL     1       6.784   2.980  -8.221  1.00  0.00     0.004 A 
ATOM      3  C   UNL     1       6.880   3.963  -9.212  1.00  0.00     0.048 A 
ATOM      4  C   UNL     1       5.908   4.966  -9.301  1.00  0.00     0.138 A 
ATOM      5  C   UNL     1       4.831   4.981  -8.386  1.00  0.00     0.018 A 
ATOM      6  C   UNL     1       4.740   3.992  -7.396  1.00  0.00     0.012 A 
ATOM      7  C   UNL     1       3.875   5.995  -8.500  1.00  0.00     0.019 A 
ATOM      8  C   UNL     1       4.011   6.955  -9.502  1.00  0.00     0.094 A 
ATOM      9  C   UNL     1       5.104   6.877 -10.372  1.00  0.00     0.336 A 
ATOM     10  O   UNL     1       5.244   7.734 -11.284  1.00  0.00    -0.246 OA
ATOM     11  O   UNL     1       6.000   5.901 -10.243  1.00  0.00    -0.423 OA
ENDROOT
TORSDOF 0
ENDMDL
