MODEL 1
REMARK VINA RESULT:    -4.875      0.000      0.000
REMARK INTER + INTRA:         -16.511
REMARK INTER:                 -12.284
REMARK INTRA:                  -4.227
REMARK UNBOUND:                -4.227
REMARK SMILES CCCCCCCCCCCCCCCCCCCCCCCCCCCC(=O)[O-]
REMARK SMILES IDX 15 1 16 2 17 3 18 4 19 5 20 6 21 7 22 8 23 9 24 10 25 11
REMARK SMILES IDX 26 12 27 13 28 14 29 15 30 16 14 17 13 18 12 19 11 20 10 21
REMARK SMILES IDX 9 22 8 23 7 24 6 25 5 26 4 27 3 28 2 29 1 30
REMARK H PARENT
REMARK Flexibility Score: inf
ROOT
ATOM      1  C   UNL     1     208.555 207.713 157.644  1.00  0.00     0.000 C 
ENDROOT
BRANCH   1   2
ATOM      2  C   UNL     1     209.383 207.503 158.925  1.00  0.00     0.000 C 
BRANCH   2   3
ATOM      3  C   UNL     1     209.056 206.219 159.717  1.00  0.00     0.000 C 
BRANCH   3   4
ATOM      4  C   UNL     1     208.146 205.217 158.984  1.00  0.00     0.000 C 
BRANCH   4   5
ATOM      5  C   UNL     1     206.806 204.988 159.705  1.00  0.00     0.000 C 
BRANCH   5   6
ATOM      6  C   UNL     1     206.239 203.574 159.485  1.00  0.00     0.000 C 
BRANCH   6   7
ATOM      7  C   UNL     1     205.717 203.296 158.063  1.00  0.00     0.000 C 
BRANCH   7   8
ATOM      8  C   UNL     1     206.404 202.096 157.393  1.00  0.00     0.000 C 
BRANCH   8   9
ATOM      9  C   UNL     1     206.383 202.229 155.864  1.00  0.00     0.000 C 
BRANCH   9  10
ATOM     10  C   UNL     1     207.803 202.307 155.267  1.00  0.00     0.000 C 
BRANCH  10  11
ATOM     11  C   UNL     1     208.883 202.682 156.295  1.00  0.00     0.000 C 
BRANCH  11  12
ATOM     12  C   UNL     1     210.219 203.070 155.642  1.00  0.00     0.006 C 
BRANCH  12  13
ATOM     13  C   UNL     1     210.680 202.032 154.610  1.00  0.00     0.053 C 
BRANCH  13  14
ATOM     14  C   UNL     1     212.150 202.137 154.339  1.00  0.00     0.041 C 
ATOM     15  O   UNL     1     212.622 203.170 153.796  1.00  0.00    -0.550 OA
ATOM     16  O   UNL     1     213.002 201.111 154.724  1.00  0.00    -0.550 OA
ENDBRANCH  13  14
ENDBRANCH  12  13
ENDBRANCH  11  12
ENDBRANCH  10  11
ENDBRANCH   9  10
ENDBRANCH   8   9
ENDBRANCH   7   8
ENDBRANCH   6   7
ENDBRANCH   5   6
ENDBRANCH   4   5
ENDBRANCH   3   4
ENDBRANCH   2   3
ENDBRANCH   1   2
BRANCH   1  17
ATOM     17  C   UNL     1     209.342 207.567 156.328  1.00  0.00     0.000 C 
BRANCH  17  18
ATOM     18  C   UNL     1     208.611 206.731 155.255  1.00  0.00     0.000 C 
BRANCH  18  19
ATOM     19  C   UNL     1     207.461 205.893 155.840  1.00  0.00     0.000 C 
BRANCH  19  20
ATOM     20  C   UNL     1     206.338 205.653 154.817  1.00  0.00     0.000 C 
BRANCH  20  21
ATOM     21  C   UNL     1     205.651 206.960 154.382  1.00  0.00     0.000 C 
BRANCH  21  22
ATOM     22  C   UNL     1     204.554 207.404 155.363  1.00  0.00    -0.000 C 
BRANCH  22  23
ATOM     23  C   UNL     1     204.040 206.237 156.225  1.00  0.00    -0.000 C 
BRANCH  23  24
ATOM     24  C   UNL     1     204.053 206.554 157.729  1.00  0.00    -0.000 C 
BRANCH  24  25
ATOM     25  C   UNL     1     205.092 207.626 158.099  1.00  0.00    -0.000 C 
BRANCH  25  26
ATOM     26  C   UNL     1     204.603 208.577 159.208  1.00  0.00    -0.000 C 
BRANCH  26  27
ATOM     27  C   UNL     1     204.684 210.080 158.872  1.00  0.00    -0.000 C 
BRANCH  27  28
ATOM     28  C   UNL     1     203.483 210.922 159.337  1.00  0.00    -0.000 C 
BRANCH  28  29
ATOM     29  C   UNL     1     202.390 210.081 160.011  1.00  0.00    -0.003 C 
ATOM     30  C   UNL     1     201.399 210.967 160.761  1.00  0.00     0.004 C 
ENDBRANCH  28  29
ENDBRANCH  27  28
ENDBRANCH  26  27
ENDBRANCH  25  26
ENDBRANCH  24  25
ENDBRANCH  23  24
ENDBRANCH  22  23
ENDBRANCH  21  22
ENDBRANCH  20  21
ENDBRANCH  19  20
ENDBRANCH  18  19
ENDBRANCH  17  18
ENDBRANCH   1  17
TORSDOF 26
ENDMDL
MODEL 2
REMARK VINA RESULT:    -4.729      3.979      8.512
REMARK INTER + INTRA:         -16.143
REMARK INTER:                 -11.701
REMARK INTRA:                  -4.442
REMARK UNBOUND:                -4.227
REMARK SMILES CCCCCCCCCCCCCCCCCCCCCCCCCCCC(=O)[O-]
REMARK SMILES IDX 15 1 16 2 17 3 18 4 19 5 20 6 21 7 22 8 23 9 24 10 25 11
REMARK SMILES IDX 26 12 27 13 28 14 29 15 30 16 14 17 13 18 12 19 11 20 10 21
REMARK SMILES IDX 9 22 8 23 7 24 6 25 5 26 4 27 3 28 2 29 1 30
REMARK H PARENT
REMARK Flexibility Score: inf
ROOT
ATOM      1  C   UNL     1     208.647 207.621 158.091  1.00  0.00     0.000 C 
ENDROOT
BRANCH   1   2
ATOM      2  C   UNL     1     209.654 207.835 156.946  1.00  0.00     0.000 C 
BRANCH   2   3
ATOM      3  C   UNL     1     209.138 207.471 155.539  1.00  0.00     0.000 C 
BRANCH   3   4
ATOM      4  C   UNL     1     207.912 206.539 155.516  1.00  0.00     0.000 C 
BRANCH   4   5
ATOM      5  C   UNL     1     207.065 206.697 154.241  1.00  0.00     0.000 C 
BRANCH   5   6
ATOM      6  C   UNL     1     205.567 206.436 154.480  1.00  0.00     0.000 C 
BRANCH   6   7
ATOM      7  C   UNL     1     204.883 207.411 155.457  1.00  0.00     0.000 C 
BRANCH   7   8
ATOM      8  C   UNL     1     204.466 206.747 156.778  1.00  0.00     0.000 C 
BRANCH   8   9
ATOM      9  C   UNL     1     205.063 207.487 157.983  1.00  0.00     0.000 C 
BRANCH   9  10
ATOM     10  C   UNL     1     205.452 208.940 157.638  1.00  0.00     0.000 C 
BRANCH  10  11
ATOM     11  C   UNL     1     205.297 209.915 158.817  1.00  0.00     0.000 C 
BRANCH  11  12
ATOM     12  C   UNL     1     204.037 209.645 159.653  1.00  0.00     0.006 C 
BRANCH  12  13
ATOM     13  C   UNL     1     203.019 210.788 159.550  1.00  0.00     0.053 C 
BRANCH  13  14
ATOM     14  C   UNL     1     201.735 210.451 160.244  1.00  0.00     0.041 C 
ATOM     15  O   UNL     1     201.218 211.266 161.052  1.00  0.00    -0.550 OA
ATOM     16  O   UNL     1     201.088 209.254 159.966  1.00  0.00    -0.550 OA
ENDBRANCH  13  14
ENDBRANCH  12  13
ENDBRANCH  11  12
ENDBRANCH  10  11
ENDBRANCH   9  10
ENDBRANCH   8   9
ENDBRANCH   7   8
ENDBRANCH   6   7
ENDBRANCH   5   6
ENDBRANCH   4   5
ENDBRANCH   3   4
ENDBRANCH   2   3
ENDBRANCH   1   2
BRANCH   1  17
ATOM     17  C   UNL     1     209.241 207.016 159.377  1.00  0.00     0.000 C 
BRANCH  17  18
ATOM     18  C   UNL     1     208.906 205.521 159.574  1.00  0.00     0.000 C 
BRANCH  18  19
ATOM     19  C   UNL     1     207.685 205.076 158.750  1.00  0.00     0.000 C 
BRANCH  19  20
ATOM     20  C   UNL     1     206.558 204.517 159.637  1.00  0.00     0.000 C 
BRANCH  20  21
ATOM     21  C   UNL     1     205.538 203.687 158.837  1.00  0.00     0.000 C 
BRANCH  21  22
ATOM     22  C   UNL     1     205.961 202.216 158.693  1.00  0.00    -0.000 C 
BRANCH  22  23
ATOM     23  C   UNL     1     206.262 201.838 157.231  1.00  0.00    -0.000 C 
BRANCH  23  24
ATOM     24  C   UNL     1     206.055 203.009 156.257  1.00  0.00    -0.000 C 
BRANCH  24  25
ATOM     25  C   UNL     1     207.136 203.068 155.164  1.00  0.00    -0.000 C 
BRANCH  25  26
ATOM     26  C   UNL     1     208.469 202.434 155.606  1.00  0.00    -0.000 C 
BRANCH  26  27
ATOM     27  C   UNL     1     209.559 203.432 156.049  1.00  0.00    -0.000 C 
BRANCH  27  28
ATOM     28  C   UNL     1     210.889 203.333 155.281  1.00  0.00    -0.000 C 
BRANCH  28  29
ATOM     29  C   UNL     1     211.210 201.903 154.825  1.00  0.00    -0.003 C 
ATOM     30  C   UNL     1     212.691 201.753 154.489  1.00  0.00     0.004 C 
ENDBRANCH  28  29
ENDBRANCH  27  28
ENDBRANCH  26  27
ENDBRANCH  25  26
ENDBRANCH  24  25
ENDBRANCH  23  24
ENDBRANCH  22  23
ENDBRANCH  21  22
ENDBRANCH  20  21
ENDBRANCH  19  20
ENDBRANCH  18  19
ENDBRANCH  17  18
ENDBRANCH   1  17
TORSDOF 26
ENDMDL
MODEL 3
REMARK VINA RESULT:    -4.724      4.305      8.665
REMARK INTER + INTRA:         -16.131
REMARK INTER:                 -11.746
REMARK INTRA:                  -4.385
REMARK UNBOUND:                -4.227
REMARK SMILES CCCCCCCCCCCCCCCCCCCCCCCCCCCC(=O)[O-]
REMARK SMILES IDX 15 1 16 2 17 3 18 4 19 5 20 6 21 7 22 8 23 9 24 10 25 11
REMARK SMILES IDX 26 12 27 13 28 14 29 15 30 16 14 17 13 18 12 19 11 20 10 21
REMARK SMILES IDX 9 22 8 23 7 24 6 25 5 26 4 27 3 28 2 29 1 30
REMARK H PARENT
REMARK Flexibility Score: inf
ROOT
ATOM      1  C   UNL     1     206.327 203.713 159.610  1.00  0.00     0.000 C 
ENDROOT
BRANCH   1   2
ATOM      2  C   UNL     1     206.869 205.106 159.982  1.00  0.00     0.000 C 
BRANCH   2   3
ATOM      3  C   UNL     1     208.407 205.230 159.998  1.00  0.00     0.000 C 
BRANCH   3   4
ATOM      4  C   UNL     1     208.973 206.401 159.174  1.00  0.00     0.000 C 
BRANCH   4   5
ATOM      5  C   UNL     1     207.948 206.993 158.192  1.00  0.00     0.000 C 
BRANCH   5   6
ATOM      6  C   UNL     1     208.436 208.291 157.523  1.00  0.00     0.000 C 
BRANCH   6   7
ATOM      7  C   UNL     1     207.319 209.254 157.078  1.00  0.00     0.000 C 
BRANCH   7   8
ATOM      8  C   UNL     1     207.202 210.496 157.975  1.00  0.00     0.000 C 
BRANCH   8   9
ATOM      9  C   UNL     1     205.907 210.464 158.799  1.00  0.00     0.000 C 
BRANCH   9  10
ATOM     10  C   UNL     1     205.026 209.247 158.450  1.00  0.00     0.000 C 
BRANCH  10  11
ATOM     11  C   UNL     1     204.213 208.713 159.642  1.00  0.00     0.000 C 
BRANCH  11  12
ATOM     12  C   UNL     1     202.752 209.191 159.628  1.00  0.00     0.006 C 
BRANCH  12  13
ATOM     13  C   UNL     1     202.602 210.606 160.204  1.00  0.00     0.053 C 
BRANCH  13  14
ATOM     14  C   UNL     1     201.264 210.802 160.848  1.00  0.00     0.041 C 
ATOM     15  O   UNL     1     201.091 211.729 161.683  1.00  0.00    -0.550 OA
ATOM     16  O   UNL     1     200.196 209.989 160.493  1.00  0.00    -0.550 OA
ENDBRANCH  13  14
ENDBRANCH  12  13
ENDBRANCH  11  12
ENDBRANCH  10  11
ENDBRANCH   9  10
ENDBRANCH   8   9
ENDBRANCH   7   8
ENDBRANCH   6   7
ENDBRANCH   5   6
ENDBRANCH   4   5
ENDBRANCH   3   4
ENDBRANCH   2   3
ENDBRANCH   1   2
BRANCH   1  17
ATOM     17  C   UNL     1     205.273 203.703 158.486  1.00  0.00     0.000 C 
BRANCH  17  18
ATOM     18  C   UNL     1     204.895 205.110 157.975  1.00  0.00     0.000 C 
BRANCH  18  19
ATOM     19  C   UNL     1     203.538 205.130 157.248  1.00  0.00     0.000 C 
BRANCH  19  20
ATOM     20  C   UNL     1     203.445 206.275 156.224  1.00  0.00     0.000 C 
BRANCH  20  21
ATOM     21  C   UNL     1     204.779 207.022 156.056  1.00  0.00     0.000 C 
BRANCH  21  22
ATOM     22  C   UNL     1     205.445 206.739 154.699  1.00  0.00    -0.000 C 
BRANCH  22  23
ATOM     23  C   UNL     1     206.714 205.881 154.842  1.00  0.00    -0.000 C 
BRANCH  23  24
ATOM     24  C   UNL     1     206.494 204.416 154.432  1.00  0.00    -0.000 C 
BRANCH  24  25
ATOM     25  C   UNL     1     207.081 203.422 155.449  1.00  0.00    -0.000 C 
BRANCH  25  26
ATOM     26  C   UNL     1     208.151 204.057 156.358  1.00  0.00    -0.000 C 
BRANCH  26  27
ATOM     27  C   UNL     1     209.610 203.698 156.010  1.00  0.00    -0.000 C 
BRANCH  27  28
ATOM     28  C   UNL     1     209.883 202.199 155.793  1.00  0.00    -0.000 C 
BRANCH  28  29
ATOM     29  C   UNL     1     210.542 201.903 154.439  1.00  0.00    -0.003 C 
ATOM     30  C   UNL     1     212.025 202.265 154.459  1.00  0.00     0.004 C 
ENDBRANCH  28  29
ENDBRANCH  27  28
ENDBRANCH  26  27
ENDBRANCH  25  26
ENDBRANCH  24  25
ENDBRANCH  23  24
ENDBRANCH  22  23
ENDBRANCH  21  22
ENDBRANCH  20  21
ENDBRANCH  19  20
ENDBRANCH  18  19
ENDBRANCH  17  18
ENDBRANCH   1  17
TORSDOF 26
ENDMDL
MODEL 4
REMARK VINA RESULT:    -4.710      1.011      2.859
REMARK INTER + INTRA:         -16.095
REMARK INTER:                 -12.102
REMARK INTRA:                  -3.993
REMARK UNBOUND:                -4.227
REMARK SMILES CCCCCCCCCCCCCCCCCCCCCCCCCCCC(=O)[O-]
REMARK SMILES IDX 15 1 16 2 17 3 18 4 19 5 20 6 21 7 22 8 23 9 24 10 25 11
REMARK SMILES IDX 26 12 27 13 28 14 29 15 30 16 14 17 13 18 12 19 11 20 10 21
REMARK SMILES IDX 9 22 8 23 7 24 6 25 5 26 4 27 3 28 2 29 1 30
REMARK H PARENT
REMARK Flexibility Score: inf
ROOT
ATOM      1  C   UNL     1     205.123 207.239 155.244  1.00  0.00     0.000 C 
ENDROOT
BRANCH   1   2
ATOM      2  C   UNL     1     203.787 206.705 155.795  1.00  0.00     0.000 C 
BRANCH   2   3
ATOM      3  C   UNL     1     203.796 206.330 157.291  1.00  0.00     0.000 C 
BRANCH   3   4
ATOM      4  C   UNL     1     204.494 204.999 157.625  1.00  0.00     0.000 C 
BRANCH   4   5
ATOM      5  C   UNL     1     205.790 205.190 158.432  1.00  0.00     0.000 C 
BRANCH   5   6
ATOM      6  C   UNL     1     206.398 203.862 158.916  1.00  0.00     0.000 C 
BRANCH   6   7
ATOM      7  C   UNL     1     205.664 202.596 158.433  1.00  0.00     0.000 C 
BRANCH   7   8
ATOM      8  C   UNL     1     206.519 201.723 157.501  1.00  0.00     0.000 C 
BRANCH   8   9
ATOM      9  C   UNL     1     206.416 202.201 156.046  1.00  0.00     0.000 C 
BRANCH   9  10
ATOM     10  C   UNL     1     207.800 202.499 155.432  1.00  0.00     0.000 C 
BRANCH  10  11
ATOM     11  C   UNL     1     208.705 203.350 156.338  1.00  0.00     0.000 C 
BRANCH  11  12
ATOM     12  C   UNL     1     210.174 203.345 155.887  1.00  0.00     0.006 C 
BRANCH  12  13
ATOM     13  C   UNL     1     210.517 202.106 155.050  1.00  0.00     0.053 C 
BRANCH  13  14
ATOM     14  C   UNL     1     211.908 202.178 154.499  1.00  0.00     0.041 C 
ATOM     15  O   UNL     1     212.255 203.150 153.778  1.00  0.00    -0.550 OA
ATOM     16  O   UNL     1     212.833 201.192 154.816  1.00  0.00    -0.550 OA
ENDBRANCH  13  14
ENDBRANCH  12  13
ENDBRANCH  11  12
ENDBRANCH  10  11
ENDBRANCH   9  10
ENDBRANCH   8   9
ENDBRANCH   7   8
ENDBRANCH   6   7
ENDBRANCH   5   6
ENDBRANCH   4   5
ENDBRANCH   3   4
ENDBRANCH   2   3
ENDBRANCH   1   2
BRANCH   1  17
ATOM     17  C   UNL     1     205.971 206.206 154.477  1.00  0.00     0.000 C 
BRANCH  17  18
ATOM     18  C   UNL     1     207.446 206.152 154.929  1.00  0.00     0.000 C 
BRANCH  18  19
ATOM     19  C   UNL     1     208.256 207.371 154.452  1.00  0.00     0.000 C 
BRANCH  19  20
ATOM     20  C   UNL     1     209.483 207.637 155.342  1.00  0.00     0.000 C 
BRANCH  20  21
ATOM     21  C   UNL     1     209.381 206.937 156.708  1.00  0.00     0.000 C 
BRANCH  21  22
ATOM     22  C   UNL     1     209.086 207.920 157.853  1.00  0.00    -0.000 C 
BRANCH  22  23
ATOM     23  C   UNL     1     207.577 208.135 158.061  1.00  0.00    -0.000 C 
BRANCH  23  24
ATOM     24  C   UNL     1     207.065 209.436 157.423  1.00  0.00    -0.000 C 
BRANCH  24  25
ATOM     25  C   UNL     1     205.548 209.626 157.601  1.00  0.00    -0.000 C 
BRANCH  25  26
ATOM     26  C   UNL     1     205.165 210.082 159.021  1.00  0.00    -0.000 C 
BRANCH  26  27
ATOM     27  C   UNL     1     203.756 209.664 159.491  1.00  0.00    -0.000 C 
BRANCH  27  28
ATOM     28  C   UNL     1     202.787 210.826 159.775  1.00  0.00    -0.000 C 
BRANCH  28  29
ATOM     29  C   UNL     1     201.540 210.385 160.553  1.00  0.00    -0.003 C 
ATOM     30  C   UNL     1     201.073 211.482 161.507  1.00  0.00     0.004 C 
ENDBRANCH  28  29
ENDBRANCH  27  28
ENDBRANCH  26  27
ENDBRANCH  25  26
ENDBRANCH  24  25
ENDBRANCH  23  24
ENDBRANCH  22  23
ENDBRANCH  21  22
ENDBRANCH  20  21
ENDBRANCH  19  20
ENDBRANCH  18  19
ENDBRANCH  17  18
ENDBRANCH   1  17
TORSDOF 26
ENDMDL
MODEL 5
REMARK VINA RESULT:    -4.703      4.163      8.971
REMARK INTER + INTRA:         -16.079
REMARK INTER:                 -12.312
REMARK INTRA:                  -3.767
REMARK UNBOUND:                -4.227
REMARK SMILES CCCCCCCCCCCCCCCCCCCCCCCCCCCC(=O)[O-]
REMARK SMILES IDX 15 1 16 2 17 3 18 4 19 5 20 6 21 7 22 8 23 9 24 10 25 11
REMARK SMILES IDX 26 12 27 13 28 14 29 15 30 16 14 17 13 18 12 19 11 20 10 21
REMARK SMILES IDX 9 22 8 23 7 24 6 25 5 26 4 27 3 28 2 29 1 30
REMARK H PARENT
REMARK Flexibility Score: inf
ROOT
ATOM      1  C   UNL     1     205.217 207.265 154.500  1.00  0.00     0.000 C 
ENDROOT
BRANCH   1   2
ATOM      2  C   UNL     1     206.462 206.433 154.140  1.00  0.00     0.000 C 
BRANCH   2   3
ATOM      3  C   UNL     1     207.525 206.322 155.253  1.00  0.00     0.000 C 
BRANCH   3   4
ATOM      4  C   UNL     1     208.940 206.773 154.849  1.00  0.00     0.000 C 
BRANCH   4   5
ATOM      5  C   UNL     1     209.682 207.502 155.983  1.00  0.00     0.000 C 
BRANCH   5   6
ATOM      6  C   UNL     1     208.966 207.386 157.340  1.00  0.00     0.000 C 
BRANCH   6   7
ATOM      7  C   UNL     1     208.540 208.726 157.968  1.00  0.00     0.000 C 
BRANCH   7   8
ATOM      8  C   UNL     1     207.071 209.081 157.690  1.00  0.00     0.000 C 
BRANCH   8   9
ATOM      9  C   UNL     1     206.716 210.461 158.262  1.00  0.00     0.000 C 
BRANCH   9  10
ATOM     10  C   UNL     1     205.328 210.472 158.935  1.00  0.00     0.000 C 
BRANCH  10  11
ATOM     11  C   UNL     1     204.753 209.067 159.184  1.00  0.00     0.000 C 
BRANCH  11  12
ATOM     12  C   UNL     1     203.309 209.099 159.708  1.00  0.00     0.006 C 
BRANCH  12  13
ATOM     13  C   UNL     1     202.777 210.531 159.850  1.00  0.00     0.053 C 
BRANCH  13  14
ATOM     14  C   UNL     1     201.431 210.559 160.507  1.00  0.00     0.041 C 
ATOM     15  O   UNL     1     200.571 209.683 160.228  1.00  0.00    -0.550 OA
ATOM     16  O   UNL     1     201.142 211.528 161.459  1.00  0.00    -0.550 OA
ENDBRANCH  13  14
ENDBRANCH  12  13
ENDBRANCH  11  12
ENDBRANCH  10  11
ENDBRANCH   9  10
ENDBRANCH   8   9
ENDBRANCH   7   8
ENDBRANCH   6   7
ENDBRANCH   5   6
ENDBRANCH   4   5
ENDBRANCH   3   4
ENDBRANCH   2   3
ENDBRANCH   1   2
BRANCH   1  17
ATOM     17  C   UNL     1     204.810 207.218 155.985  1.00  0.00     0.000 C 
BRANCH  17  18
ATOM     18  C   UNL     1     203.643 206.251 156.280  1.00  0.00     0.000 C 
BRANCH  18  19
ATOM     19  C   UNL     1     203.976 205.247 157.398  1.00  0.00     0.000 C 
BRANCH  19  20
ATOM     20  C   UNL     1     205.185 205.694 158.239  1.00  0.00     0.000 C 
BRANCH  20  21
ATOM     21  C   UNL     1     206.330 204.666 158.211  1.00  0.00     0.000 C 
BRANCH  21  22
ATOM     22  C   UNL     1     206.054 203.454 159.116  1.00  0.00    -0.000 C 
BRANCH  22  23
ATOM     23  C   UNL     1     206.157 202.123 158.350  1.00  0.00    -0.000 C 
BRANCH  23  24
ATOM     24  C   UNL     1     206.071 202.302 156.826  1.00  0.00    -0.000 C 
BRANCH  24  25
ATOM     25  C   UNL     1     207.308 201.754 156.095  1.00  0.00    -0.000 C 
BRANCH  25  26
ATOM     26  C   UNL     1     208.300 202.859 155.684  1.00  0.00    -0.000 C 
BRANCH  26  27
ATOM     27  C   UNL     1     209.792 202.497 155.836  1.00  0.00    -0.000 C 
BRANCH  27  28
ATOM     28  C   UNL     1     210.442 201.859 154.595  1.00  0.00    -0.000 C 
BRANCH  28  29
ATOM     29  C   UNL     1     211.971 201.995 154.587  1.00  0.00    -0.003 C 
ATOM     30  C   UNL     1     212.408 203.230 153.803  1.00  0.00     0.004 C 
ENDBRANCH  28  29
ENDBRANCH  27  28
ENDBRANCH  26  27
ENDBRANCH  25  26
ENDBRANCH  24  25
ENDBRANCH  23  24
ENDBRANCH  22  23
ENDBRANCH  21  22
ENDBRANCH  20  21
ENDBRANCH  19  20
ENDBRANCH  18  19
ENDBRANCH  17  18
ENDBRANCH   1  17
TORSDOF 26
ENDMDL
MODEL 6
REMARK VINA RESULT:    -4.651      4.329      8.186
REMARK INTER + INTRA:         -15.947
REMARK INTER:                 -11.412
REMARK INTRA:                  -4.534
REMARK UNBOUND:                -4.227
REMARK SMILES CCCCCCCCCCCCCCCCCCCCCCCCCCCC(=O)[O-]
REMARK SMILES IDX 15 1 16 2 17 3 18 4 19 5 20 6 21 7 22 8 23 9 24 10 25 11
REMARK SMILES IDX 26 12 27 13 28 14 29 15 30 16 14 17 13 18 12 19 11 20 10 21
REMARK SMILES IDX 9 22 8 23 7 24 6 25 5 26 4 27 3 28 2 29 1 30
REMARK H PARENT
REMARK Flexibility Score: inf
ROOT
ATOM      1  C   UNL     1     205.638 205.592 158.502  1.00  0.00     0.000 C 
ENDROOT
BRANCH   1   2
ATOM      2  C   UNL     1     206.547 205.355 159.723  1.00  0.00     0.000 C 
BRANCH   2   3
ATOM      3  C   UNL     1     207.973 204.866 159.397  1.00  0.00     0.000 C 
BRANCH   3   4
ATOM      4  C   UNL     1     209.102 205.621 160.122  1.00  0.00     0.000 C 
BRANCH   4   5
ATOM      5  C   UNL     1     209.360 207.019 159.533  1.00  0.00     0.000 C 
BRANCH   5   6
ATOM      6  C   UNL     1     209.057 207.101 158.026  1.00  0.00     0.000 C 
BRANCH   6   7
ATOM      7  C   UNL     1     208.461 208.441 157.555  1.00  0.00     0.000 C 
BRANCH   7   8
ATOM      8  C   UNL     1     206.946 208.541 157.789  1.00  0.00     0.000 C 
BRANCH   8   9
ATOM      9  C   UNL     1     206.481 210.004 157.783  1.00  0.00     0.000 C 
BRANCH   9  10
ATOM     10  C   UNL     1     205.214 210.215 158.639  1.00  0.00     0.000 C 
BRANCH  10  11
ATOM     11  C   UNL     1     204.692 208.925 159.293  1.00  0.00     0.000 C 
BRANCH  11  12
ATOM     12  C   UNL     1     203.242 209.052 159.786  1.00  0.00     0.006 C 
BRANCH  12  13
ATOM     13  C   UNL     1     202.790 210.515 159.882  1.00  0.00     0.053 C 
BRANCH  13  14
ATOM     14  C   UNL     1     201.450 210.639 160.539  1.00  0.00     0.041 C 
ATOM     15  O   UNL     1     200.553 209.784 160.316  1.00  0.00    -0.550 OA
ATOM     16  O   UNL     1     201.206 211.675 161.430  1.00  0.00    -0.550 OA
ENDBRANCH  13  14
ENDBRANCH  12  13
ENDBRANCH  11  12
ENDBRANCH  10  11
ENDBRANCH   9  10
ENDBRANCH   8   9
ENDBRANCH   7   8
ENDBRANCH   6   7
ENDBRANCH   5   6
ENDBRANCH   4   5
ENDBRANCH   3   4
ENDBRANCH   2   3
ENDBRANCH   1   2
BRANCH   1  17
ATOM     17  C   UNL     1     204.597 204.486 158.240  1.00  0.00     0.000 C 
BRANCH  17  18
ATOM     18  C   UNL     1     203.447 204.923 157.308  1.00  0.00     0.000 C 
BRANCH  18  19
ATOM     19  C   UNL     1     203.498 206.423 156.968  1.00  0.00     0.000 C 
BRANCH  19  20
ATOM     20  C   UNL     1     203.647 206.672 155.457  1.00  0.00     0.000 C 
BRANCH  20  21
ATOM     21  C   UNL     1     204.876 207.536 155.123  1.00  0.00     0.000 C 
BRANCH  21  22
ATOM     22  C   UNL     1     205.899 206.791 154.249  1.00  0.00    -0.000 C 
BRANCH  22  23
ATOM     23  C   UNL     1     206.961 206.062 155.090  1.00  0.00    -0.000 C 
BRANCH  23  24
ATOM     24  C   UNL     1     206.878 204.533 154.963  1.00  0.00    -0.000 C 
BRANCH  24  25
ATOM     25  C   UNL     1     207.662 203.803 156.067  1.00  0.00    -0.000 C 
BRANCH  25  26
ATOM     26  C   UNL     1     207.620 202.271 155.919  1.00  0.00    -0.000 C 
BRANCH  26  27
ATOM     27  C   UNL     1     206.417 201.576 156.589  1.00  0.00    -0.000 C 
BRANCH  27  28
ATOM     28  C   UNL     1     206.393 201.643 158.126  1.00  0.00    -0.000 C 
BRANCH  28  29
ATOM     29  C   UNL     1     206.419 200.257 158.784  1.00  0.00    -0.003 C 
ATOM     30  C   UNL     1     206.159 200.356 160.285  1.00  0.00     0.004 C 
ENDBRANCH  28  29
ENDBRANCH  27  28
ENDBRANCH  26  27
ENDBRANCH  25  26
ENDBRANCH  24  25
ENDBRANCH  23  24
ENDBRANCH  22  23
ENDBRANCH  21  22
ENDBRANCH  20  21
ENDBRANCH  19  20
ENDBRANCH  18  19
ENDBRANCH  17  18
ENDBRANCH   1  17
TORSDOF 26
ENDMDL
MODEL 7
REMARK VINA RESULT:    -4.649      4.009      7.920
REMARK INTER + INTRA:         -15.941
REMARK INTER:                 -11.855
REMARK INTRA:                  -4.086
REMARK UNBOUND:                -4.227
REMARK SMILES CCCCCCCCCCCCCCCCCCCCCCCCCCCC(=O)[O-]
REMARK SMILES IDX 15 1 16 2 17 3 18 4 19 5 20 6 21 7 22 8 23 9 24 10 25 11
REMARK SMILES IDX 26 12 27 13 28 14 29 15 30 16 14 17 13 18 12 19 11 20 10 21
REMARK SMILES IDX 9 22 8 23 7 24 6 25 5 26 4 27 3 28 2 29 1 30
REMARK H PARENT
REMARK Flexibility Score: inf
ROOT
ATOM      1  C   UNL     1     208.635 205.767 159.341  1.00  0.00     0.000 C 
ENDROOT
BRANCH   1   2
ATOM      2  C   UNL     1     207.130 205.601 159.626  1.00  0.00     0.000 C 
BRANCH   2   3
ATOM      3  C   UNL     1     206.632 204.142 159.703  1.00  0.00     0.000 C 
BRANCH   3   4
ATOM      4  C   UNL     1     205.334 203.856 158.927  1.00  0.00     0.000 C 
BRANCH   4   5
ATOM      5  C   UNL     1     205.266 204.597 157.580  1.00  0.00     0.000 C 
BRANCH   5   6
ATOM      6  C   UNL     1     203.825 204.816 157.087  1.00  0.00     0.000 C 
BRANCH   6   7
ATOM      7  C   UNL     1     203.442 206.286 156.828  1.00  0.00     0.000 C 
BRANCH   7   8
ATOM      8  C   UNL     1     204.198 206.905 155.643  1.00  0.00     0.000 C 
BRANCH   8   9
ATOM      9  C   UNL     1     205.192 207.975 156.118  1.00  0.00     0.000 C 
BRANCH   9  10
ATOM     10  C   UNL     1     205.211 208.108 157.655  1.00  0.00     0.000 C 
BRANCH  10  11
ATOM     11  C   UNL     1     205.284 209.563 158.146  1.00  0.00     0.000 C 
BRANCH  11  12
ATOM     12  C   UNL     1     204.515 209.789 159.457  1.00  0.00     0.006 C 
BRANCH  12  13
ATOM     13  C   UNL     1     203.465 210.901 159.326  1.00  0.00     0.053 C 
BRANCH  13  14
ATOM     14  C   UNL     1     202.193 210.547 160.035  1.00  0.00     0.041 C 
ATOM     15  O   UNL     1     201.771 209.361 160.026  1.00  0.00    -0.550 OA
ATOM     16  O   UNL     1     201.499 211.519 160.742  1.00  0.00    -0.550 OA
ENDBRANCH  13  14
ENDBRANCH  12  13
ENDBRANCH  11  12
ENDBRANCH  10  11
ENDBRANCH   9  10
ENDBRANCH   8   9
ENDBRANCH   7   8
ENDBRANCH   6   7
ENDBRANCH   5   6
ENDBRANCH   4   5
ENDBRANCH   3   4
ENDBRANCH   2   3
ENDBRANCH   1   2
BRANCH   1  17
ATOM     17  C   UNL     1     209.098 207.219 159.113  1.00  0.00     0.000 C 
BRANCH  17  18
ATOM     18  C   UNL     1     208.595 207.831 157.787  1.00  0.00     0.000 C 
BRANCH  18  19
ATOM     19  C   UNL     1     209.693 207.892 156.711  1.00  0.00     0.000 C 
BRANCH  19  20
ATOM     20  C   UNL     1     209.618 206.704 155.736  1.00  0.00     0.000 C 
BRANCH  20  21
ATOM     21  C   UNL     1     208.175 206.386 155.308  1.00  0.00     0.000 C 
BRANCH  21  22
ATOM     22  C   UNL     1     207.731 204.977 155.735  1.00  0.00    -0.000 C 
BRANCH  22  23
ATOM     23  C   UNL     1     208.911 204.119 156.223  1.00  0.00    -0.000 C 
BRANCH  23  24
ATOM     24  C   UNL     1     208.823 202.658 155.754  1.00  0.00    -0.000 C 
BRANCH  24  25
ATOM     25  C   UNL     1     207.481 202.336 155.073  1.00  0.00    -0.000 C 
BRANCH  25  26
ATOM     26  C   UNL     1     206.456 201.711 156.038  1.00  0.00    -0.000 C 
BRANCH  26  27
ATOM     27  C   UNL     1     207.024 201.244 157.394  1.00  0.00    -0.000 C 
BRANCH  27  28
ATOM     28  C   UNL     1     206.431 199.932 157.938  1.00  0.00    -0.000 C 
BRANCH  28  29
ATOM     29  C   UNL     1     206.879 199.625 159.373  1.00  0.00    -0.003 C 
ATOM     30  C   UNL     1     206.046 200.404 160.387  1.00  0.00     0.004 C 
ENDBRANCH  28  29
ENDBRANCH  27  28
ENDBRANCH  26  27
ENDBRANCH  25  26
ENDBRANCH  24  25
ENDBRANCH  23  24
ENDBRANCH  22  23
ENDBRANCH  21  22
ENDBRANCH  20  21
ENDBRANCH  19  20
ENDBRANCH  18  19
ENDBRANCH  17  18
ENDBRANCH   1  17
TORSDOF 26
ENDMDL
MODEL 8
REMARK VINA RESULT:    -4.623      4.081      8.133
REMARK INTER + INTRA:         -15.876
REMARK INTER:                 -11.277
REMARK INTRA:                  -4.599
REMARK UNBOUND:                -4.227
REMARK SMILES CCCCCCCCCCCCCCCCCCCCCCCCCCCC(=O)[O-]
REMARK SMILES IDX 15 1 16 2 17 3 18 4 19 5 20 6 21 7 22 8 23 9 24 10 25 11
REMARK SMILES IDX 26 12 27 13 28 14 29 15 30 16 14 17 13 18 12 19 11 20 10 21
REMARK SMILES IDX 9 22 8 23 7 24 6 25 5 26 4 27 3 28 2 29 1 30
REMARK H PARENT
REMARK Flexibility Score: inf
ROOT
ATOM      1  C   UNL     1     204.288 205.825 157.903  1.00  0.00     0.000 C 
ENDROOT
BRANCH   1   2
ATOM      2  C   UNL     1     204.861 204.395 157.929  1.00  0.00     0.000 C 
BRANCH   2   3
ATOM      3  C   UNL     1     205.986 204.156 158.957  1.00  0.00     0.000 C 
BRANCH   3   4
ATOM      4  C   UNL     1     206.797 205.408 159.338  1.00  0.00     0.000 C 
BRANCH   4   5
ATOM      5  C   UNL     1     207.827 205.803 158.265  1.00  0.00     0.000 C 
BRANCH   5   6
ATOM      6  C   UNL     1     208.906 206.765 158.793  1.00  0.00     0.000 C 
BRANCH   6   7
ATOM      7  C   UNL     1     208.876 208.177 158.179  1.00  0.00     0.000 C 
BRANCH   7   8
ATOM      8  C   UNL     1     207.545 208.503 157.482  1.00  0.00     0.000 C 
BRANCH   8   9
ATOM      9  C   UNL     1     207.125 209.956 157.743  1.00  0.00     0.000 C 
BRANCH   9  10
ATOM     10  C   UNL     1     205.670 210.060 158.244  1.00  0.00     0.000 C 
BRANCH  10  11
ATOM     11  C   UNL     1     205.275 208.943 159.225  1.00  0.00     0.000 C 
BRANCH  11  12
ATOM     12  C   UNL     1     203.808 209.032 159.671  1.00  0.00     0.006 C 
BRANCH  12  13
ATOM     13  C   UNL     1     203.247 210.454 159.533  1.00  0.00     0.053 C 
BRANCH  13  14
ATOM     14  C   UNL     1     201.892 210.578 160.158  1.00  0.00     0.041 C 
ATOM     15  O   UNL     1     201.551 211.649 160.726  1.00  0.00    -0.550 OA
ATOM     16  O   UNL     1     200.990 209.526 160.075  1.00  0.00    -0.550 OA
ENDBRANCH  13  14
ENDBRANCH  12  13
ENDBRANCH  11  12
ENDBRANCH  10  11
ENDBRANCH   9  10
ENDBRANCH   8   9
ENDBRANCH   7   8
ENDBRANCH   6   7
ENDBRANCH   5   6
ENDBRANCH   4   5
ENDBRANCH   3   4
ENDBRANCH   2   3
ENDBRANCH   1   2
BRANCH   1  17
ATOM     17  C   UNL     1     203.805 206.308 156.522  1.00  0.00     0.000 C 
BRANCH  17  18
ATOM     18  C   UNL     1     204.744 207.340 155.861  1.00  0.00     0.000 C 
BRANCH  18  19
ATOM     19  C   UNL     1     205.011 207.031 154.377  1.00  0.00     0.000 C 
BRANCH  19  20
ATOM     20  C   UNL     1     206.374 206.351 154.161  1.00  0.00     0.000 C 
BRANCH  20  21
ATOM     21  C   UNL     1     206.597 205.165 155.116  1.00  0.00     0.000 C 
BRANCH  21  22
ATOM     22  C   UNL     1     206.573 203.811 154.389  1.00  0.00    -0.000 C 
BRANCH  22  23
ATOM     23  C   UNL     1     206.348 202.636 155.357  1.00  0.00    -0.000 C 
BRANCH  23  24
ATOM     24  C   UNL     1     207.618 202.250 156.133  1.00  0.00    -0.000 C 
BRANCH  24  25
ATOM     25  C   UNL     1     208.870 202.217 155.240  1.00  0.00    -0.000 C 
BRANCH  25  26
ATOM     26  C   UNL     1     210.096 202.874 155.903  1.00  0.00    -0.000 C 
BRANCH  26  27
ATOM     27  C   UNL     1     210.131 204.415 155.846  1.00  0.00    -0.000 C 
BRANCH  27  28
ATOM     28  C   UNL     1     211.240 205.014 154.964  1.00  0.00    -0.000 C 
BRANCH  28  29
ATOM     29  C   UNL     1     211.243 206.549 154.969  1.00  0.00    -0.003 C 
ATOM     30  C   UNL     1     209.820 207.100 155.023  1.00  0.00     0.004 C 
ENDBRANCH  28  29
ENDBRANCH  27  28
ENDBRANCH  26  27
ENDBRANCH  25  26
ENDBRANCH  24  25
ENDBRANCH  23  24
ENDBRANCH  22  23
ENDBRANCH  21  22
ENDBRANCH  20  21
ENDBRANCH  19  20
ENDBRANCH  18  19
ENDBRANCH  17  18
ENDBRANCH   1  17
TORSDOF 26
ENDMDL
MODEL 9
REMARK VINA RESULT:    -4.604      2.555      4.689
REMARK INTER + INTRA:         -15.829
REMARK INTER:                 -12.006
REMARK INTRA:                  -3.823
REMARK UNBOUND:                -4.227
REMARK SMILES CCCCCCCCCCCCCCCCCCCCCCCCCCCC(=O)[O-]
REMARK SMILES IDX 15 1 16 2 17 3 18 4 19 5 20 6 21 7 22 8 23 9 24 10 25 11
REMARK SMILES IDX 26 12 27 13 28 14 29 15 30 16 14 17 13 18 12 19 11 20 10 21
REMARK SMILES IDX 9 22 8 23 7 24 6 25 5 26 4 27 3 28 2 29 1 30
REMARK H PARENT
REMARK Flexibility Score: inf
ROOT
ATOM      1  C   UNL     1     206.091 204.508 159.010  1.00  0.00     0.000 C 
ENDROOT
BRANCH   1   2
ATOM      2  C   UNL     1     205.318 205.550 158.181  1.00  0.00     0.000 C 
BRANCH   2   3
ATOM      3  C   UNL     1     204.004 205.045 157.549  1.00  0.00     0.000 C 
BRANCH   3   4
ATOM      4  C   UNL     1     203.376 205.990 156.509  1.00  0.00     0.000 C 
BRANCH   4   5
ATOM      5  C   UNL     1     204.322 207.127 156.086  1.00  0.00     0.000 C 
BRANCH   5   6
ATOM      6  C   UNL     1     204.707 207.066 154.597  1.00  0.00     0.000 C 
BRANCH   6   7
ATOM      7  C   UNL     1     206.171 206.676 154.318  1.00  0.00     0.000 C 
BRANCH   7   8
ATOM      8  C   UNL     1     206.453 205.185 154.558  1.00  0.00     0.000 C 
BRANCH   8   9
ATOM      9  C   UNL     1     207.561 204.993 155.603  1.00  0.00     0.000 C 
BRANCH   9  10
ATOM     10  C   UNL     1     207.822 203.503 155.907  1.00  0.00     0.000 C 
BRANCH  10  11
ATOM     11  C   UNL     1     206.538 202.667 156.035  1.00  0.00     0.000 C 
BRANCH  11  12
ATOM     12  C   UNL     1     206.739 201.390 156.865  1.00  0.00     0.006 C 
BRANCH  12  13
ATOM     13  C   UNL     1     206.005 201.454 158.211  1.00  0.00     0.053 C 
BRANCH  13  14
ATOM     14  C   UNL     1     206.377 200.308 159.101  1.00  0.00     0.041 C 
ATOM     15  O   UNL     1     206.956 199.297 158.623  1.00  0.00    -0.550 OA
ATOM     16  O   UNL     1     206.123 200.375 160.464  1.00  0.00    -0.550 OA
ENDBRANCH  13  14
ENDBRANCH  12  13
ENDBRANCH  11  12
ENDBRANCH  10  11
ENDBRANCH   9  10
ENDBRANCH   8   9
ENDBRANCH   7   8
ENDBRANCH   6   7
ENDBRANCH   5   6
ENDBRANCH   4   5
ENDBRANCH   3   4
ENDBRANCH   2   3
ENDBRANCH   1   2
BRANCH   1  17
ATOM     17  C   UNL     1     206.915 205.084 160.177  1.00  0.00     0.000 C 
BRANCH  17  18
ATOM     18  C   UNL     1     208.399 205.330 159.830  1.00  0.00     0.000 C 
BRANCH  18  19
ATOM     19  C   UNL     1     208.580 206.047 158.480  1.00  0.00     0.000 C 
BRANCH  19  20
ATOM     20  C   UNL     1     209.295 207.400 158.632  1.00  0.00     0.000 C 
BRANCH  20  21
ATOM     21  C   UNL     1     208.856 208.420 157.566  1.00  0.00     0.000 C 
BRANCH  21  22
ATOM     22  C   UNL     1     207.332 208.430 157.355  1.00  0.00    -0.000 C 
BRANCH  22  23
ATOM     23  C   UNL     1     206.754 209.856 157.367  1.00  0.00    -0.000 C 
BRANCH  23  24
ATOM     24  C   UNL     1     205.785 210.098 158.535  1.00  0.00    -0.000 C 
BRANCH  24  25
ATOM     25  C   UNL     1     205.247 208.789 159.139  1.00  0.00    -0.000 C 
BRANCH  25  26
ATOM     26  C   UNL     1     203.795 208.911 159.637  1.00  0.00    -0.000 C 
BRANCH  26  27
ATOM     27  C   UNL     1     203.243 210.350 159.714  1.00  0.00    -0.000 C 
BRANCH  27  28
ATOM     28  C   UNL     1     201.789 210.469 160.204  1.00  0.00    -0.000 C 
BRANCH  28  29
ATOM     29  C   UNL     1     201.496 211.816 160.879  1.00  0.00    -0.003 C 
ATOM     30  C   UNL     1     200.671 211.626 162.149  1.00  0.00     0.004 C 
ENDBRANCH  28  29
ENDBRANCH  27  28
ENDBRANCH  26  27
ENDBRANCH  25  26
ENDBRANCH  24  25
ENDBRANCH  23  24
ENDBRANCH  22  23
ENDBRANCH  21  22
ENDBRANCH  20  21
ENDBRANCH  19  20
ENDBRANCH  18  19
ENDBRANCH  17  18
ENDBRANCH   1  17
TORSDOF 26
ENDMDL
