MODEL 1
REMARK VINA RESULT:    -5.671      0.000      0.000
REMARK INTER + INTRA:          -8.753
REMARK INTER:                  -7.660
REMARK INTRA:                  -1.093
REMARK UNBOUND:                -1.093
REMARK SMILES C=C[C@@](C)(CCC=C(C)C)OC(C)=O
REMARK SMILES IDX 3 1 4 2 5 3 6 4 7 5 9 6 8 7 10 8 2 9 1 10 11 11 12 12 14 13
REMARK SMILES IDX 13 14
REMARK H PARENT
REMARK Flexibility Score: inf
ROOT
ATOM      1  C   UNL     1      37.074   0.732  16.559  1.00  0.00     0.127 C 
ATOM      2  C   UNL     1      36.576   1.910  17.422  1.00  0.00     0.061 C 
ENDROOT
BRANCH   1   3
ATOM      3  C   UNL     1      36.894  -0.572  17.379  1.00  0.00     0.057 C 
BRANCH   3   4
ATOM      4  C   UNL     1      35.896  -0.445  18.543  1.00  0.00     0.032 C 
BRANCH   4   5
ATOM      5  C   UNL     1      34.689  -1.319  18.307  1.00  0.00    -0.028 C 
ATOM      6  C   UNL     1      33.222   0.602  17.650  1.00  0.00     0.039 C 
ATOM      7  C   UNL     1      33.475  -0.861  17.931  1.00  0.00    -0.080 C 
ATOM      8  C   UNL     1      32.352  -1.852  17.771  1.00  0.00     0.039 C 
ENDBRANCH   4   5
ENDBRANCH   3   4
ENDBRANCH   1   3
BRANCH   1   9
ATOM      9  C   UNL     1      36.247   0.664  15.282  1.00  0.00     0.013 C 
ATOM     10  C   UNL     1      35.744  -0.477  14.795  1.00  0.00     0.008 C 
ENDBRANCH   1   9
BRANCH   1  11
ATOM     11  O   UNL     1      38.473   0.906  16.279  1.00  0.00    -0.455 OA
BRANCH  11  12
ATOM     12  C   UNL     1      39.008   1.503  15.128  1.00  0.00     0.303 C 
ATOM     13  O   UNL     1      39.469   0.806  14.185  1.00  0.00    -0.253 OA
ATOM     14  C   UNL     1      39.092   2.989  15.052  1.00  0.00     0.139 C 
ENDBRANCH  11  12
ENDBRANCH   1  11
TORSDOF 6
ENDMDL
MODEL 2
REMARK VINA RESULT:    -5.619      1.562      2.528
REMARK INTER + INTRA:          -8.683
REMARK INTER:                  -7.691
REMARK INTRA:                  -0.992
REMARK UNBOUND:                -1.093
REMARK SMILES C=C[C@@](C)(CCC=C(C)C)OC(C)=O
REMARK SMILES IDX 3 1 4 2 5 3 6 4 7 5 9 6 8 7 10 8 2 9 1 10 11 11 12 12 14 13
REMARK SMILES IDX 13 14
REMARK H PARENT
REMARK Flexibility Score: inf
ROOT
ATOM      1  C   UNL     1      37.410   0.243  16.442  1.00  0.00     0.127 C 
ATOM      2  C   UNL     1      38.763  -0.371  16.025  1.00  0.00     0.061 C 
ENDROOT
BRANCH   1   3
ATOM      3  C   UNL     1      36.378  -0.071  15.330  1.00  0.00     0.057 C 
BRANCH   3   4
ATOM      4  C   UNL     1      35.299   1.012  15.154  1.00  0.00     0.032 C 
BRANCH   4   5
ATOM      5  C   UNL     1      33.967   0.524  15.665  1.00  0.00    -0.028 C 
ATOM      6  C   UNL     1      34.066   1.921  17.742  1.00  0.00     0.039 C 
ATOM      7  C   UNL     1      33.412   0.902  16.837  1.00  0.00    -0.080 C 
ATOM      8  C   UNL     1      32.090   0.298  17.235  1.00  0.00     0.039 C 
ENDBRANCH   4   5
ENDBRANCH   3   4
ENDBRANCH   1   3
BRANCH   1   9
ATOM      9  C   UNL     1      36.965  -0.381  17.759  1.00  0.00     0.013 C 
ATOM     10  C   UNL     1      36.235  -1.500  17.829  1.00  0.00     0.008 C 
ENDBRANCH   1   9
BRANCH   1  11
ATOM     11  O   UNL     1      37.548   1.670  16.548  1.00  0.00    -0.455 OA
BRANCH  11  12
ATOM     12  C   UNL     1      38.749   2.386  16.433  1.00  0.00     0.303 C 
ATOM     13  O   UNL     1      39.511   2.547  17.423  1.00  0.00    -0.253 OA
ATOM     14  C   UNL     1      39.093   3.023  15.130  1.00  0.00     0.139 C 
ENDBRANCH  11  12
ENDBRANCH   1  11
TORSDOF 6
ENDMDL
MODEL 3
REMARK VINA RESULT:    -5.598      2.027      3.580
REMARK INTER + INTRA:          -8.655
REMARK INTER:                  -7.763
REMARK INTRA:                  -0.892
REMARK UNBOUND:                -1.093
REMARK SMILES C=C[C@@](C)(CCC=C(C)C)OC(C)=O
REMARK SMILES IDX 3 1 4 2 5 3 6 4 7 5 9 6 8 7 10 8 2 9 1 10 11 11 12 12 14 13
REMARK SMILES IDX 13 14
REMARK H PARENT
REMARK Flexibility Score: inf
ROOT
ATOM      1  C   UNL     1      38.392  -0.290  16.126  1.00  0.00     0.127 C 
ATOM      2  C   UNL     1      39.866  -0.720  16.276  1.00  0.00     0.061 C 
ENDROOT
BRANCH   1   3
ATOM      3  C   UNL     1      37.939   0.341  17.468  1.00  0.00     0.057 C 
BRANCH   3   4
ATOM      4  C   UNL     1      37.215   1.691  17.311  1.00  0.00     0.032 C 
BRANCH   4   5
ATOM      5  C   UNL     1      35.789   1.588  17.792  1.00  0.00    -0.028 C 
ATOM      6  C   UNL     1      34.823   2.284  15.588  1.00  0.00     0.039 C 
ATOM      7  C   UNL     1      34.705   1.876  17.038  1.00  0.00    -0.080 C 
ATOM      8  C   UNL     1      33.342   1.766  17.669  1.00  0.00     0.039 C 
ENDBRANCH   4   5
ENDBRANCH   3   4
ENDBRANCH   1   3
BRANCH   1   9
ATOM      9  C   UNL     1      38.283   0.735  15.004  1.00  0.00     0.013 C 
ATOM     10  C   UNL     1      39.349   1.279  14.405  1.00  0.00     0.008 C 
ENDBRANCH   1   9
BRANCH   1  11
ATOM     11  O   UNL     1      37.581  -1.449  15.870  1.00  0.00    -0.455 OA
BRANCH  11  12
ATOM     12  C   UNL     1      36.188  -1.452  15.706  1.00  0.00     0.303 C 
ATOM     13  O   UNL     1      35.648  -0.930  14.695  1.00  0.00    -0.253 OA
ATOM     14  C   UNL     1      35.331  -2.024  16.784  1.00  0.00     0.139 C 
ENDBRANCH  11  12
ENDBRANCH   1  11
TORSDOF 6
ENDMDL
MODEL 4
REMARK VINA RESULT:    -5.573      2.446      5.101
REMARK INTER + INTRA:          -8.622
REMARK INTER:                  -7.778
REMARK INTRA:                  -0.844
REMARK UNBOUND:                -1.093
REMARK SMILES C=C[C@@](C)(CCC=C(C)C)OC(C)=O
REMARK SMILES IDX 3 1 4 2 5 3 6 4 7 5 9 6 8 7 10 8 2 9 1 10 11 11 12 12 14 13
REMARK SMILES IDX 13 14
REMARK H PARENT
REMARK Flexibility Score: inf
ROOT
ATOM      1  C   UNL     1      35.202  -0.740  17.498  1.00  0.00     0.127 C 
ATOM      2  C   UNL     1      34.870  -1.863  18.502  1.00  0.00     0.061 C 
ENDROOT
BRANCH   1   3
ATOM      3  C   UNL     1      36.675  -0.313  17.727  1.00  0.00     0.057 C 
BRANCH   3   4
ATOM      4  C   UNL     1      36.860   1.198  17.954  1.00  0.00     0.032 C 
BRANCH   4   5
ATOM      5  C   UNL     1      37.467   1.848  16.736  1.00  0.00    -0.028 C 
ATOM      6  C   UNL     1      39.728   2.087  17.787  1.00  0.00     0.039 C 
ATOM      7  C   UNL     1      38.746   2.276  16.654  1.00  0.00    -0.080 C 
ATOM      8  C   UNL     1      39.200   2.945  15.383  1.00  0.00     0.039 C 
ENDBRANCH   4   5
ENDBRANCH   3   4
ENDBRANCH   1   3
BRANCH   1   9
ATOM      9  C   UNL     1      35.026  -1.270  16.081  1.00  0.00     0.013 C 
ATOM     10  C   UNL     1      35.939  -1.100  15.117  1.00  0.00     0.008 C 
ENDBRANCH   1   9
BRANCH   1  11
ATOM     11  O   UNL     1      34.354   0.393  17.753  1.00  0.00    -0.455 OA
BRANCH  11  12
ATOM     12  C   UNL     1      33.310   0.834  16.926  1.00  0.00     0.303 C 
ATOM     13  O   UNL     1      32.169   0.299  16.972  1.00  0.00    -0.253 OA
ATOM     14  C   UNL     1      33.577   1.907  15.927  1.00  0.00     0.139 C 
ENDBRANCH  11  12
ENDBRANCH   1  11
TORSDOF 6
ENDMDL
MODEL 5
REMARK VINA RESULT:    -5.534      1.488      2.499
REMARK INTER + INTRA:          -8.568
REMARK INTER:                  -7.783
REMARK INTRA:                  -0.784
REMARK UNBOUND:                -1.093
REMARK SMILES C=C[C@@](C)(CCC=C(C)C)OC(C)=O
REMARK SMILES IDX 3 1 4 2 5 3 6 4 7 5 9 6 8 7 10 8 2 9 1 10 11 11 12 12 14 13
REMARK SMILES IDX 13 14
REMARK H PARENT
REMARK Flexibility Score: inf
ROOT
ATOM      1  C   UNL     1      37.954   0.638  16.976  1.00  0.00     0.127 C 
ATOM      2  C   UNL     1      37.587  -0.852  16.812  1.00  0.00     0.061 C 
ENDROOT
BRANCH   1   3
ATOM      3  C   UNL     1      36.999   1.253  18.030  1.00  0.00     0.057 C 
BRANCH   3   4
ATOM      4  C   UNL     1      35.865   2.100  17.427  1.00  0.00     0.032 C 
BRANCH   4   5
ATOM      5  C   UNL     1      34.521   1.499  17.754  1.00  0.00    -0.028 C 
ATOM      6  C   UNL     1      34.269   0.429  15.503  1.00  0.00     0.039 C 
ATOM      7  C   UNL     1      33.780   0.768  16.892  1.00  0.00    -0.080 C 
ATOM      8  C   UNL     1      32.435   0.265  17.348  1.00  0.00     0.039 C 
ENDBRANCH   4   5
ENDBRANCH   3   4
ENDBRANCH   1   3
BRANCH   1   9
ATOM      9  C   UNL     1      39.397   0.745  17.452  1.00  0.00     0.013 C 
ATOM     10  C   UNL     1      40.245  -0.290  17.461  1.00  0.00     0.008 C 
ENDBRANCH   1   9
BRANCH   1  11
ATOM     11  O   UNL     1      37.753   1.317  15.725  1.00  0.00    -0.455 OA
BRANCH  11  12
ATOM     12  C   UNL     1      38.768   1.819  14.896  1.00  0.00     0.303 C 
ATOM     13  O   UNL     1      39.359   1.078  14.065  1.00  0.00    -0.253 OA
ATOM     14  C   UNL     1      39.198   3.237  15.051  1.00  0.00     0.139 C 
ENDBRANCH  11  12
ENDBRANCH   1  11
TORSDOF 6
ENDMDL
MODEL 6
REMARK VINA RESULT:    -5.526      1.589      2.598
REMARK INTER + INTRA:          -8.557
REMARK INTER:                  -7.753
REMARK INTRA:                  -0.805
REMARK UNBOUND:                -1.093
REMARK SMILES C=C[C@@](C)(CCC=C(C)C)OC(C)=O
REMARK SMILES IDX 3 1 4 2 5 3 6 4 7 5 9 6 8 7 10 8 2 9 1 10 11 11 12 12 14 13
REMARK SMILES IDX 13 14
REMARK H PARENT
REMARK Flexibility Score: inf
ROOT
ATOM      1  C   UNL     1      37.510   1.124  16.642  1.00  0.00     0.127 C 
ATOM      2  C   UNL     1      36.576   1.662  17.746  1.00  0.00     0.061 C 
ENDROOT
BRANCH   1   3
ATOM      3  C   UNL     1      36.633   0.711  15.432  1.00  0.00     0.057 C 
BRANCH   3   4
ATOM      4  C   UNL     1      36.165  -0.755  15.471  1.00  0.00     0.032 C 
BRANCH   4   5
ATOM      5  C   UNL     1      34.738  -0.845  15.950  1.00  0.00    -0.028 C 
ATOM      6  C   UNL     1      35.367  -1.863  18.150  1.00  0.00     0.039 C 
ATOM      7  C   UNL     1      34.361  -1.363  17.139  1.00  0.00    -0.080 C 
ATOM      8  C   UNL     1      32.891  -1.423  17.464  1.00  0.00     0.039 C 
ENDBRANCH   4   5
ENDBRANCH   3   4
ENDBRANCH   1   3
BRANCH   1   9
ATOM      9  C   UNL     1      38.481   2.223  16.232  1.00  0.00     0.013 C 
ATOM     10  C   UNL     1      38.748   2.526  14.956  1.00  0.00     0.008 C 
ENDBRANCH   1   9
BRANCH   1  11
ATOM     11  O   UNL     1      38.198  -0.042  17.127  1.00  0.00    -0.455 OA
BRANCH  11  12
ATOM     12  C   UNL     1      39.519  -0.398  16.818  1.00  0.00     0.303 C 
ATOM     13  O   UNL     1      39.795  -1.041  15.769  1.00  0.00    -0.253 OA
ATOM     14  C   UNL     1      40.606  -0.068  17.783  1.00  0.00     0.139 C 
ENDBRANCH  11  12
ENDBRANCH   1  11
TORSDOF 6
ENDMDL
MODEL 7
REMARK VINA RESULT:    -5.496      2.344      5.336
REMARK INTER + INTRA:          -8.517
REMARK INTER:                  -7.488
REMARK INTRA:                  -1.030
REMARK UNBOUND:                -1.093
REMARK SMILES C=C[C@@](C)(CCC=C(C)C)OC(C)=O
REMARK SMILES IDX 3 1 4 2 5 3 6 4 7 5 9 6 8 7 10 8 2 9 1 10 11 11 12 12 14 13
REMARK SMILES IDX 13 14
REMARK H PARENT
REMARK Flexibility Score: inf
ROOT
ATOM      1  C   UNL     1      35.260  -0.174  16.034  1.00  0.00     0.127 C 
ATOM      2  C   UNL     1      36.159  -1.114  15.206  1.00  0.00     0.061 C 
ENDROOT
BRANCH   1   3
ATOM      3  C   UNL     1      35.988   0.134  17.367  1.00  0.00     0.057 C 
BRANCH   3   4
ATOM      4  C   UNL     1      37.523   0.069  17.270  1.00  0.00     0.032 C 
BRANCH   4   5
ATOM      5  C   UNL     1      38.122   1.449  17.382  1.00  0.00    -0.028 C 
ATOM      6  C   UNL     1      38.861   1.502  14.989  1.00  0.00     0.039 C 
ATOM      7  C   UNL     1      38.748   2.095  16.375  1.00  0.00    -0.080 C 
ATOM      8  C   UNL     1      39.333   3.457  16.648  1.00  0.00     0.039 C 
ENDBRANCH   4   5
ENDBRANCH   3   4
ENDBRANCH   1   3
BRANCH   1   9
ATOM      9  C   UNL     1      35.033   1.114  15.253  1.00  0.00     0.013 C 
ATOM     10  C   UNL     1      34.574   2.240  15.814  1.00  0.00     0.008 C 
ENDBRANCH   1   9
BRANCH   1  11
ATOM     11  O   UNL     1      34.022  -0.841  16.334  1.00  0.00    -0.455 OA
BRANCH  11  12
ATOM     12  C   UNL     1      33.618  -1.282  17.603  1.00  0.00     0.303 C 
ATOM     13  O   UNL     1      34.044  -2.366  18.084  1.00  0.00    -0.253 OA
ATOM     14  C   UNL     1      32.613  -0.486  18.364  1.00  0.00     0.139 C 
ENDBRANCH  11  12
ENDBRANCH   1  11
TORSDOF 6
ENDMDL
MODEL 8
REMARK VINA RESULT:    -5.470      1.008      2.129
REMARK INTER + INTRA:          -8.481
REMARK INTER:                  -7.584
REMARK INTRA:                  -0.898
REMARK UNBOUND:                -1.093
REMARK SMILES C=C[C@@](C)(CCC=C(C)C)OC(C)=O
REMARK SMILES IDX 3 1 4 2 5 3 6 4 7 5 9 6 8 7 10 8 2 9 1 10 11 11 12 12 14 13
REMARK SMILES IDX 13 14
REMARK H PARENT
REMARK Flexibility Score: inf
ROOT
ATOM      1  C   UNL     1      37.432   0.494  16.758  1.00  0.00     0.127 C 
ATOM      2  C   UNL     1      37.461  -0.886  17.447  1.00  0.00     0.061 C 
ENDROOT
BRANCH   1   3
ATOM      3  C   UNL     1      36.547   0.378  15.491  1.00  0.00     0.057 C 
BRANCH   3   4
ATOM      4  C   UNL     1      35.639  -0.864  15.474  1.00  0.00     0.032 C 
BRANCH   4   5
ATOM      5  C   UNL     1      34.210  -0.482  15.768  1.00  0.00    -0.028 C 
ATOM      6  C   UNL     1      34.029  -2.023  17.734  1.00  0.00     0.039 C 
ATOM      7  C   UNL     1      33.465  -1.012  16.763  1.00  0.00    -0.080 C 
ATOM      8  C   UNL     1      32.036  -0.560  16.910  1.00  0.00     0.039 C 
ENDBRANCH   4   5
ENDBRANCH   3   4
ENDBRANCH   1   3
BRANCH   1   9
ATOM      9  C   UNL     1      36.839   1.518  17.718  1.00  0.00     0.013 C 
ATOM     10  C   UNL     1      35.782   2.280  17.414  1.00  0.00     0.008 C 
ENDBRANCH   1   9
BRANCH   1  11
ATOM     11  O   UNL     1      38.765   0.852  16.354  1.00  0.00    -0.455 OA
BRANCH  11  12
ATOM     12  C   UNL     1      39.108   1.518  15.168  1.00  0.00     0.303 C 
ATOM     13  O   UNL     1      39.504   0.884  14.154  1.00  0.00    -0.253 OA
ATOM     14  C   UNL     1      39.066   3.008  15.133  1.00  0.00     0.139 C 
ENDBRANCH  11  12
ENDBRANCH   1  11
TORSDOF 6
ENDMDL
MODEL 9
REMARK VINA RESULT:    -5.383      1.340      2.336
REMARK INTER + INTRA:          -8.365
REMARK INTER:                  -7.371
REMARK INTRA:                  -0.994
REMARK UNBOUND:                -1.093
REMARK SMILES C=C[C@@](C)(CCC=C(C)C)OC(C)=O
REMARK SMILES IDX 3 1 4 2 5 3 6 4 7 5 9 6 8 7 10 8 2 9 1 10 11 11 12 12 14 13
REMARK SMILES IDX 13 14
REMARK H PARENT
REMARK Flexibility Score: inf
ROOT
ATOM      1  C   UNL     1      36.242   1.217  16.105  1.00  0.00     0.127 C 
ATOM      2  C   UNL     1      35.903   0.061  15.142  1.00  0.00     0.061 C 
ENDROOT
BRANCH   1   3
ATOM      3  C   UNL     1      34.922   1.950  16.457  1.00  0.00     0.057 C 
BRANCH   3   4
ATOM      4  C   UNL     1      34.218   1.402  17.710  1.00  0.00     0.032 C 
BRANCH   4   5
ATOM      5  C   UNL     1      32.902   0.761  17.344  1.00  0.00    -0.028 C 
ATOM      6  C   UNL     1      33.740  -1.567  17.735  1.00  0.00     0.039 C 
ATOM      7  C   UNL     1      32.680  -0.572  17.325  1.00  0.00    -0.080 C 
ATOM      8  C   UNL     1      31.323  -1.068  16.898  1.00  0.00     0.039 C 
ENDBRANCH   4   5
ENDBRANCH   3   4
ENDBRANCH   1   3
BRANCH   1   9
ATOM      9  C   UNL     1      36.874   0.645  17.368  1.00  0.00     0.013 C 
ATOM     10  C   UNL     1      37.283  -0.625  17.471  1.00  0.00     0.008 C 
ENDBRANCH   1   9
BRANCH   1  11
ATOM     11  O   UNL     1      37.118   2.146  15.444  1.00  0.00    -0.455 OA
BRANCH  11  12
ATOM     12  C   UNL     1      38.520   2.117  15.484  1.00  0.00     0.303 C 
ATOM     13  O   UNL     1      39.168   2.887  16.242  1.00  0.00    -0.253 OA
ATOM     14  C   UNL     1      39.255   1.204  14.563  1.00  0.00     0.139 C 
ENDBRANCH  11  12
ENDBRANCH   1  11
TORSDOF 6
ENDMDL
