MODEL 1
REMARK VINA RESULT:    -3.439      0.000      0.000
REMARK INTER + INTRA:          -4.761
REMARK INTER:                  -4.444
REMARK INTRA:                  -0.317
REMARK UNBOUND:                -0.317
REMARK SMILES CCCCCCC(=O)[O-]
REMARK SMILES IDX 5 1 6 2 7 3 8 4 9 5 4 6 3 7 2 8 1 9
REMARK H PARENT
REMARK Flexibility Score: inf
ROOT
ATOM      1  C   UNL     1      15.765  41.466  29.250  1.00  0.00     0.006 C 
ENDROOT
BRANCH   1   2
ATOM      2  C   UNL     1      16.359  40.163  28.690  1.00  0.00     0.053 C 
BRANCH   2   3
ATOM      3  C   UNL     1      16.307  39.049  29.689  1.00  0.00     0.041 C 
ATOM      4  O   UNL     1      17.350  38.404  29.975  1.00  0.00    -0.550 OA
ATOM      5  O   UNL     1      15.100  38.702  30.283  1.00  0.00    -0.550 OA
ENDBRANCH   2   3
ENDBRANCH   1   2
BRANCH   1   6
ATOM      6  C   UNL     1      14.242  41.602  29.065  1.00  0.00     0.000 C 
BRANCH   6   7
ATOM      7  C   UNL     1      13.765  41.114  27.687  1.00  0.00    -0.000 C 
BRANCH   7   8
ATOM      8  C   UNL     1      12.729  39.983  27.789  1.00  0.00    -0.003 C 
ATOM      9  C   UNL     1      13.239  38.658  27.222  1.00  0.00     0.004 C 
ENDBRANCH   7   8
ENDBRANCH   6   7
ENDBRANCH   1   6
TORSDOF 5
ENDMDL
MODEL 2
REMARK VINA RESULT:    -3.433      1.913      3.538
REMARK INTER + INTRA:          -4.754
REMARK INTER:                  -4.354
REMARK INTRA:                  -0.400
REMARK UNBOUND:                -0.317
REMARK SMILES CCCCCCC(=O)[O-]
REMARK SMILES IDX 5 1 6 2 7 3 8 4 9 5 4 6 3 7 2 8 1 9
REMARK H PARENT
REMARK Flexibility Score: inf
ROOT
ATOM      1  C   UNL     1      13.625  41.166  27.552  1.00  0.00     0.006 C 
ENDROOT
BRANCH   1   2
ATOM      2  C   UNL     1      12.815  39.874  27.750  1.00  0.00     0.053 C 
BRANCH   2   3
ATOM      3  C   UNL     1      13.542  38.672  27.231  1.00  0.00     0.041 C 
ATOM      4  O   UNL     1      13.012  37.533  27.294  1.00  0.00    -0.550 OA
ATOM      5  O   UNL     1      14.821  38.807  26.704  1.00  0.00    -0.550 OA
ENDBRANCH   2   3
ENDBRANCH   1   2
BRANCH   1   6
ATOM      6  C   UNL     1      14.104  41.822  28.861  1.00  0.00     0.000 C 
BRANCH   6   7
ATOM      7  C   UNL     1      15.538  41.413  29.239  1.00  0.00    -0.000 C 
BRANCH   7   8
ATOM      8  C   UNL     1      15.572  40.242  30.234  1.00  0.00    -0.003 C 
ATOM      9  C   UNL     1      16.571  39.155  29.838  1.00  0.00     0.004 C 
ENDBRANCH   7   8
ENDBRANCH   6   7
ENDBRANCH   1   6
TORSDOF 5
ENDMDL
MODEL 3
REMARK VINA RESULT:    -3.408     11.513     12.732
REMARK INTER + INTRA:          -4.721
REMARK INTER:                  -4.580
REMARK INTRA:                  -0.141
REMARK UNBOUND:                -0.317
REMARK SMILES CCCCCCC(=O)[O-]
REMARK SMILES IDX 5 1 6 2 7 3 8 4 9 5 4 6 3 7 2 8 1 9
REMARK H PARENT
REMARK Flexibility Score: inf
ROOT
ATOM      1  C   UNL     1      11.244  45.347  19.346  1.00  0.00     0.006 C 
ENDROOT
BRANCH   1   2
ATOM      2  C   UNL     1      10.004  44.906  20.140  1.00  0.00     0.053 C 
BRANCH   2   3
ATOM      3  C   UNL     1       9.620  43.491  19.840  1.00  0.00     0.041 C 
ATOM      4  O   UNL     1       8.413  43.187  19.651  1.00  0.00    -0.550 OA
ATOM      5  O   UNL     1      10.592  42.499  19.800  1.00  0.00    -0.550 OA
ENDBRANCH   2   3
ENDBRANCH   1   2
BRANCH   1   6
ATOM      6  C   UNL     1      11.148  46.767  18.755  1.00  0.00     0.000 C 
BRANCH   6   7
ATOM      7  C   UNL     1       9.773  47.415  18.986  1.00  0.00    -0.000 C 
BRANCH   7   8
ATOM      8  C   UNL     1       9.643  48.782  18.296  1.00  0.00    -0.003 C 
ATOM      9  C   UNL     1       8.266  49.004  17.671  1.00  0.00     0.004 C 
ENDBRANCH   7   8
ENDBRANCH   6   7
ENDBRANCH   1   6
TORSDOF 5
ENDMDL
MODEL 4
REMARK VINA RESULT:    -3.353     12.548     13.682
REMARK INTER + INTRA:          -4.651
REMARK INTER:                  -4.562
REMARK INTRA:                  -0.088
REMARK UNBOUND:                -0.317
REMARK SMILES CCCCCCC(=O)[O-]
REMARK SMILES IDX 5 1 6 2 7 3 8 4 9 5 4 6 3 7 2 8 1 9
REMARK H PARENT
REMARK Flexibility Score: inf
ROOT
ATOM      1  C   UNL     1      10.839  47.088  18.519  1.00  0.00     0.006 C 
ENDROOT
BRANCH   1   2
ATOM      2  C   UNL     1       9.892  48.140  19.119  1.00  0.00     0.053 C 
BRANCH   2   3
ATOM      3  C   UNL     1       9.288  49.016  18.066  1.00  0.00     0.041 C 
ATOM      4  O   UNL     1       9.945  49.975  17.583  1.00  0.00    -0.550 OA
ATOM      5  O   UNL     1       7.984  48.793  17.639  1.00  0.00    -0.550 OA
ENDBRANCH   2   3
ENDBRANCH   1   2
BRANCH   1   6
ATOM      6  C   UNL     1      11.132  45.893  19.446  1.00  0.00     0.000 C 
BRANCH   6   7
ATOM      7  C   UNL     1       9.903  44.994  19.662  1.00  0.00    -0.000 C 
BRANCH   7   8
ATOM      8  C   UNL     1      10.287  43.534  19.952  1.00  0.00    -0.003 C 
ATOM      9  C   UNL     1       9.072  42.625  20.136  1.00  0.00     0.004 C 
ENDBRANCH   7   8
ENDBRANCH   6   7
ENDBRANCH   1   6
TORSDOF 5
ENDMDL
MODEL 5
REMARK VINA RESULT:    -3.347     11.768     12.958
REMARK INTER + INTRA:          -4.642
REMARK INTER:                  -4.366
REMARK INTRA:                  -0.276
REMARK UNBOUND:                -0.317
REMARK SMILES CCCCCCC(=O)[O-]
REMARK SMILES IDX 5 1 6 2 7 3 8 4 9 5 4 6 3 7 2 8 1 9
REMARK H PARENT
REMARK Flexibility Score: inf
ROOT
ATOM      1  C   UNL     1      12.302  44.646  19.059  1.00  0.00     0.006 C 
ENDROOT
BRANCH   1   2
ATOM      2  C   UNL     1      11.774  45.962  19.654  1.00  0.00     0.053 C 
BRANCH   2   3
ATOM      3  C   UNL     1      10.298  46.114  19.457  1.00  0.00     0.041 C 
ATOM      4  O   UNL     1       9.806  47.240  19.184  1.00  0.00    -0.550 OA
ATOM      5  O   UNL     1       9.459  45.016  19.606  1.00  0.00    -0.550 OA
ENDBRANCH   2   3
ENDBRANCH   1   2
BRANCH   1   6
ATOM      6  C   UNL     1      13.409  44.825  18.003  1.00  0.00     0.000 C 
BRANCH   6   7
ATOM      7  C   UNL     1      12.906  45.523  16.728  1.00  0.00    -0.000 C 
BRANCH   7   8
ATOM      8  C   UNL     1      13.524  46.918  16.539  1.00  0.00    -0.003 C 
ATOM      9  C   UNL     1      14.839  47.093  17.298  1.00  0.00     0.004 C 
ENDBRANCH   7   8
ENDBRANCH   6   7
ENDBRANCH   1   6
TORSDOF 5
ENDMDL
MODEL 6
REMARK VINA RESULT:    -3.345      1.554      2.508
REMARK INTER + INTRA:          -4.640
REMARK INTER:                  -4.218
REMARK INTRA:                  -0.422
REMARK UNBOUND:                -0.317
REMARK SMILES CCCCCCC(=O)[O-]
REMARK SMILES IDX 5 1 6 2 7 3 8 4 9 5 4 6 3 7 2 8 1 9
REMARK H PARENT
REMARK Flexibility Score: inf
ROOT
ATOM      1  C   UNL     1      13.832  41.099  27.673  1.00  0.00     0.006 C 
ENDROOT
BRANCH   1   2
ATOM      2  C   UNL     1      14.262  41.616  29.055  1.00  0.00     0.053 C 
BRANCH   2   3
ATOM      3  C   UNL     1      15.503  40.938  29.547  1.00  0.00     0.041 C 
ATOM      4  O   UNL     1      16.579  41.039  28.902  1.00  0.00    -0.550 OA
ATOM      5  O   UNL     1      15.463  40.166  30.702  1.00  0.00    -0.550 OA
ENDBRANCH   2   3
ENDBRANCH   1   2
BRANCH   1   6
ATOM      6  C   UNL     1      12.831  39.928  27.715  1.00  0.00     0.000 C 
BRANCH   6   7
ATOM      7  C   UNL     1      13.468  38.588  27.312  1.00  0.00    -0.000 C 
BRANCH   7   8
ATOM      8  C   UNL     1      14.773  38.771  26.521  1.00  0.00    -0.003 C 
ATOM      9  C   UNL     1      15.951  38.013  27.134  1.00  0.00     0.004 C 
ENDBRANCH   7   8
ENDBRANCH   6   7
ENDBRANCH   1   6
TORSDOF 5
ENDMDL
MODEL 7
REMARK VINA RESULT:    -3.326     11.017     11.966
REMARK INTER + INTRA:          -4.615
REMARK INTER:                  -4.384
REMARK INTRA:                  -0.231
REMARK UNBOUND:                -0.317
REMARK SMILES CCCCCCC(=O)[O-]
REMARK SMILES IDX 5 1 6 2 7 3 8 4 9 5 4 6 3 7 2 8 1 9
REMARK H PARENT
REMARK Flexibility Score: inf
ROOT
ATOM      1  C   UNL     1      11.131  46.907  18.662  1.00  0.00     0.006 C 
ENDROOT
BRANCH   1   2
ATOM      2  C   UNL     1      12.167  45.868  18.199  1.00  0.00     0.053 C 
BRANCH   2   3
ATOM      3  C   UNL     1      13.542  46.188  18.697  1.00  0.00     0.041 C 
ATOM      4  O   UNL     1      13.811  46.097  19.923  1.00  0.00    -0.550 OA
ATOM      5  O   UNL     1      14.520  46.619  17.809  1.00  0.00    -0.550 OA
ENDBRANCH   2   3
ENDBRANCH   1   2
BRANCH   1   6
ATOM      6  C   UNL     1       9.918  46.309  19.400  1.00  0.00     0.000 C 
BRANCH   6   7
ATOM      7  C   UNL     1      10.215  44.928  20.008  1.00  0.00    -0.000 C 
BRANCH   7   8
ATOM      8  C   UNL     1       9.184  43.867  19.589  1.00  0.00    -0.003 C 
ATOM      9  C   UNL     1       9.539  42.466  20.085  1.00  0.00     0.004 C 
ENDBRANCH   7   8
ENDBRANCH   6   7
ENDBRANCH   1   6
TORSDOF 5
ENDMDL
MODEL 8
REMARK VINA RESULT:    -3.313      2.141      3.687
REMARK INTER + INTRA:          -4.598
REMARK INTER:                  -4.252
REMARK INTRA:                  -0.346
REMARK UNBOUND:                -0.317
REMARK SMILES CCCCCCC(=O)[O-]
REMARK SMILES IDX 5 1 6 2 7 3 8 4 9 5 4 6 3 7 2 8 1 9
REMARK H PARENT
REMARK Flexibility Score: inf
ROOT
ATOM      1  C   UNL     1      15.485  41.467  29.439  1.00  0.00     0.006 C 
ENDROOT
BRANCH   1   2
ATOM      2  C   UNL     1      14.157  41.779  28.730  1.00  0.00     0.053 C 
BRANCH   2   3
ATOM      3  C   UNL     1      13.712  40.652  27.851  1.00  0.00     0.041 C 
ATOM      4  O   UNL     1      14.508  40.143  27.020  1.00  0.00    -0.550 OA
ATOM      5  O   UNL     1      12.406  40.183  27.928  1.00  0.00    -0.550 OA
ENDBRANCH   2   3
ENDBRANCH   1   2
BRANCH   1   6
ATOM      6  C   UNL     1      15.493  40.139  30.219  1.00  0.00     0.000 C 
BRANCH   6   7
ATOM      7  C   UNL     1      16.677  39.234  29.839  1.00  0.00    -0.000 C 
BRANCH   7   8
ATOM      8  C   UNL     1      17.601  39.882  28.794  1.00  0.00    -0.003 C 
ATOM      9  C   UNL     1      17.781  39.020  27.545  1.00  0.00     0.004 C 
ENDBRANCH   7   8
ENDBRANCH   6   7
ENDBRANCH   1   6
TORSDOF 5
ENDMDL
MODEL 9
REMARK VINA RESULT:    -3.244     12.005     12.922
REMARK INTER + INTRA:          -4.509
REMARK INTER:                  -4.116
REMARK INTRA:                  -0.393
REMARK UNBOUND:                -0.317
REMARK SMILES CCCCCCC(=O)[O-]
REMARK SMILES IDX 5 1 6 2 7 3 8 4 9 5 4 6 3 7 2 8 1 9
REMARK H PARENT
REMARK Flexibility Score: inf
ROOT
ATOM      1  C   UNL     1      13.676  45.525  19.254  1.00  0.00     0.006 C 
ENDROOT
BRANCH   1   2
ATOM      2  C   UNL     1      14.324  46.279  18.081  1.00  0.00     0.053 C 
BRANCH   2   3
ATOM      3  C   UNL     1      13.372  46.469  16.942  1.00  0.00     0.041 C 
ATOM      4  O   UNL     1      12.828  45.474  16.396  1.00  0.00    -0.550 OA
ATOM      5  O   UNL     1      13.108  47.746  16.462  1.00  0.00    -0.550 OA
ENDBRANCH   2   3
ENDBRANCH   1   2
BRANCH   1   6
ATOM      6  C   UNL     1      12.441  46.222  19.853  1.00  0.00     0.000 C 
BRANCH   6   7
ATOM      7  C   UNL     1      11.179  45.344  19.802  1.00  0.00    -0.000 C 
BRANCH   7   8
ATOM      8  C   UNL     1       9.922  46.142  19.421  1.00  0.00    -0.003 C 
ATOM      9  C   UNL     1      10.246  47.502  18.803  1.00  0.00     0.004 C 
ENDBRANCH   7   8
ENDBRANCH   6   7
ENDBRANCH   1   6
TORSDOF 5
ENDMDL
