MODEL 1
REMARK VINA RESULT:    -6.900      0.000      0.000
REMARK INTER + INTRA:          -8.408
REMARK INTER:                  -8.110
REMARK INTRA:                  -0.298
REMARK UNBOUND:                -0.298
REMARK SMILES O=c1c(O)c(-c2ccc(O)cc2)oc2cc(O)cc(O)c12
REMARK SMILES IDX 5 1 3 2 2 3 1 4 21 5 19 6 18 7 16 8 15 9 14 10 13 11 6 12
REMARK SMILES IDX 7 13 8 14 9 15 12 16 11 17 10 18 4 20 20 22 17 24
REMARK H PARENT 10 19 4 21 20 23 17 25
REMARK Flexibility Score: inf
ROOT
ATOM      1  C   UNL     1       9.781  11.479 -16.241  1.00  0.00     0.180 A 
ATOM      2  C   UNL     1      10.496  10.303 -16.545  1.00  0.00     0.208 A 
ATOM      3  C   UNL     1      10.177   9.121 -15.859  1.00  0.00     0.238 A 
ATOM      4  O   UNL     1      10.818   8.065 -16.115  1.00  0.00    -0.285 OA
ATOM      5  C   UNL     1       9.143   9.127 -14.901  1.00  0.00     0.111 A 
ATOM      6  C   UNL     1       8.759   7.978 -14.170  1.00  0.00     0.134 A 
ATOM      7  C   UNL     1       7.712   8.062 -13.239  1.00  0.00     0.093 A 
ATOM      8  C   UNL     1       7.044   9.275 -13.028  1.00  0.00     0.123 A 
ATOM      9  C   UNL     1       7.421  10.410 -13.746  1.00  0.00     0.094 A 
ATOM     10  C   UNL     1       8.462  10.346 -14.676  1.00  0.00     0.146 A 
ATOM     11  O   UNL     1       8.802  11.443 -15.342  1.00  0.00    -0.452 OA
ENDROOT
BRANCH   1  12
ATOM     12  C   UNL     1      10.071  12.770 -16.908  1.00  0.00     0.021 A 
ATOM     13  C   UNL     1      11.013  13.672 -16.380  1.00  0.00     0.016 A 
ATOM     14  C   UNL     1      11.252  14.895 -17.014  1.00  0.00     0.047 A 
ATOM     15  C   UNL     1      10.544  15.239 -18.170  1.00  0.00     0.115 A 
ATOM     16  C   UNL     1       9.349  13.131 -18.058  1.00  0.00     0.016 A 
ATOM     17  C   UNL     1       9.591  14.354 -18.689  1.00  0.00     0.047 A 
BRANCH  15  18
ATOM     18  O   UNL     1      10.794  16.461 -18.792  1.00  0.00    -0.508 OA
ATOM     19  H   UNL     1      11.688  16.661 -19.225  1.00  0.00     0.293 HD
ENDBRANCH  15  18
ENDBRANCH   1  12
BRANCH   2  20
ATOM     20  O   UNL     1      11.482  10.312 -17.534  1.00  0.00    -0.502 OA
ATOM     21  H   UNL     1      11.471   9.670 -18.317  1.00  0.00     0.293 HD
ENDBRANCH   2  20
BRANCH   6  22
ATOM     22  O   UNL     1       9.405   6.755 -14.360  1.00  0.00    -0.507 OA
ATOM     23  H   UNL     1      10.372   6.704 -14.660  1.00  0.00     0.293 HD
ENDBRANCH   6  22
BRANCH   8  24
ATOM     24  O   UNL     1       6.004   9.359 -12.105  1.00  0.00    -0.508 OA
ATOM     25  H   UNL     1       5.082   9.682 -12.372  1.00  0.00     0.293 HD
ENDBRANCH   8  24
TORSDOF 5
ENDMDL
MODEL 2
REMARK VINA RESULT:    -6.577      3.483      6.298
REMARK INTER + INTRA:          -8.028
REMARK INTER:                  -7.792
REMARK INTRA:                  -0.235
REMARK UNBOUND:                -0.298
REMARK SMILES O=c1c(O)c(-c2ccc(O)cc2)oc2cc(O)cc(O)c12
REMARK SMILES IDX 5 1 3 2 2 3 1 4 21 5 19 6 18 7 16 8 15 9 14 10 13 11 6 12
REMARK SMILES IDX 7 13 8 14 9 15 12 16 11 17 10 18 4 20 20 22 17 24
REMARK H PARENT 10 19 4 21 20 23 17 25
REMARK Flexibility Score: inf
ROOT
ATOM      1  C   UNL     1       8.505  16.034 -18.977  1.00  0.00     0.180 A 
ATOM      2  C   UNL     1       8.501  15.649 -20.332  1.00  0.00     0.208 A 
ATOM      3  C   UNL     1       8.849  14.330 -20.663  1.00  0.00     0.238 A 
ATOM      4  O   UNL     1       8.861  13.977 -21.874  1.00  0.00    -0.285 OA
ATOM      5  C   UNL     1       9.174  13.416 -19.639  1.00  0.00     0.111 A 
ATOM      6  C   UNL     1       9.531  12.070 -19.889  1.00  0.00     0.134 A 
ATOM      7  C   UNL     1       9.832  11.219 -18.815  1.00  0.00     0.093 A 
ATOM      8  C   UNL     1       9.781  11.691 -17.497  1.00  0.00     0.123 A 
ATOM      9  C   UNL     1       9.429  13.018 -17.247  1.00  0.00     0.094 A 
ATOM     10  C   UNL     1       9.128  13.881 -18.304  1.00  0.00     0.146 A 
ATOM     11  O   UNL     1       8.801  15.140 -18.037  1.00  0.00    -0.452 OA
ENDROOT
BRANCH   1  12
ATOM     12  C   UNL     1       8.168  17.411 -18.549  1.00  0.00     0.021 A 
ATOM     13  C   UNL     1       9.060  18.480 -18.752  1.00  0.00     0.016 A 
ATOM     14  C   UNL     1       8.730  19.768 -18.318  1.00  0.00     0.047 A 
ATOM     15  C   UNL     1       7.515  20.001 -17.664  1.00  0.00     0.115 A 
ATOM     16  C   UNL     1       6.960  17.648 -17.873  1.00  0.00     0.016 A 
ATOM     17  C   UNL     1       6.632  18.937 -17.441  1.00  0.00     0.047 A 
BRANCH  15  18
ATOM     18  O   UNL     1       7.200  21.289 -17.238  1.00  0.00    -0.508 OA
ATOM     19  H   UNL     1       7.592  22.107 -17.690  1.00  0.00     0.293 HD
ENDBRANCH  15  18
ENDBRANCH   1  12
BRANCH   2  20
ATOM     20  O   UNL     1       8.128  16.560 -21.324  1.00  0.00    -0.502 OA
ATOM     21  H   UNL     1       7.316  17.157 -21.233  1.00  0.00     0.293 HD
ENDBRANCH   2  20
BRANCH   6  22
ATOM     22  O   UNL     1       9.590  11.570 -21.191  1.00  0.00    -0.507 OA
ATOM     23  H   UNL     1       8.986  11.923 -21.925  1.00  0.00     0.293 HD
ENDBRANCH   6  22
BRANCH   8  24
ATOM     24  O   UNL     1      10.078  10.846 -16.430  1.00  0.00    -0.508 OA
ATOM     25  H   UNL     1      10.882  11.005 -15.835  1.00  0.00     0.293 HD
ENDBRANCH   8  24
TORSDOF 5
ENDMDL
MODEL 3
REMARK VINA RESULT:    -6.569      2.928      7.354
REMARK INTER + INTRA:          -8.019
REMARK INTER:                  -7.751
REMARK INTRA:                  -0.268
REMARK UNBOUND:                -0.298
REMARK SMILES O=c1c(O)c(-c2ccc(O)cc2)oc2cc(O)cc(O)c12
REMARK SMILES IDX 5 1 3 2 2 3 1 4 21 5 19 6 18 7 16 8 15 9 14 10 13 11 6 12
REMARK SMILES IDX 7 13 8 14 9 15 12 16 11 17 10 18 4 20 20 22 17 24
REMARK H PARENT 10 19 4 21 20 23 17 25
REMARK Flexibility Score: inf
ROOT
ATOM      1  C   UNL     1       7.572   7.496 -14.968  1.00  0.00     0.180 A 
ATOM      2  C   UNL     1       7.073   7.919 -13.719  1.00  0.00     0.208 A 
ATOM      3  C   UNL     1       7.341   9.228 -13.291  1.00  0.00     0.238 A 
ATOM      4  O   UNL     1       6.909   9.614 -12.170  1.00  0.00    -0.285 OA
ATOM      5  C   UNL     1       8.079  10.097 -14.120  1.00  0.00     0.111 A 
ATOM      6  C   UNL     1       8.388  11.431 -13.764  1.00  0.00     0.134 A 
ATOM      7  C   UNL     1       9.120  12.237 -14.649  1.00  0.00     0.093 A 
ATOM      8  C   UNL     1       9.549  11.732 -15.882  1.00  0.00     0.123 A 
ATOM      9  C   UNL     1       9.248  10.416 -16.237  1.00  0.00     0.094 A 
ATOM     10  C   UNL     1       8.520   9.598 -15.369  1.00  0.00     0.146 A 
ATOM     11  O   UNL     1       8.252   8.349 -15.730  1.00  0.00    -0.452 OA
ENDROOT
BRANCH   1  12
ATOM     12  C   UNL     1       7.349   6.125 -15.481  1.00  0.00     0.021 A 
ATOM     13  C   UNL     1       8.107   5.036 -15.015  1.00  0.00     0.016 A 
ATOM     14  C   UNL     1       7.894   3.754 -15.532  1.00  0.00     0.047 A 
ATOM     15  C   UNL     1       6.936   3.547 -16.530  1.00  0.00     0.115 A 
ATOM     16  C   UNL     1       6.403   5.914 -16.498  1.00  0.00     0.016 A 
ATOM     17  C   UNL     1       6.193   4.631 -17.013  1.00  0.00     0.047 A 
BRANCH  15  18
ATOM     18  O   UNL     1       6.735   2.265 -17.034  1.00  0.00    -0.508 OA
ATOM     19  H   UNL     1       5.829   1.967 -17.379  1.00  0.00     0.293 HD
ENDBRANCH  15  18
ENDBRANCH   1  12
BRANCH   2  20
ATOM     20  O   UNL     1       6.302   7.055 -12.939  1.00  0.00    -0.502 OA
ATOM     21  H   UNL     1       5.306   6.938 -13.081  1.00  0.00     0.293 HD
ENDBRANCH   2  20
BRANCH   6  22
ATOM     22  O   UNL     1       7.973  11.963 -12.541  1.00  0.00    -0.507 OA
ATOM     23  H   UNL     1       7.618  11.375 -11.797  1.00  0.00     0.293 HD
ENDBRANCH   6  22
BRANCH   8  24
ATOM     24  O   UNL     1      10.275  12.531 -16.762  1.00  0.00    -0.508 OA
ATOM     25  H   UNL     1      10.001  13.487 -16.960  1.00  0.00     0.293 HD
ENDBRANCH   8  24
TORSDOF 5
ENDMDL
MODEL 4
REMARK VINA RESULT:    -6.444      1.949      7.251
REMARK INTER + INTRA:          -7.871
REMARK INTER:                  -7.582
REMARK INTRA:                  -0.290
REMARK UNBOUND:                -0.298
REMARK SMILES O=c1c(O)c(-c2ccc(O)cc2)oc2cc(O)cc(O)c12
REMARK SMILES IDX 5 1 3 2 2 3 1 4 21 5 19 6 18 7 16 8 15 9 14 10 13 11 6 12
REMARK SMILES IDX 7 13 8 14 9 15 12 16 11 17 10 18 4 20 20 22 17 24
REMARK H PARENT 10 19 4 21 20 23 17 25
REMARK Flexibility Score: inf
ROOT
ATOM      1  C   UNL     1       9.764  12.099 -17.403  1.00  0.00     0.180 A 
ATOM      2  C   UNL     1      10.375  13.205 -16.778  1.00  0.00     0.208 A 
ATOM      3  C   UNL     1      10.409  14.433 -17.457  1.00  0.00     0.238 A 
ATOM      4  O   UNL     1      10.963  15.426 -16.912  1.00  0.00    -0.285 OA
ATOM      5  C   UNL     1       9.819  14.542 -18.732  1.00  0.00     0.111 A 
ATOM      6  C   UNL     1       9.808  15.743 -19.480  1.00  0.00     0.134 A 
ATOM      7  C   UNL     1       9.192  15.774 -20.740  1.00  0.00     0.093 A 
ATOM      8  C   UNL     1       8.586  14.625 -21.264  1.00  0.00     0.123 A 
ATOM      9  C   UNL     1       8.596  13.438 -20.531  1.00  0.00     0.094 A 
ATOM     10  C   UNL     1       9.206  13.387 -19.275  1.00  0.00     0.146 A 
ATOM     11  O   UNL     1       9.204  12.244 -18.601  1.00  0.00    -0.452 OA
ENDROOT
BRANCH   1  12
ATOM     12  C   UNL     1       9.704  10.766 -16.760  1.00  0.00     0.021 A 
ATOM     13  C   UNL     1       8.622  10.395 -15.941  1.00  0.00     0.016 A 
ATOM     14  C   UNL     1       8.599   9.139 -15.326  1.00  0.00     0.047 A 
ATOM     15  C   UNL     1       9.660   8.247 -15.509  1.00  0.00     0.115 A 
ATOM     16  C   UNL     1      10.776   9.872 -16.922  1.00  0.00     0.016 A 
ATOM     17  C   UNL     1      10.750   8.618 -16.307  1.00  0.00     0.047 A 
BRANCH  15  18
ATOM     18  O   UNL     1       9.623   6.999 -14.891  1.00  0.00    -0.508 OA
ATOM     19  H   UNL     1       8.759   6.476 -14.806  1.00  0.00     0.293 HD
ENDBRANCH  15  18
ENDBRANCH   1  12
BRANCH   2  20
ATOM     20  O   UNL     1      10.909  13.083 -15.493  1.00  0.00    -0.502 OA
ATOM     21  H   UNL     1      11.905  13.108 -15.315  1.00  0.00     0.293 HD
ENDBRANCH   2  20
BRANCH   6  22
ATOM     22  O   UNL     1      10.402  16.905 -18.983  1.00  0.00    -0.507 OA
ATOM     23  H   UNL     1       9.930  17.801 -19.017  1.00  0.00     0.293 HD
ENDBRANCH   6  22
BRANCH   8  24
ATOM     24  O   UNL     1       7.973  14.656 -22.515  1.00  0.00    -0.508 OA
ATOM     25  H   UNL     1       8.380  14.188 -23.317  1.00  0.00     0.293 HD
ENDBRANCH   8  24
TORSDOF 5
ENDMDL
MODEL 5
REMARK VINA RESULT:    -6.264      2.296      3.212
REMARK INTER + INTRA:          -7.660
REMARK INTER:                  -7.879
REMARK INTRA:                   0.219
REMARK UNBOUND:                -0.298
REMARK SMILES O=c1c(O)c(-c2ccc(O)cc2)oc2cc(O)cc(O)c12
REMARK SMILES IDX 5 1 3 2 2 3 1 4 21 5 19 6 18 7 16 8 15 9 14 10 13 11 6 12
REMARK SMILES IDX 7 13 8 14 9 15 12 16 11 17 10 18 4 20 20 22 17 24
REMARK H PARENT 10 19 4 21 20 23 17 25
REMARK Flexibility Score: inf
ROOT
ATOM      1  C   UNL     1       9.144  12.867 -18.748  1.00  0.00     0.180 A 
ATOM      2  C   UNL     1       9.621  11.574 -19.041  1.00  0.00     0.208 A 
ATOM      3  C   UNL     1       9.684  10.624 -18.010  1.00  0.00     0.238 A 
ATOM      4  O   UNL     1      10.119   9.467 -18.258  1.00  0.00    -0.285 OA
ATOM      5  C   UNL     1       9.252  10.973 -16.713  1.00  0.00     0.111 A 
ATOM      6  C   UNL     1       9.280  10.074 -15.621  1.00  0.00     0.134 A 
ATOM      7  C   UNL     1       8.824  10.494 -14.362  1.00  0.00     0.093 A 
ATOM      8  C   UNL     1       8.342  11.795 -14.177  1.00  0.00     0.123 A 
ATOM      9  C   UNL     1       8.314  12.685 -15.252  1.00  0.00     0.094 A 
ATOM     10  C   UNL     1       8.765  12.286 -16.513  1.00  0.00     0.146 A 
ATOM     11  O   UNL     1       8.732  13.155 -17.516  1.00  0.00    -0.452 OA
ENDROOT
BRANCH   1  12
ATOM     12  C   UNL     1       9.066  13.929 -19.777  1.00  0.00     0.021 A 
ATOM     13  C   UNL     1       9.358  15.271 -19.469  1.00  0.00     0.016 A 
ATOM     14  C   UNL     1       9.254  16.260 -20.452  1.00  0.00     0.047 A 
ATOM     15  C   UNL     1       8.843  15.926 -21.746  1.00  0.00     0.115 A 
ATOM     16  C   UNL     1       8.634  13.604 -21.073  1.00  0.00     0.016 A 
ATOM     17  C   UNL     1       8.531  14.596 -22.053  1.00  0.00     0.047 A 
BRANCH  15  18
ATOM     18  O   UNL     1       8.745  16.922 -22.715  1.00  0.00    -0.508 OA
ATOM     19  H   UNL     1       9.570  17.324 -23.146  1.00  0.00     0.293 HD
ENDBRANCH  15  18
ENDBRANCH   1  12
BRANCH   2  20
ATOM     20  O   UNL     1       9.995  11.239 -20.345  1.00  0.00    -0.502 OA
ATOM     21  H   UNL     1      10.939  10.959 -20.583  1.00  0.00     0.293 HD
ENDBRANCH   2  20
BRANCH   6  22
ATOM     22  O   UNL     1       9.754   8.769 -15.774  1.00  0.00    -0.507 OA
ATOM     23  H   UNL     1       9.545   8.044 -15.099  1.00  0.00     0.293 HD
ENDBRANCH   6  22
BRANCH   8  24
ATOM     24  O   UNL     1       7.889  12.212 -12.928  1.00  0.00    -0.508 OA
ATOM     25  H   UNL     1       6.932  12.055 -12.631  1.00  0.00     0.293 HD
ENDBRANCH   8  24
TORSDOF 5
ENDMDL
MODEL 6
REMARK VINA RESULT:    -6.220      2.012      6.934
REMARK INTER + INTRA:          -7.608
REMARK INTER:                  -7.577
REMARK INTRA:                  -0.032
REMARK UNBOUND:                -0.298
REMARK SMILES O=c1c(O)c(-c2ccc(O)cc2)oc2cc(O)cc(O)c12
REMARK SMILES IDX 5 1 3 2 2 3 1 4 21 5 19 6 18 7 16 8 15 9 14 10 13 11 6 12
REMARK SMILES IDX 7 13 8 14 9 15 12 16 11 17 10 18 4 20 20 22 17 24
REMARK H PARENT 10 19 4 21 20 23 17 25
REMARK Flexibility Score: inf
ROOT
ATOM      1  C   UNL     1       8.388  11.041 -15.017  1.00  0.00     0.180 A 
ATOM      2  C   UNL     1       8.888  12.278 -14.566  1.00  0.00     0.208 A 
ATOM      3  C   UNL     1       9.359  13.204 -15.510  1.00  0.00     0.238 A 
ATOM      4  O   UNL     1       9.819  14.311 -15.116  1.00  0.00    -0.285 OA
ATOM      5  C   UNL     1       9.305  12.889 -16.883  1.00  0.00     0.111 A 
ATOM      6  C   UNL     1       9.756  13.767 -17.897  1.00  0.00     0.134 A 
ATOM      7  C   UNL     1       9.661  13.384 -19.243  1.00  0.00     0.093 A 
ATOM      8  C   UNL     1       9.123  12.140 -19.592  1.00  0.00     0.123 A 
ATOM      9  C   UNL     1       8.678  11.270 -18.596  1.00  0.00     0.094 A 
ATOM     10  C   UNL     1       8.766  11.633 -17.249  1.00  0.00     0.146 A 
ATOM     11  O   UNL     1       8.339  10.784 -16.321  1.00  0.00    -0.452 OA
ENDROOT
BRANCH   1  12
ATOM     12  C   UNL     1       7.891  10.005 -14.083  1.00  0.00     0.021 A 
ATOM     13  C   UNL     1       8.412   8.698 -14.093  1.00  0.00     0.016 A 
ATOM     14  C   UNL     1       7.910   7.730 -13.217  1.00  0.00     0.047 A 
ATOM     15  C   UNL     1       6.874   8.050 -12.334  1.00  0.00     0.115 A 
ATOM     16  C   UNL     1       6.837  10.313 -13.207  1.00  0.00     0.016 A 
ATOM     17  C   UNL     1       6.337   9.343 -12.333  1.00  0.00     0.047 A 
BRANCH  15  18
ATOM     18  O   UNL     1       6.384   7.076 -11.467  1.00  0.00    -0.508 OA
ATOM     19  H   UNL     1       5.454   6.690 -11.575  1.00  0.00     0.293 HD
ENDBRANCH  15  18
ENDBRANCH   1  12
BRANCH   2  20
ATOM     20  O   UNL     1       8.884  12.586 -13.203  1.00  0.00    -0.502 OA
ATOM     21  H   UNL     1       8.849  11.873 -12.486  1.00  0.00     0.293 HD
ENDBRANCH   2  20
BRANCH   6  22
ATOM     22  O   UNL     1      10.296  15.015 -17.579  1.00  0.00    -0.507 OA
ATOM     23  H   UNL     1       9.743  15.862 -17.625  1.00  0.00     0.293 HD
ENDBRANCH   6  22
BRANCH   8  24
ATOM     24  O   UNL     1       9.027  11.759 -20.929  1.00  0.00    -0.508 OA
ATOM     25  H   UNL     1       9.385  10.869 -21.255  1.00  0.00     0.293 HD
ENDBRANCH   8  24
TORSDOF 5
ENDMDL
MODEL 7
REMARK VINA RESULT:    -6.137      1.211      3.217
REMARK INTER + INTRA:          -7.511
REMARK INTER:                  -7.214
REMARK INTRA:                  -0.298
REMARK UNBOUND:                -0.298
REMARK SMILES O=c1c(O)c(-c2ccc(O)cc2)oc2cc(O)cc(O)c12
REMARK SMILES IDX 5 1 3 2 2 3 1 4 21 5 19 6 18 7 16 8 15 9 14 10 13 11 6 12
REMARK SMILES IDX 7 13 8 14 9 15 12 16 11 17 10 18 4 20 20 22 17 24
REMARK H PARENT 10 19 4 21 20 23 17 25
REMARK Flexibility Score: inf
ROOT
ATOM      1  C   UNL     1       8.706  12.213 -15.754  1.00  0.00     0.180 A 
ATOM      2  C   UNL     1       7.613  12.545 -14.930  1.00  0.00     0.208 A 
ATOM      3  C   UNL     1       7.012  11.535 -14.163  1.00  0.00     0.238 A 
ATOM      4  O   UNL     1       6.025  11.817 -13.430  1.00  0.00    -0.285 OA
ATOM      5  C   UNL     1       7.523  10.221 -14.215  1.00  0.00     0.111 A 
ATOM      6  C   UNL     1       6.977   9.149 -13.471  1.00  0.00     0.134 A 
ATOM      7  C   UNL     1       7.548   7.871 -13.570  1.00  0.00     0.093 A 
ATOM      8  C   UNL     1       8.654   7.648 -14.399  1.00  0.00     0.123 A 
ATOM      9  C   UNL     1       9.195   8.703 -15.135  1.00  0.00     0.094 A 
ATOM     10  C   UNL     1       8.639   9.983 -15.051  1.00  0.00     0.146 A 
ATOM     11  O   UNL     1       9.171  10.967 -15.766  1.00  0.00    -0.452 OA
ENDROOT
BRANCH   1  12
ATOM     12  C   UNL     1       9.382  13.218 -16.607  1.00  0.00     0.021 A 
ATOM     13  C   UNL     1       8.953  13.469 -17.924  1.00  0.00     0.016 A 
ATOM     14  C   UNL     1       9.622  14.406 -18.718  1.00  0.00     0.047 A 
ATOM     15  C   UNL     1      10.733  15.090 -18.215  1.00  0.00     0.115 A 
ATOM     16  C   UNL     1      10.511  13.894 -16.116  1.00  0.00     0.016 A 
ATOM     17  C   UNL     1      11.177  14.830 -16.913  1.00  0.00     0.047 A 
BRANCH  15  18
ATOM     18  O   UNL     1      11.388  16.021 -19.018  1.00  0.00    -0.508 OA
ATOM     19  H   UNL     1      12.397  16.114 -19.005  1.00  0.00     0.293 HD
ENDBRANCH  15  18
ENDBRANCH   1  12
BRANCH   2  20
ATOM     20  O   UNL     1       7.157  13.863 -14.858  1.00  0.00    -0.502 OA
ATOM     21  H   UNL     1       6.813  14.272 -13.998  1.00  0.00     0.293 HD
ENDBRANCH   2  20
BRANCH   6  22
ATOM     22  O   UNL     1       5.875   9.340 -12.635  1.00  0.00    -0.507 OA
ATOM     23  H   UNL     1       5.285   8.569 -12.345  1.00  0.00     0.293 HD
ENDBRANCH   6  22
BRANCH   8  24
ATOM     24  O   UNL     1       9.223   6.380 -14.496  1.00  0.00    -0.508 OA
ATOM     25  H   UNL     1       9.706   6.078 -15.334  1.00  0.00     0.293 HD
ENDBRANCH   8  24
TORSDOF 5
ENDMDL
MODEL 8
REMARK VINA RESULT:    -6.113      2.343      7.069
REMARK INTER + INTRA:          -7.483
REMARK INTER:                  -7.194
REMARK INTRA:                  -0.290
REMARK UNBOUND:                -0.298
REMARK SMILES O=c1c(O)c(-c2ccc(O)cc2)oc2cc(O)cc(O)c12
REMARK SMILES IDX 5 1 3 2 2 3 1 4 21 5 19 6 18 7 16 8 15 9 14 10 13 11 6 12
REMARK SMILES IDX 7 13 8 14 9 15 12 16 11 17 10 18 4 20 20 22 17 24
REMARK H PARENT 10 19 4 21 20 23 17 25
REMARK Flexibility Score: inf
ROOT
ATOM      1  C   UNL     1       8.924  11.501 -17.767  1.00  0.00     0.180 A 
ATOM      2  C   UNL     1       8.190  11.215 -18.935  1.00  0.00     0.208 A 
ATOM      3  C   UNL     1       8.005  12.231 -19.885  1.00  0.00     0.238 A 
ATOM      4  O   UNL     1       7.340  11.990 -20.929  1.00  0.00    -0.285 OA
ATOM      5  C   UNL     1       8.571  13.504 -19.665  1.00  0.00     0.111 A 
ATOM      6  C   UNL     1       8.434  14.579 -20.574  1.00  0.00     0.134 A 
ATOM      7  C   UNL     1       9.035  15.814 -20.288  1.00  0.00     0.093 A 
ATOM      8  C   UNL     1       9.770  15.992 -19.109  1.00  0.00     0.123 A 
ATOM      9  C   UNL     1       9.906  14.934 -18.209  1.00  0.00     0.094 A 
ATOM     10  C   UNL     1       9.314  13.697 -18.476  1.00  0.00     0.146 A 
ATOM     11  O   UNL     1       9.456  12.709 -17.600  1.00  0.00    -0.452 OA
ENDROOT
BRANCH   1  12
ATOM     12  C   UNL     1       9.146  10.489 -16.709  1.00  0.00     0.021 A 
ATOM     13  C   UNL     1      10.232   9.596 -16.765  1.00  0.00     0.016 A 
ATOM     14  C   UNL     1      10.408   8.633 -15.766  1.00  0.00     0.047 A 
ATOM     15  C   UNL     1       9.496   8.540 -14.710  1.00  0.00     0.115 A 
ATOM     16  C   UNL     1       8.223  10.376 -15.656  1.00  0.00     0.016 A 
ATOM     17  C   UNL     1       8.402   9.413 -14.659  1.00  0.00     0.047 A 
BRANCH  15  18
ATOM     18  O   UNL     1       9.685   7.577 -13.721  1.00  0.00    -0.508 OA
ATOM     19  H   UNL     1       9.404   7.741 -12.761  1.00  0.00     0.293 HD
ENDBRANCH  15  18
ENDBRANCH   1  12
BRANCH   2  20
ATOM     20  O   UNL     1       7.682   9.932 -19.152  1.00  0.00    -0.502 OA
ATOM     21  H   UNL     1       7.006   9.733 -19.879  1.00  0.00     0.293 HD
ENDBRANCH   2  20
BRANCH   6  22
ATOM     22  O   UNL     1       7.709  14.432 -21.758  1.00  0.00    -0.507 OA
ATOM     23  H   UNL     1       6.789  14.840 -21.874  1.00  0.00     0.293 HD
ENDBRANCH   6  22
BRANCH   8  24
ATOM     24  O   UNL     1      10.368  17.217 -18.825  1.00  0.00    -0.508 OA
ATOM     25  H   UNL     1      11.358  17.373 -18.979  1.00  0.00     0.293 HD
ENDBRANCH   8  24
TORSDOF 5
ENDMDL
MODEL 9
REMARK VINA RESULT:    -6.104      2.605      7.467
REMARK INTER + INTRA:          -7.472
REMARK INTER:                  -7.173
REMARK INTRA:                  -0.299
REMARK UNBOUND:                -0.298
REMARK SMILES O=c1c(O)c(-c2ccc(O)cc2)oc2cc(O)cc(O)c12
REMARK SMILES IDX 5 1 3 2 2 3 1 4 21 5 19 6 18 7 16 8 15 9 14 10 13 11 6 12
REMARK SMILES IDX 7 13 8 14 9 15 12 16 11 17 10 18 4 20 20 22 17 24
REMARK H PARENT 10 19 4 21 20 23 17 25
REMARK Flexibility Score: inf
ROOT
ATOM      1  C   UNL     1       9.143  12.891 -18.581  1.00  0.00     0.180 A 
ATOM      2  C   UNL     1       9.153  12.797 -19.987  1.00  0.00     0.208 A 
ATOM      3  C   UNL     1       8.926  13.956 -20.745  1.00  0.00     0.238 A 
ATOM      4  O   UNL     1       8.922  13.881 -22.004  1.00  0.00    -0.285 OA
ATOM      5  C   UNL     1       8.714  15.187 -20.092  1.00  0.00     0.111 A 
ATOM      6  C   UNL     1       8.482  16.400 -20.783  1.00  0.00     0.134 A 
ATOM      7  C   UNL     1       8.288  17.587 -20.060  1.00  0.00     0.093 A 
ATOM      8  C   UNL     1       8.323  17.582 -18.660  1.00  0.00     0.123 A 
ATOM      9  C   UNL     1       8.551  16.388 -17.975  1.00  0.00     0.094 A 
ATOM     10  C   UNL     1       8.744  15.195 -18.677  1.00  0.00     0.146 A 
ATOM     11  O   UNL     1       8.954  14.073 -18.000  1.00  0.00    -0.452 OA
ENDROOT
BRANCH   1  12
ATOM     12  C   UNL     1       9.355  11.711 -17.711  1.00  0.00     0.021 A 
ATOM     13  C   UNL     1       8.287  10.879 -17.332  1.00  0.00     0.016 A 
ATOM     14  C   UNL     1       8.508   9.784 -16.490  1.00  0.00     0.047 A 
ATOM     15  C   UNL     1       9.793   9.516 -16.007  1.00  0.00     0.115 A 
ATOM     16  C   UNL     1      10.639  11.448 -17.206  1.00  0.00     0.016 A 
ATOM     17  C   UNL     1      10.857  10.353 -16.365  1.00  0.00     0.047 A 
BRANCH  15  18
ATOM     18  O   UNL     1       9.999   8.421 -15.171  1.00  0.00    -0.508 OA
ATOM     19  H   UNL     1      10.193   7.499 -15.544  1.00  0.00     0.293 HD
ENDBRANCH  15  18
ENDBRANCH   1  12
BRANCH   2  20
ATOM     20  O   UNL     1       9.415  11.575 -20.610  1.00  0.00    -0.502 OA
ATOM     21  H   UNL     1       9.534  11.492 -21.613  1.00  0.00     0.293 HD
ENDBRANCH   2  20
BRANCH   6  22
ATOM     22  O   UNL     1       8.442  16.437 -22.178  1.00  0.00    -0.507 OA
ATOM     23  H   UNL     1       9.186  16.044 -22.742  1.00  0.00     0.293 HD
ENDBRANCH   6  22
BRANCH   8  24
ATOM     24  O   UNL     1       8.132  18.760 -17.943  1.00  0.00    -0.508 OA
ATOM     25  H   UNL     1       7.498  19.482 -18.266  1.00  0.00     0.293 HD
ENDBRANCH   8  24
TORSDOF 5
ENDMDL
