MODEL 1
REMARK VINA RESULT:    -1.072      0.000      0.000
REMARK INTER + INTRA:          -0.786
REMARK INTER:                  -1.260
REMARK INTRA:                   0.474
REMARK UNBOUND:                 0.474
REMARK SMILES O=c1c(O)c(-c2ccc(O)c(O)c2)oc2cc(O)ccc12
REMARK SMILES IDX 5 1 3 2 2 3 1 4 21 5 15 6 14 7 16 8 17 9 19 10 20 11 6 12
REMARK SMILES IDX 7 13 8 14 9 15 13 16 11 17 10 18 12 20 4 22 18 24
REMARK H PARENT 10 19 12 21 4 23 18 25
REMARK Flexibility Score: inf
ROOT
ATOM      1  C   UNL     1      25.331   9.539 121.917  1.00  0.00     0.180 A 
ATOM      2  C   UNL     1      26.540   8.816 121.966  1.00  0.00     0.208 A 
ATOM      3  C   UNL     1      27.750   9.525 122.012  1.00  0.00     0.235 A 
ATOM      4  O   UNL     1      28.845   8.900 122.067  1.00  0.00    -0.285 OA
ATOM      5  C   UNL     1      27.730  10.928 121.988  1.00  0.00     0.069 A 
ATOM      6  C   UNL     1      26.479  11.578 121.914  1.00  0.00     0.142 A 
ATOM      7  O   UNL     1      25.355  10.870 121.881  1.00  0.00    -0.452 OA
ATOM      8  C   UNL     1      26.417  12.976 121.877  1.00  0.00     0.094 A 
ATOM      9  C   UNL     1      27.591  13.735 121.915  1.00  0.00     0.119 A 
ATOM     10  C   UNL     1      28.835  13.093 121.990  1.00  0.00     0.047 A 
ATOM     11  C   UNL     1      28.907  11.698 122.026  1.00  0.00     0.020 A 
ENDROOT
BRANCH   1  12
ATOM     12  C   UNL     1      24.013   8.865 121.886  1.00  0.00     0.025 A 
ATOM     13  C   UNL     1      22.841   9.639 121.913  1.00  0.00     0.016 A 
ATOM     14  C   UNL     1      21.586   9.025 121.905  1.00  0.00     0.051 A 
ATOM     15  C   UNL     1      21.485   7.627 121.886  1.00  0.00     0.157 A 
ATOM     16  C   UNL     1      23.906   7.463 121.887  1.00  0.00     0.062 A 
ATOM     17  C   UNL     1      22.647   6.845 121.881  1.00  0.00     0.158 A 
BRANCH  15  18
ATOM     18  O   UNL     1      20.236   7.010 121.875  1.00  0.00    -0.504 OA
ATOM     19  H   UNL     1      20.140   6.003 121.948  1.00  0.00     0.293 HD
ENDBRANCH  15  18
BRANCH  17  20
ATOM     20  O   UNL     1      22.543   5.455 121.876  1.00  0.00    -0.504 OA
ATOM     21  H   UNL     1      23.361   4.862 121.790  1.00  0.00     0.293 HD
ENDBRANCH  17  20
ENDBRANCH   1  12
BRANCH   2  22
ATOM     22  O   UNL     1      26.531   7.419 121.939  1.00  0.00    -0.502 OA
ATOM     23  H   UNL     1      27.040   6.861 122.614  1.00  0.00     0.293 HD
ENDBRANCH   2  22
BRANCH   9  24
ATOM     24  O   UNL     1      27.511  15.125 121.880  1.00  0.00    -0.508 OA
ATOM     25  H   UNL     1      27.575  15.681 122.724  1.00  0.00     0.293 HD
ENDBRANCH   9  24
TORSDOF 5
ENDMDL
MODEL 2
REMARK VINA RESULT:     1.104      1.691      6.680
REMARK INTER + INTRA:           1.771
REMARK INTER:                   1.297
REMARK INTRA:                   0.474
REMARK UNBOUND:                 0.474
REMARK SMILES O=c1c(O)c(-c2ccc(O)c(O)c2)oc2cc(O)ccc12
REMARK SMILES IDX 5 1 3 2 2 3 1 4 21 5 15 6 14 7 16 8 17 9 19 10 20 11 6 12
REMARK SMILES IDX 7 13 8 14 9 15 13 16 11 17 10 18 12 20 4 22 18 24
REMARK H PARENT 10 19 12 21 4 23 18 25
REMARK Flexibility Score: inf
ROOT
ATOM      1  C   UNL     1      24.258   9.528 121.995  1.00  0.00     0.180 A 
ATOM      2  C   UNL     1      25.179   8.462 121.981  1.00  0.00     0.208 A 
ATOM      3  C   UNL     1      24.691   7.147 121.932  1.00  0.00     0.235 A 
ATOM      4  O   UNL     1      25.495   6.175 121.907  1.00  0.00    -0.285 OA
ATOM      5  C   UNL     1      23.305   6.925 121.920  1.00  0.00     0.069 A 
ATOM      6  C   UNL     1      22.447   8.046 121.961  1.00  0.00     0.142 A 
ATOM      7  O   UNL     1      22.950   9.275 121.997  1.00  0.00    -0.452 OA
ATOM      8  C   UNL     1      21.059   7.866 121.961  1.00  0.00     0.094 A 
ATOM      9  C   UNL     1      20.515   6.579 121.918  1.00  0.00     0.119 A 
ATOM     10  C   UNL     1      21.363   5.464 121.876  1.00  0.00     0.047 A 
ATOM     11  C   UNL     1      22.750   5.633 121.877  1.00  0.00     0.020 A 
ENDROOT
BRANCH   1  12
ATOM     12  C   UNL     1      24.693  10.943 122.027  1.00  0.00     0.025 A 
ATOM     13  C   UNL     1      23.733  11.964 121.931  1.00  0.00     0.016 A 
ATOM     14  C   UNL     1      24.123  13.305 121.938  1.00  0.00     0.051 A 
ATOM     15  C   UNL     1      25.480  13.646 122.026  1.00  0.00     0.157 A 
ATOM     16  C   UNL     1      26.055  11.290 122.094  1.00  0.00     0.062 A 
ATOM     17  C   UNL     1      26.447  12.636 122.099  1.00  0.00     0.158 A 
BRANCH  15  18
ATOM     18  O   UNL     1      25.872  14.983 122.036  1.00  0.00    -0.504 OA
ATOM     19  H   UNL     1      25.945  15.521 121.179  1.00  0.00     0.293 HD
ENDBRANCH  15  18
BRANCH  17  20
ATOM     20  O   UNL     1      27.797  12.977 122.171  1.00  0.00    -0.504 OA
ATOM     21  H   UNL     1      28.409  12.894 121.368  1.00  0.00     0.293 HD
ENDBRANCH  17  20
ENDBRANCH   1  12
BRANCH   2  22
ATOM     22  O   UNL     1      26.552   8.711 122.043  1.00  0.00    -0.502 OA
ATOM     23  H   UNL     1      26.939   9.642 121.940  1.00  0.00     0.293 HD
ENDBRANCH   2  22
BRANCH   9  24
ATOM     24  O   UNL     1      19.131   6.418 121.917  1.00  0.00    -0.508 OA
ATOM     25  H   UNL     1      18.637   6.075 122.733  1.00  0.00     0.293 HD
ENDBRANCH   9  24
TORSDOF 5
ENDMDL
MODEL 3
REMARK VINA RESULT:     1.124      1.317      6.602
REMARK INTER + INTRA:           1.795
REMARK INTER:                   1.246
REMARK INTRA:                   0.549
REMARK UNBOUND:                 0.474
REMARK SMILES O=c1c(O)c(-c2ccc(O)c(O)c2)oc2cc(O)ccc12
REMARK SMILES IDX 5 1 3 2 2 3 1 4 21 5 15 6 14 7 16 8 17 9 19 10 20 11 6 12
REMARK SMILES IDX 7 13 8 14 9 15 13 16 11 17 10 18 12 20 4 22 18 24
REMARK H PARENT 10 19 12 21 4 23 18 25
REMARK Flexibility Score: inf
ROOT
ATOM      1  C   UNL     1      25.059   9.690 121.976  1.00  0.00     0.180 A 
ATOM      2  C   UNL     1      25.931   8.584 121.980  1.00  0.00     0.208 A 
ATOM      3  C   UNL     1      25.385   7.291 121.945  1.00  0.00     0.235 A 
ATOM      4  O   UNL     1      26.145   6.284 121.937  1.00  0.00    -0.285 OA
ATOM      5  C   UNL     1      23.990   7.132 121.928  1.00  0.00     0.069 A 
ATOM      6  C   UNL     1      23.184   8.291 121.951  1.00  0.00     0.142 A 
ATOM      7  O   UNL     1      23.741   9.496 121.974  1.00  0.00    -0.452 OA
ATOM      8  C   UNL     1      21.789   8.174 121.946  1.00  0.00     0.094 A 
ATOM      9  C   UNL     1      21.188   6.911 121.917  1.00  0.00     0.119 A 
ATOM     10  C   UNL     1      21.985   5.759 121.892  1.00  0.00     0.047 A 
ATOM     11  C   UNL     1      23.379   5.866 121.899  1.00  0.00     0.020 A 
ENDROOT
BRANCH   1  12
ATOM     12  C   UNL     1      25.557  11.084 121.992  1.00  0.00     0.025 A 
ATOM     13  C   UNL     1      26.939  11.323 122.080  1.00  0.00     0.016 A 
ATOM     14  C   UNL     1      27.431  12.630 122.117  1.00  0.00     0.051 A 
ATOM     15  C   UNL     1      26.548  13.718 122.082  1.00  0.00     0.157 A 
ATOM     16  C   UNL     1      24.675  12.180 121.978  1.00  0.00     0.062 A 
ATOM     17  C   UNL     1      25.167  13.492 122.017  1.00  0.00     0.158 A 
BRANCH  15  18
ATOM     18  O   UNL     1      27.035  15.023 122.116  1.00  0.00    -0.504 OA
ATOM     19  H   UNL     1      26.508  15.796 121.725  1.00  0.00     0.293 HD
ENDBRANCH  15  18
BRANCH  17  20
ATOM     20  O   UNL     1      24.291  14.576 121.997  1.00  0.00    -0.504 OA
ATOM     21  H   UNL     1      23.969  14.981 121.126  1.00  0.00     0.293 HD
ENDBRANCH  17  20
ENDBRANCH   1  12
BRANCH   2  22
ATOM     22  O   UNL     1      27.314   8.772 122.046  1.00  0.00    -0.502 OA
ATOM     23  H   UNL     1      27.885   8.893 121.218  1.00  0.00     0.293 HD
ENDBRANCH   2  22
BRANCH   9  24
ATOM     24  O   UNL     1      19.798   6.813 121.910  1.00  0.00    -0.508 OA
ATOM     25  H   UNL     1      19.319   6.055 122.381  1.00  0.00     0.293 HD
ENDBRANCH   9  24
TORSDOF 5
ENDMDL
MODEL 4
REMARK VINA RESULT:     1.755      1.633      2.256
REMARK INTER + INTRA:           2.537
REMARK INTER:                   2.073
REMARK INTRA:                   0.464
REMARK UNBOUND:                 0.474
REMARK SMILES O=c1c(O)c(-c2ccc(O)c(O)c2)oc2cc(O)ccc12
REMARK SMILES IDX 5 1 3 2 2 3 1 4 21 5 15 6 14 7 16 8 17 9 19 10 20 11 6 12
REMARK SMILES IDX 7 13 8 14 9 15 13 16 11 17 10 18 12 20 4 22 18 24
REMARK H PARENT 10 19 12 21 4 23 18 25
REMARK Flexibility Score: inf
ROOT
ATOM      1  C   UNL     1      23.925   8.037 121.929  1.00  0.00     0.180 A 
ATOM      2  C   UNL     1      25.268   7.608 121.942  1.00  0.00     0.208 A 
ATOM      3  C   UNL     1      26.286   8.574 121.993  1.00  0.00     0.235 A 
ATOM      4  O   UNL     1      27.495   8.215 122.016  1.00  0.00    -0.285 OA
ATOM      5  C   UNL     1      25.945   9.935 122.010  1.00  0.00     0.069 A 
ATOM      6  C   UNL     1      24.577  10.283 121.970  1.00  0.00     0.142 A 
ATOM      7  O   UNL     1      23.645   9.339 121.932  1.00  0.00    -0.452 OA
ATOM      8  C   UNL     1      24.197  11.630 121.975  1.00  0.00     0.094 A 
ATOM      9  C   UNL     1      25.167  12.637 122.020  1.00  0.00     0.119 A 
ATOM     10  C   UNL     1      26.526  12.295 122.061  1.00  0.00     0.047 A 
ATOM     11  C   UNL     1      26.915  10.953 122.055  1.00  0.00     0.020 A 
ENDROOT
BRANCH   1  12
ATOM     12  C   UNL     1      22.795   7.081 121.895  1.00  0.00     0.025 A 
ATOM     13  C   UNL     1      21.478   7.567 121.896  1.00  0.00     0.016 A 
ATOM     14  C   UNL     1      20.396   6.684 121.884  1.00  0.00     0.051 A 
ATOM     15  C   UNL     1      20.615   5.299 121.889  1.00  0.00     0.157 A 
ATOM     16  C   UNL     1      23.010   5.690 121.920  1.00  0.00     0.062 A 
ATOM     17  C   UNL     1      21.925   4.802 121.911  1.00  0.00     0.158 A 
BRANCH  15  18
ATOM     18  O   UNL     1      19.539   4.414 121.875  1.00  0.00    -0.504 OA
ATOM     19  H   UNL     1      19.307   3.874 121.049  1.00  0.00     0.293 HD
ENDBRANCH  15  18
BRANCH  17  20
ATOM     20  O   UNL     1      22.140   3.425 121.930  1.00  0.00    -0.504 OA
ATOM     21  H   UNL     1      22.293   2.901 121.076  1.00  0.00     0.293 HD
ENDBRANCH  17  20
ENDBRANCH   1  12
BRANCH   2  22
ATOM     22  O   UNL     1      25.578   6.248 121.875  1.00  0.00    -0.502 OA
ATOM     23  H   UNL     1      24.975   5.535 122.267  1.00  0.00     0.293 HD
ENDBRANCH   2  22
BRANCH   9  24
ATOM     24  O   UNL     1      24.771  13.972 122.025  1.00  0.00    -0.508 OA
ATOM     25  H   UNL     1      25.233  14.659 122.610  1.00  0.00     0.293 HD
ENDBRANCH   9  24
TORSDOF 5
ENDMDL
