MODEL 1
REMARK VINA RESULT:    -4.225      0.000      0.000
REMARK INTER + INTRA:          -4.937
REMARK INTER:                  -4.842
REMARK INTRA:                  -0.095
REMARK UNBOUND:                -0.095
REMARK SMILES COc1ccc(C(C)=O)cc1O
REMARK SMILES IDX 6 1 10 2 11 3 3 4 4 5 5 6 7 7 8 8 9 9 12 10 2 12 1 13
REMARK H PARENT 12 11
REMARK Flexibility Score: inf
ROOT
ATOM      1  C   UNL     1      28.661  32.623  23.377  1.00  0.00     0.021 A 
ATOM      2  C   UNL     1      29.006  32.444  22.025  1.00  0.00     0.062 A 
ATOM      3  C   UNL     1      28.756  33.445  21.080  1.00  0.00     0.158 A 
ATOM      4  C   UNL     1      28.150  34.651  21.472  1.00  0.00     0.160 A 
ATOM      5  C   UNL     1      27.802  34.835  22.823  1.00  0.00     0.051 A 
ATOM      6  C   UNL     1      28.055  33.833  23.763  1.00  0.00     0.016 A 
ENDROOT
BRANCH   1   7
ATOM      7  C   UNL     1      28.937  31.546  24.365  1.00  0.00     0.159 C 
ATOM      8  C   UNL     1      29.098  30.113  23.953  1.00  0.00     0.093 C 
ATOM      9  O   UNL     1      29.041  31.831  25.589  1.00  0.00    -0.295 OA
ENDBRANCH   1   7
BRANCH   3  10
ATOM     10  O   UNL     1      29.117  33.220  19.751  1.00  0.00    -0.504 OA
ATOM     11  H   UNL     1      30.016  32.832  19.493  1.00  0.00     0.293 HD
ENDBRANCH   3  10
BRANCH   4  12
ATOM     12  O   UNL     1      27.909  35.638  20.501  1.00  0.00    -0.493 OA
ATOM     13  C   UNL     1      27.049  36.757  20.684  1.00  0.00     0.278 C 
ENDBRANCH   4  12
TORSDOF 3
ENDMDL
MODEL 2
REMARK VINA RESULT:    -4.186      6.178      8.962
REMARK INTER + INTRA:          -4.893
REMARK INTER:                  -4.797
REMARK INTRA:                  -0.096
REMARK UNBOUND:                -0.095
REMARK SMILES COc1ccc(C(C)=O)cc1O
REMARK SMILES IDX 6 1 10 2 11 3 3 4 4 5 5 6 7 7 8 8 9 9 12 10 2 12 1 13
REMARK H PARENT 12 11
REMARK Flexibility Score: inf
ROOT
ATOM      1  C   UNL     1      26.891  41.745  19.750  1.00  0.00     0.021 A 
ATOM      2  C   UNL     1      27.250  40.773  18.798  1.00  0.00     0.062 A 
ATOM      3  C   UNL     1      26.867  39.437  18.955  1.00  0.00     0.158 A 
ATOM      4  C   UNL     1      26.112  39.045  20.074  1.00  0.00     0.160 A 
ATOM      5  C   UNL     1      25.752  40.013  21.029  1.00  0.00     0.051 A 
ATOM      6  C   UNL     1      26.136  41.346  20.868  1.00  0.00     0.016 A 
ENDROOT
BRANCH   1   7
ATOM      7  C   UNL     1      27.309  43.161  19.563  1.00  0.00     0.159 C 
ATOM      8  C   UNL     1      26.502  44.125  18.746  1.00  0.00     0.093 C 
ATOM      9  O   UNL     1      28.371  43.576  20.102  1.00  0.00    -0.295 OA
ENDBRANCH   1   7
BRANCH   3  10
ATOM     10  O   UNL     1      27.247  38.510  17.983  1.00  0.00    -0.504 OA
ATOM     11  H   UNL     1      28.126  38.579  17.485  1.00  0.00     0.293 HD
ENDBRANCH   3  10
BRANCH   4  12
ATOM     12  O   UNL     1      25.743  37.696  20.206  1.00  0.00    -0.493 OA
ATOM     13  C   UNL     1      24.571  37.241  20.875  1.00  0.00     0.278 C 
ENDBRANCH   4  12
TORSDOF 3
ENDMDL
MODEL 3
REMARK VINA RESULT:    -4.094      3.252      5.501
REMARK INTER + INTRA:          -4.788
REMARK INTER:                  -4.665
REMARK INTRA:                  -0.122
REMARK UNBOUND:                -0.095
REMARK SMILES COc1ccc(C(C)=O)cc1O
REMARK SMILES IDX 6 1 10 2 11 3 3 4 4 5 5 6 7 7 8 8 9 9 12 10 2 12 1 13
REMARK H PARENT 12 11
REMARK Flexibility Score: inf
ROOT
ATOM      1  C   UNL     1      27.674  36.663  20.463  1.00  0.00     0.021 A 
ATOM      2  C   UNL     1      26.480  37.356  20.735  1.00  0.00     0.062 A 
ATOM      3  C   UNL     1      26.228  38.606  20.161  1.00  0.00     0.158 A 
ATOM      4  C   UNL     1      27.172  39.192  19.299  1.00  0.00     0.160 A 
ATOM      5  C   UNL     1      28.367  38.503  19.025  1.00  0.00     0.051 A 
ATOM      6  C   UNL     1      28.614  37.254  19.600  1.00  0.00     0.016 A 
ENDROOT
BRANCH   1   7
ATOM      7  C   UNL     1      27.922  35.334  21.085  1.00  0.00     0.159 C 
ATOM      8  C   UNL     1      28.497  34.189  20.306  1.00  0.00     0.093 C 
ATOM      9  O   UNL     1      27.644  35.150  22.301  1.00  0.00    -0.295 OA
ENDBRANCH   1   7
BRANCH   3  10
ATOM     10  O   UNL     1      25.029  39.255  20.461  1.00  0.00    -0.504 OA
ATOM     11  H   UNL     1      24.456  38.991  21.253  1.00  0.00     0.293 HD
ENDBRANCH   3  10
BRANCH   4  12
ATOM     12  O   UNL     1      26.892  40.449  18.738  1.00  0.00    -0.493 OA
ATOM     13  C   UNL     1      27.279  41.693  19.311  1.00  0.00     0.278 C 
ENDBRANCH   4  12
TORSDOF 3
ENDMDL
MODEL 4
REMARK VINA RESULT:    -4.091      5.655      7.223
REMARK INTER + INTRA:          -4.784
REMARK INTER:                  -4.684
REMARK INTRA:                  -0.100
REMARK UNBOUND:                -0.095
REMARK SMILES COc1ccc(C(C)=O)cc1O
REMARK SMILES IDX 6 1 10 2 11 3 3 4 4 5 5 6 7 7 8 8 9 9 12 10 2 12 1 13
REMARK H PARENT 12 11
REMARK Flexibility Score: inf
ROOT
ATOM      1  C   UNL     1      25.851  38.654  20.494  1.00  0.00     0.021 A 
ATOM      2  C   UNL     1      26.521  38.588  19.259  1.00  0.00     0.062 A 
ATOM      3  C   UNL     1      27.064  39.737  18.673  1.00  0.00     0.158 A 
ATOM      4  C   UNL     1      26.945  40.982  19.315  1.00  0.00     0.160 A 
ATOM      5  C   UNL     1      26.275  41.053  20.550  1.00  0.00     0.051 A 
ATOM      6  C   UNL     1      25.735  39.903  21.132  1.00  0.00     0.016 A 
ENDROOT
BRANCH   1   7
ATOM      7  C   UNL     1      25.281  37.420  21.099  1.00  0.00     0.159 C 
ATOM      8  C   UNL     1      23.840  37.046  20.929  1.00  0.00     0.093 C 
ATOM      9  O   UNL     1      26.021  36.658  21.780  1.00  0.00    -0.295 OA
ENDBRANCH   1   7
BRANCH   3  10
ATOM     10  O   UNL     1      27.720  39.620  17.447  1.00  0.00    -0.504 OA
ATOM     11  H   UNL     1      28.709  39.410  17.381  1.00  0.00     0.293 HD
ENDBRANCH   3  10
BRANCH   4  12
ATOM     12  O   UNL     1      27.499  42.118  18.703  1.00  0.00    -0.493 OA
ATOM     13  C   UNL     1      26.918  43.417  18.736  1.00  0.00     0.278 C 
ENDBRANCH   4  12
TORSDOF 3
ENDMDL
MODEL 5
REMARK VINA RESULT:    -4.078      2.097      6.145
REMARK INTER + INTRA:          -4.769
REMARK INTER:                  -4.675
REMARK INTRA:                  -0.094
REMARK UNBOUND:                -0.095
REMARK SMILES COc1ccc(C(C)=O)cc1O
REMARK SMILES IDX 6 1 10 2 11 3 3 4 4 5 5 6 7 7 8 8 9 9 12 10 2 12 1 13
REMARK H PARENT 12 11
REMARK Flexibility Score: inf
ROOT
ATOM      1  C   UNL     1      28.797  31.375  23.510  1.00  0.00     0.021 A 
ATOM      2  C   UNL     1      28.727  31.234  24.908  1.00  0.00     0.062 A 
ATOM      3  C   UNL     1      28.820  29.974  25.509  1.00  0.00     0.158 A 
ATOM      4  C   UNL     1      28.985  28.823  24.719  1.00  0.00     0.160 A 
ATOM      5  C   UNL     1      29.055  28.959  23.320  1.00  0.00     0.051 A 
ATOM      6  C   UNL     1      28.963  30.219  22.724  1.00  0.00     0.016 A 
ENDROOT
BRANCH   1   7
ATOM      7  C   UNL     1      28.697  32.724  22.891  1.00  0.00     0.159 C 
ATOM      8  C   UNL     1      28.229  33.919  23.666  1.00  0.00     0.093 C 
ATOM      9  O   UNL     1      29.009  32.882  21.680  1.00  0.00    -0.295 OA
ENDBRANCH   1   7
BRANCH   3  10
ATOM     10  O   UNL     1      28.745  29.886  26.900  1.00  0.00    -0.504 OA
ATOM     11  H   UNL     1      28.404  29.057  27.372  1.00  0.00     0.293 HD
ENDBRANCH   3  10
BRANCH   4  12
ATOM     12  O   UNL     1      29.074  27.572  25.350  1.00  0.00    -0.493 OA
ATOM     13  C   UNL     1      27.957  26.757  25.688  1.00  0.00     0.278 C 
ENDBRANCH   4  12
TORSDOF 3
ENDMDL
MODEL 6
REMARK VINA RESULT:    -3.971      5.754      8.032
REMARK INTER + INTRA:          -4.646
REMARK INTER:                  -4.557
REMARK INTRA:                  -0.089
REMARK UNBOUND:                -0.095
REMARK SMILES COc1ccc(C(C)=O)cc1O
REMARK SMILES IDX 6 1 10 2 11 3 3 4 4 5 5 6 7 7 8 8 9 9 12 10 2 12 1 13
REMARK H PARENT 12 11
REMARK Flexibility Score: inf
ROOT
ATOM      1  C   UNL     1      26.235  39.083  20.161  1.00  0.00     0.021 A 
ATOM      2  C   UNL     1      25.959  40.144  21.043  1.00  0.00     0.062 A 
ATOM      3  C   UNL     1      26.358  41.450  20.744  1.00  0.00     0.158 A 
ATOM      4  C   UNL     1      27.047  41.723  19.549  1.00  0.00     0.160 A 
ATOM      5  C   UNL     1      27.326  40.666  18.664  1.00  0.00     0.051 A 
ATOM      6  C   UNL     1      26.924  39.362  18.967  1.00  0.00     0.016 A 
ENDROOT
BRANCH   1   7
ATOM      7  C   UNL     1      25.801  37.701  20.499  1.00  0.00     0.159 C 
ATOM      8  C   UNL     1      24.378  37.378  20.844  1.00  0.00     0.093 C 
ATOM      9  O   UNL     1      26.644  36.763  20.501  1.00  0.00    -0.295 OA
ENDBRANCH   1   7
BRANCH   3  10
ATOM     10  O   UNL     1      26.061  42.469  21.651  1.00  0.00    -0.504 OA
ATOM     11  H   UNL     1      25.575  42.292  22.521  1.00  0.00     0.293 HD
ENDBRANCH   3  10
BRANCH   4  12
ATOM     12  O   UNL     1      27.436  43.045  19.276  1.00  0.00    -0.493 OA
ATOM     13  C   UNL     1      26.618  44.008  18.621  1.00  0.00     0.278 C 
ENDBRANCH   4  12
TORSDOF 3
ENDMDL
MODEL 7
REMARK VINA RESULT:    -3.941      4.921      8.987
REMARK INTER + INTRA:          -4.612
REMARK INTER:                  -4.515
REMARK INTRA:                  -0.098
REMARK UNBOUND:                -0.095
REMARK SMILES COc1ccc(C(C)=O)cc1O
REMARK SMILES IDX 6 1 10 2 11 3 3 4 4 5 5 6 7 7 8 8 9 9 12 10 2 12 1 13
REMARK H PARENT 12 11
REMARK Flexibility Score: inf
ROOT
ATOM      1  C   UNL     1      27.615  41.734  20.048  1.00  0.00     0.021 A 
ATOM      2  C   UNL     1      26.319  41.368  20.454  1.00  0.00     0.062 A 
ATOM      3  C   UNL     1      26.041  40.065  20.880  1.00  0.00     0.158 A 
ATOM      4  C   UNL     1      27.059  39.097  20.907  1.00  0.00     0.160 A 
ATOM      5  C   UNL     1      28.357  39.458  20.501  1.00  0.00     0.051 A 
ATOM      6  C   UNL     1      28.631  40.761  20.077  1.00  0.00     0.016 A 
ENDROOT
BRANCH   1   7
ATOM      7  C   UNL     1      27.889  43.126  19.599  1.00  0.00     0.159 C 
ATOM      8  C   UNL     1      26.922  43.890  18.745  1.00  0.00     0.093 C 
ATOM      9  O   UNL     1      28.964  43.693  19.938  1.00  0.00    -0.295 OA
ENDBRANCH   1   7
BRANCH   3  10
ATOM     10  O   UNL     1      24.739  39.750  21.273  1.00  0.00    -0.504 OA
ATOM     11  H   UNL     1      24.233  40.300  21.957  1.00  0.00     0.293 HD
ENDBRANCH   3  10
BRANCH   4  12
ATOM     12  O   UNL     1      26.750  37.796  21.338  1.00  0.00    -0.493 OA
ATOM     13  C   UNL     1      27.272  36.607  20.755  1.00  0.00     0.278 C 
ENDBRANCH   4  12
TORSDOF 3
ENDMDL
MODEL 8
REMARK VINA RESULT:    -3.858      2.877      4.530
REMARK INTER + INTRA:          -4.517
REMARK INTER:                  -4.402
REMARK INTRA:                  -0.115
REMARK UNBOUND:                -0.095
REMARK SMILES COc1ccc(C(C)=O)cc1O
REMARK SMILES IDX 6 1 10 2 11 3 3 4 4 5 5 6 7 7 8 8 9 9 12 10 2 12 1 13
REMARK H PARENT 12 11
REMARK Flexibility Score: inf
ROOT
ATOM      1  C   UNL     1      27.962  35.992  20.660  1.00  0.00     0.021 A 
ATOM      2  C   UNL     1      28.701  36.510  19.581  1.00  0.00     0.062 A 
ATOM      3  C   UNL     1      28.338  37.716  18.973  1.00  0.00     0.158 A 
ATOM      4  C   UNL     1      27.220  38.433  19.436  1.00  0.00     0.160 A 
ATOM      5  C   UNL     1      26.477  37.919  20.514  1.00  0.00     0.051 A 
ATOM      6  C   UNL     1      26.845  36.714  21.119  1.00  0.00     0.016 A 
ENDROOT
BRANCH   1   7
ATOM      7  C   UNL     1      28.366  34.708  21.292  1.00  0.00     0.159 C 
ATOM      8  C   UNL     1      29.092  33.641  20.528  1.00  0.00     0.093 C 
ATOM      9  O   UNL     1      28.096  34.495  22.506  1.00  0.00    -0.295 OA
ENDBRANCH   1   7
BRANCH   3  10
ATOM     10  O   UNL     1      29.103  38.188  17.906  1.00  0.00    -0.504 OA
ATOM     11  H   UNL     1      28.851  38.013  16.941  1.00  0.00     0.293 HD
ENDBRANCH   3  10
BRANCH   4  12
ATOM     12  O   UNL     1      26.879  39.640  18.805  1.00  0.00    -0.493 OA
ATOM     13  C   UNL     1      27.220  40.932  19.296  1.00  0.00     0.278 C 
ENDBRANCH   4  12
TORSDOF 3
ENDMDL
