MODEL 1
REMARK VINA RESULT:    -3.501      0.000      0.000
REMARK INTER + INTRA:          -4.186
REMARK INTER:                  -4.013
REMARK INTRA:                  -0.173
REMARK UNBOUND:                -0.173
REMARK SMILES CC=Cc1ccc(O)c(OC)c1
REMARK SMILES IDX 4 1 12 2 9 3 7 4 6 5 5 6 3 7 1 8 2 9 10 10 11 11 8 12
REMARK H PARENT 8 13
REMARK Flexibility Score: inf
ROOT
ATOM      1  C   UNL     1     138.552 142.112 141.163  1.00  0.00    -0.022 A 
ATOM      2  C   UNL     1     139.626 142.512 140.349  1.00  0.00     0.058 A 
ATOM      3  C   UNL     1     140.858 142.898 140.914  1.00  0.00     0.161 A 
ATOM      4  C   UNL     1     141.003 142.893 142.311  1.00  0.00     0.157 A 
ATOM      5  C   UNL     1     139.933 142.511 143.125  1.00  0.00     0.051 A 
ATOM      6  C   UNL     1     138.716 142.127 142.561  1.00  0.00     0.012 A 
ENDROOT
BRANCH   1   7
ATOM      7  C   UNL     1     137.276 141.722 140.514  1.00  0.00     0.003 C 
ATOM      8  C   UNL     1     135.602 141.683 138.706  1.00  0.00     0.035 C 
ATOM      9  C   UNL     1     136.914 142.107 139.284  1.00  0.00    -0.030 C 
ENDBRANCH   1   7
BRANCH   3  10
ATOM     10  O   UNL     1     141.948 143.293 140.121  1.00  0.00    -0.493 OA
ATOM     11  C   UNL     1     142.063 144.557 139.475  1.00  0.00     0.278 C 
ENDBRANCH   3  10
BRANCH   4  12
ATOM     12  O   UNL     1     142.205 143.268 142.913  1.00  0.00    -0.504 OA
ATOM     13  H   UNL     1     142.345 144.190 143.310  1.00  0.00     0.293 HD
ENDBRANCH   4  12
TORSDOF 3
ENDMDL
MODEL 2
REMARK VINA RESULT:    -3.499      9.700     10.665
REMARK INTER + INTRA:          -4.183
REMARK INTER:                  -4.036
REMARK INTRA:                  -0.148
REMARK UNBOUND:                -0.173
REMARK SMILES CC=Cc1ccc(O)c(OC)c1
REMARK SMILES IDX 4 1 12 2 9 3 7 4 6 5 5 6 3 7 1 8 2 9 10 10 11 11 8 12
REMARK H PARENT 8 13
REMARK Flexibility Score: inf
ROOT
ATOM      1  C   UNL     1     148.655 140.737 138.987  1.00  0.00    -0.022 A 
ATOM      2  C   UNL     1     149.426 139.566 138.884  1.00  0.00     0.058 A 
ATOM      3  C   UNL     1     150.159 139.083 139.987  1.00  0.00     0.161 A 
ATOM      4  C   UNL     1     150.124 139.794 141.198  1.00  0.00     0.157 A 
ATOM      5  C   UNL     1     149.371 140.967 141.300  1.00  0.00     0.051 A 
ATOM      6  C   UNL     1     148.645 141.440 140.206  1.00  0.00     0.012 A 
ENDROOT
BRANCH   1   7
ATOM      7  C   UNL     1     147.910 141.203 137.791  1.00  0.00     0.003 C 
ATOM      8  C   UNL     1     147.643 141.853 135.430  1.00  0.00     0.035 C 
ATOM      9  C   UNL     1     148.461 141.365 136.582  1.00  0.00    -0.030 C 
ENDBRANCH   1   7
BRANCH   3  10
ATOM     10  O   UNL     1     150.929 137.910 139.912  1.00  0.00    -0.493 OA
ATOM     11  C   UNL     1     151.001 137.062 138.771  1.00  0.00     0.278 C 
ENDBRANCH   3  10
BRANCH   4  12
ATOM     12  O   UNL     1     150.834 139.353 142.315  1.00  0.00    -0.504 OA
ATOM     13  H   UNL     1     151.314 139.992 142.938  1.00  0.00     0.293 HD
ENDBRANCH   4  12
TORSDOF 3
ENDMDL
MODEL 3
REMARK VINA RESULT:    -3.495      6.787      7.466
REMARK INTER + INTRA:          -4.179
REMARK INTER:                  -4.032
REMARK INTRA:                  -0.147
REMARK UNBOUND:                -0.173
REMARK SMILES CC=Cc1ccc(O)c(OC)c1
REMARK SMILES IDX 4 1 12 2 9 3 7 4 6 5 5 6 3 7 1 8 2 9 10 10 11 11 8 12
REMARK H PARENT 8 13
REMARK Flexibility Score: inf
ROOT
ATOM      1  C   UNL     1     140.934 148.645 138.997  1.00  0.00    -0.022 A 
ATOM      2  C   UNL     1     142.110 149.394 138.822  1.00  0.00     0.058 A 
ATOM      3  C   UNL     1     142.614 150.204 139.859  1.00  0.00     0.161 A 
ATOM      4  C   UNL     1     141.919 150.268 141.078  1.00  0.00     0.157 A 
ATOM      5  C   UNL     1     140.741 149.537 141.252  1.00  0.00     0.051 A 
ATOM      6  C   UNL     1     140.247 148.734 140.223  1.00  0.00     0.012 A 
ENDROOT
BRANCH   1   7
ATOM      7  C   UNL     1     140.445 147.815 137.868  1.00  0.00     0.003 C 
ATOM      8  C   UNL     1     139.634 147.401 135.579  1.00  0.00     0.035 C 
ATOM      9  C   UNL     1     140.135 148.303 136.661  1.00  0.00    -0.030 C 
ENDBRANCH   1   7
BRANCH   3  10
ATOM     10  O   UNL     1     143.792 150.955 139.710  1.00  0.00    -0.493 OA
ATOM     11  C   UNL     1     144.599 150.970 138.537  1.00  0.00     0.278 C 
ENDBRANCH   3  10
BRANCH   4  12
ATOM     12  O   UNL     1     142.382 151.058 142.132  1.00  0.00    -0.504 OA
ATOM     13  H   UNL     1     142.730 151.999 141.989  1.00  0.00     0.293 HD
ENDBRANCH   4  12
TORSDOF 3
ENDMDL
MODEL 4
REMARK VINA RESULT:    -3.495      4.759      6.284
REMARK INTER + INTRA:          -4.179
REMARK INTER:                  -4.010
REMARK INTRA:                  -0.169
REMARK UNBOUND:                -0.173
REMARK SMILES CC=Cc1ccc(O)c(OC)c1
REMARK SMILES IDX 4 1 12 2 9 3 7 4 6 5 5 6 3 7 1 8 2 9 10 10 11 11 8 12
REMARK H PARENT 8 13
REMARK Flexibility Score: inf
ROOT
ATOM      1  C   UNL     1     143.096 139.510 141.130  1.00  0.00    -0.022 A 
ATOM      2  C   UNL     1     141.998 139.125 140.340  1.00  0.00     0.058 A 
ATOM      3  C   UNL     1     140.779 138.743 140.933  1.00  0.00     0.161 A 
ATOM      4  C   UNL     1     140.669 138.737 142.334  1.00  0.00     0.157 A 
ATOM      5  C   UNL     1     141.762 139.105 143.124  1.00  0.00     0.051 A 
ATOM      6  C   UNL     1     142.967 139.485 142.532  1.00  0.00     0.012 A 
ENDROOT
BRANCH   1   7
ATOM      7  C   UNL     1     144.358 139.896 140.452  1.00  0.00     0.003 C 
ATOM      8  C   UNL     1     146.022 139.876 138.635  1.00  0.00     0.035 C 
ATOM      9  C   UNL     1     144.725 139.450 139.244  1.00  0.00    -0.030 C 
ENDBRANCH   1   7
BRANCH   3  10
ATOM     10  O   UNL     1     139.665 138.363 140.165  1.00  0.00    -0.493 OA
ATOM     11  C   UNL     1     139.604 137.194 139.354  1.00  0.00     0.278 C 
ENDBRANCH   3  10
BRANCH   4  12
ATOM     12  O   UNL     1     139.480 138.366 142.963  1.00  0.00    -0.504 OA
ATOM     13  H   UNL     1     139.263 137.400 143.181  1.00  0.00     0.293 HD
ENDBRANCH   4  12
TORSDOF 3
ENDMDL
MODEL 5
REMARK VINA RESULT:    -3.462      8.899      9.850
REMARK INTER + INTRA:          -4.141
REMARK INTER:                  -3.990
REMARK INTRA:                  -0.151
REMARK UNBOUND:                -0.173
REMARK SMILES CC=Cc1ccc(O)c(OC)c1
REMARK SMILES IDX 4 1 12 2 9 3 7 4 6 5 5 6 3 7 1 8 2 9 10 10 11 11 8 12
REMARK H PARENT 8 13
REMARK Flexibility Score: inf
ROOT
ATOM      1  C   UNL     1     147.650 140.691 137.586  1.00  0.00    -0.022 A 
ATOM      2  C   UNL     1     148.554 140.807 138.657  1.00  0.00     0.058 A 
ATOM      3  C   UNL     1     148.551 139.872 139.711  1.00  0.00     0.161 A 
ATOM      4  C   UNL     1     147.621 138.819 139.692  1.00  0.00     0.157 A 
ATOM      5  C   UNL     1     146.710 138.709 138.638  1.00  0.00     0.051 A 
ATOM      6  C   UNL     1     146.718 139.636 137.595  1.00  0.00     0.012 A 
ENDROOT
BRANCH   1   7
ATOM      7  C   UNL     1     147.692 141.708 136.507  1.00  0.00     0.003 C 
ATOM      8  C   UNL     1     148.604 142.808 134.499  1.00  0.00     0.035 C 
ATOM      9  C   UNL     1     148.622 141.739 135.545  1.00  0.00    -0.030 C 
ENDBRANCH   1   7
BRANCH   3  10
ATOM     10  O   UNL     1     149.451 139.961 140.786  1.00  0.00    -0.493 OA
ATOM     11  C   UNL     1     149.717 141.152 141.521  1.00  0.00     0.278 C 
ENDBRANCH   3  10
BRANCH   4  12
ATOM     12  O   UNL     1     147.583 137.871 140.715  1.00  0.00    -0.504 OA
ATOM     13  H   UNL     1     147.287 138.104 141.656  1.00  0.00     0.293 HD
ENDBRANCH   4  12
TORSDOF 3
ENDMDL
MODEL 6
REMARK VINA RESULT:    -3.459      9.375     10.199
REMARK INTER + INTRA:          -4.138
REMARK INTER:                  -3.981
REMARK INTRA:                  -0.157
REMARK UNBOUND:                -0.173
REMARK SMILES CC=Cc1ccc(O)c(OC)c1
REMARK SMILES IDX 4 1 12 2 9 3 7 4 6 5 5 6 3 7 1 8 2 9 10 10 11 11 8 12
REMARK H PARENT 8 13
REMARK Flexibility Score: inf
ROOT
ATOM      1  C   UNL     1     140.891 134.004 137.561  1.00  0.00    -0.022 A 
ATOM      2  C   UNL     1     140.946 133.078 138.617  1.00  0.00     0.058 A 
ATOM      3  C   UNL     1     139.977 133.088 139.640  1.00  0.00     0.161 A 
ATOM      4  C   UNL     1     138.952 134.048 139.604  1.00  0.00     0.157 A 
ATOM      5  C   UNL     1     138.902 134.981 138.565  1.00  0.00     0.051 A 
ATOM      6  C   UNL     1     139.863 134.965 137.552  1.00  0.00     0.012 A 
ENDROOT
BRANCH   1   7
ATOM      7  C   UNL     1     141.942 133.952 136.515  1.00  0.00     0.003 C 
ATOM      8  C   UNL     1     143.932 134.744 135.296  1.00  0.00     0.035 C 
ATOM      9  C   UNL     1     142.916 134.860 136.388  1.00  0.00    -0.030 C 
ENDBRANCH   1   7
BRANCH   3  10
ATOM     10  O   UNL     1     140.006 132.167 140.701  1.00  0.00    -0.493 OA
ATOM     11  C   UNL     1     141.161 131.859 141.473  1.00  0.00     0.278 C 
ENDBRANCH   3  10
BRANCH   4  12
ATOM     12  O   UNL     1     137.972 134.095 140.597  1.00  0.00    -0.504 OA
ATOM     13  H   UNL     1     137.363 134.897 140.717  1.00  0.00     0.293 HD
ENDBRANCH   4  12
TORSDOF 3
ENDMDL
MODEL 7
REMARK VINA RESULT:    -3.438      6.110      6.832
REMARK INTER + INTRA:          -4.114
REMARK INTER:                  -3.961
REMARK INTRA:                  -0.153
REMARK UNBOUND:                -0.173
REMARK SMILES CC=Cc1ccc(O)c(OC)c1
REMARK SMILES IDX 4 1 12 2 9 3 7 4 6 5 5 6 3 7 1 8 2 9 10 10 11 11 8 12
REMARK H PARENT 8 13
REMARK Flexibility Score: inf
ROOT
ATOM      1  C   UNL     1     140.883 147.709 137.603  1.00  0.00    -0.022 A 
ATOM      2  C   UNL     1     140.773 148.602 138.684  1.00  0.00     0.058 A 
ATOM      3  C   UNL     1     141.701 148.573 139.744  1.00  0.00     0.161 A 
ATOM      4  C   UNL     1     142.740 147.628 139.720  1.00  0.00     0.157 A 
ATOM      5  C   UNL     1     142.844 146.728 138.656  1.00  0.00     0.051 A 
ATOM      6  C   UNL     1     141.925 146.762 137.607  1.00  0.00     0.012 A 
ENDROOT
BRANCH   1   7
ATOM      7  C   UNL     1     139.874 147.780 136.518  1.00  0.00     0.003 C 
ATOM      8  C   UNL     1     138.806 148.726 134.509  1.00  0.00     0.035 C 
ATOM      9  C   UNL     1     139.868 148.716 135.562  1.00  0.00    -0.030 C 
ENDBRANCH   1   7
BRANCH   3  10
ATOM     10  O   UNL     1     141.617 149.461 140.830  1.00  0.00    -0.493 OA
ATOM     11  C   UNL     1     140.442 149.685 141.602  1.00  0.00     0.278 C 
ENDBRANCH   3  10
BRANCH   4  12
ATOM     12  O   UNL     1     143.681 147.563 140.749  1.00  0.00    -0.504 OA
ATOM     13  H   UNL     1     143.434 147.273 141.688  1.00  0.00     0.293 HD
ENDBRANCH   4  12
TORSDOF 3
ENDMDL
MODEL 8
REMARK VINA RESULT:    -3.426      3.811      4.436
REMARK INTER + INTRA:          -4.100
REMARK INTER:                  -3.927
REMARK INTRA:                  -0.173
REMARK UNBOUND:                -0.173
REMARK SMILES CC=Cc1ccc(O)c(OC)c1
REMARK SMILES IDX 4 1 12 2 9 3 7 4 6 5 5 6 3 7 1 8 2 9 10 10 11 11 8 12
REMARK H PARENT 8 13
REMARK Flexibility Score: inf
ROOT
ATOM      1  C   UNL     1     142.106 143.087 141.115  1.00  0.00    -0.022 A 
ATOM      2  C   UNL     1     142.496 141.981 140.339  1.00  0.00     0.058 A 
ATOM      3  C   UNL     1     142.873 140.767 140.948  1.00  0.00     0.161 A 
ATOM      4  C   UNL     1     142.870 140.672 142.350  1.00  0.00     0.157 A 
ATOM      5  C   UNL     1     142.498 141.774 143.125  1.00  0.00     0.051 A 
ATOM      6  C   UNL     1     142.123 142.973 142.518  1.00  0.00     0.012 A 
ENDROOT
BRANCH   1   7
ATOM      7  C   UNL     1     141.726 144.342 140.421  1.00  0.00     0.003 C 
ATOM      8  C   UNL     1     141.695 145.948 138.552  1.00  0.00     0.035 C 
ATOM      9  C   UNL     1     142.109 144.654 139.177  1.00  0.00    -0.030 C 
ENDBRANCH   1   7
BRANCH   3  10
ATOM     10  O   UNL     1     143.258 139.645 140.194  1.00  0.00    -0.493 OA
ATOM     11  C   UNL     1     144.522 139.494 139.558  1.00  0.00     0.278 C 
ENDBRANCH   3  10
BRANCH   4  12
ATOM     12  O   UNL     1     143.236 139.491 142.994  1.00  0.00    -0.504 OA
ATOM     13  H   UNL     1     142.552 138.854 143.386  1.00  0.00     0.293 HD
ENDBRANCH   4  12
TORSDOF 3
ENDMDL
MODEL 9
REMARK VINA RESULT:    -3.362      6.661      7.911
REMARK INTER + INTRA:          -4.026
REMARK INTER:                  -3.860
REMARK INTRA:                  -0.166
REMARK UNBOUND:                -0.173
REMARK SMILES CC=Cc1ccc(O)c(OC)c1
REMARK SMILES IDX 4 1 12 2 9 3 7 4 6 5 5 6 3 7 1 8 2 9 10 10 11 11 8 12
REMARK H PARENT 8 13
REMARK Flexibility Score: inf
ROOT
ATOM      1  C   UNL     1     142.403 148.421 138.845  1.00  0.00    -0.022 A 
ATOM      2  C   UNL     1     142.858 149.469 139.665  1.00  0.00     0.058 A 
ATOM      3  C   UNL     1     142.025 150.026 140.656  1.00  0.00     0.161 A 
ATOM      4  C   UNL     1     140.719 149.530 140.813  1.00  0.00     0.157 A 
ATOM      5  C   UNL     1     140.258 148.499 139.990  1.00  0.00     0.051 A 
ATOM      6  C   UNL     1     141.088 147.950 139.011  1.00  0.00     0.012 A 
ENDROOT
BRANCH   1   7
ATOM      7  C   UNL     1     143.321 147.879 137.813  1.00  0.00     0.003 C 
ATOM      8  C   UNL     1     144.961 146.292 136.884  1.00  0.00     0.035 C 
ATOM      9  C   UNL     1     144.048 146.766 137.969  1.00  0.00    -0.030 C 
ENDBRANCH   1   7
BRANCH   3  10
ATOM     10  O   UNL     1     142.459 151.066 141.494  1.00  0.00    -0.493 OA
ATOM     11  C   UNL     1     143.208 150.882 142.691  1.00  0.00     0.278 C 
ENDBRANCH   3  10
BRANCH   4  12
ATOM     12  O   UNL     1     139.861 150.052 141.781  1.00  0.00    -0.504 OA
ATOM     13  H   UNL     1     140.194 150.368 142.684  1.00  0.00     0.293 HD
ENDBRANCH   4  12
TORSDOF 3
ENDMDL
