MODEL 1
REMARK VINA RESULT:     1.364      0.000      0.000
REMARK INTER + INTRA:           2.035
REMARK INTER:                   1.643
REMARK INTRA:                   0.392
REMARK UNBOUND:                 0.392
REMARK SMILES Oc1cc(O)c2c(c1)O[C@@H](c1ccc(O)c(O)c1)[C@H](O)C2
REMARK SMILES IDX 21 1 19 2 10 3 9 4 7 5 8 6 2 7 3 8 4 9 6 10 20 11 11 13
REMARK SMILES IDX 18 14 12 15 16 16 13 17 14 18 17 19 15 21 5 23 1 25
REMARK H PARENT 20 12 17 20 15 22 5 24 1 26
REMARK Flexibility Score: inf
ROOT
ATOM      1  C   UNL     1       4.847 -36.254 -12.333  1.00  0.00     0.079 C 
ATOM      2  C   UNL     1       6.320 -35.840 -12.169  1.00  0.00     0.164 C 
ATOM      3  C   UNL     1       6.455 -34.316 -12.352  1.00  0.00     0.232 C 
ATOM      4  O   UNL     1       5.598 -33.633 -11.436  1.00  0.00    -0.482 OA
ATOM      5  C   UNL     1       4.333 -34.118 -11.087  1.00  0.00     0.131 A 
ATOM      6  C   UNL     1       3.480 -33.318 -10.321  1.00  0.00     0.093 A 
ATOM      7  C   UNL     1       2.208 -33.784  -9.963  1.00  0.00     0.122 A 
ATOM      8  C   UNL     1       1.792 -35.052 -10.375  1.00  0.00     0.092 A 
ATOM      9  C   UNL     1       2.641 -35.866 -11.141  1.00  0.00     0.126 A 
ATOM     10  C   UNL     1       3.927 -35.407 -11.484  1.00  0.00     0.039 A 
ENDROOT
BRANCH   2  11
ATOM     11  O   UNL     1       7.109 -36.503 -13.125  1.00  0.00    -0.389 OA
ATOM     12  H   UNL     1       8.006 -36.625 -12.719  1.00  0.00     0.211 HD
ENDBRANCH   2  11
BRANCH   3  13
ATOM     13  C   UNL     1       7.882 -33.866 -12.145  1.00  0.00    -0.001 A 
ATOM     14  C   UNL     1       8.153 -32.590 -11.622  1.00  0.00     0.057 A 
ATOM     15  C   UNL     1       8.953 -34.696 -12.518  1.00  0.00     0.012 A 
ATOM     16  C   UNL     1       9.477 -32.158 -11.455  1.00  0.00     0.157 A 
ATOM     17  C   UNL     1      10.271 -34.266 -12.350  1.00  0.00     0.050 A 
ATOM     18  C   UNL     1      10.538 -32.998 -11.818  1.00  0.00     0.157 A 
BRANCH  16  19
ATOM     19  O   UNL     1       9.745 -30.895 -10.931  1.00  0.00    -0.504 OA
ATOM     20  H   UNL     1       9.083 -30.418 -10.330  1.00  0.00     0.293 HD
ENDBRANCH  16  19
BRANCH  18  21
ATOM     21  O   UNL     1      11.852 -32.565 -11.649  1.00  0.00    -0.504 OA
ATOM     22  H   UNL     1      12.335 -32.045 -12.371  1.00  0.00     0.293 HD
ENDBRANCH  18  21
ENDBRANCH   3  13
BRANCH   9  23
ATOM     23  O   UNL     1       2.210 -37.125 -11.559  1.00  0.00    -0.507 OA
ATOM     24  H   UNL     1       1.345 -37.247 -12.072  1.00  0.00     0.293 HD
ENDBRANCH   9  23
BRANCH   7  25
ATOM     25  O   UNL     1       1.352 -32.993  -9.200  1.00  0.00    -0.508 OA
ATOM     26  H   UNL     1       1.699 -32.408  -8.449  1.00  0.00     0.293 HD
ENDBRANCH   7  25
TORSDOF 6
ENDMDL
MODEL 2
REMARK VINA RESULT:     1.804      0.611      1.487
REMARK INTER + INTRA:           2.566
REMARK INTER:                   2.151
REMARK INTRA:                   0.415
REMARK UNBOUND:                 0.392
REMARK SMILES Oc1cc(O)c2c(c1)O[C@@H](c1ccc(O)c(O)c1)[C@H](O)C2
REMARK SMILES IDX 21 1 19 2 10 3 9 4 7 5 8 6 2 7 3 8 4 9 6 10 20 11 11 13
REMARK SMILES IDX 18 14 12 15 16 16 13 17 14 18 17 19 15 21 5 23 1 25
REMARK H PARENT 20 12 17 20 15 22 5 24 1 26
REMARK Flexibility Score: inf
ROOT
ATOM      1  C   UNL     1       4.803 -36.225 -12.301  1.00  0.00     0.079 C 
ATOM      2  C   UNL     1       6.276 -35.803 -12.150  1.00  0.00     0.164 C 
ATOM      3  C   UNL     1       6.397 -34.276 -12.313  1.00  0.00     0.232 C 
ATOM      4  O   UNL     1       5.548 -33.611 -11.377  1.00  0.00    -0.482 OA
ATOM      5  C   UNL     1       4.291 -34.110 -11.019  1.00  0.00     0.131 A 
ATOM      6  C   UNL     1       3.442 -33.327 -10.231  1.00  0.00     0.093 A 
ATOM      7  C   UNL     1       2.178 -33.807  -9.864  1.00  0.00     0.122 A 
ATOM      8  C   UNL     1       1.765 -35.072 -10.288  1.00  0.00     0.092 A 
ATOM      9  C   UNL     1       2.610 -35.869 -11.076  1.00  0.00     0.126 A 
ATOM     10  C   UNL     1       3.888 -35.397 -11.429  1.00  0.00     0.039 A 
ENDROOT
BRANCH   2  11
ATOM     11  O   UNL     1       7.056 -36.447 -13.125  1.00  0.00    -0.389 OA
ATOM     12  H   UNL     1       6.466 -37.108 -13.572  1.00  0.00     0.211 HD
ENDBRANCH   2  11
BRANCH   3  13
ATOM     13  C   UNL     1       7.824 -33.819 -12.118  1.00  0.00    -0.001 A 
ATOM     14  C   UNL     1       8.892 -34.686 -12.405  1.00  0.00     0.057 A 
ATOM     15  C   UNL     1       8.098 -32.541 -11.599  1.00  0.00     0.012 A 
ATOM     16  C   UNL     1      10.216 -34.274 -12.198  1.00  0.00     0.157 A 
ATOM     17  C   UNL     1       9.418 -32.131 -11.394  1.00  0.00     0.050 A 
ATOM     18  C   UNL     1      10.481 -32.995 -11.693  1.00  0.00     0.157 A 
BRANCH  16  19
ATOM     19  O   UNL     1      11.275 -35.133 -12.489  1.00  0.00    -0.504 OA
ATOM     20  H   UNL     1      12.235 -34.882 -12.278  1.00  0.00     0.293 HD
ENDBRANCH  16  19
BRANCH  18  21
ATOM     21  O   UNL     1      11.798 -32.590 -11.489  1.00  0.00    -0.504 OA
ATOM     22  H   UNL     1      12.138 -31.700 -11.834  1.00  0.00     0.293 HD
ENDBRANCH  18  21
ENDBRANCH   3  13
BRANCH   9  23
ATOM     23  O   UNL     1       2.183 -37.125 -11.506  1.00  0.00    -0.507 OA
ATOM     24  H   UNL     1       1.331 -37.241 -12.043  1.00  0.00     0.293 HD
ENDBRANCH   9  23
BRANCH   7  25
ATOM     25  O   UNL     1       1.326 -33.033  -9.079  1.00  0.00    -0.508 OA
ATOM     26  H   UNL     1       0.533 -32.546  -9.480  1.00  0.00     0.293 HD
ENDBRANCH   7  25
TORSDOF 6
ENDMDL
