MODEL 1
REMARK VINA RESULT:    -4.305      0.000      0.000
REMARK INTER + INTRA:          -9.957
REMARK INTER:                  -7.829
REMARK INTRA:                  -2.128
REMARK UNBOUND:                -2.128
REMARK SMILES CCCCCCCCCCCCCC[C@H](C)C(=O)[O-]
REMARK SMILES IDX 9 1 10 2 11 3 12 4 13 5 14 6 15 7 16 8 17 9 18 10 19 11 8 12
REMARK SMILES IDX 7 13 6 14 5 15 4 16 3 17 2 18 1 19
REMARK H PARENT
REMARK Flexibility Score: inf
ROOT
ATOM      1  C   UNL     1     -22.623 -15.369 -17.960  1.00  0.00     0.000 C 
ENDROOT
BRANCH   1   2
ATOM      2  C   UNL     1     -23.145 -14.125 -18.701  1.00  0.00     0.000 C 
BRANCH   2   3
ATOM      3  C   UNL     1     -22.957 -14.198 -20.232  1.00  0.00     0.000 C 
BRANCH   3   4
ATOM      4  C   UNL     1     -21.920 -13.178 -20.739  1.00  0.00     0.000 C 
BRANCH   4   5
ATOM      5  C   UNL     1     -21.495 -12.173 -19.658  1.00  0.00     0.001 C 
BRANCH   5   6
ATOM      6  C   UNL     1     -19.972 -12.165 -19.416  1.00  0.00     0.009 C 
BRANCH   6   7
ATOM      7  C   UNL     1     -19.355 -13.565 -19.203  1.00  0.00     0.032 C 
ATOM      8  C   UNL     1     -18.759 -13.748 -17.799  1.00  0.00     0.014 C 
BRANCH   7   9
ATOM      9  C   UNL     1     -18.359 -13.905 -20.283  1.00  0.00     0.044 C 
ATOM     10  O   UNL     1     -18.731 -14.094 -21.473  1.00  0.00    -0.550 OA
ATOM     11  O   UNL     1     -17.019 -14.066 -19.954  1.00  0.00    -0.550 OA
ENDBRANCH   7   9
ENDBRANCH   6   7
ENDBRANCH   5   6
ENDBRANCH   4   5
ENDBRANCH   3   4
ENDBRANCH   2   3
ENDBRANCH   1   2
BRANCH   1  12
ATOM     12  C   UNL     1     -21.963 -15.028 -16.614  1.00  0.00     0.000 C 
BRANCH  12  13
ATOM     13  C   UNL     1     -22.158 -13.557 -16.215  1.00  0.00    -0.000 C 
BRANCH  13  14
ATOM     14  C   UNL     1     -22.642 -13.396 -14.766  1.00  0.00    -0.000 C 
BRANCH  14  15
ATOM     15  C   UNL     1     -23.885 -12.501 -14.696  1.00  0.00    -0.000 C 
BRANCH  15  16
ATOM     16  C   UNL     1     -24.935 -13.091 -13.742  1.00  0.00    -0.000 C 
BRANCH  16  17
ATOM     17  C   UNL     1     -25.601 -14.358 -14.306  1.00  0.00    -0.000 C 
BRANCH  17  18
ATOM     18  C   UNL     1     -25.073 -15.644 -13.652  1.00  0.00    -0.003 C 
ATOM     19  C   UNL     1     -24.714 -16.687 -14.707  1.00  0.00     0.004 C 
ENDBRANCH  17  18
ENDBRANCH  16  17
ENDBRANCH  15  16
ENDBRANCH  14  15
ENDBRANCH  13  14
ENDBRANCH  12  13
ENDBRANCH   1  12
TORSDOF 14
ENDMDL
MODEL 2
REMARK VINA RESULT:    -4.215      3.197      6.573
REMARK INTER + INTRA:          -9.794
REMARK INTER:                  -7.708
REMARK INTRA:                  -2.086
REMARK UNBOUND:                -2.128
REMARK SMILES CCCCCCCCCCCCCC[C@H](C)C(=O)[O-]
REMARK SMILES IDX 9 1 10 2 11 3 12 4 13 5 14 6 15 7 16 8 17 9 18 10 19 11 8 12
REMARK SMILES IDX 7 13 6 14 5 15 4 16 3 17 2 18 1 19
REMARK H PARENT
REMARK Flexibility Score: inf
ROOT
ATOM      1  C   UNL     1     -22.466 -13.461 -16.333  1.00  0.00     0.000 C 
ENDROOT
BRANCH   1   2
ATOM      2  C   UNL     1     -22.633 -13.321 -14.809  1.00  0.00     0.000 C 
BRANCH   2   3
ATOM      3  C   UNL     1     -24.008 -12.758 -14.391  1.00  0.00     0.000 C 
BRANCH   3   4
ATOM      4  C   UNL     1     -25.103 -13.841 -14.392  1.00  0.00     0.000 C 
BRANCH   4   5
ATOM      5  C   UNL     1     -24.628 -15.170 -13.785  1.00  0.00     0.001 C 
BRANCH   5   6
ATOM      6  C   UNL     1     -24.764 -16.355 -14.762  1.00  0.00     0.009 C 
BRANCH   6   7
ATOM      7  C   UNL     1     -23.442 -16.776 -15.440  1.00  0.00     0.032 C 
ATOM      8  C   UNL     1     -23.583 -16.965 -16.958  1.00  0.00     0.014 C 
BRANCH   7   9
ATOM      9  C   UNL     1     -22.838 -17.989 -14.779  1.00  0.00     0.044 C 
ATOM     10  O   UNL     1     -21.770 -18.500 -15.213  1.00  0.00    -0.550 OA
ATOM     11  O   UNL     1     -23.493 -18.586 -13.710  1.00  0.00    -0.550 OA
ENDBRANCH   7   9
ENDBRANCH   6   7
ENDBRANCH   5   6
ENDBRANCH   4   5
ENDBRANCH   3   4
ENDBRANCH   2   3
ENDBRANCH   1   2
BRANCH   1  12
ATOM     12  C   UNL     1     -22.873 -12.189 -17.096  1.00  0.00     0.000 C 
BRANCH  12  13
ATOM     13  C   UNL     1     -22.271 -12.129 -18.509  1.00  0.00    -0.000 C 
BRANCH  13  14
ATOM     14  C   UNL     1     -22.908 -13.147 -19.467  1.00  0.00    -0.000 C 
BRANCH  14  15
ATOM     15  C   UNL     1     -21.871 -13.702 -20.450  1.00  0.00    -0.000 C 
BRANCH  15  16
ATOM     16  C   UNL     1     -20.501 -13.863 -19.771  1.00  0.00    -0.000 C 
BRANCH  16  17
ATOM     17  C   UNL     1     -20.369 -15.194 -19.011  1.00  0.00    -0.000 C 
BRANCH  17  18
ATOM     18  C   UNL     1     -19.508 -15.068 -17.744  1.00  0.00    -0.003 C 
ATOM     19  C   UNL     1     -18.935 -13.660 -17.609  1.00  0.00     0.004 C 
ENDBRANCH  17  18
ENDBRANCH  16  17
ENDBRANCH  15  16
ENDBRANCH  14  15
ENDBRANCH  13  14
ENDBRANCH  12  13
ENDBRANCH   1  12
TORSDOF 14
ENDMDL
MODEL 3
REMARK VINA RESULT:    -4.205      1.847      3.492
REMARK INTER + INTRA:          -9.774
REMARK INTER:                  -7.241
REMARK INTRA:                  -2.533
REMARK UNBOUND:                -2.128
REMARK SMILES CCCCCCCCCCCCCC[C@H](C)C(=O)[O-]
REMARK SMILES IDX 9 1 10 2 11 3 12 4 13 5 14 6 15 7 16 8 17 9 18 10 19 11 8 12
REMARK SMILES IDX 7 13 6 14 5 15 4 16 3 17 2 18 1 19
REMARK H PARENT
REMARK Flexibility Score: inf
ROOT
ATOM      1  C   UNL     1     -20.801 -16.813 -18.635  1.00  0.00     0.000 C 
ENDROOT
BRANCH   1   2
ATOM      2  C   UNL     1     -20.143 -15.966 -17.531  1.00  0.00     0.000 C 
BRANCH   2   3
ATOM      3  C   UNL     1     -18.838 -15.276 -17.981  1.00  0.00     0.000 C 
BRANCH   3   4
ATOM      4  C   UNL     1     -18.876 -13.754 -17.748  1.00  0.00     0.000 C 
BRANCH   4   5
ATOM      5  C   UNL     1     -19.312 -12.970 -18.995  1.00  0.00     0.001 C 
BRANCH   5   6
ATOM      6  C   UNL     1     -19.235 -13.811 -20.285  1.00  0.00     0.009 C 
BRANCH   6   7
ATOM      7  C   UNL     1     -19.637 -13.048 -21.567  1.00  0.00     0.032 C 
ATOM      8  C   UNL     1     -20.592 -11.875 -21.289  1.00  0.00     0.014 C 
BRANCH   7   9
ATOM      9  C   UNL     1     -20.184 -13.977 -22.621  1.00  0.00     0.044 C 
ATOM     10  O   UNL     1     -20.934 -14.941 -22.309  1.00  0.00    -0.550 OA
ATOM     11  O   UNL     1     -19.816 -13.801 -23.948  1.00  0.00    -0.550 OA
ENDBRANCH   7   9
ENDBRANCH   6   7
ENDBRANCH   5   6
ENDBRANCH   4   5
ENDBRANCH   3   4
ENDBRANCH   2   3
ENDBRANCH   1   2
BRANCH   1  12
ATOM     12  C   UNL     1     -22.055 -16.148 -19.228  1.00  0.00     0.000 C 
BRANCH  12  13
ATOM     13  C   UNL     1     -22.552 -14.964 -18.384  1.00  0.00    -0.000 C 
BRANCH  13  14
ATOM     14  C   UNL     1     -22.963 -13.758 -19.242  1.00  0.00    -0.000 C 
BRANCH  14  15
ATOM     15  C   UNL     1     -22.948 -12.465 -18.418  1.00  0.00    -0.000 C 
BRANCH  15  16
ATOM     16  C   UNL     1     -22.311 -12.700 -17.038  1.00  0.00    -0.000 C 
BRANCH  16  17
ATOM     17  C   UNL     1     -23.211 -12.231 -15.883  1.00  0.00    -0.000 C 
BRANCH  17  18
ATOM     18  C   UNL     1     -23.219 -13.216 -14.703  1.00  0.00    -0.003 C 
ATOM     19  C   UNL     1     -23.711 -14.592 -15.141  1.00  0.00     0.004 C 
ENDBRANCH  17  18
ENDBRANCH  16  17
ENDBRANCH  15  16
ENDBRANCH  14  15
ENDBRANCH  13  14
ENDBRANCH  12  13
ENDBRANCH   1  12
TORSDOF 14
ENDMDL
MODEL 4
REMARK VINA RESULT:    -4.188      1.624      3.287
REMARK INTER + INTRA:          -9.744
REMARK INTER:                  -7.085
REMARK INTRA:                  -2.659
REMARK UNBOUND:                -2.128
REMARK SMILES CCCCCCCCCCCCCC[C@H](C)C(=O)[O-]
REMARK SMILES IDX 9 1 10 2 11 3 12 4 13 5 14 6 15 7 16 8 17 9 18 10 19 11 8 12
REMARK SMILES IDX 7 13 6 14 5 15 4 16 3 17 2 18 1 19
REMARK H PARENT
REMARK Flexibility Score: inf
ROOT
ATOM      1  C   UNL     1     -19.810 -15.163 -17.657  1.00  0.00     0.000 C 
ENDROOT
BRANCH   1   2
ATOM      2  C   UNL     1     -20.300 -13.764 -17.246  1.00  0.00     0.000 C 
BRANCH   2   3
ATOM      3  C   UNL     1     -20.716 -12.882 -18.443  1.00  0.00     0.000 C 
BRANCH   3   4
ATOM      4  C   UNL     1     -22.245 -12.831 -18.622  1.00  0.00     0.000 C 
BRANCH   4   5
ATOM      5  C   UNL     1     -22.701 -13.344 -19.997  1.00  0.00     0.001 C 
BRANCH   5   6
ATOM      6  C   UNL     1     -21.550 -13.410 -21.021  1.00  0.00     0.009 C 
BRANCH   6   7
ATOM      7  C   UNL     1     -21.337 -14.805 -21.649  1.00  0.00     0.032 C 
ATOM      8  C   UNL     1     -22.515 -15.759 -21.399  1.00  0.00     0.014 C 
BRANCH   7   9
ATOM      9  C   UNL     1     -20.024 -15.414 -21.224  1.00  0.00     0.044 C 
ATOM     10  O   UNL     1     -18.982 -14.710 -21.133  1.00  0.00    -0.550 OA
ATOM     11  O   UNL     1     -19.948 -16.779 -20.980  1.00  0.00    -0.550 OA
ENDBRANCH   7   9
ENDBRANCH   6   7
ENDBRANCH   5   6
ENDBRANCH   4   5
ENDBRANCH   3   4
ENDBRANCH   2   3
ENDBRANCH   1   2
BRANCH   1  12
ATOM     12  C   UNL     1     -20.675 -16.293 -17.073  1.00  0.00     0.000 C 
BRANCH  12  13
ATOM     13  C   UNL     1     -21.902 -16.608 -17.944  1.00  0.00    -0.000 C 
BRANCH  13  14
ATOM     14  C   UNL     1     -23.220 -16.166 -17.291  1.00  0.00    -0.000 C 
BRANCH  14  15
ATOM     15  C   UNL     1     -23.136 -16.262 -15.762  1.00  0.00    -0.000 C 
BRANCH  15  16
ATOM     16  C   UNL     1     -23.771 -15.030 -15.098  1.00  0.00    -0.000 C 
BRANCH  16  17
ATOM     17  C   UNL     1     -22.778 -13.868 -14.933  1.00  0.00    -0.000 C 
BRANCH  17  18
ATOM     18  C   UNL     1     -23.438 -12.494 -15.127  1.00  0.00    -0.003 C 
ATOM     19  C   UNL     1     -24.503 -12.243 -14.064  1.00  0.00     0.004 C 
ENDBRANCH  17  18
ENDBRANCH  16  17
ENDBRANCH  15  16
ENDBRANCH  14  15
ENDBRANCH  13  14
ENDBRANCH  12  13
ENDBRANCH   1  12
TORSDOF 14
ENDMDL
MODEL 5
REMARK VINA RESULT:    -4.160      2.560      6.200
REMARK INTER + INTRA:          -9.693
REMARK INTER:                  -7.395
REMARK INTRA:                  -2.298
REMARK UNBOUND:                -2.128
REMARK SMILES CCCCCCCCCCCCCC[C@H](C)C(=O)[O-]
REMARK SMILES IDX 9 1 10 2 11 3 12 4 13 5 14 6 15 7 16 8 17 9 18 10 19 11 8 12
REMARK SMILES IDX 7 13 6 14 5 15 4 16 3 17 2 18 1 19
REMARK H PARENT
REMARK Flexibility Score: inf
ROOT
ATOM      1  C   UNL     1     -22.704 -12.387 -17.729  1.00  0.00     0.000 C 
ENDROOT
BRANCH   1   2
ATOM      2  C   UNL     1     -23.020 -12.207 -16.233  1.00  0.00     0.000 C 
BRANCH   2   3
ATOM      3  C   UNL     1     -22.614 -13.420 -15.369  1.00  0.00     0.000 C 
BRANCH   3   4
ATOM      4  C   UNL     1     -23.745 -13.863 -14.423  1.00  0.00     0.000 C 
BRANCH   4   5
ATOM      5  C   UNL     1     -24.182 -15.317 -14.656  1.00  0.00     0.001 C 
BRANCH   5   6
ATOM      6  C   UNL     1     -23.188 -16.105 -15.533  1.00  0.00     0.009 C 
BRANCH   6   7
ATOM      7  C   UNL     1     -23.853 -17.103 -16.507  1.00  0.00     0.032 C 
ATOM      8  C   UNL     1     -24.831 -18.060 -15.807  1.00  0.00     0.014 C 
BRANCH   7   9
ATOM      9  C   UNL     1     -22.829 -17.850 -17.325  1.00  0.00     0.044 C 
ATOM     10  O   UNL     1     -22.220 -18.846 -16.849  1.00  0.00    -0.550 OA
ATOM     11  O   UNL     1     -22.513 -17.404 -18.601  1.00  0.00    -0.550 OA
ENDBRANCH   7   9
ENDBRANCH   6   7
ENDBRANCH   5   6
ENDBRANCH   4   5
ENDBRANCH   3   4
ENDBRANCH   2   3
ENDBRANCH   1   2
BRANCH   1  12
ATOM     12  C   UNL     1     -22.978 -13.817 -18.227  1.00  0.00     0.000 C 
BRANCH  12  13
ATOM     13  C   UNL     1     -22.820 -13.953 -19.750  1.00  0.00    -0.000 C 
BRANCH  13  14
ATOM     14  C   UNL     1     -22.124 -12.738 -20.383  1.00  0.00    -0.000 C 
BRANCH  14  15
ATOM     15  C   UNL     1     -20.697 -13.087 -20.820  1.00  0.00    -0.000 C 
BRANCH  15  16
ATOM     16  C   UNL     1     -19.668 -12.568 -19.803  1.00  0.00    -0.000 C 
BRANCH  16  17
ATOM     17  C   UNL     1     -18.884 -13.703 -19.121  1.00  0.00    -0.000 C 
BRANCH  17  18
ATOM     18  C   UNL     1     -19.316 -13.927 -17.664  1.00  0.00    -0.003 C 
ATOM     19  C   UNL     1     -19.801 -15.357 -17.449  1.00  0.00     0.004 C 
ENDBRANCH  17  18
ENDBRANCH  16  17
ENDBRANCH  15  16
ENDBRANCH  14  15
ENDBRANCH  13  14
ENDBRANCH  12  13
ENDBRANCH   1  12
TORSDOF 14
ENDMDL
MODEL 6
REMARK VINA RESULT:    -4.142      1.819      4.544
REMARK INTER + INTRA:          -9.661
REMARK INTER:                  -7.454
REMARK INTRA:                  -2.208
REMARK UNBOUND:                -2.128
REMARK SMILES CCCCCCCCCCCCCC[C@H](C)C(=O)[O-]
REMARK SMILES IDX 9 1 10 2 11 3 12 4 13 5 14 6 15 7 16 8 17 9 18 10 19 11 8 12
REMARK SMILES IDX 7 13 6 14 5 15 4 16 3 17 2 18 1 19
REMARK H PARENT
REMARK Flexibility Score: inf
ROOT
ATOM      1  C   UNL     1     -23.596 -15.707 -14.645  1.00  0.00     0.000 C 
ENDROOT
BRANCH   1   2
ATOM      2  C   UNL     1     -23.746 -16.379 -16.021  1.00  0.00     0.000 C 
BRANCH   2   3
ATOM      3  C   UNL     1     -22.452 -17.061 -16.516  1.00  0.00     0.000 C 
BRANCH   3   4
ATOM      4  C   UNL     1     -22.289 -16.957 -18.044  1.00  0.00     0.000 C 
BRANCH   4   5
ATOM      5  C   UNL     1     -23.605 -17.194 -18.801  1.00  0.00     0.001 C 
BRANCH   5   6
ATOM      6  C   UNL     1     -23.651 -16.466 -20.159  1.00  0.00     0.009 C 
BRANCH   6   7
ATOM      7  C   UNL     1     -22.490 -15.472 -20.387  1.00  0.00     0.032 C 
ATOM      8  C   UNL     1     -22.973 -14.028 -20.595  1.00  0.00     0.014 C 
BRANCH   7   9
ATOM      9  C   UNL     1     -21.580 -15.923 -21.501  1.00  0.00     0.044 C 
ATOM     10  O   UNL     1     -21.504 -17.140 -21.825  1.00  0.00    -0.550 OA
ATOM     11  O   UNL     1     -20.773 -14.995 -22.147  1.00  0.00    -0.550 OA
ENDBRANCH   7   9
ENDBRANCH   6   7
ENDBRANCH   5   6
ENDBRANCH   4   5
ENDBRANCH   3   4
ENDBRANCH   2   3
ENDBRANCH   1   2
BRANCH   1  12
ATOM     12  C   UNL     1     -24.811 -14.843 -14.269  1.00  0.00     0.000 C 
BRANCH  12  13
ATOM     13  C   UNL     1     -24.459 -13.353 -14.136  1.00  0.00    -0.000 C 
BRANCH  13  14
ATOM     14  C   UNL     1     -23.099 -13.009 -14.763  1.00  0.00    -0.000 C 
BRANCH  14  15
ATOM     15  C   UNL     1     -23.276 -12.178 -16.040  1.00  0.00    -0.000 C 
BRANCH  15  16
ATOM     16  C   UNL     1     -22.691 -12.910 -17.258  1.00  0.00    -0.000 C 
BRANCH  16  17
ATOM     17  C   UNL     1     -21.341 -13.581 -16.955  1.00  0.00    -0.000 C 
BRANCH  17  18
ATOM     18  C   UNL     1     -20.336 -13.434 -18.108  1.00  0.00    -0.003 C 
ATOM     19  C   UNL     1     -18.914 -13.719 -17.633  1.00  0.00     0.004 C 
ENDBRANCH  17  18
ENDBRANCH  16  17
ENDBRANCH  15  16
ENDBRANCH  14  15
ENDBRANCH  13  14
ENDBRANCH  12  13
ENDBRANCH   1  12
TORSDOF 14
ENDMDL
MODEL 7
REMARK VINA RESULT:    -4.074      1.857      2.957
REMARK INTER + INTRA:          -9.537
REMARK INTER:                  -7.515
REMARK INTRA:                  -2.022
REMARK UNBOUND:                -2.128
REMARK SMILES CCCCCCCCCCCCCC[C@H](C)C(=O)[O-]
REMARK SMILES IDX 9 1 10 2 11 3 12 4 13 5 14 6 15 7 16 8 17 9 18 10 19 11 8 12
REMARK SMILES IDX 7 13 6 14 5 15 4 16 3 17 2 18 1 19
REMARK H PARENT
REMARK Flexibility Score: inf
ROOT
ATOM      1  C   UNL     1     -21.932 -14.010 -17.184  1.00  0.00     0.000 C 
ENDROOT
BRANCH   1   2
ATOM      2  C   UNL     1     -20.426 -13.795 -17.415  1.00  0.00     0.000 C 
BRANCH   2   3
ATOM      3  C   UNL     1     -20.113 -12.643 -18.394  1.00  0.00     0.000 C 
BRANCH   3   4
ATOM      4  C   UNL     1     -19.577 -13.158 -19.743  1.00  0.00     0.000 C 
BRANCH   4   5
ATOM      5  C   UNL     1     -20.543 -12.893 -20.908  1.00  0.00     0.001 C 
BRANCH   5   6
ATOM      6  C   UNL     1     -20.720 -14.119 -21.827  1.00  0.00     0.009 C 
BRANCH   6   7
ATOM      7  C   UNL     1     -21.840 -15.088 -21.385  1.00  0.00     0.032 C 
ATOM      8  C   UNL     1     -22.995 -14.377 -20.663  1.00  0.00     0.014 C 
BRANCH   7   9
ATOM      9  C   UNL     1     -21.295 -16.236 -20.573  1.00  0.00     0.044 C 
ATOM     10  O   UNL     1     -20.267 -16.863 -20.946  1.00  0.00    -0.550 OA
ATOM     11  O   UNL     1     -21.965 -16.645 -19.427  1.00  0.00    -0.550 OA
ENDBRANCH   7   9
ENDBRANCH   6   7
ENDBRANCH   5   6
ENDBRANCH   4   5
ENDBRANCH   3   4
ENDBRANCH   2   3
ENDBRANCH   1   2
BRANCH   1  12
ATOM     12  C   UNL     1     -22.754 -12.723 -17.375  1.00  0.00     0.000 C 
BRANCH  12  13
ATOM     13  C   UNL     1     -23.133 -12.060 -16.041  1.00  0.00    -0.000 C 
BRANCH  13  14
ATOM     14  C   UNL     1     -23.142 -13.054 -14.869  1.00  0.00    -0.000 C 
BRANCH  14  15
ATOM     15  C   UNL     1     -24.512 -13.079 -14.180  1.00  0.00    -0.000 C 
BRANCH  15  16
ATOM     16  C   UNL     1     -25.018 -14.521 -14.015  1.00  0.00    -0.000 C 
BRANCH  16  17
ATOM     17  C   UNL     1     -23.968 -15.568 -14.423  1.00  0.00    -0.000 C 
BRANCH  17  18
ATOM     18  C   UNL     1     -24.590 -16.792 -15.113  1.00  0.00    -0.003 C 
ATOM     19  C   UNL     1     -23.912 -17.069 -16.451  1.00  0.00     0.004 C 
ENDBRANCH  17  18
ENDBRANCH  16  17
ENDBRANCH  15  16
ENDBRANCH  14  15
ENDBRANCH  13  14
ENDBRANCH  12  13
ENDBRANCH   1  12
TORSDOF 14
ENDMDL
MODEL 8
REMARK VINA RESULT:    -4.033      2.184      3.395
REMARK INTER + INTRA:          -9.462
REMARK INTER:                  -7.302
REMARK INTRA:                  -2.160
REMARK UNBOUND:                -2.128
REMARK SMILES CCCCCCCCCCCCCC[C@H](C)C(=O)[O-]
REMARK SMILES IDX 9 1 10 2 11 3 12 4 13 5 14 6 15 7 16 8 17 9 18 10 19 11 8 12
REMARK SMILES IDX 7 13 6 14 5 15 4 16 3 17 2 18 1 19
REMARK H PARENT
REMARK Flexibility Score: inf
ROOT
ATOM      1  C   UNL     1     -21.738 -12.597 -20.237  1.00  0.00     0.000 C 
ENDROOT
BRANCH   1   2
ATOM      2  C   UNL     1     -20.324 -12.121 -19.859  1.00  0.00     0.000 C 
BRANCH   2   3
ATOM      3  C   UNL     1     -19.202 -12.882 -20.596  1.00  0.00     0.000 C 
BRANCH   3   4
ATOM      4  C   UNL     1     -18.436 -13.837 -19.661  1.00  0.00     0.000 C 
BRANCH   4   5
ATOM      5  C   UNL     1     -18.824 -13.663 -18.185  1.00  0.00     0.001 C 
BRANCH   5   6
ATOM      6  C   UNL     1     -19.407 -14.949 -17.566  1.00  0.00     0.009 C 
BRANCH   6   7
ATOM      7  C   UNL     1     -19.781 -16.038 -18.596  1.00  0.00     0.032 C 
ATOM      8  C   UNL     1     -21.290 -16.103 -18.876  1.00  0.00     0.014 C 
BRANCH   7   9
ATOM      9  C   UNL     1     -19.224 -17.385 -18.210  1.00  0.00     0.044 C 
ATOM     10  O   UNL     1     -18.903 -17.637 -17.017  1.00  0.00    -0.550 OA
ATOM     11  O   UNL     1     -19.012 -18.346 -19.190  1.00  0.00    -0.550 OA
ENDBRANCH   7   9
ENDBRANCH   6   7
ENDBRANCH   5   6
ENDBRANCH   4   5
ENDBRANCH   3   4
ENDBRANCH   2   3
ENDBRANCH   1   2
BRANCH   1  12
ATOM     12  C   UNL     1     -22.693 -12.645 -19.033  1.00  0.00     0.000 C 
BRANCH  12  13
ATOM     13  C   UNL     1     -21.982 -12.353 -17.702  1.00  0.00    -0.000 C 
BRANCH  13  14
ATOM     14  C   UNL     1     -22.950 -12.319 -16.509  1.00  0.00    -0.000 C 
BRANCH  14  15
ATOM     15  C   UNL     1     -22.564 -13.365 -15.457  1.00  0.00    -0.000 C 
BRANCH  15  16
ATOM     16  C   UNL     1     -22.831 -14.788 -15.972  1.00  0.00    -0.000 C 
BRANCH  16  17
ATOM     17  C   UNL     1     -23.692 -15.616 -15.004  1.00  0.00    -0.000 C 
BRANCH  17  18
ATOM     18  C   UNL     1     -24.422 -14.746 -13.969  1.00  0.00    -0.003 C 
ATOM     19  C   UNL     1     -25.904 -15.105 -13.899  1.00  0.00     0.004 C 
ENDBRANCH  17  18
ENDBRANCH  16  17
ENDBRANCH  15  16
ENDBRANCH  14  15
ENDBRANCH  13  14
ENDBRANCH  12  13
ENDBRANCH   1  12
TORSDOF 14
ENDMDL
MODEL 9
REMARK VINA RESULT:    -4.027      2.378      4.275
REMARK INTER + INTRA:          -9.452
REMARK INTER:                  -7.195
REMARK INTRA:                  -2.257
REMARK UNBOUND:                -2.128
REMARK SMILES CCCCCCCCCCCCCC[C@H](C)C(=O)[O-]
REMARK SMILES IDX 9 1 10 2 11 3 12 4 13 5 14 6 15 7 16 8 17 9 18 10 19 11 8 12
REMARK SMILES IDX 7 13 6 14 5 15 4 16 3 17 2 18 1 19
REMARK H PARENT
REMARK Flexibility Score: inf
ROOT
ATOM      1  C   UNL     1     -20.664 -12.175 -19.590  1.00  0.00     0.000 C 
ENDROOT
BRANCH   1   2
ATOM      2  C   UNL     1     -19.459 -13.129 -19.522  1.00  0.00     0.000 C 
BRANCH   2   3
ATOM      3  C   UNL     1     -19.007 -13.446 -18.080  1.00  0.00     0.000 C 
BRANCH   3   4
ATOM      4  C   UNL     1     -19.255 -14.918 -17.704  1.00  0.00     0.000 C 
BRANCH   4   5
ATOM      5  C   UNL     1     -19.940 -15.713 -18.827  1.00  0.00     0.001 C 
BRANCH   5   6
ATOM      6  C   UNL     1     -20.899 -16.795 -18.292  1.00  0.00     0.009 C 
BRANCH   6   7
ATOM      7  C   UNL     1     -22.387 -16.547 -18.625  1.00  0.00     0.032 C 
ATOM      8  C   UNL     1     -23.290 -16.574 -17.382  1.00  0.00     0.014 C 
BRANCH   7   9
ATOM      9  C   UNL     1     -22.882 -17.484 -19.697  1.00  0.00     0.044 C 
ATOM     10  O   UNL     1     -22.119 -18.349 -20.206  1.00  0.00    -0.550 OA
ATOM     11  O   UNL     1     -24.182 -17.360 -20.170  1.00  0.00    -0.550 OA
ENDBRANCH   7   9
ENDBRANCH   6   7
ENDBRANCH   5   6
ENDBRANCH   4   5
ENDBRANCH   3   4
ENDBRANCH   2   3
ENDBRANCH   1   2
BRANCH   1  12
ATOM     12  C   UNL     1     -21.968 -12.889 -19.986  1.00  0.00     0.000 C 
BRANCH  12  13
ATOM     13  C   UNL     1     -23.022 -12.857 -18.869  1.00  0.00    -0.000 C 
BRANCH  13  14
ATOM     14  C   UNL     1     -22.501 -12.196 -17.583  1.00  0.00    -0.000 C 
BRANCH  14  15
ATOM     15  C   UNL     1     -22.215 -13.246 -16.502  1.00  0.00    -0.000 C 
BRANCH  15  16
ATOM     16  C   UNL     1     -23.179 -13.091 -15.316  1.00  0.00    -0.000 C 
BRANCH  16  17
ATOM     17  C   UNL     1     -23.169 -14.312 -14.381  1.00  0.00    -0.000 C 
BRANCH  17  18
ATOM     18  C   UNL     1     -24.555 -14.962 -14.242  1.00  0.00    -0.003 C 
ATOM     19  C   UNL     1     -25.631 -13.909 -13.990  1.00  0.00     0.004 C 
ENDBRANCH  17  18
ENDBRANCH  16  17
ENDBRANCH  15  16
ENDBRANCH  14  15
ENDBRANCH  13  14
ENDBRANCH  12  13
ENDBRANCH   1  12
TORSDOF 14
ENDMDL
