MODEL 1
REMARK VINA RESULT:    -5.620      0.000      0.000
REMARK INTER + INTRA:         -10.870
REMARK INTER:                 -10.219
REMARK INTRA:                  -0.651
REMARK UNBOUND:                -0.651
REMARK SMILES CCCCCCCCCCCCCCCC(=O)[O-]
REMARK SMILES IDX 9 1 10 2 11 3 12 4 13 5 14 6 15 7 16 8 17 9 18 10 8 11 7 12
REMARK SMILES IDX 6 13 5 14 4 15 3 16 2 17 1 18
REMARK H PARENT
REMARK Flexibility Score: inf
ROOT
ATOM      1  C   UNL     1      41.092  65.785  23.230  1.00  0.00     0.000 C 
ENDROOT
BRANCH   1   2
ATOM      2  C   UNL     1      41.488  65.227  24.609  1.00  0.00     0.000 C 
BRANCH   2   3
ATOM      3  C   UNL     1      41.826  63.730  24.571  1.00  0.00     0.000 C 
BRANCH   3   4
ATOM      4  C   UNL     1      42.397  63.262  25.917  1.00  0.00     0.000 C 
BRANCH   4   5
ATOM      5  C   UNL     1      42.988  61.843  25.856  1.00  0.00     0.000 C 
BRANCH   5   6
ATOM      6  C   UNL     1      44.406  61.737  26.454  1.00  0.00     0.006 C 
BRANCH   6   7
ATOM      7  C   UNL     1      45.490  62.176  25.460  1.00  0.00     0.053 C 
BRANCH   7   8
ATOM      8  C   UNL     1      46.538  62.989  26.154  1.00  0.00     0.041 C 
ATOM      9  O   UNL     1      46.436  63.236  27.384  1.00  0.00    -0.550 OA
ATOM     10  O   UNL     1      47.651  63.431  25.452  1.00  0.00    -0.550 OA
ENDBRANCH   7   8
ENDBRANCH   6   7
ENDBRANCH   5   6
ENDBRANCH   4   5
ENDBRANCH   3   4
ENDBRANCH   2   3
ENDBRANCH   1   2
BRANCH   1  11
ATOM     11  C   UNL     1      39.897  66.760  23.240  1.00  0.00     0.000 C 
BRANCH  11  12
ATOM     12  C   UNL     1      39.185  66.906  24.599  1.00  0.00    -0.000 C 
BRANCH  12  13
ATOM     13  C   UNL     1      37.693  67.279  24.513  1.00  0.00    -0.000 C 
BRANCH  13  14
ATOM     14  C   UNL     1      36.995  67.486  25.872  1.00  0.00    -0.000 C 
BRANCH  14  15
ATOM     15  C   UNL     1      35.461  67.629  25.803  1.00  0.00    -0.000 C 
BRANCH  15  16
ATOM     16  C   UNL     1      34.674  66.611  26.648  1.00  0.00    -0.000 C 
BRANCH  16  17
ATOM     17  C   UNL     1      34.740  65.186  26.079  1.00  0.00    -0.003 C 
ATOM     18  C   UNL     1      34.940  64.160  27.191  1.00  0.00     0.004 C 
ENDBRANCH  16  17
ENDBRANCH  15  16
ENDBRANCH  14  15
ENDBRANCH  13  14
ENDBRANCH  12  13
ENDBRANCH  11  12
ENDBRANCH   1  11
TORSDOF 14
ENDMDL
MODEL 2
REMARK VINA RESULT:    -5.616      0.927      1.626
REMARK INTER + INTRA:         -10.863
REMARK INTER:                 -10.094
REMARK INTRA:                  -0.770
REMARK UNBOUND:                -0.651
REMARK SMILES CCCCCCCCCCCCCCCC(=O)[O-]
REMARK SMILES IDX 9 1 10 2 11 3 12 4 13 5 14 6 15 7 16 8 17 9 18 10 8 11 7 12
REMARK SMILES IDX 6 13 5 14 4 15 3 16 2 17 1 18
REMARK H PARENT
REMARK Flexibility Score: inf
ROOT
ATOM      1  C   UNL     1      40.221  67.011  25.404  1.00  0.00     0.000 C 
ENDROOT
BRANCH   1   2
ATOM      2  C   UNL     1      41.340  65.966  25.564  1.00  0.00     0.000 C 
BRANCH   2   3
ATOM      3  C   UNL     1      41.641  65.212  24.261  1.00  0.00     0.000 C 
BRANCH   3   4
ATOM      4  C   UNL     1      41.683  63.697  24.502  1.00  0.00     0.000 C 
BRANCH   4   5
ATOM      5  C   UNL     1      42.471  63.313  25.766  1.00  0.00     0.000 C 
BRANCH   5   6
ATOM      6  C   UNL     1      42.962  61.851  25.770  1.00  0.00     0.006 C 
BRANCH   6   7
ATOM      7  C   UNL     1      44.205  61.658  26.649  1.00  0.00     0.053 C 
BRANCH   7   8
ATOM      8  C   UNL     1      45.424  62.177  25.953  1.00  0.00     0.041 C 
ATOM      9  O   UNL     1      45.670  61.833  24.767  1.00  0.00    -0.550 OA
ATOM     10  O   UNL     1      46.261  63.078  26.597  1.00  0.00    -0.550 OA
ENDBRANCH   7   8
ENDBRANCH   6   7
ENDBRANCH   5   6
ENDBRANCH   4   5
ENDBRANCH   3   4
ENDBRANCH   2   3
ENDBRANCH   1   2
BRANCH   1  11
ATOM     11  C   UNL     1      39.353  66.847  24.139  1.00  0.00     0.000 C 
BRANCH  11  12
ATOM     12  C   UNL     1      37.915  67.388  24.259  1.00  0.00    -0.000 C 
BRANCH  12  13
ATOM     13  C   UNL     1      37.301  67.292  25.668  1.00  0.00    -0.000 C 
BRANCH  13  14
ATOM     14  C   UNL     1      35.833  67.755  25.772  1.00  0.00    -0.000 C 
BRANCH  14  15
ATOM     15  C   UNL     1      34.790  66.619  25.803  1.00  0.00    -0.000 C 
BRANCH  15  16
ATOM     16  C   UNL     1      34.951  65.621  26.964  1.00  0.00    -0.000 C 
BRANCH  16  17
ATOM     17  C   UNL     1      34.737  64.164  26.530  1.00  0.00    -0.003 C 
ATOM     18  C   UNL     1      34.866  63.213  27.717  1.00  0.00     0.004 C 
ENDBRANCH  16  17
ENDBRANCH  15  16
ENDBRANCH  14  15
ENDBRANCH  13  14
ENDBRANCH  12  13
ENDBRANCH  11  12
ENDBRANCH   1  11
TORSDOF 14
ENDMDL
MODEL 3
REMARK VINA RESULT:    -5.508      5.459      6.929
REMARK INTER + INTRA:         -10.668
REMARK INTER:                 -10.049
REMARK INTRA:                  -0.619
REMARK UNBOUND:                -0.651
REMARK SMILES CCCCCCCCCCCCCCCC(=O)[O-]
REMARK SMILES IDX 9 1 10 2 11 3 12 4 13 5 14 6 15 7 16 8 17 9 18 10 8 11 7 12
REMARK SMILES IDX 6 13 5 14 4 15 3 16 2 17 1 18
REMARK H PARENT
REMARK Flexibility Score: inf
ROOT
ATOM      1  C   UNL     1      41.363  67.066  23.240  1.00  0.00     0.000 C 
ENDROOT
BRANCH   1   2
ATOM      2  C   UNL     1      41.920  67.928  24.388  1.00  0.00     0.000 C 
BRANCH   2   3
ATOM      3  C   UNL     1      42.873  69.027  23.900  1.00  0.00     0.000 C 
BRANCH   3   4
ATOM      4  C   UNL     1      43.440  69.826  25.081  1.00  0.00     0.000 C 
BRANCH   4   5
ATOM      5  C   UNL     1      44.237  71.065  24.639  1.00  0.00     0.000 C 
BRANCH   5   6
ATOM      6  C   UNL     1      43.676  72.392  25.190  1.00  0.00     0.006 C 
BRANCH   6   7
ATOM      7  C   UNL     1      42.728  73.079  24.197  1.00  0.00     0.053 C 
BRANCH   7   8
ATOM      8  C   UNL     1      41.576  73.703  24.919  1.00  0.00     0.041 C 
ATOM      9  O   UNL     1      40.644  74.250  24.272  1.00  0.00    -0.550 OA
ATOM     10  O   UNL     1      41.507  73.637  26.305  1.00  0.00    -0.550 OA
ENDBRANCH   7   8
ENDBRANCH   6   7
ENDBRANCH   5   6
ENDBRANCH   4   5
ENDBRANCH   3   4
ENDBRANCH   2   3
ENDBRANCH   1   2
BRANCH   1  11
ATOM     11  C   UNL     1      39.967  66.464  23.495  1.00  0.00     0.000 C 
BRANCH  11  12
ATOM     12  C   UNL     1      39.225  67.030  24.722  1.00  0.00    -0.000 C 
BRANCH  12  13
ATOM     13  C   UNL     1      37.706  67.201  24.539  1.00  0.00    -0.000 C 
BRANCH  13  14
ATOM     14  C   UNL     1      36.938  67.603  25.815  1.00  0.00    -0.000 C 
BRANCH  14  15
ATOM     15  C   UNL     1      35.415  67.368  25.762  1.00  0.00    -0.000 C 
BRANCH  15  16
ATOM     16  C   UNL     1      34.883  66.323  26.759  1.00  0.00    -0.000 C 
BRANCH  16  17
ATOM     17  C   UNL     1      34.794  64.914  26.155  1.00  0.00    -0.003 C 
ATOM     18  C   UNL     1      34.887  63.844  27.239  1.00  0.00     0.004 C 
ENDBRANCH  16  17
ENDBRANCH  15  16
ENDBRANCH  14  15
ENDBRANCH  13  14
ENDBRANCH  12  13
ENDBRANCH  11  12
ENDBRANCH   1  11
TORSDOF 14
ENDMDL
MODEL 4
REMARK VINA RESULT:    -5.508      4.089      9.228
REMARK INTER + INTRA:         -10.668
REMARK INTER:                 -10.007
REMARK INTRA:                  -0.661
REMARK UNBOUND:                -0.651
REMARK SMILES CCCCCCCCCCCCCCCC(=O)[O-]
REMARK SMILES IDX 9 1 10 2 11 3 12 4 13 5 14 6 15 7 16 8 17 9 18 10 8 11 7 12
REMARK SMILES IDX 6 13 5 14 4 15 3 16 2 17 1 18
REMARK H PARENT
REMARK Flexibility Score: inf
ROOT
ATOM      1  C   UNL     1      41.260  65.582  23.347  1.00  0.00     0.000 C 
ENDROOT
BRANCH   1   2
ATOM      2  C   UNL     1      40.319  66.801  23.367  1.00  0.00     0.000 C 
BRANCH   2   3
ATOM      3  C   UNL     1      39.516  66.911  24.670  1.00  0.00     0.000 C 
BRANCH   3   4
ATOM      4  C   UNL     1      38.035  67.194  24.380  1.00  0.00     0.000 C 
BRANCH   4   5
ATOM      5  C   UNL     1      37.232  67.540  25.645  1.00  0.00     0.000 C 
BRANCH   5   6
ATOM      6  C   UNL     1      35.704  67.469  25.448  1.00  0.00     0.006 C 
BRANCH   6   7
ATOM      7  C   UNL     1      34.993  66.819  26.643  1.00  0.00     0.053 C 
BRANCH   7   8
ATOM      8  C   UNL     1      34.721  65.373  26.366  1.00  0.00     0.041 C 
ATOM      9  O   UNL     1      34.274  65.017  25.244  1.00  0.00    -0.550 OA
ATOM     10  O   UNL     1      35.006  64.416  27.330  1.00  0.00    -0.550 OA
ENDBRANCH   7   8
ENDBRANCH   6   7
ENDBRANCH   5   6
ENDBRANCH   4   5
ENDBRANCH   3   4
ENDBRANCH   2   3
ENDBRANCH   1   2
BRANCH   1  11
ATOM     11  C   UNL     1      41.574  64.980  24.731  1.00  0.00     0.000 C 
BRANCH  11  12
ATOM     12  C   UNL     1      42.128  63.542  24.708  1.00  0.00    -0.000 C 
BRANCH  12  13
ATOM     13  C   UNL     1      42.390  62.925  26.095  1.00  0.00    -0.000 C 
BRANCH  13  14
ATOM     14  C   UNL     1      43.261  61.652  26.087  1.00  0.00    -0.000 C 
BRANCH  14  15
ATOM     15  C   UNL     1      44.750  61.878  26.416  1.00  0.00    -0.000 C 
BRANCH  15  16
ATOM     16  C   UNL     1      45.641  62.208  25.204  1.00  0.00    -0.000 C 
BRANCH  16  17
ATOM     17  C   UNL     1      46.873  63.043  25.581  1.00  0.00    -0.003 C 
ATOM     18  C   UNL     1      46.859  63.403  27.065  1.00  0.00     0.004 C 
ENDBRANCH  16  17
ENDBRANCH  15  16
ENDBRANCH  14  15
ENDBRANCH  13  14
ENDBRANCH  12  13
ENDBRANCH  11  12
ENDBRANCH   1  11
TORSDOF 14
ENDMDL
MODEL 5
REMARK VINA RESULT:    -5.503      5.707      8.905
REMARK INTER + INTRA:         -10.658
REMARK INTER:                  -9.961
REMARK INTRA:                  -0.697
REMARK UNBOUND:                -0.651
REMARK SMILES CCCCCCCCCCCCCCCC(=O)[O-]
REMARK SMILES IDX 9 1 10 2 11 3 12 4 13 5 14 6 15 7 16 8 17 9 18 10 8 11 7 12
REMARK SMILES IDX 6 13 5 14 4 15 3 16 2 17 1 18
REMARK H PARENT
REMARK Flexibility Score: inf
ROOT
ATOM      1  C   UNL     1      41.346  67.323  22.924  1.00  0.00     0.000 C 
ENDROOT
BRANCH   1   2
ATOM      2  C   UNL     1      40.070  66.492  23.153  1.00  0.00     0.000 C 
BRANCH   2   3
ATOM      3  C   UNL     1      39.415  66.769  24.513  1.00  0.00     0.000 C 
BRANCH   3   4
ATOM      4  C   UNL     1      37.949  67.188  24.342  1.00  0.00     0.000 C 
BRANCH   4   5
ATOM      5  C   UNL     1      37.260  67.519  25.677  1.00  0.00     0.000 C 
BRANCH   5   6
ATOM      6  C   UNL     1      35.724  67.626  25.571  1.00  0.00     0.006 C 
BRANCH   6   7
ATOM      7  C   UNL     1      35.012  66.916  26.730  1.00  0.00     0.053 C 
BRANCH   7   8
ATOM      8  C   UNL     1      34.738  65.487  26.379  1.00  0.00     0.041 C 
ATOM      9  O   UNL     1      34.376  65.180  25.212  1.00  0.00    -0.550 OA
ATOM     10  O   UNL     1      34.930  64.490  27.326  1.00  0.00    -0.550 OA
ENDBRANCH   7   8
ENDBRANCH   6   7
ENDBRANCH   5   6
ENDBRANCH   4   5
ENDBRANCH   3   4
ENDBRANCH   2   3
ENDBRANCH   1   2
BRANCH   1  11
ATOM     11  C   UNL     1      41.838  68.112  24.154  1.00  0.00     0.000 C 
BRANCH  11  12
ATOM     12  C   UNL     1      43.051  69.029  23.900  1.00  0.00    -0.000 C 
BRANCH  12  13
ATOM     13  C   UNL     1      43.388  69.992  25.054  1.00  0.00    -0.000 C 
BRANCH  13  14
ATOM     14  C   UNL     1      44.152  71.265  24.636  1.00  0.00    -0.000 C 
BRANCH  14  15
ATOM     15  C   UNL     1      43.502  72.592  25.080  1.00  0.00    -0.000 C 
BRANCH  15  16
ATOM     16  C   UNL     1      42.525  73.210  24.064  1.00  0.00    -0.000 C 
BRANCH  16  17
ATOM     17  C   UNL     1      41.297  73.847  24.730  1.00  0.00    -0.003 C 
ATOM     18  C   UNL     1      41.410  73.797  26.251  1.00  0.00     0.004 C 
ENDBRANCH  16  17
ENDBRANCH  15  16
ENDBRANCH  14  15
ENDBRANCH  13  14
ENDBRANCH  12  13
ENDBRANCH  11  12
ENDBRANCH   1  11
TORSDOF 14
ENDMDL
MODEL 6
REMARK VINA RESULT:    -5.320      5.213      8.722
REMARK INTER + INTRA:         -10.326
REMARK INTER:                  -9.655
REMARK INTRA:                  -0.671
REMARK UNBOUND:                -0.651
REMARK SMILES CCCCCCCCCCCCCCCC(=O)[O-]
REMARK SMILES IDX 9 1 10 2 11 3 12 4 13 5 14 6 15 7 16 8 17 9 18 10 8 11 7 12
REMARK SMILES IDX 6 13 5 14 4 15 3 16 2 17 1 18
REMARK H PARENT
REMARK Flexibility Score: inf
ROOT
ATOM      1  C   UNL     1      41.035  65.911  23.065  1.00  0.00     0.000 C 
ENDROOT
BRANCH   1   2
ATOM      2  C   UNL     1      41.234  67.434  22.963  1.00  0.00     0.000 C 
BRANCH   2   3
ATOM      3  C   UNL     1      41.850  68.040  24.233  1.00  0.00     0.000 C 
BRANCH   3   4
ATOM      4  C   UNL     1      42.999  68.995  23.883  1.00  0.00     0.000 C 
BRANCH   4   5
ATOM      5  C   UNL     1      43.303  70.003  25.005  1.00  0.00     0.000 C 
BRANCH   5   6
ATOM      6  C   UNL     1      44.370  71.050  24.625  1.00  0.00     0.006 C 
BRANCH   6   7
ATOM      7  C   UNL     1      44.126  72.402  25.307  1.00  0.00     0.053 C 
BRANCH   7   8
ATOM      8  C   UNL     1      42.951  73.094  24.691  1.00  0.00     0.041 C 
ATOM      9  O   UNL     1      42.953  73.374  23.463  1.00  0.00    -0.550 OA
ATOM     10  O   UNL     1      41.834  73.387  25.463  1.00  0.00    -0.550 OA
ENDBRANCH   7   8
ENDBRANCH   6   7
ENDBRANCH   5   6
ENDBRANCH   4   5
ENDBRANCH   3   4
ENDBRANCH   2   3
ENDBRANCH   1   2
BRANCH   1  11
ATOM     11  C   UNL     1      41.291  65.312  24.463  1.00  0.00     0.000 C 
BRANCH  11  12
ATOM     12  C   UNL     1      41.881  63.889  24.466  1.00  0.00    -0.000 C 
BRANCH  12  13
ATOM     13  C   UNL     1      42.440  63.421  25.823  1.00  0.00    -0.000 C 
BRANCH  13  14
ATOM     14  C   UNL     1      42.683  61.903  25.939  1.00  0.00    -0.000 C 
BRANCH  14  15
ATOM     15  C   UNL     1      44.063  61.503  26.501  1.00  0.00    -0.000 C 
BRANCH  15  16
ATOM     16  C   UNL     1      45.262  62.217  25.849  1.00  0.00    -0.000 C 
BRANCH  16  17
ATOM     17  C   UNL     1      46.126  62.977  26.865  1.00  0.00    -0.003 C 
ATOM     18  C   UNL     1      47.437  63.438  26.234  1.00  0.00     0.004 C 
ENDBRANCH  16  17
ENDBRANCH  15  16
ENDBRANCH  14  15
ENDBRANCH  13  14
ENDBRANCH  12  13
ENDBRANCH  11  12
ENDBRANCH   1  11
TORSDOF 14
ENDMDL
MODEL 7
REMARK VINA RESULT:    -5.276      3.683      5.595
REMARK INTER + INTRA:         -10.245
REMARK INTER:                  -9.651
REMARK INTRA:                  -0.594
REMARK UNBOUND:                -0.651
REMARK SMILES CCCCCCCCCCCCCCCC(=O)[O-]
REMARK SMILES IDX 9 1 10 2 11 3 12 4 13 5 14 6 15 7 16 8 17 9 18 10 8 11 7 12
REMARK SMILES IDX 6 13 5 14 4 15 3 16 2 17 1 18
REMARK H PARENT
REMARK Flexibility Score: inf
ROOT
ATOM      1  C   UNL     1      41.305  65.662  23.519  1.00  0.00     0.000 C 
ENDROOT
BRANCH   1   2
ATOM      2  C   UNL     1      41.712  65.000  24.848  1.00  0.00     0.000 C 
BRANCH   2   3
ATOM      3  C   UNL     1      41.918  63.484  24.719  1.00  0.00     0.000 C 
BRANCH   3   4
ATOM      4  C   UNL     1      42.262  62.859  26.078  1.00  0.00     0.000 C 
BRANCH   4   5
ATOM      5  C   UNL     1      43.178  61.629  25.957  1.00  0.00     0.000 C 
BRANCH   5   6
ATOM      6  C   UNL     1      44.601  61.860  26.506  1.00  0.00     0.006 C 
BRANCH   6   7
ATOM      7  C   UNL     1      45.608  62.175  25.392  1.00  0.00     0.053 C 
BRANCH   7   8
ATOM      8  C   UNL     1      46.695  63.067  25.905  1.00  0.00     0.041 C 
ATOM      9  O   UNL     1      46.725  63.392  27.121  1.00  0.00    -0.550 OA
ATOM     10  O   UNL     1      47.700  63.499  25.050  1.00  0.00    -0.550 OA
ENDBRANCH   7   8
ENDBRANCH   6   7
ENDBRANCH   5   6
ENDBRANCH   4   5
ENDBRANCH   3   4
ENDBRANCH   2   3
ENDBRANCH   1   2
BRANCH   1  11
ATOM     11  C   UNL     1      41.077  67.185  23.594  1.00  0.00     0.000 C 
BRANCH  11  12
ATOM     12  C   UNL     1      41.975  67.932  24.601  1.00  0.00    -0.000 C 
BRANCH  12  13
ATOM     13  C   UNL     1      42.863  69.031  23.988  1.00  0.00    -0.000 C 
BRANCH  13  14
ATOM     14  C   UNL     1      43.506  69.992  25.008  1.00  0.00    -0.000 C 
BRANCH  14  15
ATOM     15  C   UNL     1      44.036  71.314  24.416  1.00  0.00    -0.000 C 
BRANCH  15  16
ATOM     16  C   UNL     1      43.527  72.589  25.113  1.00  0.00    -0.000 C 
BRANCH  16  17
ATOM     17  C   UNL     1      42.465  73.334  24.292  1.00  0.00    -0.003 C 
ATOM     18  C   UNL     1      41.311  73.797  25.177  1.00  0.00     0.004 C 
ENDBRANCH  16  17
ENDBRANCH  15  16
ENDBRANCH  14  15
ENDBRANCH  13  14
ENDBRANCH  12  13
ENDBRANCH  11  12
ENDBRANCH   1  11
TORSDOF 14
ENDMDL
MODEL 8
REMARK VINA RESULT:    -4.927      5.603      8.615
REMARK INTER + INTRA:          -9.610
REMARK INTER:                  -9.202
REMARK INTRA:                  -0.409
REMARK UNBOUND:                -0.651
REMARK SMILES CCCCCCCCCCCCCCCC(=O)[O-]
REMARK SMILES IDX 9 1 10 2 11 3 12 4 13 5 14 6 15 7 16 8 17 9 18 10 8 11 7 12
REMARK SMILES IDX 6 13 5 14 4 15 3 16 2 17 1 18
REMARK H PARENT
REMARK Flexibility Score: inf
ROOT
ATOM      1  C   UNL     1      41.727  67.557  22.769  1.00  0.00     0.000 C 
ENDROOT
BRANCH   1   2
ATOM      2  C   UNL     1      42.064  68.411  24.006  1.00  0.00     0.000 C 
BRANCH   2   3
ATOM      3  C   UNL     1      43.420  69.122  23.887  1.00  0.00     0.000 C 
BRANCH   3   4
ATOM      4  C   UNL     1      43.625  70.109  25.044  1.00  0.00     0.000 C 
BRANCH   4   5
ATOM      5  C   UNL     1      44.278  71.428  24.598  1.00  0.00     0.000 C 
BRANCH   5   6
ATOM      6  C   UNL     1      43.565  72.685  25.137  1.00  0.00     0.006 C 
BRANCH   6   7
ATOM      7  C   UNL     1      42.508  73.218  24.160  1.00  0.00     0.053 C 
BRANCH   7   8
ATOM      8  C   UNL     1      41.360  73.819  24.908  1.00  0.00     0.041 C 
ATOM      9  O   UNL     1      40.362  74.266  24.284  1.00  0.00    -0.550 OA
ATOM     10  O   UNL     1      41.371  73.841  26.296  1.00  0.00    -0.550 OA
ENDBRANCH   7   8
ENDBRANCH   6   7
ENDBRANCH   5   6
ENDBRANCH   4   5
ENDBRANCH   3   4
ENDBRANCH   2   3
ENDBRANCH   1   2
BRANCH   1  11
ATOM     11  C   UNL     1      40.616  66.510  22.984  1.00  0.00     0.000 C 
BRANCH  11  12
ATOM     12  C   UNL     1      40.222  66.268  24.455  1.00  0.00    -0.000 C 
BRANCH  12  13
ATOM     13  C   UNL     1      41.315  65.613  25.320  1.00  0.00    -0.000 C 
BRANCH  13  14
ATOM     14  C   UNL     1      41.783  64.226  24.836  1.00  0.00    -0.000 C 
BRANCH  14  15
ATOM     15  C   UNL     1      42.268  63.275  25.950  1.00  0.00    -0.000 C 
BRANCH  15  16
ATOM     16  C   UNL     1      42.949  61.987  25.454  1.00  0.00    -0.000 C 
BRANCH  16  17
ATOM     17  C   UNL     1      44.188  61.612  26.281  1.00  0.00    -0.003 C 
ATOM     18  C   UNL     1      45.439  62.295  25.736  1.00  0.00     0.004 C 
ENDBRANCH  16  17
ENDBRANCH  15  16
ENDBRANCH  14  15
ENDBRANCH  13  14
ENDBRANCH  12  13
ENDBRANCH  11  12
ENDBRANCH   1  11
TORSDOF 14
ENDMDL
MODEL 9
REMARK VINA RESULT:    -4.537     12.624     13.469
REMARK INTER + INTRA:          -8.902
REMARK INTER:                  -8.135
REMARK INTRA:                  -0.768
REMARK UNBOUND:                -0.651
REMARK SMILES CCCCCCCCCCCCCCCC(=O)[O-]
REMARK SMILES IDX 9 1 10 2 11 3 12 4 13 5 14 6 15 7 16 8 17 9 18 10 8 11 7 12
REMARK SMILES IDX 6 13 5 14 4 15 3 16 2 17 1 18
REMARK H PARENT
REMARK Flexibility Score: inf
ROOT
ATOM      1  C   UNL     1      37.387  62.704  14.041  1.00  0.00     0.000 C 
ENDROOT
BRANCH   1   2
ATOM      2  C   UNL     1      37.193  61.193  13.813  1.00  0.00     0.000 C 
BRANCH   2   3
ATOM      3  C   UNL     1      38.493  60.480  13.415  1.00  0.00     0.000 C 
BRANCH   3   4
ATOM      4  C   UNL     1      39.468  61.453  12.738  1.00  0.00     0.000 C 
BRANCH   4   5
ATOM      5  C   UNL     1      40.640  60.740  12.043  1.00  0.00     0.000 C 
BRANCH   5   6
ATOM      6  C   UNL     1      41.984  61.485  12.175  1.00  0.00     0.006 C 
BRANCH   6   7
ATOM      7  C   UNL     1      41.799  63.006  12.260  1.00  0.00     0.053 C 
BRANCH   7   8
ATOM      8  C   UNL     1      43.082  63.668  12.653  1.00  0.00     0.041 C 
ATOM      9  O   UNL     1      43.102  64.896  12.931  1.00  0.00    -0.550 OA
ATOM     10  O   UNL     1      44.246  62.918  12.760  1.00  0.00    -0.550 OA
ENDBRANCH   7   8
ENDBRANCH   6   7
ENDBRANCH   5   6
ENDBRANCH   4   5
ENDBRANCH   3   4
ENDBRANCH   2   3
ENDBRANCH   1   2
BRANCH   1  11
ATOM     11  C   UNL     1      36.167  63.577  13.685  1.00  0.00     0.000 C 
BRANCH  11  12
ATOM     12  C   UNL     1      36.199  64.201  12.276  1.00  0.00    -0.000 C 
BRANCH  12  13
ATOM     13  C   UNL     1      35.852  65.701  12.223  1.00  0.00    -0.000 C 
BRANCH  13  14
ATOM     14  C   UNL     1      37.067  66.647  12.133  1.00  0.00    -0.000 C 
BRANCH  14  15
ATOM     15  C   UNL     1      36.797  68.100  12.573  1.00  0.00    -0.000 C 
BRANCH  15  16
ATOM     16  C   UNL     1      37.936  68.761  13.370  1.00  0.00    -0.000 C 
BRANCH  16  17
ATOM     17  C   UNL     1      38.729  69.781  12.541  1.00  0.00    -0.003 C 
ATOM     18  C   UNL     1      40.224  69.472  12.574  1.00  0.00     0.004 C 
ENDBRANCH  16  17
ENDBRANCH  15  16
ENDBRANCH  14  15
ENDBRANCH  13  14
ENDBRANCH  12  13
ENDBRANCH  11  12
ENDBRANCH   1  11
TORSDOF 14
ENDMDL
