MODEL 1
REMARK VINA RESULT:    -2.862      0.000      0.000
REMARK INTER + INTRA:          -2.862
REMARK INTER:                  -2.862
REMARK INTRA:                   0.000
REMARK UNBOUND:                 0.000
REMARK SMILES CC(=O)[O-]
REMARK SMILES IDX 1 1 2 2 3 3 4 4
REMARK H PARENT
REMARK Flexibility Score: inf
ROOT
ATOM      1  C   UNL     1      88.389 -70.630  13.857  1.00  0.00     0.063 C 
ATOM      2  C   UNL     1      87.063 -69.948  13.818  1.00  0.00     0.038 C 
ATOM      3  O   UNL     1      86.016 -70.589  14.096  1.00  0.00    -0.550 OA
ATOM      4  O   UNL     1      86.974 -68.620  13.423  1.00  0.00    -0.550 OA
ENDROOT
TORSDOF 0
ENDMDL
MODEL 2
REMARK VINA RESULT:    -2.843      0.090      1.621
REMARK INTER + INTRA:          -2.843
REMARK INTER:                  -2.843
REMARK INTRA:                   0.000
REMARK UNBOUND:                 0.000
REMARK SMILES CC(=O)[O-]
REMARK SMILES IDX 1 1 2 2 3 3 4 4
REMARK H PARENT
REMARK Flexibility Score: inf
ROOT
ATOM      1  C   UNL     1      88.419 -70.582  13.880  1.00  0.00     0.063 C 
ATOM      2  C   UNL     1      87.080 -69.930  13.802  1.00  0.00     0.038 C 
ATOM      3  O   UNL     1      86.983 -68.731  13.431  1.00  0.00    -0.550 OA
ATOM      4  O   UNL     1      85.942 -70.626  14.189  1.00  0.00    -0.550 OA
ENDROOT
TORSDOF 0
ENDMDL
MODEL 3
REMARK VINA RESULT:    -2.809      1.836      2.528
REMARK INTER + INTRA:          -2.809
REMARK INTER:                  -2.809
REMARK INTRA:                   0.000
REMARK UNBOUND:                 0.000
REMARK SMILES CC(=O)[O-]
REMARK SMILES IDX 1 1 2 2 3 3 4 4
REMARK H PARENT
REMARK Flexibility Score: inf
ROOT
ATOM      1  C   UNL     1      86.680 -70.128  13.542  1.00  0.00     0.063 C 
ATOM      2  C   UNL     1      87.933 -70.521  14.248  1.00  0.00     0.038 C 
ATOM      3  O   UNL     1      89.053 -70.291  13.723  1.00  0.00    -0.550 OA
ATOM      4  O   UNL     1      87.866 -71.191  15.463  1.00  0.00    -0.550 OA
ENDROOT
TORSDOF 0
ENDMDL
MODEL 4
REMARK VINA RESULT:    -2.698      1.506      1.871
REMARK INTER + INTRA:          -2.698
REMARK INTER:                  -2.698
REMARK INTRA:                   0.000
REMARK UNBOUND:                 0.000
REMARK SMILES CC(=O)[O-]
REMARK SMILES IDX 1 1 2 2 3 3 4 4
REMARK H PARENT
REMARK Flexibility Score: inf
ROOT
ATOM      1  C   UNL     1      86.173 -68.922  13.124  1.00  0.00     0.063 C 
ATOM      2  C   UNL     1      86.593 -70.182  13.802  1.00  0.00     0.038 C 
ATOM      3  O   UNL     1      85.793 -70.785  14.565  1.00  0.00    -0.550 OA
ATOM      4  O   UNL     1      87.885 -70.665  13.637  1.00  0.00    -0.550 OA
ENDROOT
TORSDOF 0
ENDMDL
MODEL 5
REMARK VINA RESULT:    -2.368      1.467      2.055
REMARK INTER + INTRA:          -2.368
REMARK INTER:                  -2.368
REMARK INTRA:                   0.000
REMARK UNBOUND:                 0.000
REMARK SMILES CC(=O)[O-]
REMARK SMILES IDX 1 1 2 2 3 3 4 4
REMARK H PARENT
REMARK Flexibility Score: inf
ROOT
ATOM      1  C   UNL     1      86.669 -70.516  14.356  1.00  0.00     0.063 C 
ATOM      2  C   UNL     1      86.091 -69.179  14.037  1.00  0.00     0.038 C 
ATOM      3  O   UNL     1      86.817 -68.280  13.539  1.00  0.00    -0.550 OA
ATOM      4  O   UNL     1      84.764 -68.905  14.339  1.00  0.00    -0.550 OA
ENDROOT
TORSDOF 0
ENDMDL
MODEL 6
REMARK VINA RESULT:    -2.279     11.114     11.228
REMARK INTER + INTRA:          -2.279
REMARK INTER:                  -2.279
REMARK INTRA:                   0.000
REMARK UNBOUND:                 0.000
REMARK SMILES CC(=O)[O-]
REMARK SMILES IDX 1 1 2 2 3 3 4 4
REMARK H PARENT
REMARK Flexibility Score: inf
ROOT
ATOM      1  C   UNL     1      88.361 -73.285   3.139  1.00  0.00     0.063 C 
ATOM      2  C   UNL     1      87.288 -74.234   3.554  1.00  0.00     0.038 C 
ATOM      3  O   UNL     1      86.080 -73.883   3.504  1.00  0.00    -0.550 OA
ATOM      4  O   UNL     1      87.621 -75.489   4.048  1.00  0.00    -0.550 OA
ENDROOT
TORSDOF 0
ENDMDL
MODEL 7
REMARK VINA RESULT:    -2.252     14.857     15.423
REMARK INTER + INTRA:          -2.252
REMARK INTER:                  -2.252
REMARK INTRA:                   0.000
REMARK UNBOUND:                 0.000
REMARK SMILES CC(=O)[O-]
REMARK SMILES IDX 1 1 2 2 3 3 4 4
REMARK H PARENT
REMARK Flexibility Score: inf
ROOT
ATOM      1  C   UNL     1      77.848 -62.520   2.447  1.00  0.00     0.063 C 
ATOM      2  C   UNL     1      78.934 -62.287   3.442  1.00  0.00     0.038 C 
ATOM      3  O   UNL     1      78.863 -61.315   4.238  1.00  0.00    -0.550 OA
ATOM      4  O   UNL     1      80.053 -63.110   3.457  1.00  0.00    -0.550 OA
ENDROOT
TORSDOF 0
ENDMDL
MODEL 8
REMARK VINA RESULT:    -2.165     15.845     16.327
REMARK INTER + INTRA:          -2.165
REMARK INTER:                  -2.165
REMARK INTRA:                   0.000
REMARK UNBOUND:                 0.000
REMARK SMILES CC(=O)[O-]
REMARK SMILES IDX 1 1 2 2 3 3 4 4
REMARK H PARENT
REMARK Flexibility Score: inf
ROOT
ATOM      1  C   UNL     1      78.612 -63.278   3.443  1.00  0.00     0.063 C 
ATOM      2  C   UNL     1      77.921 -62.144   2.765  1.00  0.00     0.038 C 
ATOM      3  O   UNL     1      77.362 -62.321   1.651  1.00  0.00    -0.550 OA
ATOM      4  O   UNL     1      77.940 -60.877   3.333  1.00  0.00    -0.550 OA
ENDROOT
TORSDOF 0
ENDMDL
MODEL 9
REMARK VINA RESULT:    -2.133     11.601     11.757
REMARK INTER + INTRA:          -2.133
REMARK INTER:                  -2.133
REMARK INTRA:                   0.000
REMARK UNBOUND:                 0.000
REMARK SMILES CC(=O)[O-]
REMARK SMILES IDX 1 1 2 2 3 3 4 4
REMARK H PARENT
REMARK Flexibility Score: inf
ROOT
ATOM      1  C   UNL     1      86.530 -73.991   3.375  1.00  0.00     0.063 C 
ATOM      2  C   UNL     1      87.988 -74.194   3.135  1.00  0.00     0.038 C 
ATOM      3  O   UNL     1      88.750 -73.202   3.000  1.00  0.00    -0.550 OA
ATOM      4  O   UNL     1      88.500 -75.479   3.007  1.00  0.00    -0.550 OA
ENDROOT
TORSDOF 0
ENDMDL
