MODEL 1
REMARK VINA RESULT:    -2.558      0.000      0.000
REMARK INTER + INTRA:          -3.136
REMARK INTER:                  -3.007
REMARK INTRA:                  -0.129
REMARK UNBOUND:                -0.129
REMARK SMILES O=c1c(O)c(-c2ccc(O)c(O)c2)oc2cc(O)ccc12
REMARK SMILES IDX 5 1 3 2 2 3 1 4 21 5 15 6 14 7 16 8 17 9 19 10 20 11 6 12
REMARK SMILES IDX 7 13 8 14 9 15 13 16 11 17 10 18 12 20 4 22 18 24
REMARK H PARENT 10 19 12 21 4 23 18 25
REMARK Flexibility Score: inf
ROOT
ATOM      1  C   UNL     1      14.168  19.209   3.904  1.00  0.00     0.180 A 
ATOM      2  C   UNL     1      13.735  20.394   4.538  1.00  0.00     0.208 A 
ATOM      3  C   UNL     1      12.371  20.545   4.827  1.00  0.00     0.235 A 
ATOM      4  O   UNL     1      11.956  21.598   5.384  1.00  0.00    -0.285 OA
ATOM      5  C   UNL     1      11.477  19.513   4.500  1.00  0.00     0.069 A 
ATOM      6  C   UNL     1      11.993  18.349   3.889  1.00  0.00     0.142 A 
ATOM      7  O   UNL     1      13.291  18.249   3.624  1.00  0.00    -0.452 OA
ATOM      8  C   UNL     1      11.136  17.295   3.557  1.00  0.00     0.094 A 
ATOM      9  C   UNL     1       9.767  17.386   3.826  1.00  0.00     0.119 A 
ATOM     10  C   UNL     1       9.250  18.540   4.431  1.00  0.00     0.047 A 
ATOM     11  C   UNL     1      10.099  19.599   4.768  1.00  0.00     0.020 A 
ENDROOT
BRANCH   1  12
ATOM     12  C   UNL     1      15.588  18.983   3.548  1.00  0.00     0.025 A 
ATOM     13  C   UNL     1      15.989  18.802   2.214  1.00  0.00     0.016 A 
ATOM     14  C   UNL     1      17.332  18.566   1.905  1.00  0.00     0.051 A 
ATOM     15  C   UNL     1      18.289  18.495   2.925  1.00  0.00     0.157 A 
ATOM     16  C   UNL     1      16.549  18.890   4.568  1.00  0.00     0.062 A 
ATOM     17  C   UNL     1      17.894  18.656   4.263  1.00  0.00     0.158 A 
BRANCH  15  18
ATOM     18  O   UNL     1      19.628  18.262   2.614  1.00  0.00    -0.504 OA
ATOM     19  H   UNL     1      19.920  18.019   1.674  1.00  0.00     0.293 HD
ENDBRANCH  15  18
BRANCH  17  20
ATOM     20  O   UNL     1      18.822  18.583   5.302  1.00  0.00    -0.504 OA
ATOM     21  H   UNL     1      19.502  17.836   5.365  1.00  0.00     0.293 HD
ENDBRANCH  17  20
ENDBRANCH   1  12
BRANCH   2  22
ATOM     22  O   UNL     1      14.655  21.382   4.895  1.00  0.00    -0.502 OA
ATOM     23  H   UNL     1      14.753  21.712   5.848  1.00  0.00     0.293 HD
ENDBRANCH   2  22
BRANCH   9  24
ATOM     24  O   UNL     1       8.927  16.327   3.488  1.00  0.00    -0.508 OA
ATOM     25  H   UNL     1       8.923  15.931   2.556  1.00  0.00     0.293 HD
ENDBRANCH   9  24
TORSDOF 5
ENDMDL
MODEL 2
REMARK VINA RESULT:    -1.841      9.349     11.131
REMARK INTER + INTRA:          -2.292
REMARK INTER:                  -2.622
REMARK INTRA:                   0.330
REMARK UNBOUND:                -0.129
REMARK SMILES O=c1c(O)c(-c2ccc(O)c(O)c2)oc2cc(O)ccc12
REMARK SMILES IDX 5 1 3 2 2 3 1 4 21 5 15 6 14 7 16 8 17 9 19 10 20 11 6 12
REMARK SMILES IDX 7 13 8 14 9 15 13 16 11 17 10 18 12 20 4 22 18 24
REMARK H PARENT 10 19 12 21 4 23 18 25
REMARK Flexibility Score: inf
ROOT
ATOM      1  C   UNL     1      12.371  20.198  13.820  1.00  0.00     0.180 A 
ATOM      2  C   UNL     1      13.652  20.602  13.386  1.00  0.00     0.208 A 
ATOM      3  C   UNL     1      13.945  20.560  12.014  1.00  0.00     0.235 A 
ATOM      4  O   UNL     1      15.085  20.905  11.601  1.00  0.00    -0.285 OA
ATOM      5  C   UNL     1      12.957  20.138  11.110  1.00  0.00     0.069 A 
ATOM      6  C   UNL     1      11.693  19.773  11.622  1.00  0.00     0.142 A 
ATOM      7  O   UNL     1      11.459  19.819  12.929  1.00  0.00    -0.452 OA
ATOM      8  C   UNL     1      10.679  19.357  10.752  1.00  0.00     0.094 A 
ATOM      9  C   UNL     1      10.911  19.298   9.374  1.00  0.00     0.119 A 
ATOM     10  C   UNL     1      12.164  19.659   8.862  1.00  0.00     0.047 A 
ATOM     11  C   UNL     1      13.184  20.077   9.723  1.00  0.00     0.020 A 
ENDROOT
BRANCH   1  12
ATOM     12  C   UNL     1      11.992  20.197  15.252  1.00  0.00     0.025 A 
ATOM     13  C   UNL     1      10.669  20.435  15.660  1.00  0.00     0.016 A 
ATOM     14  C   UNL     1      10.341  20.452  17.018  1.00  0.00     0.051 A 
ATOM     15  C   UNL     1      11.331  20.245  17.987  1.00  0.00     0.157 A 
ATOM     16  C   UNL     1      12.985  20.011  16.228  1.00  0.00     0.062 A 
ATOM     17  C   UNL     1      12.660  20.026  17.589  1.00  0.00     0.158 A 
BRANCH  15  18
ATOM     18  O   UNL     1      11.000  20.260  19.341  1.00  0.00    -0.504 OA
ATOM     19  H   UNL     1      11.570  20.750  20.022  1.00  0.00     0.293 HD
ENDBRANCH  15  18
BRANCH  17  20
ATOM     20  O   UNL     1      13.670  19.824  18.529  1.00  0.00    -0.504 OA
ATOM     21  H   UNL     1      14.579  19.458  18.273  1.00  0.00     0.293 HD
ENDBRANCH  17  20
ENDBRANCH   1  12
BRANCH   2  22
ATOM     22  O   UNL     1      14.598  21.064  14.304  1.00  0.00    -0.502 OA
ATOM     23  H   UNL     1      14.909  22.027  14.323  1.00  0.00     0.293 HD
ENDBRANCH   2  22
BRANCH   9  24
ATOM     24  O   UNL     1       9.891  18.881   8.523  1.00  0.00    -0.508 OA
ATOM     25  H   UNL     1      10.038  18.787   7.525  1.00  0.00     0.293 HD
ENDBRANCH   9  24
TORSDOF 5
ENDMDL
MODEL 3
REMARK VINA RESULT:    -0.985     12.298     14.193
REMARK INTER + INTRA:          -1.287
REMARK INTER:                  -1.024
REMARK INTRA:                  -0.262
REMARK UNBOUND:                -0.129
REMARK SMILES O=c1c(O)c(-c2ccc(O)c(O)c2)oc2cc(O)ccc12
REMARK SMILES IDX 5 1 3 2 2 3 1 4 21 5 15 6 14 7 16 8 17 9 19 10 20 11 6 12
REMARK SMILES IDX 7 13 8 14 9 15 13 16 11 17 10 18 12 20 4 22 18 24
REMARK H PARENT 10 19 12 21 4 23 18 25
REMARK Flexibility Score: inf
ROOT
ATOM      1  C   UNL     1      11.581  19.952  16.871  1.00  0.00     0.180 A 
ATOM      2  C   UNL     1      10.453  20.516  16.239  1.00  0.00     0.208 A 
ATOM      3  C   UNL     1      10.601  21.064  14.956  1.00  0.00     0.235 A 
ATOM      4  O   UNL     1       9.611  21.584  14.373  1.00  0.00    -0.285 OA
ATOM      5  C   UNL     1      11.856  21.021  14.327  1.00  0.00     0.069 A 
ATOM      6  C   UNL     1      12.929  20.417  15.017  1.00  0.00     0.142 A 
ATOM      7  O   UNL     1      12.749  19.918  16.235  1.00  0.00    -0.452 OA
ATOM      8  C   UNL     1      14.193  20.346  14.421  1.00  0.00     0.094 A 
ATOM      9  C   UNL     1      14.400  20.871  13.141  1.00  0.00     0.119 A 
ATOM     10  C   UNL     1      13.337  21.471  12.454  1.00  0.00     0.047 A 
ATOM     11  C   UNL     1      12.070  21.547  13.041  1.00  0.00     0.020 A 
ENDROOT
BRANCH   1  12
ATOM     12  C   UNL     1      11.510  19.371  18.232  1.00  0.00     0.025 A 
ATOM     13  C   UNL     1      11.440  17.983  18.434  1.00  0.00     0.016 A 
ATOM     14  C   UNL     1      11.349  17.460  19.726  1.00  0.00     0.051 A 
ATOM     15  C   UNL     1      11.313  18.316  20.834  1.00  0.00     0.157 A 
ATOM     16  C   UNL     1      11.451  20.227  19.345  1.00  0.00     0.062 A 
ATOM     17  C   UNL     1      11.362  19.707  20.641  1.00  0.00     0.158 A 
BRANCH  15  18
ATOM     18  O   UNL     1      11.225  17.792  22.123  1.00  0.00    -0.504 OA
ATOM     19  H   UNL     1      11.969  17.228  22.519  1.00  0.00     0.293 HD
ENDBRANCH  15  18
BRANCH  17  20
ATOM     20  O   UNL     1      11.320  20.586  21.723  1.00  0.00    -0.504 OA
ATOM     21  H   UNL     1      12.148  21.061  22.063  1.00  0.00     0.293 HD
ENDBRANCH  17  20
ENDBRANCH   1  12
BRANCH   2  22
ATOM     22  O   UNL     1       9.206  20.501  16.869  1.00  0.00    -0.502 OA
ATOM     23  H   UNL     1       8.394  20.061  16.454  1.00  0.00     0.293 HD
ENDBRANCH   2  22
BRANCH   9  24
ATOM     24  O   UNL     1      15.664  20.791  12.562  1.00  0.00    -0.508 OA
ATOM     25  H   UNL     1      16.390  21.465  12.778  1.00  0.00     0.293 HD
ENDBRANCH   9  24
TORSDOF 5
ENDMDL
MODEL 4
REMARK VINA RESULT:    -0.183      9.280     11.633
REMARK INTER + INTRA:          -0.344
REMARK INTER:                  -0.481
REMARK INTRA:                   0.137
REMARK UNBOUND:                -0.129
REMARK SMILES O=c1c(O)c(-c2ccc(O)c(O)c2)oc2cc(O)ccc12
REMARK SMILES IDX 5 1 3 2 2 3 1 4 21 5 15 6 14 7 16 8 17 9 19 10 20 11 6 12
REMARK SMILES IDX 7 13 8 14 9 15 13 16 11 17 10 18 12 20 4 22 18 24
REMARK H PARENT 10 19 12 21 4 23 18 25
REMARK Flexibility Score: inf
ROOT
ATOM      1  C   UNL     1      12.896  20.513  13.552  1.00  0.00     0.180 A 
ATOM      2  C   UNL     1      12.219  20.034  12.410  1.00  0.00     0.208 A 
ATOM      3  C   UNL     1      12.811  20.212  11.150  1.00  0.00     0.235 A 
ATOM      4  O   UNL     1      12.222  19.803  10.113  1.00  0.00    -0.285 OA
ATOM      5  C   UNL     1      14.062  20.842  11.058  1.00  0.00     0.069 A 
ATOM      6  C   UNL     1      14.685  21.272  12.250  1.00  0.00     0.142 A 
ATOM      7  O   UNL     1      14.087  21.091  13.423  1.00  0.00    -0.452 OA
ATOM      8  C   UNL     1      15.937  21.894  12.201  1.00  0.00     0.094 A 
ATOM      9  C   UNL     1      16.578  22.095  10.974  1.00  0.00     0.119 A 
ATOM     10  C   UNL     1      15.962  21.671   9.788  1.00  0.00     0.047 A 
ATOM     11  C   UNL     1      14.711  21.047   9.827  1.00  0.00     0.020 A 
ENDROOT
BRANCH   1  12
ATOM     12  C   UNL     1      12.328  20.381  14.914  1.00  0.00     0.025 A 
ATOM     13  C   UNL     1      10.955  20.548  15.155  1.00  0.00     0.016 A 
ATOM     14  C   UNL     1      10.446  20.442  16.452  1.00  0.00     0.051 A 
ATOM     15  C   UNL     1      11.304  20.180  17.528  1.00  0.00     0.157 A 
ATOM     16  C   UNL     1      13.188  20.140  15.999  1.00  0.00     0.062 A 
ATOM     17  C   UNL     1      12.682  20.031  17.299  1.00  0.00     0.158 A 
BRANCH  15  18
ATOM     18  O   UNL     1      10.795  20.072  18.821  1.00  0.00    -0.504 OA
ATOM     19  H   UNL     1      11.325  20.381  19.628  1.00  0.00     0.293 HD
ENDBRANCH  15  18
BRANCH  17  20
ATOM     20  O   UNL     1      13.564  19.777  18.350  1.00  0.00    -0.504 OA
ATOM     21  H   UNL     1      14.156  20.499  18.742  1.00  0.00     0.293 HD
ENDBRANCH  17  20
ENDBRANCH   1  12
BRANCH   2  22
ATOM     22  O   UNL     1      10.998  19.368  12.538  1.00  0.00    -0.502 OA
ATOM     23  H   UNL     1      10.912  18.481  13.019  1.00  0.00     0.293 HD
ENDBRANCH   2  22
BRANCH   9  24
ATOM     24  O   UNL     1      17.823  22.717  10.942  1.00  0.00    -0.508 OA
ATOM     25  H   UNL     1      18.062  23.460  11.588  1.00  0.00     0.293 HD
ENDBRANCH   9  24
TORSDOF 5
ENDMDL
