MODEL 1
REMARK VINA RESULT:    -2.374      0.000      0.000
REMARK INTER + INTRA:          -3.082
REMARK INTER:                  -2.998
REMARK INTRA:                  -0.084
REMARK UNBOUND:                -0.084
REMARK SMILES CCCCCCO
REMARK SMILES IDX 4 1 3 2 2 3 1 4 5 5 6 6 7 7
REMARK H PARENT 7 8
REMARK Flexibility Score: inf
ROOT
ATOM      1  C   UNL     1     231.672 240.048 233.766  1.00  0.00     0.002 C 
ENDROOT
BRANCH   1   2
ATOM      2  C   UNL     1     231.467 238.530 233.649  1.00  0.00    -0.000 C 
BRANCH   2   3
ATOM      3  C   UNL     1     232.337 237.900 232.550  1.00  0.00    -0.003 C 
ATOM      4  C   UNL     1     233.267 238.910 231.879  1.00  0.00     0.004 C 
ENDBRANCH   2   3
ENDBRANCH   1   2
BRANCH   1   5
ATOM      5  C   UNL     1     230.373 240.745 234.192  1.00  0.00     0.028 C 
BRANCH   5   6
ATOM      6  C   UNL     1     229.637 239.966 235.287  1.00  0.00     0.156 C 
BRANCH   6   7
ATOM      7  O   UNL     1     228.402 239.496 234.816  1.00  0.00    -0.396 OA
ATOM      8  H   UNL     1     228.554 239.157 233.896  1.00  0.00     0.210 HD
ENDBRANCH   6   7
ENDBRANCH   5   6
ENDBRANCH   1   5
TORSDOF 5
ENDMDL
MODEL 2
REMARK VINA RESULT:    -2.343     14.782     16.202
REMARK INTER + INTRA:          -3.043
REMARK INTER:                  -2.893
REMARK INTRA:                  -0.150
REMARK UNBOUND:                -0.084
REMARK SMILES CCCCCCO
REMARK SMILES IDX 4 1 3 2 2 3 1 4 5 5 6 6 7 7
REMARK H PARENT 7 8
REMARK Flexibility Score: inf
ROOT
ATOM      1  C   UNL     1     239.268 224.921 232.532  1.00  0.00     0.002 C 
ENDROOT
BRANCH   1   2
ATOM      2  C   UNL     1     240.637 225.277 231.934  1.00  0.00    -0.000 C 
BRANCH   2   3
ATOM      3  C   UNL     1     241.568 225.957 232.951  1.00  0.00    -0.003 C 
ATOM      4  C   UNL     1     243.047 225.740 232.635  1.00  0.00     0.004 C 
ENDBRANCH   2   3
ENDBRANCH   1   2
BRANCH   1   5
ATOM      5  C   UNL     1     239.073 225.597 233.895  1.00  0.00     0.028 C 
BRANCH   5   6
ATOM      6  C   UNL     1     237.906 226.589 233.882  1.00  0.00     0.156 C 
BRANCH   6   7
ATOM      7  O   UNL     1     238.378 227.910 233.846  1.00  0.00    -0.396 OA
ATOM      8  H   UNL     1     238.540 228.133 232.893  1.00  0.00     0.210 HD
ENDBRANCH   6   7
ENDBRANCH   5   6
ENDBRANCH   1   5
TORSDOF 5
ENDMDL
MODEL 3
REMARK VINA RESULT:    -2.329     10.888     12.399
REMARK INTER + INTRA:          -3.026
REMARK INTER:                  -2.903
REMARK INTRA:                  -0.123
REMARK UNBOUND:                -0.084
REMARK SMILES CCCCCCO
REMARK SMILES IDX 4 1 3 2 2 3 1 4 5 5 6 6 7 7
REMARK H PARENT 7 8
REMARK Flexibility Score: inf
ROOT
ATOM      1  C   UNL     1     237.200 229.348 234.079  1.00  0.00     0.002 C 
ENDROOT
BRANCH   1   2
ATOM      2  C   UNL     1     236.632 230.416 233.132  1.00  0.00    -0.000 C 
BRANCH   2   3
ATOM      3  C   UNL     1     235.496 229.876 232.247  1.00  0.00    -0.003 C 
ATOM      4  C   UNL     1     234.475 230.951 231.875  1.00  0.00     0.004 C 
ENDBRANCH   2   3
ENDBRANCH   1   2
BRANCH   1   5
ATOM      5  C   UNL     1     236.628 227.963 233.750  1.00  0.00     0.028 C 
BRANCH   5   6
ATOM      6  C   UNL     1     237.695 226.868 233.834  1.00  0.00     0.156 C 
BRANCH   6   7
ATOM      7  O   UNL     1     238.952 227.420 234.126  1.00  0.00    -0.396 OA
ATOM      8  H   UNL     1     239.600 226.669 234.143  1.00  0.00     0.210 HD
ENDBRANCH   6   7
ENDBRANCH   5   6
ENDBRANCH   1   5
TORSDOF 5
ENDMDL
MODEL 4
REMARK VINA RESULT:    -2.325      8.069      9.642
REMARK INTER + INTRA:          -3.021
REMARK INTER:                  -2.938
REMARK INTRA:                  -0.083
REMARK UNBOUND:                -0.084
REMARK SMILES CCCCCCO
REMARK SMILES IDX 4 1 3 2 2 3 1 4 5 5 6 6 7 7
REMARK H PARENT 7 8
REMARK Flexibility Score: inf
ROOT
ATOM      1  C   UNL     1     239.633 236.431 233.354  1.00  0.00     0.002 C 
ENDROOT
BRANCH   1   2
ATOM      2  C   UNL     1     239.329 235.479 232.188  1.00  0.00    -0.000 C 
BRANCH   2   3
ATOM      3  C   UNL     1     237.823 235.341 231.914  1.00  0.00    -0.003 C 
ATOM      4  C   UNL     1     236.984 236.347 232.701  1.00  0.00     0.004 C 
ENDBRANCH   2   3
ENDBRANCH   1   2
BRANCH   1   5
ATOM      5  C   UNL     1     241.103 236.328 233.778  1.00  0.00     0.028 C 
BRANCH   5   6
ATOM      6  C   UNL     1     241.750 237.706 233.946  1.00  0.00     0.156 C 
BRANCH   6   7
ATOM      7  O   UNL     1     240.772 238.711 233.987  1.00  0.00    -0.396 OA
ATOM      8  H   UNL     1     241.073 239.432 233.375  1.00  0.00     0.210 HD
ENDBRANCH   6   7
ENDBRANCH   5   6
ENDBRANCH   1   5
TORSDOF 5
ENDMDL
MODEL 5
REMARK VINA RESULT:    -2.312      3.331      5.039
REMARK INTER + INTRA:          -3.004
REMARK INTER:                  -2.911
REMARK INTRA:                  -0.094
REMARK UNBOUND:                -0.084
REMARK SMILES CCCCCCO
REMARK SMILES IDX 4 1 3 2 2 3 1 4 5 5 6 6 7 7
REMARK H PARENT 7 8
REMARK Flexibility Score: inf
ROOT
ATOM      1  C   UNL     1     229.437 242.125 233.746  1.00  0.00     0.002 C 
ENDROOT
BRANCH   1   2
ATOM      2  C   UNL     1     229.317 243.323 232.792  1.00  0.00    -0.000 C 
BRANCH   2   3
ATOM      3  C   UNL     1     228.038 243.274 231.941  1.00  0.00    -0.003 C 
ATOM      4  C   UNL     1     226.849 242.679 232.694  1.00  0.00     0.004 C 
ENDBRANCH   2   3
ENDBRANCH   1   2
BRANCH   1   5
ATOM      5  C   UNL     1     230.773 242.157 234.500  1.00  0.00     0.028 C 
BRANCH   5   6
ATOM      6  C   UNL     1     231.787 241.170 233.913  1.00  0.00     0.156 C 
BRANCH   6   7
ATOM      7  O   UNL     1     232.555 241.785 232.913  1.00  0.00    -0.396 OA
ATOM      8  H   UNL     1     232.498 242.764 233.065  1.00  0.00     0.210 HD
ENDBRANCH   6   7
ENDBRANCH   5   6
ENDBRANCH   1   5
TORSDOF 5
ENDMDL
MODEL 6
REMARK VINA RESULT:    -2.291      7.562      8.240
REMARK INTER + INTRA:          -2.978
REMARK INTER:                  -2.803
REMARK INTRA:                  -0.175
REMARK UNBOUND:                -0.084
REMARK SMILES CCCCCCO
REMARK SMILES IDX 4 1 3 2 2 3 1 4 5 5 6 6 7 7
REMARK H PARENT 7 8
REMARK Flexibility Score: inf
ROOT
ATOM      1  C   UNL     1     228.348 232.343 234.889  1.00  0.00     0.002 C 
ENDROOT
BRANCH   1   2
ATOM      2  C   UNL     1     229.762 232.620 234.357  1.00  0.00    -0.000 C 
BRANCH   2   3
ATOM      3  C   UNL     1     230.048 231.893 233.033  1.00  0.00    -0.003 C 
ATOM      4  C   UNL     1     230.644 232.815 231.970  1.00  0.00     0.004 C 
ENDBRANCH   2   3
ENDBRANCH   1   2
BRANCH   1   5
ATOM      5  C   UNL     1     227.377 232.051 233.738  1.00  0.00     0.028 C 
BRANCH   5   6
ATOM      6  C   UNL     1     226.549 230.788 233.992  1.00  0.00     0.156 C 
BRANCH   6   7
ATOM      7  O   UNL     1     227.329 229.637 233.799  1.00  0.00    -0.396 OA
ATOM      8  H   UNL     1     228.152 229.922 233.324  1.00  0.00     0.210 HD
ENDBRANCH   6   7
ENDBRANCH   5   6
ENDBRANCH   1   5
TORSDOF 5
ENDMDL
MODEL 7
REMARK VINA RESULT:    -2.289     12.206     13.728
REMARK INTER + INTRA:          -2.975
REMARK INTER:                  -2.921
REMARK INTRA:                  -0.054
REMARK UNBOUND:                -0.084
REMARK SMILES CCCCCCO
REMARK SMILES IDX 4 1 3 2 2 3 1 4 5 5 6 6 7 7
REMARK H PARENT 7 8
REMARK Flexibility Score: inf
ROOT
ATOM      1  C   UNL     1     236.610 227.230 233.792  1.00  0.00     0.002 C 
ENDROOT
BRANCH   1   2
ATOM      2  C   UNL     1     236.870 228.743 233.755  1.00  0.00    -0.000 C 
BRANCH   2   3
ATOM      3  C   UNL     1     235.868 229.493 232.862  1.00  0.00    -0.003 C 
ATOM      4  C   UNL     1     236.278 230.942 232.602  1.00  0.00     0.004 C 
ENDBRANCH   2   3
ENDBRANCH   1   2
BRANCH   1   5
ATOM      5  C   UNL     1     237.768 226.492 234.478  1.00  0.00     0.028 C 
BRANCH   5   6
ATOM      6  C   UNL     1     238.687 225.800 233.467  1.00  0.00     0.156 C 
BRANCH   6   7
ATOM      7  O   UNL     1     239.934 226.441 233.410  1.00  0.00    -0.396 OA
ATOM      8  H   UNL     1     239.874 227.240 233.997  1.00  0.00     0.210 HD
ENDBRANCH   6   7
ENDBRANCH   5   6
ENDBRANCH   1   5
TORSDOF 5
ENDMDL
MODEL 8
REMARK VINA RESULT:    -2.261     10.928     12.324
REMARK INTER + INTRA:          -2.940
REMARK INTER:                  -2.842
REMARK INTRA:                  -0.098
REMARK UNBOUND:                -0.084
REMARK SMILES CCCCCCO
REMARK SMILES IDX 4 1 3 2 2 3 1 4 5 5 6 6 7 7
REMARK H PARENT 7 8
REMARK Flexibility Score: inf
ROOT
ATOM      1  C   UNL     1     237.088 229.594 233.768  1.00  0.00     0.002 C 
ENDROOT
BRANCH   1   2
ATOM      2  C   UNL     1     237.737 228.386 234.462  1.00  0.00    -0.000 C 
BRANCH   2   3
ATOM      3  C   UNL     1     237.406 227.057 233.765  1.00  0.00    -0.003 C 
ATOM      4  C   UNL     1     238.585 226.085 233.755  1.00  0.00     0.004 C 
ENDBRANCH   2   3
ENDBRANCH   1   2
BRANCH   1   5
ATOM      5  C   UNL     1     235.849 229.167 232.971  1.00  0.00     0.028 C 
BRANCH   5   6
ATOM      6  C   UNL     1     235.327 230.296 232.077  1.00  0.00     0.156 C 
BRANCH   6   7
ATOM      7  O   UNL     1     236.318 231.268 231.875  1.00  0.00    -0.396 OA
ATOM      8  H   UNL     1     237.045 230.837 231.355  1.00  0.00     0.210 HD
ENDBRANCH   6   7
ENDBRANCH   5   6
ENDBRANCH   1   5
TORSDOF 5
ENDMDL
