MODEL 1
REMARK VINA RESULT:    -5.093      0.000      0.000
REMARK INTER + INTRA:          -5.571
REMARK INTER:                  -5.540
REMARK INTRA:                  -0.031
REMARK UNBOUND:                -0.031
REMARK SMILES C[C@@H]1[C@H](C)CC[C@@]2(C(=O)[O-])CC[C@@]3(C)C(=CC[C@@H]4[C@@]5(C)CC[C@@H](O)C(C)(C)[C@H]5CC[C@]43C)[C@@H]12
REMARK SMILES IDX 7 1 6 2 11 3 33 4 5 5 12 6 15 7 2 8 3 9 13 10 16 11 1 12
REMARK SMILES IDX 4 13 14 14 31 15 17 16 18 17 30 18 32 19 19 20 29 21 28 22
REMARK SMILES IDX 21 23 20 24 25 25 22 26 23 27 26 28 27 29 8 30 9 31 10 32
REMARK SMILES IDX 24 33
REMARK H PARENT 24 34
REMARK Flexibility Score: inf
ROOT
ATOM      1  C   UNL     1      15.600  -9.260  26.125  1.00  0.00     0.017 C 
ATOM      2  C   UNL     1      15.293 -10.127  24.876  1.00  0.00     0.014 C 
ATOM      3  C   UNL     1      14.555  -9.523  27.225  1.00  0.00     0.014 C 
ATOM      4  C   UNL     1      17.027  -9.540  26.695  1.00  0.00     0.030 C 
ATOM      5  C   UNL     1      15.666 -11.610  25.021  1.00  0.00     0.004 C 
ATOM      6  C   UNL     1      14.762  -8.633  28.465  1.00  0.00     0.013 C 
ATOM      7  C   UNL     1      17.258  -8.795  28.022  1.00  0.00    -0.063 C 
ATOM      8  C   UNL     1      17.403 -11.053  26.769  1.00  0.00    -0.003 C 
ATOM      9  C   UNL     1      17.140 -11.794  25.429  1.00  0.00    -0.011 C 
ATOM     10  C   UNL     1      16.170  -8.732  29.154  1.00  0.00    -0.006 C 
ATOM     11  C   UNL     1      18.429  -8.119  28.114  1.00  0.00    -0.027 C 
ATOM     12  C   UNL     1      18.848 -11.260  27.243  1.00  0.00     0.008 C 
ATOM     13  C   UNL     1      18.097 -11.389  24.284  1.00  0.00     0.008 C 
ATOM     14  C   UNL     1      16.185 -10.104  29.892  1.00  0.00     0.017 C 
ATOM     15  C   UNL     1      16.421  -7.491  30.218  1.00  0.00    -0.020 C 
ATOM     16  C   UNL     1      18.677  -7.051  29.116  1.00  0.00     0.032 C 
ATOM     17  C   UNL     1      17.331  -6.411  29.520  1.00  0.00     0.006 C 
ATOM     18  C   UNL     1      15.091  -6.788  30.729  1.00  0.00     0.008 C 
ATOM     19  C   UNL     1      17.136  -8.001  31.515  1.00  0.00     0.012 C 
ATOM     20  C   UNL     1      17.450  -4.936  30.140  1.00  0.00    -0.025 C 
ATOM     21  C   UNL     1      14.883  -5.358  30.208  1.00  0.00     0.005 C 
ATOM     22  C   UNL     1      16.039  -4.452  30.720  1.00  0.00     0.003 C 
ATOM     23  C   UNL     1      17.965  -4.020  28.962  1.00  0.00     0.010 C 
ATOM     24  C   UNL     1      18.530  -4.873  31.272  1.00  0.00     0.012 C 
ATOM     25  C   UNL     1      15.735  -2.888  30.667  1.00  0.00    -0.006 C 
ATOM     26  C   UNL     1      17.723  -2.526  29.133  1.00  0.00     0.033 C 
ATOM     27  C   UNL     1      16.241  -2.246  29.349  1.00  0.00     0.120 C 
ATOM     28  C   UNL     1      16.395  -2.185  31.886  1.00  0.00     0.014 C 
ATOM     29  C   UNL     1      14.215  -2.560  30.791  1.00  0.00     0.014 C 
ENDROOT
BRANCH   1  30
ATOM     30  C   UNL     1      15.438  -7.812  25.696  1.00  0.00     0.048 C 
ATOM     31  O   UNL     1      16.405  -7.205  25.123  1.00  0.00    -0.550 OA
ATOM     32  O   UNL     1      16.338  -7.082  24.944  1.00  0.00    -0.550 OA
ENDBRANCH   1  30
BRANCH  27  33
ATOM     33  O   UNL     1      15.511  -2.742  28.246  1.00  0.00    -0.393 OA
ATOM     34  H   UNL     1      14.721  -2.153  28.121  1.00  0.00     0.210 HD
ENDBRANCH  27  33
TORSDOF 2
ENDMDL
MODEL 2
REMARK VINA RESULT:    -5.083      1.745      2.580
REMARK INTER + INTRA:          -5.560
REMARK INTER:                  -5.531
REMARK INTRA:                  -0.028
REMARK UNBOUND:                -0.031
REMARK SMILES C[C@@H]1[C@H](C)CC[C@@]2(C(=O)[O-])CC[C@@]3(C)C(=CC[C@@H]4[C@@]5(C)CC[C@@H](O)C(C)(C)[C@H]5CC[C@]43C)[C@@H]12
REMARK SMILES IDX 7 1 6 2 11 3 33 4 5 5 12 6 15 7 2 8 3 9 13 10 16 11 1 12
REMARK SMILES IDX 4 13 14 14 31 15 17 16 18 17 30 18 32 19 19 20 29 21 28 22
REMARK SMILES IDX 21 23 20 24 25 25 22 26 23 27 26 28 27 29 8 30 9 31 10 32
REMARK SMILES IDX 24 33
REMARK H PARENT 24 34
REMARK Flexibility Score: inf
ROOT
ATOM      1  C   UNL     1      14.270  -9.906  27.281  1.00  0.00     0.017 C 
ATOM      2  C   UNL     1      13.363 -11.022  26.701  1.00  0.00     0.014 C 
ATOM      3  C   UNL     1      15.084 -10.448  28.472  1.00  0.00     0.014 C 
ATOM      4  C   UNL     1      15.249  -9.331  26.209  1.00  0.00     0.030 C 
ATOM      5  C   UNL     1      14.101 -12.068  25.852  1.00  0.00     0.004 C 
ATOM      6  C   UNL     1      15.950  -9.364  29.141  1.00  0.00     0.013 C 
ATOM      7  C   UNL     1      16.250  -8.343  26.836  1.00  0.00    -0.063 C 
ATOM      8  C   UNL     1      15.935 -10.415  25.320  1.00  0.00    -0.003 C 
ATOM      9  C   UNL     1      14.913 -11.418  24.717  1.00  0.00    -0.011 C 
ATOM     10  C   UNL     1      16.969  -8.624  28.204  1.00  0.00    -0.006 C 
ATOM     11  C   UNL     1      16.402  -7.170  26.172  1.00  0.00    -0.027 C 
ATOM     12  C   UNL     1      16.807  -9.786  24.224  1.00  0.00     0.008 C 
ATOM     13  C   UNL     1      13.987 -10.807  23.639  1.00  0.00     0.008 C 
ATOM     14  C   UNL     1      18.112  -9.647  27.928  1.00  0.00     0.017 C 
ATOM     15  C   UNL     1      17.567  -7.253  28.909  1.00  0.00    -0.020 C 
ATOM     16  C   UNL     1      17.003  -5.959  26.787  1.00  0.00     0.032 C 
ATOM     17  C   UNL     1      16.799  -6.011  28.316  1.00  0.00     0.006 C 
ATOM     18  C   UNL     1      17.442  -7.224  30.493  1.00  0.00     0.008 C 
ATOM     19  C   UNL     1      19.098  -7.094  28.618  1.00  0.00     0.012 C 
ATOM     20  C   UNL     1      16.881  -4.587  29.053  1.00  0.00    -0.025 C 
ATOM     21  C   UNL     1      16.425  -6.208  31.035  1.00  0.00     0.005 C 
ATOM     22  C   UNL     1      16.874  -4.772  30.642  1.00  0.00     0.003 C 
ATOM     23  C   UNL     1      15.636  -3.769  28.533  1.00  0.00     0.010 C 
ATOM     24  C   UNL     1      18.161  -3.791  28.624  1.00  0.00     0.012 C 
ATOM     25  C   UNL     1      16.208  -3.606  31.501  1.00  0.00    -0.006 C 
ATOM     26  C   UNL     1      15.213  -2.590  29.400  1.00  0.00     0.033 C 
ATOM     27  C   UNL     1      14.928  -3.049  30.824  1.00  0.00     0.120 C 
ATOM     28  C   UNL     1      17.237  -2.460  31.712  1.00  0.00     0.014 C 
ATOM     29  C   UNL     1      15.814  -4.060  32.940  1.00  0.00     0.014 C 
ENDROOT
BRANCH   1  30
ATOM     30  C   UNL     1      13.342  -8.836  27.830  1.00  0.00     0.048 C 
ATOM     31  O   UNL     1      12.875  -7.938  27.051  1.00  0.00    -0.550 OA
ATOM     32  O   UNL     1      12.654  -7.899  27.084  1.00  0.00    -0.550 OA
ENDBRANCH   1  30
BRANCH  27  33
ATOM     33  O   UNL     1      13.915  -4.033  30.800  1.00  0.00    -0.393 OA
ATOM     34  H   UNL     1      14.000  -4.571  31.630  1.00  0.00     0.210 HD
ENDBRANCH  27  33
TORSDOF 2
ENDMDL
MODEL 3
REMARK VINA RESULT:    -5.071      4.093      6.823
REMARK INTER + INTRA:          -5.547
REMARK INTER:                  -5.772
REMARK INTRA:                   0.225
REMARK UNBOUND:                -0.031
REMARK SMILES C[C@@H]1[C@H](C)CC[C@@]2(C(=O)[O-])CC[C@@]3(C)C(=CC[C@@H]4[C@@]5(C)CC[C@@H](O)C(C)(C)[C@H]5CC[C@]43C)[C@@H]12
REMARK SMILES IDX 7 1 6 2 11 3 33 4 5 5 12 6 15 7 2 8 3 9 13 10 16 11 1 12
REMARK SMILES IDX 4 13 14 14 31 15 17 16 18 17 30 18 32 19 19 20 29 21 28 22
REMARK SMILES IDX 21 23 20 24 25 25 22 26 23 27 26 28 27 29 8 30 9 31 10 32
REMARK SMILES IDX 24 33
REMARK H PARENT 24 34
REMARK Flexibility Score: inf
ROOT
ATOM      1  C   UNL     1      16.952  -3.568  29.476  1.00  0.00     0.017 C 
ATOM      2  C   UNL     1      15.687  -4.258  28.903  1.00  0.00     0.014 C 
ATOM      3  C   UNL     1      16.950  -3.649  31.015  1.00  0.00     0.014 C 
ATOM      4  C   UNL     1      18.267  -4.209  28.930  1.00  0.00     0.030 C 
ATOM      5  C   UNL     1      15.731  -5.794  28.925  1.00  0.00     0.004 C 
ATOM      6  C   UNL     1      18.145  -2.913  31.649  1.00  0.00     0.013 C 
ATOM      7  C   UNL     1      19.508  -3.625  29.628  1.00  0.00    -0.063 C 
ATOM      8  C   UNL     1      18.257  -5.770  28.904  1.00  0.00    -0.003 C 
ATOM      9  C   UNL     1      16.985  -6.341  28.219  1.00  0.00    -0.011 C 
ATOM     10  C   UNL     1      19.568  -3.381  31.179  1.00  0.00    -0.006 C 
ATOM     11  C   UNL     1      20.516  -3.248  28.803  1.00  0.00    -0.027 C 
ATOM     12  C   UNL     1      19.533  -6.338  28.267  1.00  0.00     0.008 C 
ATOM     13  C   UNL     1      16.926  -6.099  26.693  1.00  0.00     0.008 C 
ATOM     14  C   UNL     1      19.805  -4.764  31.858  1.00  0.00     0.017 C 
ATOM     15  C   UNL     1      20.745  -2.304  31.615  1.00  0.00    -0.020 C 
ATOM     16  C   UNL     1      21.610  -2.334  29.218  1.00  0.00     0.032 C 
ATOM     17  C   UNL     1      21.106  -1.424  30.359  1.00  0.00     0.006 C 
ATOM     18  C   UNL     1      20.339  -1.344  32.815  1.00  0.00     0.008 C 
ATOM     19  C   UNL     1      22.032  -3.049  32.106  1.00  0.00     0.012 C 
ATOM     20  C   UNL     1      21.932  -0.060  30.543  1.00  0.00    -0.025 C 
ATOM     21  C   UNL     1      20.134   0.125  32.415  1.00  0.00     0.005 C 
ATOM     22  C   UNL     1      21.474   0.702  31.874  1.00  0.00     0.003 C 
ATOM     23  C   UNL     1      21.654   0.783  29.238  1.00  0.00     0.010 C 
ATOM     24  C   UNL     1      23.475  -0.323  30.596  1.00  0.00     0.012 C 
ATOM     25  C   UNL     1      21.557   2.294  31.859  1.00  0.00    -0.006 C 
ATOM     26  C   UNL     1      21.922   2.278  29.348  1.00  0.00     0.033 C 
ATOM     27  C   UNL     1      21.118   2.882  30.493  1.00  0.00     0.120 C 
ATOM     28  C   UNL     1      23.009   2.744  32.188  1.00  0.00     0.014 C 
ATOM     29  C   UNL     1      20.674   2.959  32.959  1.00  0.00     0.014 C 
ENDROOT
BRANCH   1  30
ATOM     30  C   UNL     1      16.845  -2.097  29.110  1.00  0.00     0.048 C 
ATOM     31  O   UNL     1      15.738  -1.627  28.682  1.00  0.00    -0.550 OA
ATOM     32  O   UNL     1      15.686  -1.426  28.775  1.00  0.00    -0.550 OA
ENDBRANCH   1  30
BRANCH  27  33
ATOM     33  O   UNL     1      19.744   2.642  30.271  1.00  0.00    -0.393 OA
ATOM     34  H   UNL     1      19.660   1.745  29.855  1.00  0.00     0.210 HD
ENDBRANCH  27  33
TORSDOF 2
ENDMDL
MODEL 4
REMARK VINA RESULT:    -4.966      3.171      5.578
REMARK INTER + INTRA:          -5.433
REMARK INTER:                  -5.395
REMARK INTRA:                  -0.038
REMARK UNBOUND:                -0.031
REMARK SMILES C[C@@H]1[C@H](C)CC[C@@]2(C(=O)[O-])CC[C@@]3(C)C(=CC[C@@H]4[C@@]5(C)CC[C@@H](O)C(C)(C)[C@H]5CC[C@]43C)[C@@H]12
REMARK SMILES IDX 7 1 6 2 11 3 33 4 5 5 12 6 15 7 2 8 3 9 13 10 16 11 1 12
REMARK SMILES IDX 4 13 14 14 31 15 17 16 18 17 30 18 32 19 19 20 29 21 28 22
REMARK SMILES IDX 21 23 20 24 25 25 22 26 23 27 26 28 27 29 8 30 9 31 10 32
REMARK SMILES IDX 24 33
REMARK H PARENT 24 34
REMARK Flexibility Score: inf
ROOT
ATOM      1  C   UNL     1      17.359  -7.817  29.642  1.00  0.00     0.017 C 
ATOM      2  C   UNL     1      17.093  -9.345  29.607  1.00  0.00     0.014 C 
ATOM      3  C   UNL     1      17.530  -7.274  28.210  1.00  0.00     0.014 C 
ATOM      4  C   UNL     1      16.207  -7.038  30.353  1.00  0.00     0.030 C 
ATOM      5  C   UNL     1      15.670  -9.735  29.179  1.00  0.00     0.004 C 
ATOM      6  C   UNL     1      17.873  -5.773  28.182  1.00  0.00     0.013 C 
ATOM      7  C   UNL     1      16.405  -5.516  30.238  1.00  0.00    -0.063 C 
ATOM      8  C   UNL     1      14.773  -7.501  29.946  1.00  0.00    -0.003 C 
ATOM      9  C   UNL     1      14.600  -9.042  30.043  1.00  0.00    -0.011 C 
ATOM     10  C   UNL     1      16.853  -4.822  28.902  1.00  0.00    -0.006 C 
ATOM     11  C   UNL     1      16.255  -4.822  31.393  1.00  0.00    -0.027 C 
ATOM     12  C   UNL     1      13.688  -6.770  30.748  1.00  0.00     0.008 C 
ATOM     13  C   UNL     1      14.602  -9.589  31.490  1.00  0.00     0.008 C 
ATOM     14  C   UNL     1      15.605  -4.755  27.971  1.00  0.00     0.017 C 
ATOM     15  C   UNL     1      17.485  -3.313  29.143  1.00  0.00    -0.020 C 
ATOM     16  C   UNL     1      16.764  -3.440  31.584  1.00  0.00     0.032 C 
ATOM     17  C   UNL     1      17.963  -3.205  30.641  1.00  0.00     0.006 C 
ATOM     18  C   UNL     1      18.704  -2.955  28.188  1.00  0.00     0.008 C 
ATOM     19  C   UNL     1      16.413  -2.204  28.867  1.00  0.00     0.012 C 
ATOM     20  C   UNL     1      18.947  -2.018  31.088  1.00  0.00    -0.025 C 
ATOM     21  C   UNL     1      20.065  -2.864  28.896  1.00  0.00     0.005 C 
ATOM     22  C   UNL     1      20.023  -1.715  29.943  1.00  0.00     0.003 C 
ATOM     23  C   UNL     1      19.615  -2.505  32.432  1.00  0.00     0.010 C 
ATOM     24  C   UNL     1      18.154  -0.709  31.421  1.00  0.00     0.012 C 
ATOM     25  C   UNL     1      21.453  -1.192  30.418  1.00  0.00    -0.006 C 
ATOM     26  C   UNL     1      20.908  -1.800  32.820  1.00  0.00     0.033 C 
ATOM     27  C   UNL     1      21.936  -1.917  31.702  1.00  0.00     0.120 C 
ATOM     28  C   UNL     1      21.393   0.341  30.666  1.00  0.00     0.014 C 
ATOM     29  C   UNL     1      22.558  -1.379  29.334  1.00  0.00     0.014 C 
ENDROOT
BRANCH   1  30
ATOM     30  C   UNL     1      18.690  -7.627  30.349  1.00  0.00     0.048 C 
ATOM     31  O   UNL     1      18.739  -7.632  31.625  1.00  0.00    -0.550 OA
ATOM     32  O   UNL     1      18.913  -7.752  31.707  1.00  0.00    -0.550 OA
ENDBRANCH   1  30
BRANCH  27  33
ATOM     33  O   UNL     1      22.178  -3.283  31.435  1.00  0.00    -0.393 OA
ATOM     34  H   UNL     1      23.131  -3.464  31.643  1.00  0.00     0.210 HD
ENDBRANCH  27  33
TORSDOF 2
ENDMDL
MODEL 5
REMARK VINA RESULT:    -4.888      3.232      7.860
REMARK INTER + INTRA:          -5.348
REMARK INTER:                  -5.571
REMARK INTRA:                   0.223
REMARK UNBOUND:                -0.031
REMARK SMILES C[C@@H]1[C@H](C)CC[C@@]2(C(=O)[O-])CC[C@@]3(C)C(=CC[C@@H]4[C@@]5(C)CC[C@@H](O)C(C)(C)[C@H]5CC[C@]43C)[C@@H]12
REMARK SMILES IDX 7 1 6 2 11 3 33 4 5 5 12 6 15 7 2 8 3 9 13 10 16 11 1 12
REMARK SMILES IDX 4 13 14 14 31 15 17 16 18 17 30 18 32 19 19 20 29 21 28 22
REMARK SMILES IDX 21 23 20 24 25 25 22 26 23 27 26 28 27 29 8 30 9 31 10 32
REMARK SMILES IDX 24 33
REMARK H PARENT 24 34
REMARK Flexibility Score: inf
ROOT
ATOM      1  C   UNL     1      20.326  -3.769  32.190  1.00  0.00     0.017 C 
ATOM      2  C   UNL     1      21.399  -3.152  33.125  1.00  0.00     0.014 C 
ATOM      3  C   UNL     1      18.915  -3.379  32.669  1.00  0.00     0.014 C 
ATOM      4  C   UNL     1      20.510  -3.311  30.707  1.00  0.00     0.030 C 
ATOM      5  C   UNL     1      21.634  -1.648  32.923  1.00  0.00     0.004 C 
ATOM      6  C   UNL     1      17.802  -4.025  31.824  1.00  0.00     0.013 C 
ATOM      7  C   UNL     1      19.348  -3.799  29.822  1.00  0.00    -0.063 C 
ATOM      8  C   UNL     1      20.811  -1.789  30.538  1.00  0.00    -0.003 C 
ATOM      9  C   UNL     1      21.968  -1.311  31.458  1.00  0.00    -0.011 C 
ATOM     10  C   UNL     1      17.848  -3.726  30.283  1.00  0.00    -0.006 C 
ATOM     11  C   UNL     1      19.713  -4.379  28.653  1.00  0.00    -0.027 C 
ATOM     12  C   UNL     1      21.078  -1.419  29.073  1.00  0.00     0.008 C 
ATOM     13  C   UNL     1      23.360  -1.853  31.058  1.00  0.00     0.008 C 
ATOM     14  C   UNL     1      17.383  -2.247  30.124  1.00  0.00     0.017 C 
ATOM     15  C   UNL     1      16.864  -4.745  29.429  1.00  0.00    -0.020 C 
ATOM     16  C   UNL     1      18.804  -5.239  27.852  1.00  0.00     0.032 C 
ATOM     17  C   UNL     1      17.753  -5.876  28.787  1.00  0.00     0.006 C 
ATOM     18  C   UNL     1      15.718  -5.424  30.295  1.00  0.00     0.008 C 
ATOM     19  C   UNL     1      16.113  -3.976  28.290  1.00  0.00     0.012 C 
ATOM     20  C   UNL     1      17.069  -7.211  28.216  1.00  0.00    -0.025 C 
ATOM     21  C   UNL     1      15.897  -6.933  30.522  1.00  0.00     0.005 C 
ATOM     22  C   UNL     1      15.853  -7.667  29.152  1.00  0.00     0.003 C 
ATOM     23  C   UNL     1      18.223  -8.287  28.157  1.00  0.00     0.010 C 
ATOM     24  C   UNL     1      16.555  -7.013  26.750  1.00  0.00     0.012 C 
ATOM     25  C   UNL     1      15.560  -9.232  29.241  1.00  0.00    -0.006 C 
ATOM     26  C   UNL     1      17.769  -9.739  28.101  1.00  0.00     0.033 C 
ATOM     27  C   UNL     1      16.868 -10.063  29.287  1.00  0.00     0.120 C 
ATOM     28  C   UNL     1      14.695  -9.671  28.027  1.00  0.00     0.014 C 
ATOM     29  C   UNL     1      14.717  -9.620  30.494  1.00  0.00     0.014 C 
ENDROOT
BRANCH   1  30
ATOM     30  C   UNL     1      20.443  -5.277  32.334  1.00  0.00     0.048 C 
ATOM     31  O   UNL     1      21.529  -5.793  32.762  1.00  0.00    -0.550 OA
ATOM     32  O   UNL     1      21.495  -5.958  32.915  1.00  0.00    -0.550 OA
ENDBRANCH   1  30
BRANCH  27  33
ATOM     33  O   UNL     1      17.571  -9.811  30.486  1.00  0.00    -0.393 OA
ATOM     34  H   UNL     1      18.355 -10.419  30.507  1.00  0.00     0.210 HD
ENDBRANCH  27  33
TORSDOF 2
ENDMDL
MODEL 6
REMARK VINA RESULT:    -4.860      1.706      7.308
REMARK INTER + INTRA:          -5.317
REMARK INTER:                  -5.283
REMARK INTRA:                  -0.034
REMARK UNBOUND:                -0.031
REMARK SMILES C[C@@H]1[C@H](C)CC[C@@]2(C(=O)[O-])CC[C@@]3(C)C(=CC[C@@H]4[C@@]5(C)CC[C@@H](O)C(C)(C)[C@H]5CC[C@]43C)[C@@H]12
REMARK SMILES IDX 7 1 6 2 11 3 33 4 5 5 12 6 15 7 2 8 3 9 13 10 16 11 1 12
REMARK SMILES IDX 4 13 14 14 31 15 17 16 18 17 30 18 32 19 19 20 29 21 28 22
REMARK SMILES IDX 21 23 20 24 25 25 22 26 23 27 26 28 27 29 8 30 9 31 10 32
REMARK SMILES IDX 24 33
REMARK H PARENT 24 34
REMARK Flexibility Score: inf
ROOT
ATOM      1  C   UNL     1      17.417  -6.111  29.064  1.00  0.00     0.017 C 
ATOM      2  C   UNL     1      17.845  -4.746  29.664  1.00  0.00     0.014 C 
ATOM      3  C   UNL     1      18.655  -6.988  28.798  1.00  0.00     0.014 C 
ATOM      4  C   UNL     1      16.434  -6.880  30.003  1.00  0.00     0.030 C 
ATOM      5  C   UNL     1      18.253  -4.799  31.144  1.00  0.00     0.004 C 
ATOM      6  C   UNL     1      18.300  -8.329  28.130  1.00  0.00     0.013 C 
ATOM      7  C   UNL     1      16.145  -8.296  29.473  1.00  0.00    -0.063 C 
ATOM      8  C   UNL     1      16.841  -6.862  31.510  1.00  0.00    -0.003 C 
ATOM      9  C   UNL     1      17.154  -5.428  32.019  1.00  0.00    -0.011 C 
ATOM     10  C   UNL     1      17.272  -9.230  28.902  1.00  0.00    -0.006 C 
ATOM     11  C   UNL     1      14.837  -8.651  29.448  1.00  0.00    -0.027 C 
ATOM     12  C   UNL     1      15.789  -7.547  32.394  1.00  0.00     0.008 C 
ATOM     13  C   UNL     1      15.915  -4.507  32.118  1.00  0.00     0.008 C 
ATOM     14  C   UNL     1      18.051  -9.816  30.118  1.00  0.00     0.017 C 
ATOM     15  C   UNL     1      16.679 -10.443  27.947  1.00  0.00    -0.020 C 
ATOM     16  C   UNL     1      14.316  -9.785  28.642  1.00  0.00     0.032 C 
ATOM     17  C   UNL     1      15.249 -10.021  27.435  1.00  0.00     0.006 C 
ATOM     18  C   UNL     1      17.590 -10.792  26.693  1.00  0.00     0.008 C 
ATOM     19  C   UNL     1      16.559 -11.782  28.750  1.00  0.00     0.012 C 
ATOM     20  C   UNL     1      14.573 -10.800  26.205  1.00  0.00    -0.025 C 
ATOM     21  C   UNL     1      16.991 -10.392  25.336  1.00  0.00     0.005 C 
ATOM     22  C   UNL     1      15.671 -11.182  25.105  1.00  0.00     0.003 C 
ATOM     23  C   UNL     1      13.467  -9.825  25.642  1.00  0.00     0.010 C 
ATOM     24  C   UNL     1      13.836 -12.097  26.682  1.00  0.00     0.012 C 
ATOM     25  C   UNL     1      15.183 -11.238  23.588  1.00  0.00    -0.006 C 
ATOM     26  C   UNL     1      13.002 -10.104  24.219  1.00  0.00     0.033 C 
ATOM     27  C   UNL     1      14.186 -10.096  23.260  1.00  0.00     0.120 C 
ATOM     28  C   UNL     1      14.523 -12.616  23.303  1.00  0.00     0.014 C 
ATOM     29  C   UNL     1      16.358 -11.138  22.568  1.00  0.00     0.014 C 
ENDROOT
BRANCH   1  30
ATOM     30  C   UNL     1      16.788  -5.811  27.713  1.00  0.00     0.048 C 
ATOM     31  O   UNL     1      15.589  -5.377  27.652  1.00  0.00    -0.550 OA
ATOM     32  O   UNL     1      15.564  -5.207  27.504  1.00  0.00    -0.550 OA
ENDBRANCH   1  30
BRANCH  27  33
ATOM     33  O   UNL     1      14.832  -8.842  23.332  1.00  0.00    -0.393 OA
ATOM     34  H   UNL     1      14.359  -8.300  24.016  1.00  0.00     0.210 HD
ENDBRANCH  27  33
TORSDOF 2
ENDMDL
MODEL 7
REMARK VINA RESULT:    -4.766      2.635      6.841
REMARK INTER + INTRA:          -5.215
REMARK INTER:                  -5.180
REMARK INTRA:                  -0.035
REMARK UNBOUND:                -0.031
REMARK SMILES C[C@@H]1[C@H](C)CC[C@@]2(C(=O)[O-])CC[C@@]3(C)C(=CC[C@@H]4[C@@]5(C)CC[C@@H](O)C(C)(C)[C@H]5CC[C@]43C)[C@@H]12
REMARK SMILES IDX 7 1 6 2 11 3 33 4 5 5 12 6 15 7 2 8 3 9 13 10 16 11 1 12
REMARK SMILES IDX 4 13 14 14 31 15 17 16 18 17 30 18 32 19 19 20 29 21 28 22
REMARK SMILES IDX 21 23 20 24 25 25 22 26 23 27 26 28 27 29 8 30 9 31 10 32
REMARK SMILES IDX 24 33
REMARK H PARENT 24 34
REMARK Flexibility Score: inf
ROOT
ATOM      1  C   UNL     1      16.691  -4.565  29.340  1.00  0.00     0.017 C 
ATOM      2  C   UNL     1      17.009  -3.083  29.668  1.00  0.00     0.014 C 
ATOM      3  C   UNL     1      15.633  -4.649  28.224  1.00  0.00     0.014 C 
ATOM      4  C   UNL     1      17.966  -5.353  28.900  1.00  0.00     0.030 C 
ATOM      5  C   UNL     1      17.896  -2.376  28.631  1.00  0.00     0.004 C 
ATOM      6  C   UNL     1      15.219  -6.098  27.907  1.00  0.00     0.013 C 
ATOM      7  C   UNL     1      17.612  -6.774  28.425  1.00  0.00    -0.063 C 
ATOM      8  C   UNL     1      18.881  -4.583  27.897  1.00  0.00    -0.003 C 
ATOM      9  C   UNL     1      19.207  -3.143  28.381  1.00  0.00    -0.011 C 
ATOM     10  C   UNL     1      16.381  -7.070  27.494  1.00  0.00    -0.006 C 
ATOM     11  C   UNL     1      18.379  -7.767  28.938  1.00  0.00    -0.027 C 
ATOM     12  C   UNL     1      20.164  -5.365  27.578  1.00  0.00     0.008 C 
ATOM     13  C   UNL     1      20.140  -3.086  29.613  1.00  0.00     0.008 C 
ATOM     14  C   UNL     1      16.784  -6.658  26.046  1.00  0.00     0.017 C 
ATOM     15  C   UNL     1      15.905  -8.653  27.542  1.00  0.00    -0.020 C 
ATOM     16  C   UNL     1      17.980  -9.197  28.919  1.00  0.00     0.032 C 
ATOM     17  C   UNL     1      16.439  -9.294  28.879  1.00  0.00     0.006 C 
ATOM     18  C   UNL     1      14.332  -8.864  27.466  1.00  0.00     0.008 C 
ATOM     19  C   UNL     1      16.484  -9.450  26.325  1.00  0.00     0.012 C 
ATOM     20  C   UNL     1      15.841 -10.691  29.397  1.00  0.00    -0.025 C 
ATOM     21  C   UNL     1      13.691  -9.369  28.767  1.00  0.00     0.005 C 
ATOM     22  C   UNL     1      14.268 -10.771  29.115  1.00  0.00     0.003 C 
ATOM     23  C   UNL     1      16.183 -10.753  30.936  1.00  0.00     0.010 C 
ATOM     24  C   UNL     1      16.557 -11.909  28.721  1.00  0.00     0.012 C 
ATOM     25  C   UNL     1      13.393 -11.617  30.144  1.00  0.00    -0.006 C 
ATOM     26  C   UNL     1      15.346 -11.724  31.759  1.00  0.00     0.033 C 
ATOM     27  C   UNL     1      13.863 -11.411  31.608  1.00  0.00     0.120 C 
ATOM     28  C   UNL     1      13.462 -13.125  29.772  1.00  0.00     0.014 C 
ATOM     29  C   UNL     1      11.875 -11.261  30.087  1.00  0.00     0.014 C 
ENDROOT
BRANCH   1  30
ATOM     30  C   UNL     1      16.065  -5.159  30.591  1.00  0.00     0.048 C 
ATOM     31  O   UNL     1      16.809  -5.550  31.552  1.00  0.00    -0.550 OA
ATOM     32  O   UNL     1      16.731  -5.487  31.755  1.00  0.00    -0.550 OA
ENDBRANCH   1  30
BRANCH  27  33
ATOM     33  O   UNL     1      13.625 -10.081  32.019  1.00  0.00    -0.393 OA
ATOM     34  H   UNL     1      12.642  -9.951  32.061  1.00  0.00     0.210 HD
ENDBRANCH  27  33
TORSDOF 2
ENDMDL
MODEL 8
REMARK VINA RESULT:    -4.592      1.989      7.358
REMARK INTER + INTRA:          -5.026
REMARK INTER:                  -4.992
REMARK INTRA:                  -0.034
REMARK UNBOUND:                -0.031
REMARK SMILES C[C@@H]1[C@H](C)CC[C@@]2(C(=O)[O-])CC[C@@]3(C)C(=CC[C@@H]4[C@@]5(C)CC[C@@H](O)C(C)(C)[C@H]5CC[C@]43C)[C@@H]12
REMARK SMILES IDX 7 1 6 2 11 3 33 4 5 5 12 6 15 7 2 8 3 9 13 10 16 11 1 12
REMARK SMILES IDX 4 13 14 14 31 15 17 16 18 17 30 18 32 19 19 20 29 21 28 22
REMARK SMILES IDX 21 23 20 24 25 25 22 26 23 27 26 28 27 29 8 30 9 31 10 32
REMARK SMILES IDX 24 33
REMARK H PARENT 24 34
REMARK Flexibility Score: inf
ROOT
ATOM      1  C   UNL     1      18.089  -5.563  30.116  1.00  0.00     0.017 C 
ATOM      2  C   UNL     1      19.003  -4.582  30.895  1.00  0.00     0.014 C 
ATOM      3  C   UNL     1      17.255  -6.407  31.098  1.00  0.00     0.014 C 
ATOM      4  C   UNL     1      17.128  -4.816  29.137  1.00  0.00     0.030 C 
ATOM      5  C   UNL     1      18.276  -3.364  31.485  1.00  0.00     0.004 C 
ATOM      6  C   UNL     1      16.381  -7.456  30.386  1.00  0.00     0.013 C 
ATOM      7  C   UNL     1      16.119  -5.784  28.492  1.00  0.00    -0.063 C 
ATOM      8  C   UNL     1      16.454  -3.546  29.745  1.00  0.00    -0.003 C 
ATOM      9  C   UNL     1      17.484  -2.594  30.413  1.00  0.00    -0.011 C 
ATOM     10  C   UNL     1      15.378  -6.901  29.313  1.00  0.00    -0.006 C 
ATOM     11  C   UNL     1      15.980  -5.669  27.149  1.00  0.00    -0.027 C 
ATOM     12  C   UNL     1      15.601  -2.801  28.709  1.00  0.00     0.008 C 
ATOM     13  C   UNL     1      18.428  -1.882  29.415  1.00  0.00     0.008 C 
ATOM     14  C   UNL     1      14.237  -6.207  30.118  1.00  0.00     0.017 C 
ATOM     15  C   UNL     1      14.772  -8.105  28.357  1.00  0.00    -0.020 C 
ATOM     16  C   UNL     1      15.372  -6.725  26.300  1.00  0.00     0.032 C 
ATOM     17  C   UNL     1      15.551  -8.096  26.987  1.00  0.00     0.006 C 
ATOM     18  C   UNL     1      14.872  -9.558  28.993  1.00  0.00     0.008 C 
ATOM     19  C   UNL     1      13.246  -7.886  28.078  1.00  0.00     0.012 C 
ATOM     20  C   UNL     1      15.460  -9.358  26.000  1.00  0.00    -0.025 C 
ATOM     21  C   UNL     1      15.881 -10.489  28.306  1.00  0.00     0.005 C 
ATOM     22  C   UNL     1      15.442 -10.725  26.833  1.00  0.00     0.003 C 
ATOM     23  C   UNL     1      16.716  -9.246  25.051  1.00  0.00     0.010 C 
ATOM     24  C   UNL     1      14.190  -9.284  25.088  1.00  0.00     0.012 C 
ATOM     25  C   UNL     1      16.097 -12.002  26.137  1.00  0.00    -0.006 C 
ATOM     26  C   UNL     1      17.127 -10.531  24.345  1.00  0.00     0.033 C 
ATOM     27  C   UNL     1      17.388 -11.637  25.360  1.00  0.00     0.120 C 
ATOM     28  C   UNL     1      15.067 -12.658  25.175  1.00  0.00     0.014 C 
ATOM     29  C   UNL     1      16.466 -13.125  27.154  1.00  0.00     0.014 C 
ENDROOT
BRANCH   1  30
ATOM     30  C   UNL     1      19.010  -6.521  29.380  1.00  0.00     0.048 C 
ATOM     31  O   UNL     1      19.538  -6.172  28.271  1.00  0.00    -0.550 OA
ATOM     32  O   UNL     1      19.757  -6.227  28.256  1.00  0.00    -0.550 OA
ENDBRANCH   1  30
BRANCH  27  33
ATOM     33  O   UNL     1      18.399 -11.218  26.253  1.00  0.00    -0.393 OA
ATOM     34  H   UNL     1      19.265 -11.268  25.769  1.00  0.00     0.210 HD
ENDBRANCH  27  33
TORSDOF 2
ENDMDL
MODEL 9
REMARK VINA RESULT:    -4.542     11.609     13.791
REMARK INTER + INTRA:          -4.971
REMARK INTER:                  -4.946
REMARK INTRA:                  -0.025
REMARK UNBOUND:                -0.031
REMARK SMILES C[C@@H]1[C@H](C)CC[C@@]2(C(=O)[O-])CC[C@@]3(C)C(=CC[C@@H]4[C@@]5(C)CC[C@@H](O)C(C)(C)[C@H]5CC[C@]43C)[C@@H]12
REMARK SMILES IDX 7 1 6 2 11 3 33 4 5 5 12 6 15 7 2 8 3 9 13 10 16 11 1 12
REMARK SMILES IDX 4 13 14 14 31 15 17 16 18 17 30 18 32 19 19 20 29 21 28 22
REMARK SMILES IDX 21 23 20 24 25 25 22 26 23 27 26 28 27 29 8 30 9 31 10 32
REMARK SMILES IDX 24 33
REMARK H PARENT 24 34
REMARK Flexibility Score: inf
ROOT
ATOM      1  C   UNL     1      22.654   4.330  25.218  1.00  0.00     0.017 C 
ATOM      2  C   UNL     1      22.999   4.241  23.708  1.00  0.00     0.014 C 
ATOM      3  C   UNL     1      22.784   2.943  25.876  1.00  0.00     0.014 C 
ATOM      4  C   UNL     1      23.575   5.343  25.970  1.00  0.00     0.030 C 
ATOM      5  C   UNL     1      24.500   4.121  23.402  1.00  0.00     0.004 C 
ATOM      6  C   UNL     1      22.379   2.951  27.361  1.00  0.00     0.013 C 
ATOM      7  C   UNL     1      23.331   5.302  27.489  1.00  0.00    -0.063 C 
ATOM      8  C   UNL     1      25.086   5.241  25.590  1.00  0.00    -0.003 C 
ATOM      9  C   UNL     1      25.310   5.257  24.052  1.00  0.00    -0.011 C 
ATOM     10  C   UNL     1      23.161   3.956  28.281  1.00  0.00    -0.006 C 
ATOM     11  C   UNL     1      23.181   6.510  28.086  1.00  0.00    -0.027 C 
ATOM     12  C   UNL     1      25.924   6.323  26.284  1.00  0.00     0.008 C 
ATOM     13  C   UNL     1      25.010   6.620  23.384  1.00  0.00     0.008 C 
ATOM     14  C   UNL     1      24.582   3.343  28.466  1.00  0.00     0.017 C 
ATOM     15  C   UNL     1      22.415   4.159  29.742  1.00  0.00    -0.020 C 
ATOM     16  C   UNL     1      22.572   6.684  29.430  1.00  0.00     0.032 C 
ATOM     17  C   UNL     1      21.607   5.512  29.706  1.00  0.00     0.006 C 
ATOM     18  C   UNL     1      21.426   2.981  30.141  1.00  0.00     0.008 C 
ATOM     19  C   UNL     1      23.464   4.222  30.904  1.00  0.00     0.012 C 
ATOM     20  C   UNL     1      20.489   5.811  30.818  1.00  0.00    -0.025 C 
ATOM     21  C   UNL     1      19.938   3.364  30.127  1.00  0.00     0.005 C 
ATOM     22  C   UNL     1      19.684   4.477  31.183  1.00  0.00     0.003 C 
ATOM     23  C   UNL     1      19.561   6.926  30.196  1.00  0.00     0.010 C 
ATOM     24  C   UNL     1      21.118   6.415  32.119  1.00  0.00     0.012 C 
ATOM     25  C   UNL     1      18.159   4.650  31.617  1.00  0.00    -0.006 C 
ATOM     26  C   UNL     1      18.179   7.060  30.823  1.00  0.00     0.033 C 
ATOM     27  C   UNL     1      17.437   5.730  30.769  1.00  0.00     0.120 C 
ATOM     28  C   UNL     1      18.084   5.021  33.124  1.00  0.00     0.014 C 
ATOM     29  C   UNL     1      17.338   3.331  31.488  1.00  0.00     0.014 C 
ENDROOT
BRANCH   1  30
ATOM     30  C   UNL     1      21.190   4.726  25.304  1.00  0.00     0.048 C 
ATOM     31  O   UNL     1      20.836   5.920  25.018  1.00  0.00    -0.550 OA
ATOM     32  O   UNL     1      20.649   5.928  24.890  1.00  0.00    -0.550 OA
ENDBRANCH   1  30
BRANCH  27  33
ATOM     33  O   UNL     1      17.331   5.312  29.425  1.00  0.00    -0.393 OA
ATOM     34  H   UNL     1      16.832   4.454  29.416  1.00  0.00     0.210 HD
ENDBRANCH  27  33
TORSDOF 2
ENDMDL
