MODEL 1
REMARK VINA RESULT:    -3.201      0.000      0.000
REMARK INTER + INTRA:          -3.880
REMARK INTER:                  -3.762
REMARK INTRA:                  -0.118
REMARK UNBOUND:                -0.118
REMARK SMILES O=C([O-])CCC(=O)[O-]
REMARK SMILES IDX 4 1 2 2 1 3 3 4 5 5 6 6 7 7 8 8
REMARK H PARENT
REMARK Flexibility Score: inf
ROOT
ATOM      1  C   UNL     1     -27.872  61.780  32.746  1.00  0.00     0.059 C 
ENDROOT
BRANCH   1   2
ATOM      2  C   UNL     1     -27.877  61.595  34.232  1.00  0.00     0.042 C 
ATOM      3  O   UNL     1     -27.991  60.443  34.728  1.00  0.00    -0.550 OA
ATOM      4  O   UNL     1     -27.794  62.699  35.071  1.00  0.00    -0.550 OA
ENDBRANCH   1   2
BRANCH   1   5
ATOM      5  C   UNL     1     -26.454  61.690  32.171  1.00  0.00     0.059 C 
BRANCH   5   6
ATOM      6  C   UNL     1     -26.277  60.460  31.334  1.00  0.00     0.042 C 
ATOM      7  O   UNL     1     -26.394  59.318  31.851  1.00  0.00    -0.550 OA
ATOM      8  O   UNL     1     -25.941  60.575  29.991  1.00  0.00    -0.550 OA
ENDBRANCH   5   6
ENDBRANCH   1   5
TORSDOF 3
ENDMDL
MODEL 2
REMARK VINA RESULT:    -3.194      2.810      5.181
REMARK INTER + INTRA:          -3.873
REMARK INTER:                  -3.751
REMARK INTRA:                  -0.122
REMARK UNBOUND:                -0.118
REMARK SMILES O=C([O-])CCC(=O)[O-]
REMARK SMILES IDX 4 1 2 2 1 3 3 4 5 5 6 6 7 7 8 8
REMARK H PARENT
REMARK Flexibility Score: inf
ROOT
ATOM      1  C   UNL     1     -24.409  62.606  29.739  1.00  0.00     0.059 C 
ENDROOT
BRANCH   1   2
ATOM      2  C   UNL     1     -23.690  61.697  28.791  1.00  0.00     0.042 C 
ATOM      3  O   UNL     1     -24.329  60.839  28.126  1.00  0.00    -0.550 OA
ATOM      4  O   UNL     1     -22.309  61.771  28.670  1.00  0.00    -0.550 OA
ENDBRANCH   1   2
BRANCH   1   5
ATOM      5  C   UNL     1     -24.504  61.996  31.142  1.00  0.00     0.059 C 
BRANCH   5   6
ATOM      6  C   UNL     1     -25.885  61.492  31.432  1.00  0.00     0.042 C 
ATOM      7  O   UNL     1     -26.296  60.428  30.901  1.00  0.00    -0.550 OA
ATOM      8  O   UNL     1     -26.731  62.220  32.258  1.00  0.00    -0.550 OA
ENDBRANCH   5   6
ENDBRANCH   1   5
TORSDOF 3
ENDMDL
MODEL 3
REMARK VINA RESULT:    -3.191      2.815      3.799
REMARK INTER + INTRA:          -3.869
REMARK INTER:                  -3.748
REMARK INTRA:                  -0.121
REMARK UNBOUND:                -0.118
REMARK SMILES O=C([O-])CCC(=O)[O-]
REMARK SMILES IDX 4 1 2 2 1 3 3 4 5 5 6 6 7 7 8 8
REMARK H PARENT
REMARK Flexibility Score: inf
ROOT
ATOM      1  C   UNL     1     -24.489  62.009  31.126  1.00  0.00     0.059 C 
ENDROOT
BRANCH   1   2
ATOM      2  C   UNL     1     -25.866  61.505  31.429  1.00  0.00     0.042 C 
ATOM      3  O   UNL     1     -26.287  60.447  30.892  1.00  0.00    -0.550 OA
ATOM      4  O   UNL     1     -26.700  62.225  32.275  1.00  0.00    -0.550 OA
ENDBRANCH   1   2
BRANCH   1   5
ATOM      5  C   UNL     1     -24.403  62.603  29.716  1.00  0.00     0.059 C 
BRANCH   5   6
ATOM      6  C   UNL     1     -23.692  61.681  28.773  1.00  0.00     0.042 C 
ATOM      7  O   UNL     1     -24.339  60.822  28.117  1.00  0.00    -0.550 OA
ATOM      8  O   UNL     1     -22.311  61.744  28.648  1.00  0.00    -0.550 OA
ENDBRANCH   5   6
ENDBRANCH   1   5
TORSDOF 3
ENDMDL
MODEL 4
REMARK VINA RESULT:    -3.191     22.459     24.479
REMARK INTER + INTRA:          -3.869
REMARK INTER:                  -3.765
REMARK INTRA:                  -0.103
REMARK UNBOUND:                -0.118
REMARK SMILES O=C([O-])CCC(=O)[O-]
REMARK SMILES IDX 4 1 2 2 1 3 3 4 5 5 6 6 7 7 8 8
REMARK H PARENT
REMARK Flexibility Score: inf
ROOT
ATOM      1  C   UNL     1     -12.782  44.692  21.228  1.00  0.00     0.059 C 
ENDROOT
BRANCH   1   2
ATOM      2  C   UNL     1     -11.309  44.429  21.284  1.00  0.00     0.042 C 
ATOM      3  O   UNL     1     -10.508  45.359  21.564  1.00  0.00    -0.550 OA
ATOM      4  O   UNL     1     -10.818  43.164  20.988  1.00  0.00    -0.550 OA
ENDBRANCH   1   2
BRANCH   1   5
ATOM      5  C   UNL     1     -13.493  44.193  22.491  1.00  0.00     0.059 C 
BRANCH   5   6
ATOM      6  C   UNL     1     -13.700  45.299  23.481  1.00  0.00     0.042 C 
ATOM      7  O   UNL     1     -14.853  45.767  23.677  1.00  0.00    -0.550 OA
ATOM      8  O   UNL     1     -12.614  45.840  24.155  1.00  0.00    -0.550 OA
ENDBRANCH   5   6
ENDBRANCH   1   5
TORSDOF 3
ENDMDL
MODEL 5
REMARK VINA RESULT:    -3.187      2.893      3.891
REMARK INTER + INTRA:          -3.865
REMARK INTER:                  -3.752
REMARK INTRA:                  -0.113
REMARK UNBOUND:                -0.118
REMARK SMILES O=C([O-])CCC(=O)[O-]
REMARK SMILES IDX 4 1 2 2 1 3 3 4 5 5 6 6 7 7 8 8
REMARK H PARENT
REMARK Flexibility Score: inf
ROOT
ATOM      1  C   UNL     1     -25.037  62.754  30.442  1.00  0.00     0.059 C 
ENDROOT
BRANCH   1   2
ATOM      2  C   UNL     1     -25.581  61.915  31.556  1.00  0.00     0.042 C 
ATOM      3  O   UNL     1     -24.997  60.851  31.893  1.00  0.00    -0.550 OA
ATOM      4  O   UNL     1     -26.756  62.287  32.197  1.00  0.00    -0.550 OA
ENDBRANCH   1   2
BRANCH   1   5
ATOM      5  C   UNL     1     -23.668  62.250  29.972  1.00  0.00     0.059 C 
BRANCH   5   6
ATOM      6  C   UNL     1     -23.753  61.596  28.627  1.00  0.00     0.042 C 
ATOM      7  O   UNL     1     -22.918  61.881  27.729  1.00  0.00    -0.550 OA
ATOM      8  O   UNL     1     -24.780  60.702  28.352  1.00  0.00    -0.550 OA
ENDBRANCH   5   6
ENDBRANCH   1   5
TORSDOF 3
ENDMDL
MODEL 6
REMARK VINA RESULT:    -3.087     21.087     23.119
REMARK INTER + INTRA:          -3.747
REMARK INTER:                  -3.694
REMARK INTRA:                  -0.053
REMARK UNBOUND:                -0.118
REMARK SMILES O=C([O-])CCC(=O)[O-]
REMARK SMILES IDX 4 1 2 2 1 3 3 4 5 5 6 6 7 7 8 8
REMARK H PARENT
REMARK Flexibility Score: inf
ROOT
ATOM      1  C   UNL     1     -13.369  44.923  22.965  1.00  0.00     0.059 C 
ENDROOT
BRANCH   1   2
ATOM      2  C   UNL     1     -12.445  44.894  21.787  1.00  0.00     0.042 C 
ATOM      3  O   UNL     1     -12.865  44.525  20.659  1.00  0.00    -0.550 OA
ATOM      4  O   UNL     1     -11.108  45.237  21.945  1.00  0.00    -0.550 OA
ENDBRANCH   1   2
BRANCH   1   5
ATOM      5  C   UNL     1     -12.826  45.814  24.087  1.00  0.00     0.059 C 
BRANCH   5   6
ATOM      6  C   UNL     1     -13.772  46.930  24.411  1.00  0.00     0.042 C 
ATOM      7  O   UNL     1     -13.340  48.002  24.911  1.00  0.00    -0.550 OA
ATOM      8  O   UNL     1     -15.134  46.771  24.198  1.00  0.00    -0.550 OA
ENDBRANCH   5   6
ENDBRANCH   1   5
TORSDOF 3
ENDMDL
MODEL 7
REMARK VINA RESULT:    -3.078     21.122     22.850
REMARK INTER + INTRA:          -3.737
REMARK INTER:                  -3.683
REMARK INTRA:                  -0.054
REMARK UNBOUND:                -0.118
REMARK SMILES O=C([O-])CCC(=O)[O-]
REMARK SMILES IDX 4 1 2 2 1 3 3 4 5 5 6 6 7 7 8 8
REMARK H PARENT
REMARK Flexibility Score: inf
ROOT
ATOM      1  C   UNL     1     -12.805  45.829  24.018  1.00  0.00     0.059 C 
ENDROOT
BRANCH   1   2
ATOM      2  C   UNL     1     -13.806  46.872  24.408  1.00  0.00     0.042 C 
ATOM      3  O   UNL     1     -15.036  46.672  24.224  1.00  0.00    -0.550 OA
ATOM      4  O   UNL     1     -13.378  48.081  24.940  1.00  0.00    -0.550 OA
ENDBRANCH   1   2
BRANCH   1   5
ATOM      5  C   UNL     1     -13.351  44.904  22.924  1.00  0.00     0.059 C 
BRANCH   5   6
ATOM      6  C   UNL     1     -12.427  44.841  21.745  1.00  0.00     0.042 C 
ATOM      7  O   UNL     1     -11.214  45.154  21.873  1.00  0.00    -0.550 OA
ATOM      8  O   UNL     1     -12.916  44.474  20.499  1.00  0.00    -0.550 OA
ENDBRANCH   5   6
ENDBRANCH   1   5
TORSDOF 3
ENDMDL
MODEL 8
REMARK VINA RESULT:    -3.073      1.389      3.758
REMARK INTER + INTRA:          -3.731
REMARK INTER:                  -3.623
REMARK INTRA:                  -0.107
REMARK UNBOUND:                -0.118
REMARK SMILES O=C([O-])CCC(=O)[O-]
REMARK SMILES IDX 4 1 2 2 1 3 3 4 5 5 6 6 7 7 8 8
REMARK H PARENT
REMARK Flexibility Score: inf
ROOT
ATOM      1  C   UNL     1     -27.457  60.886  32.278  1.00  0.00     0.059 C 
ENDROOT
BRANCH   1   2
ATOM      2  C   UNL     1     -26.273  60.862  31.361  1.00  0.00     0.042 C 
ATOM      3  O   UNL     1     -26.022  59.836  30.675  1.00  0.00    -0.550 OA
ATOM      4  O   UNL     1     -25.424  61.959  31.292  1.00  0.00    -0.550 OA
ENDBRANCH   1   2
BRANCH   1   5
ATOM      5  C   UNL     1     -27.326  61.985  33.338  1.00  0.00     0.059 C 
BRANCH   5   6
ATOM      6  C   UNL     1     -26.935  61.423  34.670  1.00  0.00     0.042 C 
ATOM      7  O   UNL     1     -27.732  61.482  35.643  1.00  0.00    -0.550 OA
ATOM      8  O   UNL     1     -25.674  60.870  34.848  1.00  0.00    -0.550 OA
ENDBRANCH   5   6
ENDBRANCH   1   5
TORSDOF 3
ENDMDL
MODEL 9
REMARK VINA RESULT:    -2.953      1.808      2.051
REMARK INTER + INTRA:          -3.590
REMARK INTER:                  -3.477
REMARK INTRA:                  -0.113
REMARK UNBOUND:                -0.118
REMARK SMILES O=C([O-])CCC(=O)[O-]
REMARK SMILES IDX 4 1 2 2 1 3 3 4 5 5 6 6 7 7 8 8
REMARK H PARENT
REMARK Flexibility Score: inf
ROOT
ATOM      1  C   UNL     1     -24.891  60.891  32.836  1.00  0.00     0.059 C 
ENDROOT
BRANCH   1   2
ATOM      2  C   UNL     1     -25.543  60.572  34.146  1.00  0.00     0.042 C 
ATOM      3  O   UNL     1     -26.694  60.063  34.175  1.00  0.00    -0.550 OA
ATOM      4  O   UNL     1     -24.895  60.875  35.337  1.00  0.00    -0.550 OA
ENDBRANCH   1   2
BRANCH   1   5
ATOM      5  C   UNL     1     -25.924  61.270  31.769  1.00  0.00     0.059 C 
BRANCH   5   6
ATOM      6  C   UNL     1     -25.847  60.360  30.580  1.00  0.00     0.042 C 
ATOM      7  O   UNL     1     -25.969  59.116  30.725  1.00  0.00    -0.550 OA
ATOM      8  O   UNL     1     -25.599  60.885  29.319  1.00  0.00    -0.550 OA
ENDBRANCH   5   6
ENDBRANCH   1   5
TORSDOF 3
ENDMDL
