MODEL 1
REMARK VINA RESULT:    -1.811      0.000      0.000
REMARK INTER + INTRA:          -5.150
REMARK INTER:                  -3.928
REMARK INTRA:                  -1.222
REMARK UNBOUND:                -1.222
REMARK SMILES CCCCCCCCCCCCCCCCCCCCCC(=O)[O-]
REMARK SMILES IDX 12 1 11 2 10 3 9 4 8 5 7 6 6 7 5 8 4 9 3 10 2 11 1 12 13 13
REMARK SMILES IDX 14 14 15 15 16 16 17 17 18 18 19 19 20 20 21 21 22 22 23 23
REMARK SMILES IDX 24 24
REMARK H PARENT
REMARK Flexibility Score: inf
ROOT
ATOM      1  C   UNL     1      23.726   1.273  -2.343  1.00  0.00     0.000 C 
ENDROOT
BRANCH   1   2
ATOM      2  C   UNL     1      22.701   0.153  -2.622  1.00  0.00     0.000 C 
BRANCH   2   3
ATOM      3  C   UNL     1      23.318  -1.249  -2.489  1.00  0.00     0.000 C 
BRANCH   3   4
ATOM      4  C   UNL     1      24.546  -1.400  -3.395  1.00  0.00    -0.000 C 
BRANCH   4   5
ATOM      5  C   UNL     1      25.501  -2.472  -2.849  1.00  0.00    -0.000 C 
BRANCH   5   6
ATOM      6  C   UNL     1      25.726  -3.622  -3.844  1.00  0.00    -0.000 C 
BRANCH   6   7
ATOM      7  C   UNL     1      27.218  -3.874  -4.125  1.00  0.00    -0.000 C 
BRANCH   7   8
ATOM      8  C   UNL     1      27.600  -5.356  -3.979  1.00  0.00    -0.000 C 
BRANCH   8   9
ATOM      9  C   UNL     1      27.053  -5.981  -2.683  1.00  0.00    -0.000 C 
BRANCH   9  10
ATOM     10  C   UNL     1      27.957  -5.708  -1.471  1.00  0.00    -0.000 C 
BRANCH  10  11
ATOM     11  C   UNL     1      27.380  -4.635  -0.536  1.00  0.00    -0.003 C 
ATOM     12  C   UNL     1      28.380  -4.264   0.556  1.00  0.00     0.004 C 
ENDBRANCH  10  11
ENDBRANCH   9  10
ENDBRANCH   8   9
ENDBRANCH   7   8
ENDBRANCH   6   7
ENDBRANCH   5   6
ENDBRANCH   4   5
ENDBRANCH   3   4
ENDBRANCH   2   3
ENDBRANCH   1   2
BRANCH   1  13
ATOM     13  C   UNL     1      23.568   2.507  -3.254  1.00  0.00     0.000 C 
BRANCH  13  14
ATOM     14  C   UNL     1      23.924   3.854  -2.602  1.00  0.00     0.000 C 
BRANCH  14  15
ATOM     15  C   UNL     1      25.207   3.788  -1.756  1.00  0.00     0.000 C 
BRANCH  15  16
ATOM     16  C   UNL     1      25.766   5.180  -1.414  1.00  0.00     0.000 C 
BRANCH  16  17
ATOM     17  C   UNL     1      27.167   5.183  -0.770  1.00  0.00     0.000 C 
BRANCH  17  18
ATOM     18  C   UNL     1      27.845   6.563  -0.687  1.00  0.00     0.000 C 
BRANCH  18  19
ATOM     19  C   UNL     1      26.915   7.711  -1.110  1.00  0.00     0.000 C 
BRANCH  19  20
ATOM     20  C   UNL     1      27.464   9.063  -0.643  1.00  0.00     0.006 C 
BRANCH  20  21
ATOM     21  C   UNL     1      28.807   9.371  -1.313  1.00  0.00     0.053 C 
BRANCH  21  22
ATOM     22  C   UNL     1      28.610   9.691  -2.761  1.00  0.00     0.041 C 
ATOM     23  O   UNL     1      28.039  10.760  -3.100  1.00  0.00    -0.550 OA
ATOM     24  O   UNL     1      29.096   8.828  -3.736  1.00  0.00    -0.550 OA
ENDBRANCH  21  22
ENDBRANCH  20  21
ENDBRANCH  19  20
ENDBRANCH  18  19
ENDBRANCH  17  18
ENDBRANCH  16  17
ENDBRANCH  15  16
ENDBRANCH  14  15
ENDBRANCH  13  14
ENDBRANCH   1  13
TORSDOF 20
ENDMDL
MODEL 2
REMARK VINA RESULT:    -1.791      0.987      2.526
REMARK INTER + INTRA:          -5.107
REMARK INTER:                  -4.255
REMARK INTRA:                  -0.852
REMARK UNBOUND:                -1.222
REMARK SMILES CCCCCCCCCCCCCCCCCCCCCC(=O)[O-]
REMARK SMILES IDX 12 1 11 2 10 3 9 4 8 5 7 6 6 7 5 8 4 9 3 10 2 11 1 12 13 13
REMARK SMILES IDX 14 14 15 15 16 16 17 17 18 18 19 19 20 20 21 21 22 22 23 23
REMARK SMILES IDX 24 24
REMARK H PARENT
REMARK Flexibility Score: inf
ROOT
ATOM      1  C   UNL     1      24.626   3.971  -2.563  1.00  0.00     0.000 C 
ENDROOT
BRANCH   1   2
ATOM      2  C   UNL     1      23.393   3.044  -2.505  1.00  0.00     0.000 C 
BRANCH   2   3
ATOM      3  C   UNL     1      23.691   1.642  -3.060  1.00  0.00     0.000 C 
BRANCH   3   4
ATOM      4  C   UNL     1      22.900   0.569  -2.302  1.00  0.00    -0.000 C 
BRANCH   4   5
ATOM      5  C   UNL     1      23.104  -0.814  -2.939  1.00  0.00    -0.000 C 
BRANCH   5   6
ATOM      6  C   UNL     1      24.461  -1.437  -2.570  1.00  0.00    -0.000 C 
BRANCH   6   7
ATOM      7  C   UNL     1      25.081  -2.230  -3.734  1.00  0.00    -0.000 C 
BRANCH   7   8
ATOM      8  C   UNL     1      25.570  -3.621  -3.302  1.00  0.00    -0.000 C 
BRANCH   8   9
ATOM      9  C   UNL     1      27.057  -3.850  -3.625  1.00  0.00    -0.000 C 
BRANCH   9  10
ATOM     10  C   UNL     1      27.825  -4.473  -2.449  1.00  0.00    -0.000 C 
BRANCH  10  11
ATOM     11  C   UNL     1      27.106  -4.272  -1.105  1.00  0.00    -0.003 C 
ATOM     12  C   UNL     1      27.837  -4.999   0.021  1.00  0.00     0.004 C 
ENDBRANCH  10  11
ENDBRANCH   9  10
ENDBRANCH   8   9
ENDBRANCH   7   8
ENDBRANCH   6   7
ENDBRANCH   5   6
ENDBRANCH   4   5
ENDBRANCH   3   4
ENDBRANCH   2   3
ENDBRANCH   1   2
BRANCH   1  13
ATOM     13  C   UNL     1      25.727   3.613  -1.544  1.00  0.00     0.000 C 
BRANCH  13  14
ATOM     14  C   UNL     1      26.253   4.790  -0.705  1.00  0.00     0.000 C 
BRANCH  14  15
ATOM     15  C   UNL     1      26.259   6.120  -1.479  1.00  0.00     0.000 C 
BRANCH  15  16
ATOM     16  C   UNL     1      27.357   7.083  -0.997  1.00  0.00     0.000 C 
BRANCH  16  17
ATOM     17  C   UNL     1      26.899   8.538  -0.770  1.00  0.00     0.000 C 
BRANCH  17  18
ATOM     18  C   UNL     1      27.931   9.449  -0.082  1.00  0.00     0.000 C 
BRANCH  18  19
ATOM     19  C   UNL     1      29.125   9.788  -0.988  1.00  0.00     0.000 C 
BRANCH  19  20
ATOM     20  C   UNL     1      28.873  11.084  -1.766  1.00  0.00     0.006 C 
BRANCH  20  21
ATOM     21  C   UNL     1      29.051  10.864  -3.271  1.00  0.00     0.053 C 
BRANCH  21  22
ATOM     22  C   UNL     1      28.396   9.587  -3.696  1.00  0.00     0.041 C 
ATOM     23  O   UNL     1      27.196   9.588  -4.076  1.00  0.00    -0.550 OA
ATOM     24  O   UNL     1      29.125   8.404  -3.713  1.00  0.00    -0.550 OA
ENDBRANCH  21  22
ENDBRANCH  20  21
ENDBRANCH  19  20
ENDBRANCH  18  19
ENDBRANCH  17  18
ENDBRANCH  16  17
ENDBRANCH  15  16
ENDBRANCH  14  15
ENDBRANCH  13  14
ENDBRANCH   1  13
TORSDOF 20
ENDMDL
MODEL 3
REMARK VINA RESULT:    -1.658      0.952      1.886
REMARK INTER + INTRA:          -4.818
REMARK INTER:                  -4.334
REMARK INTRA:                  -0.484
REMARK UNBOUND:                -1.222
REMARK SMILES CCCCCCCCCCCCCCCCCCCCCC(=O)[O-]
REMARK SMILES IDX 12 1 11 2 10 3 9 4 8 5 7 6 6 7 5 8 4 9 3 10 2 11 1 12 13 13
REMARK SMILES IDX 14 14 15 15 16 16 17 17 18 18 19 19 20 20 21 21 22 22 23 23
REMARK SMILES IDX 24 24
REMARK H PARENT
REMARK Flexibility Score: inf
ROOT
ATOM      1  C   UNL     1      24.388   3.010  -2.017  1.00  0.00     0.000 C 
ENDROOT
BRANCH   1   2
ATOM      2  C   UNL     1      23.348   2.277  -2.890  1.00  0.00     0.000 C 
BRANCH   2   3
ATOM      3  C   UNL     1      23.730   0.810  -3.145  1.00  0.00     0.000 C 
BRANCH   3   4
ATOM      4  C   UNL     1      22.961  -0.132  -2.211  1.00  0.00    -0.000 C 
BRANCH   4   5
ATOM      5  C   UNL     1      23.537  -1.554  -2.271  1.00  0.00    -0.000 C 
BRANCH   5   6
ATOM      6  C   UNL     1      24.630  -1.702  -3.342  1.00  0.00    -0.000 C 
BRANCH   6   7
ATOM      7  C   UNL     1      25.784  -2.611  -2.886  1.00  0.00    -0.000 C 
BRANCH   7   8
ATOM      8  C   UNL     1      25.819  -3.944  -3.651  1.00  0.00    -0.000 C 
BRANCH   8   9
ATOM      9  C   UNL     1      26.259  -5.122  -2.764  1.00  0.00    -0.000 C 
BRANCH   9  10
ATOM     10  C   UNL     1      27.787  -5.225  -2.638  1.00  0.00    -0.000 C 
BRANCH  10  11
ATOM     11  C   UNL     1      28.252  -5.308  -1.176  1.00  0.00    -0.003 C 
ATOM     12  C   UNL     1      27.349  -4.480  -0.266  1.00  0.00     0.004 C 
ENDBRANCH  10  11
ENDBRANCH   9  10
ENDBRANCH   8   9
ENDBRANCH   7   8
ENDBRANCH   6   7
ENDBRANCH   5   6
ENDBRANCH   4   5
ENDBRANCH   3   4
ENDBRANCH   2   3
ENDBRANCH   1   2
BRANCH   1  13
ATOM     13  C   UNL     1      24.710   4.441  -2.496  1.00  0.00     0.000 C 
BRANCH  13  14
ATOM     14  C   UNL     1      25.756   5.194  -1.657  1.00  0.00     0.000 C 
BRANCH  14  15
ATOM     15  C   UNL     1      26.455   4.293  -0.624  1.00  0.00     0.000 C 
BRANCH  15  16
ATOM     16  C   UNL     1      27.987   4.315  -0.756  1.00  0.00     0.000 C 
BRANCH  16  17
ATOM     17  C   UNL     1      28.716   5.252   0.229  1.00  0.00     0.000 C 
BRANCH  17  18
ATOM     18  C   UNL     1      29.122   6.619  -0.350  1.00  0.00     0.000 C 
BRANCH  18  19
ATOM     19  C   UNL     1      27.958   7.342  -1.045  1.00  0.00     0.000 C 
BRANCH  19  20
ATOM     20  C   UNL     1      27.827   8.784  -0.541  1.00  0.00     0.006 C 
BRANCH  20  21
ATOM     21  C   UNL     1      28.229   9.784  -1.628  1.00  0.00     0.053 C 
BRANCH  21  22
ATOM     22  C   UNL     1      28.105   9.164  -2.985  1.00  0.00     0.041 C 
ATOM     23  O   UNL     1      29.123   8.708  -3.568  1.00  0.00    -0.550 OA
ATOM     24  O   UNL     1      26.856   9.052  -3.586  1.00  0.00    -0.550 OA
ENDBRANCH  21  22
ENDBRANCH  20  21
ENDBRANCH  19  20
ENDBRANCH  18  19
ENDBRANCH  17  18
ENDBRANCH  16  17
ENDBRANCH  15  16
ENDBRANCH  14  15
ENDBRANCH  13  14
ENDBRANCH   1  13
TORSDOF 20
ENDMDL
MODEL 4
REMARK VINA RESULT:    -1.593      4.350     11.809
REMARK INTER + INTRA:          -4.678
REMARK INTER:                  -3.638
REMARK INTRA:                  -1.040
REMARK UNBOUND:                -1.222
REMARK SMILES CCCCCCCCCCCCCCCCCCCCCC(=O)[O-]
REMARK SMILES IDX 12 1 11 2 10 3 9 4 8 5 7 6 6 7 5 8 4 9 3 10 2 11 1 12 13 13
REMARK SMILES IDX 14 14 15 15 16 16 17 17 18 18 19 19 20 20 21 21 22 22 23 23
REMARK SMILES IDX 24 24
REMARK H PARENT
REMARK Flexibility Score: inf
ROOT
ATOM      1  C   UNL     1      23.757   2.766  -2.366  1.00  0.00     0.000 C 
ENDROOT
BRANCH   1   2
ATOM      2  C   UNL     1      25.072   3.572  -2.303  1.00  0.00     0.000 C 
BRANCH   2   3
ATOM      3  C   UNL     1      25.204   4.371  -0.996  1.00  0.00     0.000 C 
BRANCH   3   4
ATOM      4  C   UNL     1      26.283   5.454  -1.118  1.00  0.00    -0.000 C 
BRANCH   4   5
ATOM      5  C   UNL     1      25.810   6.600  -2.025  1.00  0.00    -0.000 C 
BRANCH   5   6
ATOM      6  C   UNL     1      26.825   7.753  -2.095  1.00  0.00    -0.000 C 
BRANCH   6   7
ATOM      7  C   UNL     1      27.007   8.460  -0.741  1.00  0.00    -0.000 C 
BRANCH   7   8
ATOM      8  C   UNL     1      28.442   8.970  -0.534  1.00  0.00    -0.000 C 
BRANCH   8   9
ATOM      9  C   UNL     1      29.124   9.366  -1.855  1.00  0.00    -0.000 C 
BRANCH   9  10
ATOM     10  C   UNL     1      29.065  10.879  -2.116  1.00  0.00    -0.000 C 
BRANCH  10  11
ATOM     11  C   UNL     1      28.717  11.211  -3.575  1.00  0.00    -0.003 C 
ATOM     12  C   UNL     1      28.368  12.690  -3.733  1.00  0.00     0.004 C 
ENDBRANCH  10  11
ENDBRANCH   9  10
ENDBRANCH   8   9
ENDBRANCH   7   8
ENDBRANCH   6   7
ENDBRANCH   5   6
ENDBRANCH   4   5
ENDBRANCH   3   4
ENDBRANCH   2   3
ENDBRANCH   1   2
BRANCH   1  13
ATOM     13  C   UNL     1      23.927   1.335  -2.915  1.00  0.00     0.000 C 
BRANCH  13  14
ATOM     14  C   UNL     1      22.877   0.319  -2.433  1.00  0.00     0.000 C 
BRANCH  14  15
ATOM     15  C   UNL     1      23.361  -1.138  -2.540  1.00  0.00     0.000 C 
BRANCH  15  16
ATOM     16  C   UNL     1      24.703  -1.265  -3.281  1.00  0.00     0.000 C 
BRANCH  16  17
ATOM     17  C   UNL     1      25.609  -2.417  -2.800  1.00  0.00     0.000 C 
BRANCH  17  18
ATOM     18  C   UNL     1      25.685  -3.628  -3.747  1.00  0.00     0.000 C 
BRANCH  18  19
ATOM     19  C   UNL     1      27.129  -4.058  -4.052  1.00  0.00     0.000 C 
BRANCH  19  20
ATOM     20  C   UNL     1      27.385  -5.493  -3.581  1.00  0.00     0.006 C 
BRANCH  20  21
ATOM     21  C   UNL     1      28.384  -5.521  -2.421  1.00  0.00     0.053 C 
BRANCH  21  22
ATOM     22  C   UNL     1      27.704  -5.178  -1.133  1.00  0.00     0.041 C 
ATOM     23  O   UNL     1      26.498  -5.490  -0.952  1.00  0.00    -0.550 OA
ATOM     24  O   UNL     1      28.415  -4.551  -0.116  1.00  0.00    -0.550 OA
ENDBRANCH  21  22
ENDBRANCH  20  21
ENDBRANCH  19  20
ENDBRANCH  18  19
ENDBRANCH  17  18
ENDBRANCH  16  17
ENDBRANCH  15  16
ENDBRANCH  14  15
ENDBRANCH  13  14
ENDBRANCH   1  13
TORSDOF 20
ENDMDL
MODEL 5
REMARK VINA RESULT:    -1.556      4.325     10.781
REMARK INTER + INTRA:          -4.598
REMARK INTER:                  -3.533
REMARK INTRA:                  -1.065
REMARK UNBOUND:                -1.222
REMARK SMILES CCCCCCCCCCCCCCCCCCCCCC(=O)[O-]
REMARK SMILES IDX 12 1 11 2 10 3 9 4 8 5 7 6 6 7 5 8 4 9 3 10 2 11 1 12 13 13
REMARK SMILES IDX 14 14 15 15 16 16 17 17 18 18 19 19 20 20 21 21 22 22 23 23
REMARK SMILES IDX 24 24
REMARK H PARENT
REMARK Flexibility Score: inf
ROOT
ATOM      1  C   UNL     1      24.215   2.380  -2.308  1.00  0.00     0.000 C 
ENDROOT
BRANCH   1   2
ATOM      2  C   UNL     1      23.747   3.830  -2.556  1.00  0.00     0.000 C 
BRANCH   2   3
ATOM      3  C   UNL     1      24.884   4.849  -2.379  1.00  0.00     0.000 C 
BRANCH   3   4
ATOM      4  C   UNL     1      25.632   4.618  -1.061  1.00  0.00    -0.000 C 
BRANCH   4   5
ATOM      5  C   UNL     1      26.993   3.952  -1.313  1.00  0.00    -0.000 C 
BRANCH   5   6
ATOM      6  C   UNL     1      27.880   3.930  -0.057  1.00  0.00    -0.000 C 
BRANCH   6   7
ATOM      7  C   UNL     1      29.125   4.822  -0.199  1.00  0.00    -0.000 C 
BRANCH   7   8
ATOM      8  C   UNL     1      28.885   6.251   0.314  1.00  0.00    -0.000 C 
BRANCH   8   9
ATOM      9  C   UNL     1      29.049   7.310  -0.791  1.00  0.00    -0.000 C 
BRANCH   9  10
ATOM     10  C   UNL     1      27.793   8.178  -0.964  1.00  0.00    -0.000 C 
BRANCH  10  11
ATOM     11  C   UNL     1      27.489   8.485  -2.438  1.00  0.00    -0.003 C 
ATOM     12  C   UNL     1      28.432   9.555  -2.981  1.00  0.00     0.004 C 
ENDBRANCH  10  11
ENDBRANCH   9  10
ENDBRANCH   8   9
ENDBRANCH   7   8
ENDBRANCH   6   7
ENDBRANCH   5   6
ENDBRANCH   4   5
ENDBRANCH   3   4
ENDBRANCH   2   3
ENDBRANCH   1   2
BRANCH   1  13
ATOM     13  C   UNL     1      23.374   1.316  -3.043  1.00  0.00     0.000 C 
BRANCH  13  14
ATOM     14  C   UNL     1      22.933   0.120  -2.183  1.00  0.00     0.000 C 
BRANCH  14  15
ATOM     15  C   UNL     1      23.195  -1.235  -2.864  1.00  0.00     0.000 C 
BRANCH  15  16
ATOM     16  C   UNL     1      24.673  -1.432  -3.245  1.00  0.00     0.000 C 
BRANCH  16  17
ATOM     17  C   UNL     1      25.367  -2.635  -2.575  1.00  0.00     0.000 C 
BRANCH  17  18
ATOM     18  C   UNL     1      26.242  -3.489  -3.510  1.00  0.00     0.000 C 
BRANCH  18  19
ATOM     19  C   UNL     1      25.855  -4.976  -3.495  1.00  0.00     0.000 C 
BRANCH  19  20
ATOM     20  C   UNL     1      26.981  -5.831  -2.903  1.00  0.00     0.006 C 
BRANCH  20  21
ATOM     21  C   UNL     1      28.010  -4.958  -2.179  1.00  0.00     0.053 C 
BRANCH  21  22
ATOM     22  C   UNL     1      27.766  -4.974  -0.703  1.00  0.00     0.041 C 
ATOM     23  O   UNL     1      28.555  -4.375   0.075  1.00  0.00    -0.550 OA
ATOM     24  O   UNL     1      26.645  -5.614  -0.190  1.00  0.00    -0.550 OA
ENDBRANCH  21  22
ENDBRANCH  20  21
ENDBRANCH  19  20
ENDBRANCH  18  19
ENDBRANCH  17  18
ENDBRANCH  16  17
ENDBRANCH  15  16
ENDBRANCH  14  15
ENDBRANCH  13  14
ENDBRANCH   1  13
TORSDOF 20
ENDMDL
MODEL 6
REMARK VINA RESULT:    -1.474      1.234      2.436
REMARK INTER + INTRA:          -4.419
REMARK INTER:                  -3.305
REMARK INTRA:                  -1.115
REMARK UNBOUND:                -1.222
REMARK SMILES CCCCCCCCCCCCCCCCCCCCCC(=O)[O-]
REMARK SMILES IDX 12 1 11 2 10 3 9 4 8 5 7 6 6 7 5 8 4 9 3 10 2 11 1 12 13 13
REMARK SMILES IDX 14 14 15 15 16 16 17 17 18 18 19 19 20 20 21 21 22 22 23 23
REMARK SMILES IDX 24 24
REMARK H PARENT
REMARK Flexibility Score: inf
ROOT
ATOM      1  C   UNL     1      24.793   3.341  -2.622  1.00  0.00     0.000 C 
ENDROOT
BRANCH   1   2
ATOM      2  C   UNL     1      23.625   2.340  -2.742  1.00  0.00     0.000 C 
BRANCH   2   3
ATOM      3  C   UNL     1      24.112   0.890  -2.893  1.00  0.00     0.000 C 
BRANCH   3   4
ATOM      4  C   UNL     1      23.035  -0.105  -2.443  1.00  0.00    -0.000 C 
BRANCH   4   5
ATOM      5  C   UNL     1      23.625  -1.514  -2.280  1.00  0.00    -0.000 C 
BRANCH   5   6
ATOM      6  C   UNL     1      24.959  -1.684  -3.025  1.00  0.00    -0.000 C 
BRANCH   6   7
ATOM      7  C   UNL     1      25.322  -3.161  -3.255  1.00  0.00    -0.000 C 
BRANCH   7   8
ATOM      8  C   UNL     1      26.804  -3.353  -3.612  1.00  0.00    -0.000 C 
BRANCH   8   9
ATOM      9  C   UNL     1      27.234  -4.830  -3.571  1.00  0.00    -0.000 C 
BRANCH   9  10
ATOM     10  C   UNL     1      26.744  -5.550  -2.306  1.00  0.00    -0.000 C 
BRANCH  10  11
ATOM     11  C   UNL     1      27.790  -5.542  -1.181  1.00  0.00    -0.003 C 
ATOM     12  C   UNL     1      27.527  -4.406  -0.195  1.00  0.00     0.004 C 
ENDBRANCH  10  11
ENDBRANCH   9  10
ENDBRANCH   8   9
ENDBRANCH   7   8
ENDBRANCH   6   7
ENDBRANCH   5   6
ENDBRANCH   4   5
ENDBRANCH   3   4
ENDBRANCH   2   3
ENDBRANCH   1   2
BRANCH   1  13
ATOM     13  C   UNL     1      24.350   4.786  -2.311  1.00  0.00     0.000 C 
BRANCH  13  14
ATOM     14  C   UNL     1      25.493   5.804  -2.156  1.00  0.00     0.000 C 
BRANCH  14  15
ATOM     15  C   UNL     1      26.242   5.664  -0.819  1.00  0.00     0.000 C 
BRANCH  15  16
ATOM     16  C   UNL     1      27.575   6.430  -0.801  1.00  0.00     0.000 C 
BRANCH  16  17
ATOM     17  C   UNL     1      27.465   7.942  -1.087  1.00  0.00     0.000 C 
BRANCH  17  18
ATOM     18  C   UNL     1      28.262   8.436  -2.308  1.00  0.00     0.000 C 
BRANCH  18  19
ATOM     19  C   UNL     1      27.369   8.733  -3.522  1.00  0.00     0.000 C 
BRANCH  19  20
ATOM     20  C   UNL     1      27.297  10.239  -3.795  1.00  0.00     0.006 C 
BRANCH  20  21
ATOM     21  C   UNL     1      28.690  10.817  -4.060  1.00  0.00     0.053 C 
BRANCH  21  22
ATOM     22  C   UNL     1      28.966  11.966  -3.142  1.00  0.00     0.041 C 
ATOM     23  O   UNL     1      29.111  11.768  -1.907  1.00  0.00    -0.550 OA
ATOM     24  O   UNL     1      29.106  13.249  -3.657  1.00  0.00    -0.550 OA
ENDBRANCH  21  22
ENDBRANCH  20  21
ENDBRANCH  19  20
ENDBRANCH  18  19
ENDBRANCH  17  18
ENDBRANCH  16  17
ENDBRANCH  15  16
ENDBRANCH  14  15
ENDBRANCH  13  14
ENDBRANCH   1  13
TORSDOF 20
ENDMDL
MODEL 7
REMARK VINA RESULT:    -1.432      4.442     11.255
REMARK INTER + INTRA:          -4.329
REMARK INTER:                  -2.977
REMARK INTRA:                  -1.352
REMARK UNBOUND:                -1.222
REMARK SMILES CCCCCCCCCCCCCCCCCCCCCC(=O)[O-]
REMARK SMILES IDX 12 1 11 2 10 3 9 4 8 5 7 6 6 7 5 8 4 9 3 10 2 11 1 12 13 13
REMARK SMILES IDX 14 14 15 15 16 16 17 17 18 18 19 19 20 20 21 21 22 22 23 23
REMARK SMILES IDX 24 24
REMARK H PARENT
REMARK Flexibility Score: inf
ROOT
ATOM      1  C   UNL     1      25.627   4.254  -1.321  1.00  0.00     0.000 C 
ENDROOT
BRANCH   1   2
ATOM      2  C   UNL     1      26.720   3.203  -1.034  1.00  0.00     0.000 C 
BRANCH   2   3
ATOM      3  C   UNL     1      28.126   3.823  -0.977  1.00  0.00     0.000 C 
BRANCH   3   4
ATOM      4  C   UNL     1      28.369   4.518   0.368  1.00  0.00    -0.000 C 
BRANCH   4   5
ATOM      5  C   UNL     1      29.124   5.841   0.172  1.00  0.00    -0.000 C 
BRANCH   5   6
ATOM      6  C   UNL     1      28.559   6.676  -0.988  1.00  0.00    -0.000 C 
BRANCH   6   7
ATOM      7  C   UNL     1      27.316   7.486  -0.581  1.00  0.00    -0.000 C 
BRANCH   7   8
ATOM      8  C   UNL     1      27.620   8.983  -0.412  1.00  0.00    -0.000 C 
BRANCH   8   9
ATOM      9  C   UNL     1      28.972   9.383  -1.028  1.00  0.00    -0.000 C 
BRANCH   9  10
ATOM     10  C   UNL     1      28.946  10.793  -1.639  1.00  0.00    -0.000 C 
BRANCH  10  11
ATOM     11  C   UNL     1      28.993  10.770  -3.174  1.00  0.00    -0.003 C 
ATOM     12  C   UNL     1      27.757  10.082  -3.750  1.00  0.00     0.004 C 
ENDBRANCH  10  11
ENDBRANCH   9  10
ENDBRANCH   8   9
ENDBRANCH   7   8
ENDBRANCH   6   7
ENDBRANCH   5   6
ENDBRANCH   4   5
ENDBRANCH   3   4
ENDBRANCH   2   3
ENDBRANCH   1   2
BRANCH   1  13
ATOM     13  C   UNL     1      24.837   3.998  -2.620  1.00  0.00     0.000 C 
BRANCH  13  14
ATOM     14  C   UNL     1      23.600   3.096  -2.469  1.00  0.00     0.000 C 
BRANCH  14  15
ATOM     15  C   UNL     1      23.853   1.651  -2.931  1.00  0.00     0.000 C 
BRANCH  15  16
ATOM     16  C   UNL     1      22.661   0.720  -2.650  1.00  0.00     0.000 C 
BRANCH  16  17
ATOM     17  C   UNL     1      22.966  -0.788  -2.765  1.00  0.00     0.000 C 
BRANCH  17  18
ATOM     18  C   UNL     1      24.409  -1.191  -2.413  1.00  0.00     0.000 C 
BRANCH  18  19
ATOM     19  C   UNL     1      24.932  -2.351  -3.274  1.00  0.00     0.000 C 
BRANCH  19  20
ATOM     20  C   UNL     1      26.230  -2.923  -2.696  1.00  0.00     0.006 C 
BRANCH  20  21
ATOM     21  C   UNL     1      26.292  -4.442  -2.884  1.00  0.00     0.053 C 
BRANCH  21  22
ATOM     22  C   UNL     1      27.381  -5.031  -2.044  1.00  0.00     0.041 C 
ATOM     23  O   UNL     1      28.240  -5.791  -2.564  1.00  0.00    -0.550 OA
ATOM     24  O   UNL     1      27.472  -4.707  -0.696  1.00  0.00    -0.550 OA
ENDBRANCH  21  22
ENDBRANCH  20  21
ENDBRANCH  19  20
ENDBRANCH  18  19
ENDBRANCH  17  18
ENDBRANCH  16  17
ENDBRANCH  15  16
ENDBRANCH  14  15
ENDBRANCH  13  14
ENDBRANCH   1  13
TORSDOF 20
ENDMDL
MODEL 8
REMARK VINA RESULT:     0.568      1.449      3.917
REMARK INTER + INTRA:           0.011
REMARK INTER:                  -1.458
REMARK INTRA:                   1.469
REMARK UNBOUND:                -1.222
REMARK SMILES CCCCCCCCCCCCCCCCCCCCCC(=O)[O-]
REMARK SMILES IDX 12 1 11 2 10 3 9 4 8 5 7 6 6 7 5 8 4 9 3 10 2 11 1 12 13 13
REMARK SMILES IDX 14 14 15 15 16 16 17 17 18 18 19 19 20 20 21 21 22 22 23 23
REMARK SMILES IDX 24 24
REMARK H PARENT
REMARK Flexibility Score: inf
ROOT
ATOM      1  C   UNL     1      26.661   4.855  -1.059  1.00  0.00     0.000 C 
ENDROOT
BRANCH   1   2
ATOM      2  C   UNL     1      25.190   4.472  -0.788  1.00  0.00     0.000 C 
BRANCH   2   3
ATOM      3  C   UNL     1      24.521   3.824  -2.010  1.00  0.00     0.000 C 
BRANCH   3   4
ATOM      4  C   UNL     1      24.562   2.294  -1.917  1.00  0.00    -0.000 C 
BRANCH   4   5
ATOM      5  C   UNL     1      23.974   1.651  -3.181  1.00  0.00    -0.000 C 
BRANCH   5   6
ATOM      6  C   UNL     1      23.381   0.258  -2.913  1.00  0.00    -0.000 C 
BRANCH   6   7
ATOM      7  C   UNL     1      24.217  -0.870  -3.543  1.00  0.00    -0.000 C 
BRANCH   7   8
ATOM      8  C   UNL     1      24.597  -1.958  -2.526  1.00  0.00    -0.000 C 
BRANCH   8   9
ATOM      9  C   UNL     1      25.374  -3.120  -3.169  1.00  0.00    -0.000 C 
BRANCH   9  10
ATOM     10  C   UNL     1      26.652  -3.473  -2.393  1.00  0.00    -0.000 C 
BRANCH  10  11
ATOM     11  C   UNL     1      27.071  -4.939  -2.583  1.00  0.00    -0.003 C 
ATOM     12  C   UNL     1      27.988  -5.094  -3.794  1.00  0.00     0.004 C 
ENDBRANCH  10  11
ENDBRANCH   9  10
ENDBRANCH   8   9
ENDBRANCH   7   8
ENDBRANCH   6   7
ENDBRANCH   5   6
ENDBRANCH   4   5
ENDBRANCH   3   4
ENDBRANCH   2   3
ENDBRANCH   1   2
BRANCH   1  13
ATOM     13  C   UNL     1      27.686   3.917  -0.388  1.00  0.00     0.000 C 
BRANCH  13  14
ATOM     14  C   UNL     1      29.005   4.584   0.037  1.00  0.00     0.000 C 
BRANCH  14  15
ATOM     15  C   UNL     1      29.063   6.079  -0.324  1.00  0.00     0.000 C 
BRANCH  15  16
ATOM     16  C   UNL     1      27.682   6.659  -0.677  1.00  0.00     0.000 C 
BRANCH  16  17
ATOM     17  C   UNL     1      27.697   8.106  -1.210  1.00  0.00     0.000 C 
BRANCH  17  18
ATOM     18  C   UNL     1      26.598   8.436  -2.236  1.00  0.00     0.000 C 
BRANCH  18  19
ATOM     19  C   UNL     1      27.163   8.910  -3.584  1.00  0.00     0.000 C 
BRANCH  19  20
ATOM     20  C   UNL     1      28.681   9.102  -3.507  1.00  0.00     0.006 C 
BRANCH  20  21
ATOM     21  C   UNL     1      29.083  10.500  -3.984  1.00  0.00     0.053 C 
BRANCH  21  22
ATOM     22  C   UNL     1      28.913  11.500  -2.884  1.00  0.00     0.041 C 
ATOM     23  O   UNL     1      28.762  12.720  -3.155  1.00  0.00    -0.550 OA
ATOM     24  O   UNL     1      28.880  11.077  -1.560  1.00  0.00    -0.550 OA
ENDBRANCH  21  22
ENDBRANCH  20  21
ENDBRANCH  19  20
ENDBRANCH  18  19
ENDBRANCH  17  18
ENDBRANCH  16  17
ENDBRANCH  15  16
ENDBRANCH  14  15
ENDBRANCH  13  14
ENDBRANCH   1  13
TORSDOF 20
ENDMDL
MODEL 9
REMARK VINA RESULT:     0.941      4.698     11.441
REMARK INTER + INTRA:           0.819
REMARK INTER:                   0.898
REMARK INTRA:                  -0.079
REMARK UNBOUND:                -1.222
REMARK SMILES CCCCCCCCCCCCCCCCCCCCCC(=O)[O-]
REMARK SMILES IDX 12 1 11 2 10 3 9 4 8 5 7 6 6 7 5 8 4 9 3 10 2 11 1 12 13 13
REMARK SMILES IDX 14 14 15 15 16 16 17 17 18 18 19 19 20 20 21 21 22 22 23 23
REMARK SMILES IDX 24 24
REMARK H PARENT
REMARK Flexibility Score: inf
ROOT
ATOM      1  C   UNL     1      25.669   3.881  -2.012  1.00  0.00     0.000 C 
ENDROOT
BRANCH   1   2
ATOM      2  C   UNL     1      26.123   4.659  -0.759  1.00  0.00     0.000 C 
BRANCH   2   3
ATOM      3  C   UNL     1      26.835   5.974  -1.115  1.00  0.00     0.000 C 
BRANCH   3   4
ATOM      4  C   UNL     1      28.211   6.057  -0.444  1.00  0.00    -0.000 C 
BRANCH   4   5
ATOM      5  C   UNL     1      29.047   7.197  -1.044  1.00  0.00    -0.000 C 
BRANCH   5   6
ATOM      6  C   UNL     1      28.534   7.638  -2.425  1.00  0.00    -0.000 C 
BRANCH   6   7
ATOM      7  C   UNL     1      29.082   9.013  -2.846  1.00  0.00    -0.000 C 
BRANCH   7   8
ATOM      8  C   UNL     1      28.446  10.165  -2.052  1.00  0.00    -0.000 C 
BRANCH   8   9
ATOM      9  C   UNL     1      29.124  10.386  -0.687  1.00  0.00    -0.000 C 
BRANCH   9  10
ATOM     10  C   UNL     1      28.327   9.767   0.471  1.00  0.00    -0.000 C 
BRANCH  10  11
ATOM     11  C   UNL     1      26.942   9.268   0.033  1.00  0.00    -0.003 C 
ATOM     12  C   UNL     1      25.833   9.981   0.803  1.00  0.00     0.004 C 
ENDBRANCH  10  11
ENDBRANCH   9  10
ENDBRANCH   8   9
ENDBRANCH   7   8
ENDBRANCH   6   7
ENDBRANCH   5   6
ENDBRANCH   4   5
ENDBRANCH   3   4
ENDBRANCH   2   3
ENDBRANCH   1   2
BRANCH   1  13
ATOM     13  C   UNL     1      24.145   3.911  -2.249  1.00  0.00     0.000 C 
BRANCH  13  14
ATOM     14  C   UNL     1      23.588   2.747  -3.085  1.00  0.00     0.000 C 
BRANCH  14  15
ATOM     15  C   UNL     1      24.134   1.378  -2.643  1.00  0.00     0.000 C 
BRANCH  15  16
ATOM     16  C   UNL     1      23.021   0.391  -2.252  1.00  0.00     0.000 C 
BRANCH  16  17
ATOM     17  C   UNL     1      23.208  -1.048  -2.775  1.00  0.00     0.000 C 
BRANCH  17  18
ATOM     18  C   UNL     1      24.596  -1.353  -3.366  1.00  0.00     0.000 C 
BRANCH  18  19
ATOM     19  C   UNL     1      25.395  -2.360  -2.525  1.00  0.00     0.000 C 
BRANCH  19  20
ATOM     20  C   UNL     1      25.758  -3.599  -3.350  1.00  0.00     0.006 C 
BRANCH  20  21
ATOM     21  C   UNL     1      27.259  -3.893  -3.267  1.00  0.00     0.053 C 
BRANCH  21  22
ATOM     22  C   UNL     1      27.495  -5.289  -2.783  1.00  0.00     0.041 C 
ATOM     23  O   UNL     1      26.829  -5.746  -1.818  1.00  0.00    -0.550 OA
ATOM     24  O   UNL     1      28.422  -6.100  -3.427  1.00  0.00    -0.550 OA
ENDBRANCH  21  22
ENDBRANCH  20  21
ENDBRANCH  19  20
ENDBRANCH  18  19
ENDBRANCH  17  18
ENDBRANCH  16  17
ENDBRANCH  15  16
ENDBRANCH  14  15
ENDBRANCH  13  14
ENDBRANCH   1  13
TORSDOF 20
ENDMDL
