MODEL 1
REMARK VINA RESULT:    -6.523      0.000      0.000
REMARK INTER + INTRA:          -8.405
REMARK INTER:                  -8.048
REMARK INTRA:                  -0.357
REMARK UNBOUND:                -0.357
REMARK SMILES O=c1c(O)c(-c2cc(O)c(O)c(O)c2)oc2cc(O)cc(O)c12
REMARK SMILES IDX 5 1 3 2 2 3 1 4 23 5 21 6 20 7 18 8 17 9 16 10 15 11 6 12
REMARK SMILES IDX 7 13 8 14 14 15 10 16 12 17 9 18 11 20 13 22 4 24 22 26
REMARK SMILES IDX 19 28
REMARK H PARENT 9 19 11 21 13 23 4 25 22 27 19 29
REMARK Flexibility Score: inf
ROOT
ATOM      1  C   UNL     1      15.961 -10.462  24.646  1.00  0.00     0.180 A 
ATOM      2  C   UNL     1      16.827  -9.623  23.925  1.00  0.00     0.208 A 
ATOM      3  C   UNL     1      16.355  -8.376  23.484  1.00  0.00     0.238 A 
ATOM      4  O   UNL     1      17.118  -7.652  22.792  1.00  0.00    -0.285 OA
ATOM      5  C   UNL     1      15.030  -7.978  23.783  1.00  0.00     0.111 A 
ATOM      6  C   UNL     1      14.460  -6.720  23.419  1.00  0.00     0.134 A 
ATOM      7  C   UNL     1      13.099  -6.486  23.653  1.00  0.00     0.093 A 
ATOM      8  C   UNL     1      12.304  -7.435  24.293  1.00  0.00     0.123 A 
ATOM      9  C   UNL     1      12.865  -8.644  24.706  1.00  0.00     0.094 A 
ATOM     10  C   UNL     1      14.212  -8.922  24.455  1.00  0.00     0.146 A 
ATOM     11  O   UNL     1      14.703 -10.088  24.854  1.00  0.00    -0.452 OA
ENDROOT
BRANCH   1  12
ATOM     12  C   UNL     1      16.393 -11.780  25.166  1.00  0.00     0.029 A 
ATOM     13  C   UNL     1      17.016 -11.858  26.420  1.00  0.00     0.062 A 
ATOM     14  C   UNL     1      17.452 -13.090  26.926  1.00  0.00     0.162 A 
ATOM     15  C   UNL     1      16.243 -12.951  24.402  1.00  0.00     0.062 A 
ATOM     16  C   UNL     1      17.281 -14.259  26.164  1.00  0.00     0.200 A 
ATOM     17  C   UNL     1      16.680 -14.186  24.901  1.00  0.00     0.162 A 
BRANCH  14  18
ATOM     18  O   UNL     1      18.058 -13.158  28.180  1.00  0.00    -0.504 OA
ATOM     19  H   UNL     1      18.005 -12.388  28.837  1.00  0.00     0.293 HD
ENDBRANCH  14  18
BRANCH  16  20
ATOM     20  O   UNL     1      17.705 -15.498  26.647  1.00  0.00    -0.502 OA
ATOM     21  H   UNL     1      17.108 -16.316  26.631  1.00  0.00     0.293 HD
ENDBRANCH  16  20
BRANCH  17  22
ATOM     22  O   UNL     1      16.524 -15.346  24.144  1.00  0.00    -0.504 OA
ATOM     23  H   UNL     1      17.321 -15.885  23.828  1.00  0.00     0.293 HD
ENDBRANCH  17  22
ENDBRANCH   1  12
BRANCH   2  24
ATOM     24  O   UNL     1      18.125 -10.044  23.623  1.00  0.00    -0.502 OA
ATOM     25  H   UNL     1      18.744 -10.444  24.318  1.00  0.00     0.293 HD
ENDBRANCH   2  24
BRANCH   6  26
ATOM     26  O   UNL     1      15.188  -5.667  22.857  1.00  0.00    -0.507 OA
ATOM     27  H   UNL     1      14.850  -4.721  22.762  1.00  0.00     0.293 HD
ENDBRANCH   6  26
BRANCH   8  28
ATOM     28  O   UNL     1      10.957  -7.162  24.523  1.00  0.00    -0.508 OA
ATOM     29  H   UNL     1      10.304  -7.038  23.759  1.00  0.00     0.293 HD
ENDBRANCH   8  28
TORSDOF 7
ENDMDL
MODEL 2
REMARK VINA RESULT:    -6.508      2.272      6.974
REMARK INTER + INTRA:          -8.387
REMARK INTER:                  -8.055
REMARK INTRA:                  -0.331
REMARK UNBOUND:                -0.357
REMARK SMILES O=c1c(O)c(-c2cc(O)c(O)c(O)c2)oc2cc(O)cc(O)c12
REMARK SMILES IDX 5 1 3 2 2 3 1 4 23 5 21 6 20 7 18 8 17 9 16 10 15 11 6 12
REMARK SMILES IDX 7 13 8 14 14 15 10 16 12 17 9 18 11 20 13 22 4 24 22 26
REMARK SMILES IDX 19 28
REMARK H PARENT 9 19 11 21 13 23 4 25 22 27 19 29
REMARK Flexibility Score: inf
ROOT
ATOM      1  C   UNL     1      13.065  -8.854  25.356  1.00  0.00     0.180 A 
ATOM      2  C   UNL     1      14.131  -7.948  25.216  1.00  0.00     0.208 A 
ATOM      3  C   UNL     1      15.416  -8.445  24.949  1.00  0.00     0.238 A 
ATOM      4  O   UNL     1      16.376  -7.634  24.880  1.00  0.00    -0.285 OA
ATOM      5  C   UNL     1      15.618  -9.839  24.806  1.00  0.00     0.111 A 
ATOM      6  C   UNL     1      16.870 -10.450  24.496  1.00  0.00     0.134 A 
ATOM      7  C   UNL     1      16.979 -11.846  24.508  1.00  0.00     0.093 A 
ATOM      8  C   UNL     1      15.870 -12.653  24.756  1.00  0.00     0.123 A 
ATOM      9  C   UNL     1      14.628 -12.067  25.003  1.00  0.00     0.094 A 
ATOM     10  C   UNL     1      14.495 -10.677  25.033  1.00  0.00     0.146 A 
ATOM     11  O   UNL     1      13.298 -10.160  25.282  1.00  0.00    -0.452 OA
ENDROOT
BRANCH   1  12
ATOM     12  C   UNL     1      11.678  -8.405  25.614  1.00  0.00     0.029 A 
ATOM     13  C   UNL     1      11.132  -8.551  26.899  1.00  0.00     0.062 A 
ATOM     14  C   UNL     1       9.815  -8.153  27.164  1.00  0.00     0.162 A 
ATOM     15  C   UNL     1      10.873  -7.887  24.584  1.00  0.00     0.062 A 
ATOM     16  C   UNL     1       9.025  -7.618  26.133  1.00  0.00     0.200 A 
ATOM     17  C   UNL     1       9.555  -7.490  24.843  1.00  0.00     0.162 A 
BRANCH  14  18
ATOM     18  O   UNL     1       9.288  -8.290  28.448  1.00  0.00    -0.504 OA
ATOM     19  H   UNL     1       9.747  -7.885  29.256  1.00  0.00     0.293 HD
ENDBRANCH  14  18
BRANCH  16  20
ATOM     20  O   UNL     1       7.711  -7.212  26.374  1.00  0.00    -0.502 OA
ATOM     21  H   UNL     1       7.077  -6.968  25.623  1.00  0.00     0.293 HD
ENDBRANCH  16  20
BRANCH  17  22
ATOM     22  O   UNL     1       8.763  -6.971  23.821  1.00  0.00    -0.504 OA
ATOM     23  H   UNL     1       9.063  -6.177  23.267  1.00  0.00     0.293 HD
ENDBRANCH  17  22
ENDBRANCH   1  12
BRANCH   2  24
ATOM     24  O   UNL     1      13.914  -6.577  25.382  1.00  0.00    -0.502 OA
ATOM     25  H   UNL     1      14.583  -5.880  25.078  1.00  0.00     0.293 HD
ENDBRANCH   2  24
BRANCH   6  26
ATOM     26  O   UNL     1      18.019  -9.737  24.143  1.00  0.00    -0.507 OA
ATOM     27  H   UNL     1      18.485  -9.803  23.250  1.00  0.00     0.293 HD
ENDBRANCH   6  26
BRANCH   8  28
ATOM     28  O   UNL     1      16.012 -14.039  24.746  1.00  0.00    -0.508 OA
ATOM     29  H   UNL     1      16.699 -14.498  24.160  1.00  0.00     0.293 HD
ENDBRANCH   8  28
TORSDOF 7
ENDMDL
MODEL 3
REMARK VINA RESULT:    -6.480      0.141      1.754
REMARK INTER + INTRA:          -8.353
REMARK INTER:                  -7.987
REMARK INTRA:                  -0.365
REMARK UNBOUND:                -0.357
REMARK SMILES O=c1c(O)c(-c2cc(O)c(O)c(O)c2)oc2cc(O)cc(O)c12
REMARK SMILES IDX 5 1 3 2 2 3 1 4 23 5 21 6 20 7 18 8 17 9 16 10 15 11 6 12
REMARK SMILES IDX 7 13 8 14 14 15 10 16 12 17 9 18 11 20 13 22 4 24 22 26
REMARK SMILES IDX 19 28
REMARK H PARENT 9 19 11 21 13 23 4 25 22 27 19 29
REMARK Flexibility Score: inf
ROOT
ATOM      1  C   UNL     1      15.995 -10.477  24.670  1.00  0.00     0.180 A 
ATOM      2  C   UNL     1      16.819  -9.593  23.951  1.00  0.00     0.208 A 
ATOM      3  C   UNL     1      16.295  -8.357  23.541  1.00  0.00     0.238 A 
ATOM      4  O   UNL     1      17.019  -7.593  22.850  1.00  0.00    -0.285 OA
ATOM      5  C   UNL     1      14.962  -8.012  23.869  1.00  0.00     0.111 A 
ATOM      6  C   UNL     1      14.341  -6.769  23.539  1.00  0.00     0.134 A 
ATOM      7  C   UNL     1      12.977  -6.588  23.799  1.00  0.00     0.093 A 
ATOM      8  C   UNL     1      12.228  -7.576  24.435  1.00  0.00     0.123 A 
ATOM      9  C   UNL     1      12.839  -8.772  24.815  1.00  0.00     0.094 A 
ATOM     10  C   UNL     1      14.190  -8.997  24.537  1.00  0.00     0.146 A 
ATOM     11  O   UNL     1      14.729 -10.152  24.906  1.00  0.00    -0.452 OA
ENDROOT
BRANCH   1  12
ATOM     12  C   UNL     1      16.483 -11.787  25.158  1.00  0.00     0.029 A 
ATOM     13  C   UNL     1      16.296 -12.932  24.367  1.00  0.00     0.062 A 
ATOM     14  C   UNL     1      16.730 -14.187  24.814  1.00  0.00     0.162 A 
ATOM     15  C   UNL     1      17.078 -11.921  26.425  1.00  0.00     0.062 A 
ATOM     16  C   UNL     1      17.342 -14.308  26.073  1.00  0.00     0.200 A 
ATOM     17  C   UNL     1      17.511 -13.174  26.878  1.00  0.00     0.162 A 
BRANCH  14  18
ATOM     18  O   UNL     1      16.553 -15.315  24.014  1.00  0.00    -0.504 OA
ATOM     19  H   UNL     1      15.636 -15.719  23.860  1.00  0.00     0.293 HD
ENDBRANCH  14  18
BRANCH  16  20
ATOM     20  O   UNL     1      17.784 -15.547  26.540  1.00  0.00    -0.502 OA
ATOM     21  H   UNL     1      18.083 -15.687  27.497  1.00  0.00     0.293 HD
ENDBRANCH  16  20
BRANCH  17  22
ATOM     22  O   UNL     1      18.107 -13.301  28.131  1.00  0.00    -0.504 OA
ATOM     23  H   UNL     1      18.933 -13.870  28.272  1.00  0.00     0.293 HD
ENDBRANCH  17  22
ENDBRANCH   1  12
BRANCH   2  24
ATOM     24  O   UNL     1      18.125  -9.963  23.619  1.00  0.00    -0.502 OA
ATOM     25  H   UNL     1      18.383 -10.275  22.690  1.00  0.00     0.293 HD
ENDBRANCH   2  24
BRANCH   6  26
ATOM     26  O   UNL     1      15.021  -5.680  22.985  1.00  0.00    -0.507 OA
ATOM     27  H   UNL     1      15.321  -4.867  23.501  1.00  0.00     0.293 HD
ENDBRANCH   6  26
BRANCH   8  28
ATOM     28  O   UNL     1      10.876  -7.357  24.692  1.00  0.00    -0.508 OA
ATOM     29  H   UNL     1      10.561  -6.964  25.570  1.00  0.00     0.293 HD
ENDBRANCH   8  28
TORSDOF 7
ENDMDL
MODEL 4
REMARK VINA RESULT:    -6.455      1.332      3.375
REMARK INTER + INTRA:          -8.322
REMARK INTER:                  -7.965
REMARK INTRA:                  -0.357
REMARK UNBOUND:                -0.357
REMARK SMILES O=c1c(O)c(-c2cc(O)c(O)c(O)c2)oc2cc(O)cc(O)c12
REMARK SMILES IDX 5 1 3 2 2 3 1 4 23 5 21 6 20 7 18 8 17 9 16 10 15 11 6 12
REMARK SMILES IDX 7 13 8 14 14 15 10 16 12 17 9 18 11 20 13 22 4 24 22 26
REMARK SMILES IDX 19 28
REMARK H PARENT 9 19 11 21 13 23 4 25 22 27 19 29
REMARK Flexibility Score: inf
ROOT
ATOM      1  C   UNL     1      14.898  -9.980  25.147  1.00  0.00     0.180 A 
ATOM      2  C   UNL     1      13.601  -9.787  25.652  1.00  0.00     0.208 A 
ATOM      3  C   UNL     1      12.875  -8.656  25.247  1.00  0.00     0.238 A 
ATOM      4  O   UNL     1      11.735  -8.459  25.746  1.00  0.00    -0.285 OA
ATOM      5  C   UNL     1      13.446  -7.742  24.330  1.00  0.00     0.111 A 
ATOM      6  C   UNL     1      12.785  -6.584  23.821  1.00  0.00     0.134 A 
ATOM      7  C   UNL     1      13.493  -5.681  23.019  1.00  0.00     0.093 A 
ATOM      8  C   UNL     1      14.816  -5.925  22.655  1.00  0.00     0.123 A 
ATOM      9  C   UNL     1      15.454  -7.084  23.099  1.00  0.00     0.094 A 
ATOM     10  C   UNL     1      14.785  -7.987  23.930  1.00  0.00     0.146 A 
ATOM     11  O   UNL     1      15.432  -9.071  24.338  1.00  0.00    -0.452 OA
ENDROOT
BRANCH   1  12
ATOM     12  C   UNL     1      15.717 -11.161  25.507  1.00  0.00     0.029 A 
ATOM     13  C   UNL     1      15.620 -12.331  24.738  1.00  0.00     0.062 A 
ATOM     14  C   UNL     1      16.368 -13.467  25.071  1.00  0.00     0.162 A 
ATOM     15  C   UNL     1      16.548 -11.154  26.641  1.00  0.00     0.062 A 
ATOM     16  C   UNL     1      17.212 -13.446  26.194  1.00  0.00     0.200 A 
ATOM     17  C   UNL     1      17.297 -12.290  26.980  1.00  0.00     0.162 A 
BRANCH  14  18
ATOM     18  O   UNL     1      16.275 -14.619  24.290  1.00  0.00    -0.504 OA
ATOM     19  H   UNL     1      15.411 -15.144  24.219  1.00  0.00     0.293 HD
ENDBRANCH  14  18
BRANCH  16  20
ATOM     20  O   UNL     1      17.969 -14.565  26.544  1.00  0.00    -0.502 OA
ATOM     21  H   UNL     1      17.844 -15.045  27.427  1.00  0.00     0.293 HD
ENDBRANCH  16  20
BRANCH  17  22
ATOM     22  O   UNL     1      18.125 -12.277  28.101  1.00  0.00    -0.504 OA
ATOM     23  H   UNL     1      18.281 -11.432  28.637  1.00  0.00     0.293 HD
ENDBRANCH  17  22
ENDBRANCH   1  12
BRANCH   2  24
ATOM     24  O   UNL     1      13.064 -10.690  26.574  1.00  0.00    -0.502 OA
ATOM     25  H   UNL     1      12.939 -10.460  27.552  1.00  0.00     0.293 HD
ENDBRANCH   2  24
BRANCH   6  26
ATOM     26  O   UNL     1      11.436  -6.293  24.048  1.00  0.00    -0.507 OA
ATOM     27  H   UNL     1      10.837  -6.800  24.681  1.00  0.00     0.293 HD
ENDBRANCH   6  26
BRANCH   8  28
ATOM     28  O   UNL     1      15.487  -5.012  21.844  1.00  0.00    -0.508 OA
ATOM     29  H   UNL     1      16.414  -4.678  22.076  1.00  0.00     0.293 HD
ENDBRANCH   8  28
TORSDOF 7
ENDMDL
MODEL 5
REMARK VINA RESULT:    -6.145      5.499      7.454
REMARK INTER + INTRA:          -7.939
REMARK INTER:                  -7.613
REMARK INTRA:                  -0.325
REMARK UNBOUND:                -0.357
REMARK SMILES O=c1c(O)c(-c2cc(O)c(O)c(O)c2)oc2cc(O)cc(O)c12
REMARK SMILES IDX 5 1 3 2 2 3 1 4 23 5 21 6 20 7 18 8 17 9 16 10 15 11 6 12
REMARK SMILES IDX 7 13 8 14 14 15 10 16 12 17 9 18 11 20 13 22 4 24 22 26
REMARK SMILES IDX 19 28
REMARK H PARENT 9 19 11 21 13 23 4 25 22 27 19 29
REMARK Flexibility Score: inf
ROOT
ATOM      1  C   UNL     1      12.850 -13.228  28.269  1.00  0.00     0.180 A 
ATOM      2  C   UNL     1      12.698 -14.413  29.008  1.00  0.00     0.208 A 
ATOM      3  C   UNL     1      11.430 -14.742  29.513  1.00  0.00     0.238 A 
ATOM      4  O   UNL     1      11.310 -15.777  30.221  1.00  0.00    -0.285 OA
ATOM      5  C   UNL     1      10.327 -13.891  29.260  1.00  0.00     0.111 A 
ATOM      6  C   UNL     1       8.990 -14.146  29.690  1.00  0.00     0.134 A 
ATOM      7  C   UNL     1       8.004 -13.170  29.495  1.00  0.00     0.093 A 
ATOM      8  C   UNL     1       8.291 -11.979  28.831  1.00  0.00     0.123 A 
ATOM      9  C   UNL     1       9.582 -11.745  28.354  1.00  0.00     0.094 A 
ATOM     10  C   UNL     1      10.595 -12.683  28.565  1.00  0.00     0.146 A 
ATOM     11  O   UNL     1      11.811 -12.416  28.104  1.00  0.00    -0.452 OA
ENDROOT
BRANCH   1  12
ATOM     12  C   UNL     1      14.150 -12.826  27.684  1.00  0.00     0.029 A 
ATOM     13  C   UNL     1      14.418 -13.109  26.335  1.00  0.00     0.062 A 
ATOM     14  C   UNL     1      15.647 -12.758  25.763  1.00  0.00     0.162 A 
ATOM     15  C   UNL     1      15.147 -12.217  28.466  1.00  0.00     0.062 A 
ATOM     16  C   UNL     1      16.630 -12.131  26.547  1.00  0.00     0.200 A 
ATOM     17  C   UNL     1      16.379 -11.866  27.899  1.00  0.00     0.162 A 
BRANCH  14  18
ATOM     18  O   UNL     1      15.897 -13.031  24.418  1.00  0.00    -0.504 OA
ATOM     19  H   UNL     1      16.048 -13.977  24.088  1.00  0.00     0.293 HD
ENDBRANCH  14  18
BRANCH  16  20
ATOM     20  O   UNL     1      17.862 -11.769  25.998  1.00  0.00    -0.502 OA
ATOM     21  H   UNL     1      18.651 -11.501  26.574  1.00  0.00     0.293 HD
ENDBRANCH  16  20
BRANCH  17  22
ATOM     22  O   UNL     1      17.362 -11.255  28.675  1.00  0.00    -0.504 OA
ATOM     23  H   UNL     1      18.142 -11.780  29.055  1.00  0.00     0.293 HD
ENDBRANCH  17  22
ENDBRANCH   1  12
BRANCH   2  24
ATOM     24  O   UNL     1      13.804 -15.229  29.265  1.00  0.00    -0.502 OA
ATOM     25  H   UNL     1      13.713 -16.207  29.513  1.00  0.00     0.293 HD
ENDBRANCH   2  24
BRANCH   6  26
ATOM     26  O   UNL     1       8.576 -15.343  30.282  1.00  0.00    -0.507 OA
ATOM     27  H   UNL     1       7.997 -15.406  31.106  1.00  0.00     0.293 HD
ENDBRANCH   6  26
BRANCH   8  28
ATOM     28  O   UNL     1       7.282 -11.037  28.642  1.00  0.00    -0.508 OA
ATOM     29  H   UNL     1       6.385 -11.293  28.249  1.00  0.00     0.293 HD
ENDBRANCH   8  28
TORSDOF 7
ENDMDL
MODEL 6
REMARK VINA RESULT:    -6.085      2.186      7.469
REMARK INTER + INTRA:          -7.865
REMARK INTER:                  -7.501
REMARK INTRA:                  -0.364
REMARK UNBOUND:                -0.357
REMARK SMILES O=c1c(O)c(-c2cc(O)c(O)c(O)c2)oc2cc(O)cc(O)c12
REMARK SMILES IDX 5 1 3 2 2 3 1 4 23 5 21 6 20 7 18 8 17 9 16 10 15 11 6 12
REMARK SMILES IDX 7 13 8 14 14 15 10 16 12 17 9 18 11 20 13 22 4 24 22 26
REMARK SMILES IDX 19 28
REMARK H PARENT 9 19 11 21 13 23 4 25 22 27 19 29
REMARK Flexibility Score: inf
ROOT
ATOM      1  C   UNL     1      15.089  -7.447  24.144  1.00  0.00     0.180 A 
ATOM      2  C   UNL     1      15.946  -7.061  25.188  1.00  0.00     0.208 A 
ATOM      3  C   UNL     1      16.619  -8.054  25.918  1.00  0.00     0.238 A 
ATOM      4  O   UNL     1      17.342  -7.705  26.888  1.00  0.00    -0.285 OA
ATOM      5  C   UNL     1      16.440  -9.418  25.584  1.00  0.00     0.111 A 
ATOM      6  C   UNL     1      17.102 -10.505  26.231  1.00  0.00     0.134 A 
ATOM      7  C   UNL     1      16.750 -11.820  25.905  1.00  0.00     0.093 A 
ATOM      8  C   UNL     1      15.809 -12.089  24.913  1.00  0.00     0.123 A 
ATOM      9  C   UNL     1      15.198 -11.034  24.233  1.00  0.00     0.094 A 
ATOM     10  C   UNL     1      15.502  -9.710  24.561  1.00  0.00     0.146 A 
ATOM     11  O   UNL     1      14.891  -8.737  23.897  1.00  0.00    -0.452 OA
ENDROOT
BRANCH   1  12
ATOM     12  C   UNL     1      14.364  -6.458  23.313  1.00  0.00     0.029 A 
ATOM     13  C   UNL     1      13.031  -6.144  23.618  1.00  0.00     0.062 A 
ATOM     14  C   UNL     1      12.316  -5.227  22.836  1.00  0.00     0.162 A 
ATOM     15  C   UNL     1      14.966  -5.868  22.187  1.00  0.00     0.062 A 
ATOM     16  C   UNL     1      12.932  -4.626  21.725  1.00  0.00     0.200 A 
ATOM     17  C   UNL     1      14.255  -4.952  21.400  1.00  0.00     0.162 A 
BRANCH  14  18
ATOM     18  O   UNL     1      10.997  -4.911  23.158  1.00  0.00    -0.504 OA
ATOM     19  H   UNL     1      10.343  -5.619  23.473  1.00  0.00     0.293 HD
ENDBRANCH  14  18
BRANCH  16  20
ATOM     20  O   UNL     1      12.241  -3.708  20.932  1.00  0.00    -0.502 OA
ATOM     21  H   UNL     1      12.185  -2.726  21.170  1.00  0.00     0.293 HD
ENDBRANCH  16  20
BRANCH  17  22
ATOM     22  O   UNL     1      14.857  -4.364  20.289  1.00  0.00    -0.504 OA
ATOM     23  H   UNL     1      14.351  -3.726  19.686  1.00  0.00     0.293 HD
ENDBRANCH  17  22
ENDBRANCH   1  12
BRANCH   2  24
ATOM     24  O   UNL     1      16.092  -5.710  25.516  1.00  0.00    -0.502 OA
ATOM     25  H   UNL     1      16.697  -5.393  26.264  1.00  0.00     0.293 HD
ENDBRANCH   2  24
BRANCH   6  26
ATOM     26  O   UNL     1      18.125 -10.347  27.172  1.00  0.00    -0.507 OA
ATOM     27  H   UNL     1      18.470  -9.458  27.502  1.00  0.00     0.293 HD
ENDBRANCH   6  26
BRANCH   8  28
ATOM     28  O   UNL     1      15.494 -13.411  24.604  1.00  0.00    -0.508 OA
ATOM     29  H   UNL     1      15.123 -13.669  23.698  1.00  0.00     0.293 HD
ENDBRANCH   8  28
TORSDOF 7
ENDMDL
MODEL 7
REMARK VINA RESULT:    -6.062      5.527      7.306
REMARK INTER + INTRA:          -7.837
REMARK INTER:                  -7.515
REMARK INTRA:                  -0.322
REMARK UNBOUND:                -0.357
REMARK SMILES O=c1c(O)c(-c2cc(O)c(O)c(O)c2)oc2cc(O)cc(O)c12
REMARK SMILES IDX 5 1 3 2 2 3 1 4 23 5 21 6 20 7 18 8 17 9 16 10 15 11 6 12
REMARK SMILES IDX 7 13 8 14 14 15 10 16 12 17 9 18 11 20 13 22 4 24 22 26
REMARK SMILES IDX 19 28
REMARK H PARENT 9 19 11 21 13 23 4 25 22 27 19 29
REMARK Flexibility Score: inf
ROOT
ATOM      1  C   UNL     1      12.929 -13.397  28.281  1.00  0.00     0.180 A 
ATOM      2  C   UNL     1      12.795 -14.561  29.057  1.00  0.00     0.208 A 
ATOM      3  C   UNL     1      11.534 -14.889  29.580  1.00  0.00     0.238 A 
ATOM      4  O   UNL     1      11.431 -15.903  30.319  1.00  0.00    -0.285 OA
ATOM      5  C   UNL     1      10.420 -14.059  29.308  1.00  0.00     0.111 A 
ATOM      6  C   UNL     1       9.089 -14.316  29.755  1.00  0.00     0.134 A 
ATOM      7  C   UNL     1       8.090 -13.359  29.537  1.00  0.00     0.093 A 
ATOM      8  C   UNL     1       8.359 -12.185  28.835  1.00  0.00     0.123 A 
ATOM      9  C   UNL     1       9.643 -11.950  28.342  1.00  0.00     0.094 A 
ATOM     10  C   UNL     1      10.669 -12.870  28.575  1.00  0.00     0.146 A 
ATOM     11  O   UNL     1      11.879 -12.603  28.099  1.00  0.00    -0.452 OA
ENDROOT
BRANCH   1  12
ATOM     12  C   UNL     1      14.220 -12.998  27.675  1.00  0.00     0.029 A 
ATOM     13  C   UNL     1      15.181 -12.346  28.463  1.00  0.00     0.062 A 
ATOM     14  C   UNL     1      16.402 -11.940  27.908  1.00  0.00     0.162 A 
ATOM     15  C   UNL     1      14.481 -13.207  26.310  1.00  0.00     0.062 A 
ATOM     16  C   UNL     1      16.664 -12.171  26.547  1.00  0.00     0.200 A 
ATOM     17  C   UNL     1      15.700 -12.801  25.749  1.00  0.00     0.162 A 
BRANCH  14  18
ATOM     18  O   UNL     1      17.356 -11.306  28.704  1.00  0.00    -0.504 OA
ATOM     19  H   UNL     1      18.285 -11.691  28.828  1.00  0.00     0.293 HD
ENDBRANCH  14  18
BRANCH  16  20
ATOM     20  O   UNL     1      17.874 -11.778  25.972  1.00  0.00    -0.502 OA
ATOM     21  H   UNL     1      18.438 -12.411  25.419  1.00  0.00     0.293 HD
ENDBRANCH  16  20
BRANCH  17  22
ATOM     22  O   UNL     1      15.959 -13.016  24.397  1.00  0.00    -0.504 OA
ATOM     23  H   UNL     1      16.867 -13.328  24.072  1.00  0.00     0.293 HD
ENDBRANCH  17  22
ENDBRANCH   1  12
BRANCH   2  24
ATOM     24  O   UNL     1      13.912 -15.356  29.331  1.00  0.00    -0.502 OA
ATOM     25  H   UNL     1      14.066 -15.783  30.236  1.00  0.00     0.293 HD
ENDBRANCH   2  24
BRANCH   6  26
ATOM     26  O   UNL     1       8.692 -15.499  30.386  1.00  0.00    -0.507 OA
ATOM     27  H   UNL     1       9.188 -16.375  30.327  1.00  0.00     0.293 HD
ENDBRANCH   6  26
BRANCH   8  28
ATOM     28  O   UNL     1       7.338 -11.261  28.623  1.00  0.00    -0.508 OA
ATOM     29  H   UNL     1       7.270 -10.411  29.170  1.00  0.00     0.293 HD
ENDBRANCH   8  28
TORSDOF 7
ENDMDL
MODEL 8
REMARK VINA RESULT:    -5.982      4.737      6.062
REMARK INTER + INTRA:          -7.738
REMARK INTER:                  -7.388
REMARK INTRA:                  -0.350
REMARK UNBOUND:                -0.357
REMARK SMILES O=c1c(O)c(-c2cc(O)c(O)c(O)c2)oc2cc(O)cc(O)c12
REMARK SMILES IDX 5 1 3 2 2 3 1 4 23 5 21 6 20 7 18 8 17 9 16 10 15 11 6 12
REMARK SMILES IDX 7 13 8 14 14 15 10 16 12 17 9 18 11 20 13 22 4 24 22 26
REMARK SMILES IDX 19 28
REMARK H PARENT 9 19 11 21 13 23 4 25 22 27 19 29
REMARK Flexibility Score: inf
ROOT
ATOM      1  C   UNL     1      15.075 -10.519  29.073  1.00  0.00     0.180 A 
ATOM      2  C   UNL     1      15.493 -10.010  30.315  1.00  0.00     0.208 A 
ATOM      3  C   UNL     1      16.353  -8.901  30.341  1.00  0.00     0.238 A 
ATOM      4  O   UNL     1      16.768  -8.484  31.454  1.00  0.00    -0.285 OA
ATOM      5  C   UNL     1      16.771  -8.304  29.128  1.00  0.00     0.111 A 
ATOM      6  C   UNL     1      17.610  -7.152  29.038  1.00  0.00     0.134 A 
ATOM      7  C   UNL     1      18.065  -6.726  27.784  1.00  0.00     0.093 A 
ATOM      8  C   UNL     1      17.663  -7.369  26.615  1.00  0.00     0.123 A 
ATOM      9  C   UNL     1      16.795  -8.460  26.687  1.00  0.00     0.094 A 
ATOM     10  C   UNL     1      16.352  -8.931  27.926  1.00  0.00     0.146 A 
ATOM     11  O   UNL     1      15.537  -9.978  27.951  1.00  0.00    -0.452 OA
ENDROOT
BRANCH   1  12
ATOM     12  C   UNL     1      14.150 -11.670  28.964  1.00  0.00     0.029 A 
ATOM     13  C   UNL     1      14.665 -12.975  28.978  1.00  0.00     0.062 A 
ATOM     14  C   UNL     1      13.813 -14.081  28.856  1.00  0.00     0.162 A 
ATOM     15  C   UNL     1      12.767 -11.482  28.787  1.00  0.00     0.062 A 
ATOM     16  C   UNL     1      12.430 -13.884  28.700  1.00  0.00     0.200 A 
ATOM     17  C   UNL     1      11.911 -12.584  28.662  1.00  0.00     0.162 A 
BRANCH  14  18
ATOM     18  O   UNL     1      14.335 -15.373  28.886  1.00  0.00    -0.504 OA
ATOM     19  H   UNL     1      13.840 -16.156  28.473  1.00  0.00     0.293 HD
ENDBRANCH  14  18
BRANCH  16  20
ATOM     20  O   UNL     1      11.561 -14.970  28.579  1.00  0.00    -0.502 OA
ATOM     21  H   UNL     1      11.101 -15.384  29.380  1.00  0.00     0.293 HD
ENDBRANCH  16  20
BRANCH  17  22
ATOM     22  O   UNL     1      10.540 -12.394  28.494  1.00  0.00    -0.504 OA
ATOM     23  H   UNL     1      10.020 -11.743  29.070  1.00  0.00     0.293 HD
ENDBRANCH  17  22
ENDBRANCH   1  12
BRANCH   2  24
ATOM     24  O   UNL     1      15.086 -10.628  31.500  1.00  0.00    -0.502 OA
ATOM     25  H   UNL     1      15.186 -11.624  31.657  1.00  0.00     0.293 HD
ENDBRANCH   2  24
BRANCH   6  26
ATOM     26  O   UNL     1      17.997  -6.381  30.138  1.00  0.00    -0.507 OA
ATOM     27  H   UNL     1      18.553  -5.541  30.084  1.00  0.00     0.293 HD
ENDBRANCH   6  26
BRANCH   8  28
ATOM     28  O   UNL     1      18.124  -6.909  25.383  1.00  0.00    -0.508 OA
ATOM     29  H   UNL     1      18.825  -6.181  25.317  1.00  0.00     0.293 HD
ENDBRANCH   8  28
TORSDOF 7
ENDMDL
MODEL 9
REMARK VINA RESULT:    -5.981      3.116      4.143
REMARK INTER + INTRA:          -7.737
REMARK INTER:                  -7.399
REMARK INTRA:                  -0.338
REMARK UNBOUND:                -0.357
REMARK SMILES O=c1c(O)c(-c2cc(O)c(O)c(O)c2)oc2cc(O)cc(O)c12
REMARK SMILES IDX 5 1 3 2 2 3 1 4 23 5 21 6 20 7 18 8 17 9 16 10 15 11 6 12
REMARK SMILES IDX 7 13 8 14 14 15 10 16 12 17 9 18 11 20 13 22 4 24 22 26
REMARK SMILES IDX 19 28
REMARK H PARENT 9 19 11 21 13 23 4 25 22 27 19 29
REMARK Flexibility Score: inf
ROOT
ATOM      1  C   UNL     1      15.725 -11.036  27.331  1.00  0.00     0.180 A 
ATOM      2  C   UNL     1      16.603 -10.189  28.029  1.00  0.00     0.208 A 
ATOM      3  C   UNL     1      17.080  -9.032  27.394  1.00  0.00     0.238 A 
ATOM      4  O   UNL     1      17.909  -8.306  28.004  1.00  0.00    -0.285 OA
ATOM      5  C   UNL     1      16.662  -8.726  26.077  1.00  0.00     0.111 A 
ATOM      6  C   UNL     1      17.051  -7.560  25.352  1.00  0.00     0.134 A 
ATOM      7  C   UNL     1      16.680  -7.426  24.009  1.00  0.00     0.093 A 
ATOM      8  C   UNL     1      15.882  -8.381  23.383  1.00  0.00     0.123 A 
ATOM      9  C   UNL     1      15.446  -9.497  24.100  1.00  0.00     0.094 A 
ATOM     10  C   UNL     1      15.829  -9.677  25.431  1.00  0.00     0.146 A 
ATOM     11  O   UNL     1      15.402 -10.757  26.073  1.00  0.00    -0.452 OA
ENDROOT
BRANCH   1  12
ATOM     12  C   UNL     1      15.160 -12.261  27.942  1.00  0.00     0.029 A 
ATOM     13  C   UNL     1      15.906 -13.450  27.926  1.00  0.00     0.062 A 
ATOM     14  C   UNL     1      15.386 -14.627  28.479  1.00  0.00     0.162 A 
ATOM     15  C   UNL     1      13.864 -12.275  28.487  1.00  0.00     0.062 A 
ATOM     16  C   UNL     1      14.098 -14.627  29.040  1.00  0.00     0.200 A 
ATOM     17  C   UNL     1      13.337 -13.451  29.039  1.00  0.00     0.162 A 
BRANCH  14  18
ATOM     18  O   UNL     1      16.143 -15.798  28.470  1.00  0.00    -0.504 OA
ATOM     19  H   UNL     1      15.740 -16.693  28.722  1.00  0.00     0.293 HD
ENDBRANCH  14  18
BRANCH  16  20
ATOM     20  O   UNL     1      13.559 -15.787  29.598  1.00  0.00    -0.502 OA
ATOM     21  H   UNL     1      12.702 -16.203  29.254  1.00  0.00     0.293 HD
ENDBRANCH  16  20
BRANCH  17  22
ATOM     22  O   UNL     1      12.055 -13.459  29.585  1.00  0.00    -0.504 OA
ATOM     23  H   UNL     1      11.299 -12.923  29.175  1.00  0.00     0.293 HD
ENDBRANCH  17  22
ENDBRANCH   1  12
BRANCH   2  24
ATOM     24  O   UNL     1      17.021 -10.521  29.321  1.00  0.00    -0.502 OA
ATOM     25  H   UNL     1      16.735  -9.994  30.138  1.00  0.00     0.293 HD
ENDBRANCH   2  24
BRANCH   6  26
ATOM     26  O   UNL     1      17.773  -6.499  25.910  1.00  0.00    -0.507 OA
ATOM     27  H   UNL     1      18.732  -6.279  25.690  1.00  0.00     0.293 HD
ENDBRANCH   6  26
BRANCH   8  28
ATOM     28  O   UNL     1      15.520  -8.209  22.049  1.00  0.00    -0.508 OA
ATOM     29  H   UNL     1      14.659  -7.743  21.790  1.00  0.00     0.293 HD
ENDBRANCH   8  28
TORSDOF 7
ENDMDL
