MODEL 1
REMARK VINA RESULT:    -3.084      0.000      0.000
REMARK INTER + INTRA:          -3.275
REMARK INTER:                  -3.264
REMARK INTRA:                  -0.011
REMARK UNBOUND:                -0.011
REMARK SMILES O=Cc1ccco1
REMARK SMILES IDX 5 1 6 2 7 3 3 4 4 5 2 6 1 7
REMARK H PARENT
REMARK Flexibility Score: inf
ROOT
ATOM      1  C   UNL     1       1.764 -31.388  47.892  1.00  0.00     0.043 A 
ATOM      2  C   UNL     1       2.204 -30.393  47.041  1.00  0.00     0.196 A 
ATOM      3  O   UNL     1       1.743 -30.609  45.831  1.00  0.00    -0.462 OA
ATOM      4  C   UNL     1       1.019 -31.705  45.852  1.00  0.00     0.166 A 
ATOM      5  C   UNL     1       0.997 -32.238  47.123  1.00  0.00     0.054 A 
ENDROOT
BRANCH   4   6
ATOM      6  C   UNL     1       0.340 -32.265  44.682  1.00  0.00     0.298 C 
ATOM      7  O   UNL     1       0.235 -33.511  44.545  1.00  0.00    -0.294 OA
ENDBRANCH   4   6
TORSDOF 1
ENDMDL
MODEL 2
REMARK VINA RESULT:    -2.995      1.528      3.143
REMARK INTER + INTRA:          -3.182
REMARK INTER:                  -3.171
REMARK INTRA:                  -0.011
REMARK UNBOUND:                -0.011
REMARK SMILES O=Cc1ccco1
REMARK SMILES IDX 5 1 6 2 7 3 3 4 4 5 2 6 1 7
REMARK H PARENT
REMARK Flexibility Score: inf
ROOT
ATOM      1  C   UNL     1       1.385 -32.462  47.378  1.00  0.00     0.043 A 
ATOM      2  C   UNL     1       0.481 -32.291  46.348  1.00  0.00     0.196 A 
ATOM      3  O   UNL     1       0.309 -31.010  46.118  1.00  0.00    -0.462 OA
ATOM      4  C   UNL     1       1.062 -30.333  46.953  1.00  0.00     0.166 A 
ATOM      5  C   UNL     1       1.762 -31.195  47.771  1.00  0.00     0.054 A 
ENDROOT
BRANCH   4   6
ATOM      6  C   UNL     1       1.136 -28.871  46.997  1.00  0.00     0.298 C 
ATOM      7  O   UNL     1       2.183 -28.277  46.632  1.00  0.00    -0.294 OA
ENDBRANCH   4   6
TORSDOF 1
ENDMDL
MODEL 3
REMARK VINA RESULT:    -2.944     14.759     16.054
REMARK INTER + INTRA:          -3.127
REMARK INTER:                  -3.111
REMARK INTRA:                  -0.016
REMARK UNBOUND:                -0.011
REMARK SMILES O=Cc1ccco1
REMARK SMILES IDX 5 1 6 2 7 3 3 4 4 5 2 6 1 7
REMARK H PARENT
REMARK Flexibility Score: inf
ROOT
ATOM      1  C   UNL     1       8.764 -21.046  57.673  1.00  0.00     0.043 A 
ATOM      2  C   UNL     1       9.697 -21.204  56.668  1.00  0.00     0.196 A 
ATOM      3  O   UNL     1       9.705 -22.453  56.263  1.00  0.00    -0.462 OA
ATOM      4  C   UNL     1       8.815 -23.121  56.960  1.00  0.00     0.166 A 
ATOM      5  C   UNL     1       8.191 -22.286  57.863  1.00  0.00     0.054 A 
ENDROOT
BRANCH   4   6
ATOM      6  C   UNL     1       8.538 -24.549  56.789  1.00  0.00     0.298 C 
ATOM      7  O   UNL     1       9.291 -25.261  56.076  1.00  0.00    -0.294 OA
ENDBRANCH   4   6
TORSDOF 1
ENDMDL
MODEL 4
REMARK VINA RESULT:    -2.921      1.452      1.919
REMARK INTER + INTRA:          -3.103
REMARK INTER:                  -3.087
REMARK INTRA:                  -0.016
REMARK UNBOUND:                -0.011
REMARK SMILES O=Cc1ccco1
REMARK SMILES IDX 5 1 6 2 7 3 3 4 4 5 2 6 1 7
REMARK H PARENT
REMARK Flexibility Score: inf
ROOT
ATOM      1  C   UNL     1       1.705 -31.378  47.937  1.00  0.00     0.043 A 
ATOM      2  C   UNL     1       1.003 -32.425  47.374  1.00  0.00     0.196 A 
ATOM      3  O   UNL     1       1.005 -32.308  46.066  1.00  0.00    -0.462 OA
ATOM      4  C   UNL     1       1.679 -31.227  45.747  1.00  0.00     0.166 A 
ATOM      5  C   UNL     1       2.143 -30.601  46.885  1.00  0.00     0.054 A 
ENDROOT
BRANCH   4   6
ATOM      6  C   UNL     1       1.896 -30.767  44.374  1.00  0.00     0.298 C 
ATOM      7  O   UNL     1       1.365 -31.376  43.410  1.00  0.00    -0.294 OA
ENDBRANCH   4   6
TORSDOF 1
ENDMDL
MODEL 5
REMARK VINA RESULT:    -2.834     14.892     16.127
REMARK INTER + INTRA:          -3.011
REMARK INTER:                  -2.995
REMARK INTRA:                  -0.016
REMARK UNBOUND:                -0.011
REMARK SMILES O=Cc1ccco1
REMARK SMILES IDX 5 1 6 2 7 3 3 4 4 5 2 6 1 7
REMARK H PARENT
REMARK Flexibility Score: inf
ROOT
ATOM      1  C   UNL     1       8.884 -21.462  58.225  1.00  0.00     0.043 A 
ATOM      2  C   UNL     1       9.583 -22.528  57.694  1.00  0.00     0.196 A 
ATOM      3  O   UNL     1       9.353 -22.611  56.404  1.00  0.00    -0.462 OA
ATOM      4  C   UNL     1       8.532 -21.643  56.065  1.00  0.00     0.166 A 
ATOM      5  C   UNL     1       8.203 -20.888  57.171  1.00  0.00     0.054 A 
ENDROOT
BRANCH   4   6
ATOM      6  C   UNL     1       8.045 -21.414  54.703  1.00  0.00     0.298 C 
ATOM      7  O   UNL     1       8.391 -22.182  53.769  1.00  0.00    -0.294 OA
ENDBRANCH   4   6
TORSDOF 1
ENDMDL
MODEL 6
REMARK VINA RESULT:    -2.784      2.146      3.145
REMARK INTER + INTRA:          -2.958
REMARK INTER:                  -2.948
REMARK INTRA:                  -0.011
REMARK UNBOUND:                -0.011
REMARK SMILES O=Cc1ccco1
REMARK SMILES IDX 5 1 6 2 7 3 3 4 4 5 2 6 1 7
REMARK H PARENT
REMARK Flexibility Score: inf
ROOT
ATOM      1  C   UNL     1       0.540 -32.518  46.510  1.00  0.00     0.043 A 
ATOM      2  C   UNL     1       1.497 -32.308  47.483  1.00  0.00     0.196 A 
ATOM      3  O   UNL     1       1.458 -31.057  47.880  1.00  0.00    -0.462 OA
ATOM      4  C   UNL     1       0.515 -30.437  47.209  1.00  0.00     0.166 A 
ATOM      5  C   UNL     1      -0.097 -31.308  46.332  1.00  0.00     0.054 A 
ENDROOT
BRANCH   4   6
ATOM      6  C   UNL     1       0.176 -29.023  47.380  1.00  0.00     0.298 C 
ATOM      7  O   UNL     1       0.289 -28.222  46.416  1.00  0.00    -0.294 OA
ENDBRANCH   4   6
TORSDOF 1
ENDMDL
MODEL 7
REMARK VINA RESULT:    -2.719      1.326      3.007
REMARK INTER + INTRA:          -2.889
REMARK INTER:                  -2.877
REMARK INTRA:                  -0.012
REMARK UNBOUND:                -0.011
REMARK SMILES O=Cc1ccco1
REMARK SMILES IDX 5 1 6 2 7 3 3 4 4 5 2 6 1 7
REMARK H PARENT
REMARK Flexibility Score: inf
ROOT
ATOM      1  C   UNL     1       0.073 -32.586  44.675  1.00  0.00     0.043 A 
ATOM      2  C   UNL     1       1.019 -31.855  43.984  1.00  0.00     0.196 A 
ATOM      3  O   UNL     1       1.786 -31.209  44.831  1.00  0.00    -0.462 OA
ATOM      4  C   UNL     1       1.383 -31.486  46.050  1.00  0.00     0.166 A 
ATOM      5  C   UNL     1       0.308 -32.349  46.013  1.00  0.00     0.054 A 
ENDROOT
BRANCH   4   6
ATOM      6  C   UNL     1       2.000 -30.946  47.264  1.00  0.00     0.298 C 
ATOM      7  O   UNL     1       1.717 -31.431  48.389  1.00  0.00    -0.294 OA
ENDBRANCH   4   6
TORSDOF 1
ENDMDL
MODEL 8
REMARK VINA RESULT:    -2.696      1.895      2.827
REMARK INTER + INTRA:          -2.865
REMARK INTER:                  -2.849
REMARK INTRA:                  -0.016
REMARK UNBOUND:                -0.011
REMARK SMILES O=Cc1ccco1
REMARK SMILES IDX 5 1 6 2 7 3 3 4 4 5 2 6 1 7
REMARK H PARENT
REMARK Flexibility Score: inf
ROOT
ATOM      1  C   UNL     1       2.170 -28.805  45.346  1.00  0.00     0.043 A 
ATOM      2  C   UNL     1       2.369 -29.955  44.608  1.00  0.00     0.196 A 
ATOM      3  O   UNL     1       2.236 -31.007  45.382  1.00  0.00    -0.462 OA
ATOM      4  C   UNL     1       1.957 -30.596  46.598  1.00  0.00     0.166 A 
ATOM      5  C   UNL     1       1.903 -29.218  46.635  1.00  0.00     0.054 A 
ENDROOT
BRANCH   4   6
ATOM      6  C   UNL     1       1.739 -31.487  47.739  1.00  0.00     0.298 C 
ATOM      7  O   UNL     1       1.424 -32.691  47.552  1.00  0.00    -0.294 OA
ENDBRANCH   4   6
TORSDOF 1
ENDMDL
MODEL 9
REMARK VINA RESULT:    -2.651     21.003     21.892
REMARK INTER + INTRA:          -2.817
REMARK INTER:                  -2.803
REMARK INTRA:                  -0.015
REMARK UNBOUND:                -0.011
REMARK SMILES O=Cc1ccco1
REMARK SMILES IDX 5 1 6 2 7 3 3 4 4 5 2 6 1 7
REMARK H PARENT
REMARK Flexibility Score: inf
ROOT
ATOM      1  C   UNL     1      14.147 -31.988  61.984  1.00  0.00     0.043 A 
ATOM      2  C   UNL     1      14.607 -33.181  62.506  1.00  0.00     0.196 A 
ATOM      3  O   UNL     1      15.918 -33.213  62.450  1.00  0.00    -0.462 OA
ATOM      4  C   UNL     1      16.338 -32.090  61.914  1.00  0.00     0.166 A 
ATOM      5  C   UNL     1      15.267 -31.281  61.601  1.00  0.00     0.054 A 
ENDROOT
BRANCH   4   6
ATOM      6  C   UNL     1      17.748 -31.762  61.688  1.00  0.00     0.298 C 
ATOM      7  O   UNL     1      18.559 -32.657  61.336  1.00  0.00    -0.294 OA
ENDBRANCH   4   6
TORSDOF 1
ENDMDL
