MODEL 1
REMARK VINA RESULT:    -6.240      0.000      0.000
REMARK INTER + INTRA:          -9.062
REMARK INTER:                  -8.429
REMARK INTRA:                  -0.633
REMARK UNBOUND:                -0.633
REMARK SMILES CC(=O)CCC=C(C)CCC=C(C)C
REMARK SMILES IDX 7 1 6 2 8 3 9 4 10 5 11 6 13 7 12 8 14 9 5 10 4 11 2 12 3 13
REMARK SMILES IDX 1 14
REMARK H PARENT
REMARK Flexibility Score: inf
ROOT
ATOM      1  C   UNL     1      -3.213 -12.960  27.278  1.00  0.00    -0.077 C 
ATOM      2  C   UNL     1      -2.355 -13.568  28.130  1.00  0.00    -0.028 C 
ATOM      3  C   UNL     1      -2.917 -11.603  26.682  1.00  0.00     0.039 C 
ENDROOT
BRANCH   1   4
ATOM      4  C   UNL     1      -4.493 -13.668  26.895  1.00  0.00     0.034 C 
BRANCH   4   5
ATOM      5  C   UNL     1      -5.572 -13.458  27.963  1.00  0.00     0.032 C 
BRANCH   5   6
ATOM      6  C   UNL     1      -6.389 -14.711  28.152  1.00  0.00    -0.028 C 
ATOM      7  C   UNL     1      -7.286 -16.666  29.378  1.00  0.00     0.039 C 
ATOM      8  C   UNL     1      -6.459 -15.409  29.309  1.00  0.00    -0.080 C 
ATOM      9  C   UNL     1      -5.766 -14.946  30.566  1.00  0.00     0.039 C 
ENDBRANCH   5   6
ENDBRANCH   4   5
ENDBRANCH   1   4
BRANCH   2  10
ATOM     10  C   UNL     1      -1.064 -12.961  28.621  1.00  0.00     0.035 C 
BRANCH  10  11
ATOM     11  C   UNL     1      -0.474 -13.793  29.768  1.00  0.00     0.079 C 
BRANCH  11  12
ATOM     12  C   UNL     1      -0.730 -13.192  31.129  1.00  0.00     0.130 C 
ATOM     13  O   UNL     1       0.178 -12.690  31.777  1.00  0.00    -0.300 OA
ATOM     14  C   UNL     1      -2.111 -13.214  31.710  1.00  0.00     0.087 C 
ENDBRANCH  11  12
ENDBRANCH  10  11
ENDBRANCH   2  10
TORSDOF 6
ENDMDL
MODEL 2
REMARK VINA RESULT:    -6.214      1.281      1.889
REMARK INTER + INTRA:          -9.027
REMARK INTER:                  -8.146
REMARK INTRA:                  -0.881
REMARK UNBOUND:                -0.633
REMARK SMILES CC(=O)CCC=C(C)CCC=C(C)C
REMARK SMILES IDX 7 1 6 2 8 3 9 4 10 5 11 6 13 7 12 8 14 9 5 10 4 11 2 12 3 13
REMARK SMILES IDX 1 14
REMARK H PARENT
REMARK Flexibility Score: inf
ROOT
ATOM      1  C   UNL     1      -3.855 -11.850  29.116  1.00  0.00    -0.077 C 
ATOM      2  C   UNL     1      -3.726 -12.519  30.284  1.00  0.00    -0.028 C 
ATOM      3  C   UNL     1      -2.982 -10.664  28.774  1.00  0.00     0.039 C 
ENDROOT
BRANCH   1   4
ATOM      4  C   UNL     1      -4.889 -12.313  28.113  1.00  0.00     0.034 C 
BRANCH   4   5
ATOM      5  C   UNL     1      -4.751 -13.814  27.843  1.00  0.00     0.032 C 
BRANCH   5   6
ATOM      6  C   UNL     1      -6.104 -14.480  27.812  1.00  0.00    -0.028 C 
ATOM      7  C   UNL     1      -8.014 -15.770  28.715  1.00  0.00     0.039 C 
ATOM      8  C   UNL     1      -6.666 -15.114  28.867  1.00  0.00    -0.080 C 
ATOM      9  C   UNL     1      -6.007 -15.153  30.222  1.00  0.00     0.039 C 
ENDBRANCH   5   6
ENDBRANCH   4   5
ENDBRANCH   1   4
BRANCH   2  10
ATOM     10  C   UNL     1      -2.763 -12.143  31.383  1.00  0.00     0.035 C 
BRANCH  10  11
ATOM     11  C   UNL     1      -1.758 -13.275  31.637  1.00  0.00     0.079 C 
BRANCH  11  12
ATOM     12  C   UNL     1      -0.442 -13.069  30.928  1.00  0.00     0.130 C 
ATOM     13  O   UNL     1       0.520 -12.590  31.512  1.00  0.00    -0.300 OA
ATOM     14  C   UNL     1      -0.303 -13.440  29.484  1.00  0.00     0.087 C 
ENDBRANCH  11  12
ENDBRANCH  10  11
ENDBRANCH   2  10
TORSDOF 6
ENDMDL
MODEL 3
REMARK VINA RESULT:    -6.211      1.736      3.512
REMARK INTER + INTRA:          -9.022
REMARK INTER:                  -8.229
REMARK INTRA:                  -0.793
REMARK UNBOUND:                -0.633
REMARK SMILES CC(=O)CCC=C(C)CCC=C(C)C
REMARK SMILES IDX 7 1 6 2 8 3 9 4 10 5 11 6 13 7 12 8 14 9 5 10 4 11 2 12 3 13
REMARK SMILES IDX 1 14
REMARK H PARENT
REMARK Flexibility Score: inf
ROOT
ATOM      1  C   UNL     1      -3.429 -12.839  31.859  1.00  0.00    -0.077 C 
ATOM      2  C   UNL     1      -2.190 -13.349  31.671  1.00  0.00    -0.028 C 
ATOM      3  C   UNL     1      -3.784 -11.431  31.438  1.00  0.00     0.039 C 
ENDROOT
BRANCH   1   4
ATOM      4  C   UNL     1      -4.494 -13.708  32.490  1.00  0.00     0.034 C 
BRANCH   4   5
ATOM      5  C   UNL     1      -5.038 -14.723  31.481  1.00  0.00     0.032 C 
BRANCH   5   6
ATOM      6  C   UNL     1      -4.913 -14.198  30.073  1.00  0.00    -0.028 C 
ATOM      7  C   UNL     1      -5.431 -14.051  27.656  1.00  0.00     0.039 C 
ATOM      8  C   UNL     1      -5.660 -14.626  29.029  1.00  0.00    -0.080 C 
ATOM      9  C   UNL     1      -6.762 -15.642  29.197  1.00  0.00     0.039 C 
ENDBRANCH   5   6
ENDBRANCH   4   5
ENDBRANCH   1   4
BRANCH   2  10
ATOM     10  C   UNL     1      -1.029 -12.583  31.087  1.00  0.00     0.035 C 
BRANCH  10  11
ATOM     11  C   UNL     1      -0.507 -13.270  29.817  1.00  0.00     0.079 C 
BRANCH  11  12
ATOM     12  C   UNL     1      -1.554 -13.387  28.736  1.00  0.00     0.130 C 
ATOM     13  O   UNL     1      -1.868 -14.478  28.278  1.00  0.00    -0.300 OA
ATOM     14  C   UNL     1      -2.217 -12.157  28.198  1.00  0.00     0.087 C 
ENDBRANCH  11  12
ENDBRANCH  10  11
ENDBRANCH   2  10
TORSDOF 6
ENDMDL
MODEL 4
REMARK VINA RESULT:    -6.182      1.678      5.065
REMARK INTER + INTRA:          -8.984
REMARK INTER:                  -8.356
REMARK INTRA:                  -0.627
REMARK UNBOUND:                -0.633
REMARK SMILES CC(=O)CCC=C(C)CCC=C(C)C
REMARK SMILES IDX 7 1 6 2 8 3 9 4 10 5 11 6 13 7 12 8 14 9 5 10 4 11 2 12 3 13
REMARK SMILES IDX 1 14
REMARK H PARENT
REMARK Flexibility Score: inf
ROOT
ATOM      1  C   UNL     1      -5.573 -14.740  29.981  1.00  0.00    -0.077 C 
ATOM      2  C   UNL     1      -4.884 -13.915  29.159  1.00  0.00    -0.028 C 
ATOM      3  C   UNL     1      -6.688 -15.624  29.472  1.00  0.00     0.039 C 
ENDROOT
BRANCH   1   4
ATOM      4  C   UNL     1      -5.204 -14.794  31.447  1.00  0.00     0.034 C 
BRANCH   4   5
ATOM      5  C   UNL     1      -4.454 -13.526  31.867  1.00  0.00     0.032 C 
BRANCH   5   6
ATOM      6  C   UNL     1      -2.963 -13.751  31.840  1.00  0.00    -0.028 C 
ATOM      7  C   UNL     1      -0.592 -13.171  31.427  1.00  0.00     0.039 C 
ATOM      8  C   UNL     1      -2.059 -12.828  31.439  1.00  0.00    -0.080 C 
ATOM      9  C   UNL     1      -2.464 -11.431  31.040  1.00  0.00     0.039 C 
ENDBRANCH   5   6
ENDBRANCH   4   5
ENDBRANCH   1   4
BRANCH   2  10
ATOM     10  C   UNL     1      -5.171 -13.737  27.689  1.00  0.00     0.035 C 
BRANCH  10  11
ATOM     11  C   UNL     1      -3.876 -13.818  26.868  1.00  0.00     0.079 C 
BRANCH  11  12
ATOM     12  C   UNL     1      -3.005 -12.594  27.016  1.00  0.00     0.130 C 
ATOM     13  O   UNL     1      -2.082 -12.570  27.819  1.00  0.00    -0.300 OA
ATOM     14  C   UNL     1      -3.273 -11.378  26.183  1.00  0.00     0.087 C 
ENDBRANCH  11  12
ENDBRANCH  10  11
ENDBRANCH   2  10
TORSDOF 6
ENDMDL
MODEL 5
REMARK VINA RESULT:    -6.166      1.806      4.447
REMARK INTER + INTRA:          -8.961
REMARK INTER:                  -8.232
REMARK INTRA:                  -0.729
REMARK UNBOUND:                -0.633
REMARK SMILES CC(=O)CCC=C(C)CCC=C(C)C
REMARK SMILES IDX 7 1 6 2 8 3 9 4 10 5 11 6 13 7 12 8 14 9 5 10 4 11 2 12 3 13
REMARK SMILES IDX 1 14
REMARK H PARENT
REMARK Flexibility Score: inf
ROOT
ATOM      1  C   UNL     1      -6.003 -14.901  29.017  1.00  0.00    -0.077 C 
ATOM      2  C   UNL     1      -5.264 -14.449  30.056  1.00  0.00    -0.028 C 
ATOM      3  C   UNL     1      -7.179 -15.829  29.219  1.00  0.00     0.039 C 
ENDROOT
BRANCH   1   4
ATOM      4  C   UNL     1      -5.655 -14.451  27.616  1.00  0.00     0.034 C 
BRANCH   4   5
ATOM      5  C   UNL     1      -4.139 -14.460  27.401  1.00  0.00     0.032 C 
BRANCH   5   6
ATOM      6  C   UNL     1      -3.722 -13.349  26.470  1.00  0.00    -0.028 C 
ATOM      7  C   UNL     1      -3.077 -11.043  25.843  1.00  0.00     0.039 C 
ATOM      8  C   UNL     1      -3.458 -12.082  26.865  1.00  0.00    -0.080 C 
ATOM      9  C   UNL     1      -3.488 -11.673  28.316  1.00  0.00     0.039 C 
ENDBRANCH   5   6
ENDBRANCH   4   5
ENDBRANCH   1   4
BRANCH   2  10
ATOM     10  C   UNL     1      -5.479 -14.847  31.496  1.00  0.00     0.035 C 
BRANCH  10  11
ATOM     11  C   UNL     1      -4.236 -14.528  32.339  1.00  0.00     0.079 C 
BRANCH  11  12
ATOM     12  C   UNL     1      -3.560 -13.240  31.934  1.00  0.00     0.130 C 
ATOM     13  O   UNL     1      -4.146 -12.169  32.011  1.00  0.00    -0.300 OA
ATOM     14  C   UNL     1      -2.155 -13.263  31.415  1.00  0.00     0.087 C 
ENDBRANCH  11  12
ENDBRANCH  10  11
ENDBRANCH   2  10
TORSDOF 6
ENDMDL
MODEL 6
REMARK VINA RESULT:    -6.157      2.293      4.667
REMARK INTER + INTRA:          -8.950
REMARK INTER:                  -7.646
REMARK INTRA:                  -1.304
REMARK UNBOUND:                -0.633
REMARK SMILES CC(=O)CCC=C(C)CCC=C(C)C
REMARK SMILES IDX 7 1 6 2 8 3 9 4 10 5 11 6 13 7 12 8 14 9 5 10 4 11 2 12 3 13
REMARK SMILES IDX 1 14
REMARK H PARENT
REMARK Flexibility Score: inf
ROOT
ATOM      1  C   UNL     1      -1.230 -13.077  29.129  1.00  0.00    -0.077 C 
ATOM      2  C   UNL     1      -1.976 -12.019  28.738  1.00  0.00    -0.028 C 
ATOM      3  C   UNL     1      -1.258 -14.392  28.383  1.00  0.00     0.039 C 
ENDROOT
BRANCH   1   4
ATOM      4  C   UNL     1      -0.327 -12.937  30.334  1.00  0.00     0.034 C 
BRANCH   4   5
ATOM      5  C   UNL     1      -1.140 -12.594  31.586  1.00  0.00     0.032 C 
BRANCH   5   6
ATOM      6  C   UNL     1      -2.276 -13.569  31.771  1.00  0.00    -0.028 C 
ATOM      7  C   UNL     1      -4.629 -14.271  32.088  1.00  0.00     0.039 C 
ATOM      8  C   UNL     1      -3.577 -13.214  31.877  1.00  0.00    -0.080 C 
ATOM      9  C   UNL     1      -4.028 -11.780  31.747  1.00  0.00     0.039 C 
ENDBRANCH   5   6
ENDBRANCH   4   5
ENDBRANCH   1   4
BRANCH   2  10
ATOM     10  C   UNL     1      -2.942 -12.034  27.580  1.00  0.00     0.035 C 
BRANCH  10  11
ATOM     11  C   UNL     1      -4.368 -12.327  28.065  1.00  0.00     0.079 C 
BRANCH  11  12
ATOM     12  C   UNL     1      -4.874 -13.682  27.632  1.00  0.00     0.130 C 
ATOM     13  O   UNL     1      -4.522 -14.176  26.569  1.00  0.00    -0.300 OA
ATOM     14  C   UNL     1      -5.831 -14.437  28.501  1.00  0.00     0.087 C 
ENDBRANCH  11  12
ENDBRANCH  10  11
ENDBRANCH   2  10
TORSDOF 6
ENDMDL
MODEL 7
REMARK VINA RESULT:    -6.155      2.636      5.267
REMARK INTER + INTRA:          -8.946
REMARK INTER:                  -8.182
REMARK INTRA:                  -0.764
REMARK UNBOUND:                -0.633
REMARK SMILES CC(=O)CCC=C(C)CCC=C(C)C
REMARK SMILES IDX 7 1 6 2 8 3 9 4 10 5 11 6 13 7 12 8 14 9 5 10 4 11 2 12 3 13
REMARK SMILES IDX 1 14
REMARK H PARENT
REMARK Flexibility Score: inf
ROOT
ATOM      1  C   UNL     1      -3.635 -11.529  27.969  1.00  0.00    -0.077 C 
ATOM      2  C   UNL     1      -4.414 -12.502  28.493  1.00  0.00    -0.028 C 
ATOM      3  C   UNL     1      -3.129 -11.591  26.546  1.00  0.00     0.039 C 
ENDROOT
BRANCH   1   4
ATOM      4  C   UNL     1      -3.275 -10.334  28.824  1.00  0.00     0.034 C 
BRANCH   4   5
ATOM      5  C   UNL     1      -3.097 -10.745  30.288  1.00  0.00     0.032 C 
BRANCH   5   6
ATOM      6  C   UNL     1      -1.673 -11.163  30.558  1.00  0.00    -0.028 C 
ATOM      7  C   UNL     1       0.136 -12.609  31.432  1.00  0.00     0.039 C 
ATOM      8  C   UNL     1      -1.319 -12.305  31.191  1.00  0.00    -0.080 C 
ATOM      9  C   UNL     1      -2.340 -13.324  31.632  1.00  0.00     0.039 C 
ENDBRANCH   5   6
ENDBRANCH   4   5
ENDBRANCH   1   4
BRANCH   2  10
ATOM     10  C   UNL     1      -4.817 -13.760  27.765  1.00  0.00     0.035 C 
BRANCH  10  11
ATOM     11  C   UNL     1      -6.233 -14.194  28.171  1.00  0.00     0.079 C 
BRANCH  11  12
ATOM     12  C   UNL     1      -6.243 -15.202  29.295  1.00  0.00     0.130 C 
ATOM     13  O   UNL     1      -6.778 -16.293  29.159  1.00  0.00    -0.300 OA
ATOM     14  C   UNL     1      -5.602 -14.867  30.607  1.00  0.00     0.087 C 
ENDBRANCH  11  12
ENDBRANCH  10  11
ENDBRANCH   2  10
TORSDOF 6
ENDMDL
MODEL 8
REMARK VINA RESULT:    -6.046      1.776      2.265
REMARK INTER + INTRA:          -8.800
REMARK INTER:                  -7.807
REMARK INTRA:                  -0.993
REMARK UNBOUND:                -0.633
REMARK SMILES CC(=O)CCC=C(C)CCC=C(C)C
REMARK SMILES IDX 7 1 6 2 8 3 9 4 10 5 11 6 13 7 12 8 14 9 5 10 4 11 2 12 3 13
REMARK SMILES IDX 1 14
REMARK H PARENT
REMARK Flexibility Score: inf
ROOT
ATOM      1  C   UNL     1      -3.836 -11.887  27.224  1.00  0.00    -0.077 C 
ATOM      2  C   UNL     1      -4.477 -11.646  28.391  1.00  0.00    -0.028 C 
ATOM      3  C   UNL     1      -2.825 -10.918  26.655  1.00  0.00     0.039 C 
ENDROOT
BRANCH   1   4
ATOM      4  C   UNL     1      -4.123 -13.171  26.478  1.00  0.00     0.034 C 
BRANCH   4   5
ATOM      5  C   UNL     1      -4.237 -14.351  27.448  1.00  0.00     0.032 C 
BRANCH   5   6
ATOM      6  C   UNL     1      -5.669 -14.804  27.574  1.00  0.00    -0.028 C 
ATOM      7  C   UNL     1      -7.724 -15.516  28.759  1.00  0.00     0.039 C 
ATOM      8  C   UNL     1      -6.296 -15.038  28.751  1.00  0.00    -0.080 C 
ATOM      9  C   UNL     1      -5.623 -14.791  30.078  1.00  0.00     0.039 C 
ENDBRANCH   5   6
ENDBRANCH   4   5
ENDBRANCH   1   4
BRANCH   2  10
ATOM     10  C   UNL     1      -4.311 -10.394  29.215  1.00  0.00     0.035 C 
BRANCH  10  11
ATOM     11  C   UNL     1      -3.927 -10.741  30.660  1.00  0.00     0.079 C 
BRANCH  11  12
ATOM     12  C   UNL     1      -2.618 -11.485  30.762  1.00  0.00     0.130 C 
ATOM     13  O   UNL     1      -1.580 -10.995  30.341  1.00  0.00    -0.300 OA
ATOM     14  C   UNL     1      -2.579 -12.852  31.375  1.00  0.00     0.087 C 
ENDBRANCH  11  12
ENDBRANCH  10  11
ENDBRANCH   2  10
TORSDOF 6
ENDMDL
MODEL 9
REMARK VINA RESULT:    -6.036      1.945      4.039
REMARK INTER + INTRA:          -8.786
REMARK INTER:                  -8.378
REMARK INTRA:                  -0.408
REMARK UNBOUND:                -0.633
REMARK SMILES CC(=O)CCC=C(C)CCC=C(C)C
REMARK SMILES IDX 7 1 6 2 8 3 9 4 10 5 11 6 13 7 12 8 14 9 5 10 4 11 2 12 3 13
REMARK SMILES IDX 1 14
REMARK H PARENT
REMARK Flexibility Score: inf
ROOT
ATOM      1  C   UNL     1      -3.519 -12.943  31.577  1.00  0.00    -0.077 C 
ATOM      2  C   UNL     1      -3.997 -11.851  30.938  1.00  0.00    -0.028 C 
ATOM      3  C   UNL     1      -2.049 -13.296  31.562  1.00  0.00     0.039 C 
ENDROOT
BRANCH   1   4
ATOM      4  C   UNL     1      -4.478 -13.825  32.344  1.00  0.00     0.034 C 
BRANCH   4   5
ATOM      5  C   UNL     1      -5.272 -14.725  31.392  1.00  0.00     0.032 C 
BRANCH   5   6
ATOM      6  C   UNL     1      -5.004 -14.352  29.955  1.00  0.00    -0.028 C 
ATOM      7  C   UNL     1      -5.401 -14.323  27.511  1.00  0.00     0.039 C 
ATOM      8  C   UNL     1      -5.778 -14.730  28.912  1.00  0.00    -0.080 C 
ATOM      9  C   UNL     1      -7.049 -15.520  29.102  1.00  0.00     0.039 C 
ENDBRANCH   5   6
ENDBRANCH   4   5
ENDBRANCH   1   4
BRANCH   2  10
ATOM     10  C   UNL     1      -3.159 -10.909  30.109  1.00  0.00     0.035 C 
BRANCH  10  11
ATOM     11  C   UNL     1      -3.686 -10.835  28.669  1.00  0.00     0.079 C 
BRANCH  11  12
ATOM     12  C   UNL     1      -2.874 -11.659  27.699  1.00  0.00     0.130 C 
ATOM     13  O   UNL     1      -2.096 -12.515  28.096  1.00  0.00    -0.300 OA
ATOM     14  C   UNL     1      -3.005 -11.425  26.225  1.00  0.00     0.087 C 
ENDBRANCH  11  12
ENDBRANCH  10  11
ENDBRANCH   2  10
TORSDOF 6
ENDMDL
