MODEL 1
REMARK VINA RESULT:    -3.324      0.000      0.000
REMARK INTER + INTRA:          -5.078
REMARK INTER:                  -5.072
REMARK INTRA:                  -0.005
REMARK UNBOUND:                -0.005
REMARK SMILES CC1=CCC[C@@H](C)C(=O)C[C@H](C(C)C)C(=O)C1
REMARK SMILES IDX 8 1 9 2 6 3 7 4 5 5 4 6 3 7 2 8 1 9 10 11 11 12 15 13 16 14
REMARK SMILES IDX 17 15 12 17 13 18 14 19
REMARK H PARENT
REMARK Flexibility Score: 70.00
ROOT
ATOM      1  C   UNL     1    -123.977 -99.844   0.790  1.00  0.00     0.136 C 
ATOM      2  O   UNL     1    -123.492 -98.986   0.070  1.00  0.00    -0.299 OA
ENDROOT
BRANCH   1   3
ATOM      3  C   UNL     1    -124.685-101.073   0.208  1.00  0.00     0.053 C 
ATOM      4  C   UNL     1    -125.597-101.707   1.264  1.00  0.00     0.016 C 
BRANCH   3   5
ATOM      5  C   UNL     1    -123.730-102.139  -0.460  1.00  0.00     0.015 C 
BRANCH   5   6
ATOM      6  C   UNL     1    -122.737-102.978   0.436  1.00  0.00     0.028 C 
BRANCH   6   7
ATOM      7  C   UNL     1    -121.264-102.631   0.172  1.00  0.00    -0.028 C 
ATOM      8  C   UNL     1    -120.346-102.017   0.990  1.00  0.00    -0.070 CG0
ATOM      9  C   UNL     1    -118.991-101.720   0.397  1.00  0.00     0.039 C 
ATOM     10  G   UNL     1    -120.565-101.583   2.444  1.00  0.00     0.000 G0
ENDBRANCH   6   7
ENDBRANCH   5   6
ENDBRANCH   3   5
ENDBRANCH   1   3
BRANCH   1  11
ATOM     11  C   UNL     1    -123.902 -99.746   2.265  1.00  0.00     0.087 C 
BRANCH  11  12
ATOM     12  C   UNL     1    -122.971-100.541   3.175  1.00  0.00     0.066 C 
BRANCH  12  13
ATOM     13  C   UNL     1    -121.520-100.385   2.643  1.00  0.00     0.140 C 
ATOM     14  O   UNL     1    -121.083 -99.259   2.457  1.00  0.00    -0.299 OA
BRANCH  13  15
ATOM     15  C   UNL     1    -120.544-101.570   2.448  1.00  0.00     0.106 CG0
ATOM     16  G   UNL     1    -120.366-101.997   0.986  1.00  0.00     0.000 G0
ENDBRANCH  13  15
ENDBRANCH  12  13
BRANCH  12  17
ATOM     17  C   UNL     1    -123.156-100.115   4.666  1.00  0.00    -0.006 C 
ATOM     18  C   UNL     1    -122.124 -99.059   5.089  1.00  0.00     0.008 C 
ATOM     19  C   UNL     1    -124.580 -99.632   5.000  1.00  0.00     0.008 C 
ENDBRANCH  12  17
ENDBRANCH  11  12
ENDBRANCH   1  11
TORSDOF 1
ENDMDL
MODEL 2
REMARK VINA RESULT:    -3.322      4.777      6.912
REMARK INTER + INTRA:          -5.075
REMARK INTER:                  -4.510
REMARK INTRA:                  -0.565
REMARK UNBOUND:                -0.005
REMARK SMILES CC1=CCC[C@@H](C)C(=O)C[C@H](C(C)C)C(=O)C1
REMARK SMILES IDX 8 1 9 2 6 3 7 4 5 5 4 6 3 7 2 8 1 9 10 11 11 12 15 13 16 14
REMARK SMILES IDX 17 15 12 17 13 18 14 19
REMARK H PARENT
REMARK Flexibility Score: 70.00
ROOT
ATOM      1  C   UNL     1    -116.947 -99.593   0.641  1.00  0.00     0.136 C 
ATOM      2  O   UNL     1    -116.469-100.686   0.901  1.00  0.00    -0.299 OA
ENDROOT
BRANCH   1   3
ATOM      3  C   UNL     1    -116.081 -98.330   0.587  1.00  0.00     0.053 C 
ATOM      4  C   UNL     1    -114.803 -98.599  -0.213  1.00  0.00     0.016 C 
BRANCH   3   5
ATOM      5  C   UNL     1    -115.769 -97.674   1.990  1.00  0.00     0.015 C 
BRANCH   5   6
ATOM      6  C   UNL     1    -116.433 -96.296   2.380  1.00  0.00     0.028 C 
BRANCH   6   7
ATOM      7  C   UNL     1    -116.943 -95.518   1.159  1.00  0.00    -0.028 C 
ATOM      8  C   UNL     1    -118.214 -95.431   0.640  1.00  0.00    -0.070 CG0
ATOM      9  C   UNL     1    -118.376 -94.661  -0.646  1.00  0.00     0.039 C 
ATOM     10  G   UNL     1    -119.484 -96.058   1.227  1.00  0.00     0.000 G0
ENDBRANCH   6   7
ENDBRANCH   5   6
ENDBRANCH   3   5
ENDBRANCH   1   3
BRANCH   1  11
ATOM     11  C   UNL     1    -118.391 -99.432   0.356  1.00  0.00     0.087 C 
BRANCH  11  12
ATOM     12  C   UNL     1    -119.427 -98.796   1.278  1.00  0.00     0.066 C 
BRANCH  12  13
ATOM     13  C   UNL     1    -119.873 -97.446   0.650  1.00  0.00     0.140 C 
ATOM     14  O   UNL     1    -120.639 -97.467  -0.300  1.00  0.00    -0.299 OA
BRANCH  13  15
ATOM     15  C   UNL     1    -119.501 -96.063   1.235  1.00  0.00     0.106 CG0
ATOM     16  G   UNL     1    -118.220 -95.459   0.645  1.00  0.00     0.000 G0
ENDBRANCH  13  15
ENDBRANCH  12  13
BRANCH  12  17
ATOM     17  C   UNL     1    -120.598 -99.788   1.563  1.00  0.00    -0.006 C 
ATOM     18  C   UNL     1    -120.200-101.241   1.266  1.00  0.00     0.008 C 
ATOM     19  C   UNL     1    -121.174 -99.674   2.987  1.00  0.00     0.008 C 
ENDBRANCH  12  17
ENDBRANCH  11  12
ENDBRANCH   1  11
TORSDOF 1
ENDMDL
MODEL 3
REMARK VINA RESULT:    -3.211      8.966     11.307
REMARK INTER + INTRA:          -4.905
REMARK INTER:                  -4.668
REMARK INTRA:                  -0.237
REMARK UNBOUND:                -0.005
REMARK SMILES CC1=CCC[C@@H](C)C(=O)C[C@H](C(C)C)C(=O)C1
REMARK SMILES IDX 8 1 9 2 6 3 7 4 5 5 4 6 3 7 2 8 1 9 10 11 11 12 15 13 16 14
REMARK SMILES IDX 17 15 12 17 13 18 14 19
REMARK H PARENT
REMARK Flexibility Score: 70.00
ROOT
ATOM      1  C   UNL     1    -114.509 -95.906   5.865  1.00  0.00     0.136 C 
ATOM      2  O   UNL     1    -115.406 -96.436   6.501  1.00  0.00    -0.299 OA
ENDROOT
BRANCH   1   3
ATOM      3  C   UNL     1    -113.264 -95.337   6.554  1.00  0.00     0.053 C 
ATOM      4  C   UNL     1    -113.615 -94.850   7.963  1.00  0.00     0.016 C 
BRANCH   3   5
ATOM      5  C   UNL     1    -112.488 -94.236   5.728  1.00  0.00     0.015 C 
BRANCH   5   6
ATOM      6  C   UNL     1    -112.944 -92.727   5.805  1.00  0.00     0.028 C 
BRANCH   6   7
ATOM      7  C   UNL     1    -113.451 -92.192   4.457  1.00  0.00    -0.028 C 
ATOM      8  C   UNL     1    -114.658 -92.394   3.830  1.00  0.00    -0.070 CG0
ATOM      9  C   UNL     1    -114.816 -91.811   2.448  1.00  0.00     0.039 C 
ATOM     10  G   UNL     1    -115.856 -93.173   4.385  1.00  0.00     0.000 G0
ENDBRANCH   6   7
ENDBRANCH   5   6
ENDBRANCH   3   5
ENDBRANCH   1   3
BRANCH   1  11
ATOM     11  C   UNL     1    -114.574 -95.790   4.390  1.00  0.00     0.087 C 
BRANCH  11  12
ATOM     12  C   UNL     1    -115.842 -95.784   3.541  1.00  0.00     0.066 C 
BRANCH  12  13
ATOM     13  C   UNL     1    -116.371 -94.324   3.468  1.00  0.00     0.140 C 
ATOM     14  O   UNL     1    -117.301 -94.076   2.718  1.00  0.00    -0.299 OA
BRANCH  13  15
ATOM     15  C   UNL     1    -115.869 -93.182   4.384  1.00  0.00     0.106 CG0
ATOM     16  G   UNL     1    -114.661 -92.419   3.825  1.00  0.00     0.000 G0
ENDBRANCH  13  15
ENDBRANCH  12  13
BRANCH  12  17
ATOM     17  C   UNL     1    -115.579 -96.440   2.149  1.00  0.00    -0.006 C 
ATOM     18  C   UNL     1    -114.090 -96.749   1.936  1.00  0.00     0.008 C 
ATOM     19  C   UNL     1    -116.428 -97.699   1.888  1.00  0.00     0.008 C 
ENDBRANCH  12  17
ENDBRANCH  11  12
ENDBRANCH   1  11
TORSDOF 1
ENDMDL
MODEL 4
REMARK VINA RESULT:    -3.130      3.686      5.926
REMARK INTER + INTRA:          -4.782
REMARK INTER:                  -4.447
REMARK INTRA:                  -0.336
REMARK UNBOUND:                -0.005
REMARK SMILES CC1=CCC[C@@H](C)C(=O)C[C@H](C(C)C)C(=O)C1
REMARK SMILES IDX 8 1 9 2 6 3 7 4 5 5 4 6 3 7 2 8 1 9 10 11 11 12 15 13 16 14
REMARK SMILES IDX 17 15 12 17 13 18 14 19
REMARK H PARENT
REMARK Flexibility Score: 70.00
ROOT
ATOM      1  C   UNL     1    -117.773-101.137   0.416  1.00  0.00     0.136 C 
ATOM      2  O   UNL     1    -117.408-102.280   0.641  1.00  0.00    -0.299 OA
ENDROOT
BRANCH   1   3
ATOM      3  C   UNL     1    -116.781-100.043   0.005  1.00  0.00     0.053 C 
ATOM      4  C   UNL     1    -115.765-100.600  -0.997  1.00  0.00     0.016 C 
BRANCH   3   5
ATOM      5  C   UNL     1    -116.073 -99.299   1.206  1.00  0.00     0.015 C 
BRANCH   5   6
ATOM      6  C   UNL     1    -116.743 -98.019   1.843  1.00  0.00     0.028 C 
BRANCH   6   7
ATOM      7  C   UNL     1    -117.323 -97.066   0.787  1.00  0.00    -0.028 C 
ATOM      8  C   UNL     1    -118.629 -96.717   0.541  1.00  0.00    -0.070 CG0
ATOM      9  C   UNL     1    -118.887 -95.827  -0.649  1.00  0.00     0.039 C 
ATOM     10  G   UNL     1    -119.859 -97.158   1.344  1.00  0.00     0.000 G0
ENDBRANCH   6   7
ENDBRANCH   5   6
ENDBRANCH   3   5
ENDBRANCH   1   3
BRANCH   1  11
ATOM     11  C   UNL     1    -119.198-100.747   0.522  1.00  0.00     0.087 C 
BRANCH  11  12
ATOM     12  C   UNL     1    -119.819 -99.890   1.620  1.00  0.00     0.066 C 
BRANCH  12  13
ATOM     13  C   UNL     1    -120.365 -98.588   0.970  1.00  0.00     0.140 C 
ATOM     14  O   UNL     1    -121.308 -98.670   0.198  1.00  0.00    -0.299 OA
BRANCH  13  15
ATOM     15  C   UNL     1    -119.864 -97.171   1.336  1.00  0.00     0.106 CG0
ATOM     16  G   UNL     1    -118.650 -96.708   0.520  1.00  0.00     0.000 G0
ENDBRANCH  13  15
ENDBRANCH  12  13
BRANCH  12  17
ATOM     17  C   UNL     1    -120.886-100.702   2.420  1.00  0.00    -0.006 C 
ATOM     18  C   UNL     1    -121.962 -99.789   3.025  1.00  0.00     0.008 C 
ATOM     19  C   UNL     1    -121.543-101.833   1.606  1.00  0.00     0.008 C 
ENDBRANCH  12  17
ENDBRANCH  11  12
ENDBRANCH   1  11
TORSDOF 1
ENDMDL
MODEL 5
REMARK VINA RESULT:    -3.102      1.694      3.514
REMARK INTER + INTRA:          -4.739
REMARK INTER:                  -4.935
REMARK INTRA:                   0.195
REMARK UNBOUND:                -0.005
REMARK SMILES CC1=CCC[C@@H](C)C(=O)C[C@H](C(C)C)C(=O)C1
REMARK SMILES IDX 8 1 9 2 6 3 7 4 5 5 4 6 3 7 2 8 1 9 10 11 11 12 15 13 16 14
REMARK SMILES IDX 17 15 12 17 13 18 14 19
REMARK H PARENT
REMARK Flexibility Score: 70.00
ROOT
ATOM      1  C   UNL     1    -120.471 -99.339   1.916  1.00  0.00     0.136 C 
ATOM      2  O   UNL     1    -120.774 -98.242   1.473  1.00  0.00    -0.299 OA
ENDROOT
BRANCH   1   3
ATOM      3  C   UNL     1    -119.147-100.016   1.545  1.00  0.00     0.053 C 
ATOM      4  C   UNL     1    -118.300 -99.081   0.675  1.00  0.00     0.016 C 
BRANCH   3   5
ATOM      5  C   UNL     1    -119.289-101.451   0.899  1.00  0.00     0.015 C 
BRANCH   5   6
ATOM      6  C   UNL     1    -119.580-101.594  -0.646  1.00  0.00     0.028 C 
BRANCH   6   7
ATOM      7  C   UNL     1    -120.973-101.080  -1.037  1.00  0.00    -0.028 C 
ATOM      8  C   UNL     1    -122.184-101.258  -0.409  1.00  0.00    -0.070 CG0
ATOM      9  C   UNL     1    -123.403-100.708  -1.106  1.00  0.00     0.039 C 
ATOM     10  G   UNL     1    -122.424-101.979   0.922  1.00  0.00     0.000 G0
ENDBRANCH   6   7
ENDBRANCH   5   6
ENDBRANCH   3   5
ENDBRANCH   1   3
BRANCH   1  11
ATOM     11  C   UNL     1    -121.364-100.070   2.843  1.00  0.00     0.087 C 
BRANCH  11  12
ATOM     12  C   UNL     1    -122.890-100.057   2.824  1.00  0.00     0.066 C 
BRANCH  12  13
ATOM     13  C   UNL     1    -123.374-101.208   1.900  1.00  0.00     0.140 C 
ATOM     14  O   UNL     1    -124.568-101.461   1.857  1.00  0.00    -0.299 OA
BRANCH  13  15
ATOM     15  C   UNL     1    -122.447-101.980   0.931  1.00  0.00     0.106 CG0
ATOM     16  G   UNL     1    -122.185-101.254  -0.394  1.00  0.00     0.000 G0
ENDBRANCH  13  15
ENDBRANCH  12  13
BRANCH  12  17
ATOM     17  C   UNL     1    -123.462-100.116   4.275  1.00  0.00    -0.006 C 
ATOM     18  C   UNL     1    -122.345-100.121   5.329  1.00  0.00     0.008 C 
ATOM     19  C   UNL     1    -124.482 -99.004   4.585  1.00  0.00     0.008 C 
ENDBRANCH  12  17
ENDBRANCH  11  12
ENDBRANCH   1  11
TORSDOF 1
ENDMDL
MODEL 6
REMARK VINA RESULT:    -2.999     10.703     12.422
REMARK INTER + INTRA:          -4.582
REMARK INTER:                  -4.043
REMARK INTRA:                  -0.538
REMARK UNBOUND:                -0.005
REMARK SMILES CC1=CCC[C@@H](C)C(=O)C[C@H](C(C)C)C(=O)C1
REMARK SMILES IDX 8 1 9 2 6 3 7 4 5 5 4 6 3 7 2 8 1 9 10 11 11 12 15 13 16 14
REMARK SMILES IDX 17 15 12 17 13 18 14 19
REMARK H PARENT
REMARK Flexibility Score: 70.00
ROOT
ATOM      1  C   UNL     1    -115.404 -92.713   4.385  1.00  0.00     0.136 C 
ATOM      2  O   UNL     1    -116.348 -91.977   4.628  1.00  0.00    -0.299 OA
ENDROOT
BRANCH   1   3
ATOM      3  C   UNL     1    -115.601 -94.210   4.124  1.00  0.00     0.053 C 
ATOM      4  C   UNL     1    -116.649 -94.423   3.027  1.00  0.00     0.016 C 
BRANCH   3   5
ATOM      5  C   UNL     1    -115.910 -95.077   5.408  1.00  0.00     0.015 C 
BRANCH   5   6
ATOM      6  C   UNL     1    -114.859 -95.146   6.583  1.00  0.00     0.028 C 
BRANCH   6   7
ATOM      7  C   UNL     1    -113.585 -95.911   6.195  1.00  0.00    -0.028 C 
ATOM      8  C   UNL     1    -112.282 -95.476   6.137  1.00  0.00    -0.070 CG0
ATOM      9  C   UNL     1    -111.258 -96.451   5.612  1.00  0.00     0.039 C 
ATOM     10  G   UNL     1    -111.764 -94.088   6.532  1.00  0.00     0.000 G0
ENDBRANCH   6   7
ENDBRANCH   5   6
ENDBRANCH   3   5
ENDBRANCH   1   3
BRANCH   1  11
ATOM     11  C   UNL     1    -114.019 -92.195   4.323  1.00  0.00     0.087 C 
BRANCH  11  12
ATOM     12  C   UNL     1    -113.099 -91.934   5.512  1.00  0.00     0.066 C 
BRANCH  12  13
ATOM     13  C   UNL     1    -111.952 -92.982   5.479  1.00  0.00     0.140 C 
ATOM     14  O   UNL     1    -111.093 -92.882   4.617  1.00  0.00    -0.299 OA
BRANCH  13  15
ATOM     15  C   UNL     1    -111.763 -94.082   6.551  1.00  0.00     0.106 CG0
ATOM     16  G   UNL     1    -112.285 -95.461   6.129  1.00  0.00     0.000 G0
ENDBRANCH  13  15
ENDBRANCH  12  13
BRANCH  12  17
ATOM     17  C   UNL     1    -112.611 -90.451   5.520  1.00  0.00    -0.006 C 
ATOM     18  C   UNL     1    -113.782 -89.465   5.391  1.00  0.00     0.008 C 
ATOM     19  C   UNL     1    -111.743 -90.091   6.740  1.00  0.00     0.008 C 
ENDBRANCH  12  17
ENDBRANCH  11  12
ENDBRANCH   1  11
TORSDOF 1
ENDMDL
MODEL 7
REMARK VINA RESULT:    -2.987      2.106      5.159
REMARK INTER + INTRA:          -4.563
REMARK INTER:                  -4.334
REMARK INTRA:                  -0.229
REMARK UNBOUND:                -0.005
REMARK SMILES CC1=CCC[C@@H](C)C(=O)C[C@H](C(C)C)C(=O)C1
REMARK SMILES IDX 8 1 9 2 6 3 7 4 5 5 4 6 3 7 2 8 1 9 10 11 11 12 15 13 16 14
REMARK SMILES IDX 17 15 12 17 13 18 14 19
REMARK H PARENT
REMARK Flexibility Score: 70.00
ROOT
ATOM      1  C   UNL     1    -121.665 -99.615   3.489  1.00  0.00     0.136 C 
ATOM      2  O   UNL     1    -121.014 -98.722   2.970  1.00  0.00    -0.299 OA
ENDROOT
BRANCH   1   3
ATOM      3  C   UNL     1    -122.446 -99.387   4.788  1.00  0.00     0.053 C 
ATOM      4  C   UNL     1    -122.531-100.690   5.589  1.00  0.00     0.016 C 
BRANCH   3   5
ATOM      5  C   UNL     1    -123.864 -98.716   4.605  1.00  0.00     0.015 C 
BRANCH   5   6
ATOM      6  C   UNL     1    -125.150 -99.620   4.459  1.00  0.00     0.028 C 
BRANCH   6   7
ATOM      7  C   UNL     1    -125.968 -99.289   3.203  1.00  0.00    -0.028 C 
ATOM      8  C   UNL     1    -125.866 -99.795   1.929  1.00  0.00    -0.070 CG0
ATOM      9  C   UNL     1    -126.756 -99.183   0.876  1.00  0.00     0.039 C 
ATOM     10  G   UNL     1    -124.922-100.909   1.462  1.00  0.00     0.000 G0
ENDBRANCH   6   7
ENDBRANCH   5   6
ENDBRANCH   3   5
ENDBRANCH   1   3
BRANCH   1  11
ATOM     11  C   UNL     1    -121.739-100.965   2.887  1.00  0.00     0.087 C 
BRANCH  11  12
ATOM     12  C   UNL     1    -122.219-101.299   1.478  1.00  0.00     0.066 C 
BRANCH  12  13
ATOM     13  C   UNL     1    -123.480-100.442   1.178  1.00  0.00     0.140 C 
ATOM     14  O   UNL     1    -123.339 -99.376   0.600  1.00  0.00    -0.299 OA
BRANCH  13  15
ATOM     15  C   UNL     1    -124.927-100.914   1.459  1.00  0.00     0.106 CG0
ATOM     16  G   UNL     1    -125.863 -99.802   1.946  1.00  0.00     0.000 G0
ENDBRANCH  13  15
ENDBRANCH  12  13
BRANCH  12  17
ATOM     17  C   UNL     1    -121.064-101.124   0.442  1.00  0.00    -0.006 C 
ATOM     18  C   UNL     1    -119.701-101.502   1.039  1.00  0.00     0.008 C 
ATOM     19  C   UNL     1    -121.296-101.881  -0.879  1.00  0.00     0.008 C 
ENDBRANCH  12  17
ENDBRANCH  11  12
ENDBRANCH   1  11
TORSDOF 1
ENDMDL
MODEL 8
REMARK VINA RESULT:    -2.922      2.998      5.534
REMARK INTER + INTRA:          -4.464
REMARK INTER:                  -3.984
REMARK INTRA:                  -0.480
REMARK UNBOUND:                -0.005
REMARK SMILES CC1=CCC[C@@H](C)C(=O)C[C@H](C(C)C)C(=O)C1
REMARK SMILES IDX 8 1 9 2 6 3 7 4 5 5 4 6 3 7 2 8 1 9 10 11 11 12 15 13 16 14
REMARK SMILES IDX 17 15 12 17 13 18 14 19
REMARK H PARENT
REMARK Flexibility Score: 70.00
ROOT
ATOM      1  C   UNL     1    -116.899-100.203   0.687  1.00  0.00     0.136 C 
ATOM      2  O   UNL     1    -115.733 -99.845   0.730  1.00  0.00    -0.299 OA
ENDROOT
BRANCH   1   3
ATOM      3  C   UNL     1    -117.293-101.602   0.200  1.00  0.00     0.053 C 
ATOM      4  C   UNL     1    -117.455-101.606  -1.323  1.00  0.00     0.016 C 
BRANCH   3   5
ATOM      5  C   UNL     1    -118.546-102.233   0.926  1.00  0.00     0.015 C 
BRANCH   5   6
ATOM      6  C   UNL     1    -119.916-102.374   0.153  1.00  0.00     0.028 C 
BRANCH   6   7
ATOM      7  C   UNL     1    -121.131-102.066   1.040  1.00  0.00    -0.028 C 
ATOM      8  C   UNL     1    -121.833-100.894   1.192  1.00  0.00    -0.070 CG0
ATOM      9  C   UNL     1    -122.927-100.882   2.231  1.00  0.00     0.039 C 
ATOM     10  G   UNL     1    -121.603 -99.586   0.426  1.00  0.00     0.000 G0
ENDBRANCH   6   7
ENDBRANCH   5   6
ENDBRANCH   3   5
ENDBRANCH   1   3
BRANCH   1  11
ATOM     11  C   UNL     1    -117.997 -99.304   1.111  1.00  0.00     0.087 C 
BRANCH  11  12
ATOM     12  C   UNL     1    -119.047 -98.673   0.202  1.00  0.00     0.066 C 
BRANCH  12  13
ATOM     13  C   UNL     1    -120.421 -98.743   0.925  1.00  0.00     0.140 C 
ATOM     14  O   UNL     1    -120.609 -98.026   1.896  1.00  0.00    -0.299 OA
BRANCH  13  15
ATOM     15  C   UNL     1    -121.618 -99.581   0.416  1.00  0.00     0.106 CG0
ATOM     16  G   UNL     1    -121.831-100.893   1.179  1.00  0.00     0.000 G0
ENDBRANCH  13  15
ENDBRANCH  12  13
BRANCH  12  17
ATOM     17  C   UNL     1    -118.620 -97.232  -0.222  1.00  0.00    -0.006 C 
ATOM     18  C   UNL     1    -117.316 -97.240  -1.033  1.00  0.00     0.008 C 
ATOM     19  C   UNL     1    -119.714 -96.459  -0.980  1.00  0.00     0.008 C 
ENDBRANCH  12  17
ENDBRANCH  11  12
ENDBRANCH   1  11
TORSDOF 1
ENDMDL
MODEL 9
REMARK VINA RESULT:    -2.782      2.182      4.428
REMARK INTER + INTRA:          -4.251
REMARK INTER:                  -3.870
REMARK INTRA:                  -0.380
REMARK UNBOUND:                -0.005
REMARK SMILES CC1=CCC[C@@H](C)C(=O)C[C@H](C(C)C)C(=O)C1
REMARK SMILES IDX 8 1 9 2 6 3 7 4 5 5 4 6 3 7 2 8 1 9 10 11 11 12 15 13 16 14
REMARK SMILES IDX 17 15 12 17 13 18 14 19
REMARK H PARENT
REMARK Flexibility Score: 70.00
ROOT
ATOM      1  C   UNL     1    -122.546 -99.960   3.414  1.00  0.00     0.136 C 
ATOM      2  O   UNL     1    -122.385-100.240   4.591  1.00  0.00    -0.299 OA
ENDROOT
BRANCH   1   3
ATOM      3  C   UNL     1    -123.942 -99.913   2.783  1.00  0.00     0.053 C 
ATOM      4  C   UNL     1    -124.949 -99.316   3.771  1.00  0.00     0.016 C 
BRANCH   3   5
ATOM      5  C   UNL     1    -124.449-101.284   2.183  1.00  0.00     0.015 C 
BRANCH   5   6
ATOM      6  C   UNL     1    -124.763-101.400   0.640  1.00  0.00     0.028 C 
BRANCH   6   7
ATOM      7  C   UNL     1    -125.000-100.034  -0.020  1.00  0.00    -0.028 C 
ATOM      8  C   UNL     1    -124.122 -99.221  -0.698  1.00  0.00    -0.070 CG0
ATOM      9  C   UNL     1    -124.640 -97.877  -1.143  1.00  0.00     0.039 C 
ATOM     10  G   UNL     1    -122.658 -99.535  -1.030  1.00  0.00     0.000 G0
ENDBRANCH   6   7
ENDBRANCH   5   6
ENDBRANCH   3   5
ENDBRANCH   1   3
BRANCH   1  11
ATOM     11  C   UNL     1    -121.398 -99.643   2.534  1.00  0.00     0.087 C 
BRANCH  11  12
ATOM     12  C   UNL     1    -121.140-100.220   1.146  1.00  0.00     0.066 C 
BRANCH  12  13
ATOM     13  C   UNL     1    -121.643 -99.195   0.091  1.00  0.00     0.140 C 
ATOM     14  O   UNL     1    -121.147 -98.079   0.077  1.00  0.00    -0.299 OA
BRANCH  13  15
ATOM     15  C   UNL     1    -122.654 -99.541  -1.028  1.00  0.00     0.106 CG0
ATOM     16  G   UNL     1    -124.111 -99.223  -0.673  1.00  0.00     0.000 G0
ENDBRANCH  13  15
ENDBRANCH  12  13
BRANCH  12  17
ATOM     17  C   UNL     1    -119.640-100.622   0.983  1.00  0.00    -0.006 C 
ATOM     18  C   UNL     1    -119.346-101.992   1.613  1.00  0.00     0.008 C 
ATOM     19  C   UNL     1    -119.144-100.589  -0.475  1.00  0.00     0.008 C 
ENDBRANCH  12  17
ENDBRANCH  11  12
ENDBRANCH   1  11
TORSDOF 1
ENDMDL
