MODEL 1
REMARK VINA RESULT:    -4.914      0.000      0.000
REMARK INTER + INTRA:          -8.862
REMARK INTER:                  -7.500
REMARK INTRA:                  -1.362
REMARK UNBOUND:                -1.362
REMARK SMILES CC(=O)CCC=C(C)CCC=C(C)CCC=C(C)C
REMARK SMILES IDX 10 1 11 2 12 3 13 4 14 5 15 6 16 7 18 8 17 9 19 10 9 11 7 12
REMARK SMILES IDX 6 13 8 14 5 15 4 16 2 17 3 18 1 19
REMARK H PARENT
REMARK Flexibility Score: inf
ROOT
ATOM      1  C   UNL     1      10.362  28.976  14.198  1.00  0.00     0.032 C 
ENDROOT
BRANCH   1   2
ATOM      2  C   UNL     1       9.725  29.654  15.383  1.00  0.00    -0.028 C 
ATOM      3  C   UNL     1       8.565  30.351  15.329  1.00  0.00    -0.077 C 
ATOM      4  C   UNL     1       7.744  30.434  14.064  1.00  0.00     0.039 C 
BRANCH   3   5
ATOM      5  C   UNL     1       8.072  31.058  16.576  1.00  0.00     0.034 C 
BRANCH   5   6
ATOM      6  C   UNL     1       7.486  30.077  17.601  1.00  0.00     0.032 C 
BRANCH   6   7
ATOM      7  C   UNL     1       6.029  29.773  17.331  1.00  0.00    -0.028 C 
ATOM      8  C   UNL     1       6.466  27.409  16.623  1.00  0.00     0.039 C 
ATOM      9  C   UNL     1       5.561  28.593  16.869  1.00  0.00    -0.080 C 
ATOM     10  C   UNL     1       4.080  28.460  16.617  1.00  0.00     0.039 C 
ENDBRANCH   6   7
ENDBRANCH   5   6
ENDBRANCH   3   5
ENDBRANCH   1   2
BRANCH   1  11
ATOM     11  C   UNL     1      10.713  27.522  14.534  1.00  0.00     0.034 C 
BRANCH  11  12
ATOM     12  C   UNL     1      12.130  27.417  15.050  1.00  0.00    -0.077 C 
ATOM     13  C   UNL     1      12.478  26.363  15.819  1.00  0.00    -0.028 C 
ATOM     14  C   UNL     1      13.128  28.491  14.687  1.00  0.00     0.039 C 
BRANCH  13  15
ATOM     15  C   UNL     1      13.871  26.168  16.371  1.00  0.00     0.035 C 
BRANCH  15  16
ATOM     16  C   UNL     1      14.697  25.195  15.518  1.00  0.00     0.079 C 
BRANCH  16  17
ATOM     17  C   UNL     1      16.166  25.536  15.555  1.00  0.00     0.130 C 
ATOM     18  O   UNL     1      16.983  24.654  15.769  1.00  0.00    -0.300 OA
ATOM     19  C   UNL     1      16.648  26.941  15.349  1.00  0.00     0.087 C 
ENDBRANCH  16  17
ENDBRANCH  15  16
ENDBRANCH  13  15
ENDBRANCH  11  12
ENDBRANCH   1  11
TORSDOF 9
ENDMDL
MODEL 2
REMARK VINA RESULT:    -4.816      3.184      8.485
REMARK INTER + INTRA:          -8.712
REMARK INTER:                  -7.458
REMARK INTRA:                  -1.254
REMARK UNBOUND:                -1.362
REMARK SMILES CC(=O)CCC=C(C)CCC=C(C)CCC=C(C)C
REMARK SMILES IDX 10 1 11 2 12 3 13 4 14 5 15 6 16 7 18 8 17 9 19 10 9 11 7 12
REMARK SMILES IDX 6 13 8 14 5 15 4 16 2 17 3 18 1 19
REMARK H PARENT
REMARK Flexibility Score: inf
ROOT
ATOM      1  C   UNL     1      10.904  26.987  14.507  1.00  0.00     0.032 C 
ENDROOT
BRANCH   1   2
ATOM      2  C   UNL     1      12.288  26.393  14.470  1.00  0.00    -0.028 C 
ATOM      3  C   UNL     1      12.695  25.358  15.242  1.00  0.00    -0.077 C 
ATOM      4  C   UNL     1      11.745  24.635  16.168  1.00  0.00     0.039 C 
BRANCH   3   5
ATOM      5  C   UNL     1      14.140  24.907  15.170  1.00  0.00     0.034 C 
BRANCH   5   6
ATOM      6  C   UNL     1      15.048  25.735  16.090  1.00  0.00     0.032 C 
BRANCH   6   7
ATOM      7  C   UNL     1      16.275  26.246  15.369  1.00  0.00    -0.028 C 
ATOM      8  C   UNL     1      15.257  28.472  14.833  1.00  0.00     0.039 C 
ATOM      9  C   UNL     1      16.375  27.458  14.780  1.00  0.00    -0.080 C 
ATOM     10  C   UNL     1      17.658  27.805  14.069  1.00  0.00     0.039 C 
ENDBRANCH   6   7
ENDBRANCH   5   6
ENDBRANCH   3   5
ENDBRANCH   1   2
BRANCH   1  11
ATOM     11  C   UNL     1      10.972  28.494  14.772  1.00  0.00     0.034 C 
BRANCH  11  12
ATOM     12  C   UNL     1       9.585  29.078  14.917  1.00  0.00    -0.077 C 
ATOM     13  C   UNL     1       9.365  30.041  15.837  1.00  0.00    -0.028 C 
ATOM     14  C   UNL     1       8.476  28.574  14.023  1.00  0.00     0.039 C 
BRANCH  13  15
ATOM     15  C   UNL     1       8.016  30.690  16.047  1.00  0.00     0.035 C 
BRANCH  15  16
ATOM     16  C   UNL     1       7.391  30.299  17.393  1.00  0.00     0.079 C 
BRANCH  16  17
ATOM     17  C   UNL     1       6.313  29.258  17.222  1.00  0.00     0.130 C 
ATOM     18  O   UNL     1       5.141  29.601  17.221  1.00  0.00    -0.300 OA
ATOM     19  C   UNL     1       6.647  27.804  17.070  1.00  0.00     0.087 C 
ENDBRANCH  16  17
ENDBRANCH  15  16
ENDBRANCH  13  15
ENDBRANCH  11  12
ENDBRANCH   1  11
TORSDOF 9
ENDMDL
MODEL 3
REMARK VINA RESULT:    -4.816      1.250      2.067
REMARK INTER + INTRA:          -8.711
REMARK INTER:                  -7.353
REMARK INTRA:                  -1.358
REMARK UNBOUND:                -1.362
REMARK SMILES CC(=O)CCC=C(C)CCC=C(C)CCC=C(C)C
REMARK SMILES IDX 10 1 11 2 12 3 13 4 14 5 15 6 16 7 18 8 17 9 19 10 9 11 7 12
REMARK SMILES IDX 6 13 8 14 5 15 4 16 2 17 3 18 1 19
REMARK H PARENT
REMARK Flexibility Score: inf
ROOT
ATOM      1  C   UNL     1      10.179  26.517  13.995  1.00  0.00     0.032 C 
ENDROOT
BRANCH   1   2
ATOM      2  C   UNL     1       9.330  27.670  14.467  1.00  0.00    -0.028 C 
ATOM      3  C   UNL     1       9.797  28.924  14.677  1.00  0.00    -0.077 C 
ATOM      4  C   UNL     1      11.224  29.305  14.362  1.00  0.00     0.039 C 
BRANCH   3   5
ATOM      5  C   UNL     1       8.859  29.976  15.234  1.00  0.00     0.034 C 
BRANCH   5   6
ATOM      6  C   UNL     1       8.398  29.640  16.659  1.00  0.00     0.032 C 
BRANCH   6   7
ATOM      7  C   UNL     1       6.895  29.713  16.805  1.00  0.00    -0.028 C 
ATOM      8  C   UNL     1       6.606  27.228  16.946  1.00  0.00     0.039 C 
ATOM      9  C   UNL     1       6.077  28.643  16.909  1.00  0.00    -0.080 C 
ATOM     10  C   UNL     1       4.593  28.883  17.012  1.00  0.00     0.039 C 
ENDBRANCH   6   7
ENDBRANCH   5   6
ENDBRANCH   3   5
ENDBRANCH   1   2
BRANCH   1  11
ATOM     11  C   UNL     1      10.161  25.380  15.021  1.00  0.00     0.034 C 
BRANCH  11  12
ATOM     12  C   UNL     1      11.536  25.168  15.611  1.00  0.00    -0.077 C 
ATOM     13  C   UNL     1      12.434  26.176  15.576  1.00  0.00    -0.028 C 
ATOM     14  C   UNL     1      11.874  23.834  16.235  1.00  0.00     0.039 C 
BRANCH  13  15
ATOM     15  C   UNL     1      13.828  26.061  16.150  1.00  0.00     0.035 C 
BRANCH  15  16
ATOM     16  C   UNL     1      14.894  25.934  15.054  1.00  0.00     0.079 C 
BRANCH  16  17
ATOM     17  C   UNL     1      15.901  24.859  15.381  1.00  0.00     0.130 C 
ATOM     18  O   UNL     1      15.676  23.705  15.052  1.00  0.00    -0.300 OA
ATOM     19  C   UNL     1      17.168  25.174  16.118  1.00  0.00     0.087 C 
ENDBRANCH  16  17
ENDBRANCH  15  16
ENDBRANCH  13  15
ENDBRANCH  11  12
ENDBRANCH   1  11
TORSDOF 9
ENDMDL
MODEL 4
REMARK VINA RESULT:    -4.753      1.737      2.320
REMARK INTER + INTRA:          -8.616
REMARK INTER:                  -7.263
REMARK INTRA:                  -1.353
REMARK UNBOUND:                -1.362
REMARK SMILES CC(=O)CCC=C(C)CCC=C(C)CCC=C(C)C
REMARK SMILES IDX 10 1 11 2 12 3 13 4 14 5 15 6 16 7 18 8 17 9 19 10 9 11 7 12
REMARK SMILES IDX 6 13 8 14 5 15 4 16 2 17 3 18 1 19
REMARK H PARENT
REMARK Flexibility Score: inf
ROOT
ATOM      1  C   UNL     1      10.339  28.699  14.430  1.00  0.00     0.032 C 
ENDROOT
BRANCH   1   2
ATOM      2  C   UNL     1       9.657  29.513  15.500  1.00  0.00    -0.028 C 
ATOM      3  C   UNL     1       8.567  30.289  15.289  1.00  0.00    -0.077 C 
ATOM      4  C   UNL     1       7.871  30.336  13.950  1.00  0.00     0.039 C 
BRANCH   3   5
ATOM      5  C   UNL     1       8.027  31.125  16.432  1.00  0.00     0.034 C 
BRANCH   5   6
ATOM      6  C   UNL     1       7.434  30.257  17.551  1.00  0.00     0.032 C 
BRANCH   6   7
ATOM      7  C   UNL     1       5.987  29.903  17.291  1.00  0.00    -0.028 C 
ATOM      8  C   UNL     1       6.477  27.500  16.779  1.00  0.00     0.039 C 
ATOM      9  C   UNL     1       5.546  28.681  16.920  1.00  0.00    -0.080 C 
ATOM     10  C   UNL     1       4.072  28.499  16.665  1.00  0.00     0.039 C 
ENDBRANCH   6   7
ENDBRANCH   5   6
ENDBRANCH   3   5
ENDBRANCH   1   2
BRANCH   1  11
ATOM     11  C   UNL     1      11.780  29.178  14.225  1.00  0.00     0.034 C 
BRANCH  11  12
ATOM     12  C   UNL     1      12.762  28.192  14.815  1.00  0.00    -0.077 C 
ATOM     13  C   UNL     1      12.300  27.055  15.381  1.00  0.00    -0.028 C 
ATOM     14  C   UNL     1      14.240  28.495  14.753  1.00  0.00     0.039 C 
BRANCH  13  15
ATOM     15  C   UNL     1      13.205  26.007  15.986  1.00  0.00     0.035 C 
BRANCH  15  16
ATOM     16  C   UNL     1      13.267  24.736  15.128  1.00  0.00     0.079 C 
BRANCH  16  17
ATOM     17  C   UNL     1      12.119  23.806  15.430  1.00  0.00     0.130 C 
ATOM     18  O   UNL     1      11.755  23.656  16.586  1.00  0.00    -0.300 OA
ATOM     19  C   UNL     1      11.422  23.045  14.342  1.00  0.00     0.087 C 
ENDBRANCH  16  17
ENDBRANCH  15  16
ENDBRANCH  13  15
ENDBRANCH  11  12
ENDBRANCH   1  11
TORSDOF 9
ENDMDL
MODEL 5
REMARK VINA RESULT:    -4.748      3.663      7.298
REMARK INTER + INTRA:          -8.608
REMARK INTER:                  -6.580
REMARK INTRA:                  -2.028
REMARK UNBOUND:                -1.362
REMARK SMILES CC(=O)CCC=C(C)CCC=C(C)CCC=C(C)C
REMARK SMILES IDX 10 1 11 2 12 3 13 4 14 5 15 6 16 7 18 8 17 9 19 10 9 11 7 12
REMARK SMILES IDX 6 13 8 14 5 15 4 16 2 17 3 18 1 19
REMARK H PARENT
REMARK Flexibility Score: inf
ROOT
ATOM      1  C   UNL     1       8.032  30.727  16.023  1.00  0.00     0.032 C 
ENDROOT
BRANCH   1   2
ATOM      2  C   UNL     1       9.452  30.280  15.786  1.00  0.00    -0.028 C 
ATOM      3  C   UNL     1       9.811  29.321  14.900  1.00  0.00    -0.077 C 
ATOM      4  C   UNL     1       8.804  28.664  13.987  1.00  0.00     0.039 C 
BRANCH   3   5
ATOM      5  C   UNL     1      11.265  28.902  14.817  1.00  0.00     0.034 C 
BRANCH   5   6
ATOM      6  C   UNL     1      11.444  27.596  14.029  1.00  0.00     0.032 C 
BRANCH   6   7
ATOM      7  C   UNL     1      11.879  26.451  14.915  1.00  0.00    -0.028 C 
ATOM      8  C   UNL     1       9.662  25.288  14.808  1.00  0.00     0.039 C 
ATOM      9  C   UNL     1      11.086  25.425  15.293  1.00  0.00    -0.080 C 
ATOM     10  C   UNL     1      11.661  24.376  16.212  1.00  0.00     0.039 C 
ENDBRANCH   6   7
ENDBRANCH   5   6
ENDBRANCH   3   5
ENDBRANCH   1   2
BRANCH   1  11
ATOM     11  C   UNL     1       7.514  30.189  17.360  1.00  0.00     0.034 C 
BRANCH  11  12
ATOM     12  C   UNL     1       6.499  29.090  17.139  1.00  0.00    -0.077 C 
ATOM     13  C   UNL     1       6.924  27.815  16.999  1.00  0.00    -0.028 C 
ATOM     14  C   UNL     1       5.031  29.441  17.086  1.00  0.00     0.039 C 
BRANCH  13  15
ATOM     15  C   UNL     1       5.984  26.651  16.786  1.00  0.00     0.035 C 
BRANCH  15  16
ATOM     16  C   UNL     1       6.015  26.143  15.338  1.00  0.00     0.079 C 
BRANCH  16  17
ATOM     17  C   UNL     1       4.905  26.747  14.514  1.00  0.00     0.130 C 
ATOM     18  O   UNL     1       3.779  26.281  14.589  1.00  0.00    -0.300 OA
ATOM     19  C   UNL     1       5.157  27.900  13.589  1.00  0.00     0.087 C 
ENDBRANCH  16  17
ENDBRANCH  15  16
ENDBRANCH  13  15
ENDBRANCH  11  12
ENDBRANCH   1  11
TORSDOF 9
ENDMDL
MODEL 6
REMARK VINA RESULT:    -4.732      3.092      8.123
REMARK INTER + INTRA:          -8.584
REMARK INTER:                  -7.293
REMARK INTRA:                  -1.291
REMARK UNBOUND:                -1.362
REMARK SMILES CC(=O)CCC=C(C)CCC=C(C)CCC=C(C)C
REMARK SMILES IDX 10 1 11 2 12 3 13 4 14 5 15 6 16 7 18 8 17 9 19 10 9 11 7 12
REMARK SMILES IDX 6 13 8 14 5 15 4 16 2 17 3 18 1 19
REMARK H PARENT
REMARK Flexibility Score: inf
ROOT
ATOM      1  C   UNL     1      10.493  29.906  14.291  1.00  0.00     0.032 C 
ENDROOT
BRANCH   1   2
ATOM      2  C   UNL     1      11.400  28.773  14.696  1.00  0.00    -0.028 C 
ATOM      3  C   UNL     1      11.059  27.464  14.634  1.00  0.00    -0.077 C 
ATOM      4  C   UNL     1       9.740  27.012  14.055  1.00  0.00     0.039 C 
BRANCH   3   5
ATOM      5  C   UNL     1      12.032  26.424  15.152  1.00  0.00     0.034 C 
BRANCH   5   6
ATOM      6  C   UNL     1      13.277  27.063  15.783  1.00  0.00     0.032 C 
BRANCH   6   7
ATOM      7  C   UNL     1      14.383  26.057  16.008  1.00  0.00    -0.028 C 
ATOM      8  C   UNL     1      16.172  27.541  15.073  1.00  0.00     0.039 C 
ATOM      9  C   UNL     1      15.678  26.246  15.673  1.00  0.00    -0.080 C 
ATOM     10  C   UNL     1      16.655  25.127  15.932  1.00  0.00     0.039 C 
ENDBRANCH   6   7
ENDBRANCH   5   6
ENDBRANCH   3   5
ENDBRANCH   1   2
BRANCH   1  11
ATOM     11  C   UNL     1       9.845  30.544  15.524  1.00  0.00     0.034 C 
BRANCH  11  12
ATOM     12  C   UNL     1       8.411  30.089  15.673  1.00  0.00    -0.077 C 
ATOM     13  C   UNL     1       7.970  29.673  16.880  1.00  0.00    -0.028 C 
ATOM     14  C   UNL     1       7.499  30.117  14.469  1.00  0.00     0.039 C 
BRANCH  13  15
ATOM     15  C   UNL     1       6.552  29.211  17.127  1.00  0.00     0.035 C 
BRANCH  15  16
ATOM     16  C   UNL     1       6.417  27.686  17.025  1.00  0.00     0.079 C 
BRANCH  16  17
ATOM     17  C   UNL     1       5.217  27.290  16.200  1.00  0.00     0.130 C 
ATOM     18  O   UNL     1       4.696  28.113  15.464  1.00  0.00    -0.300 OA
ATOM     19  C   UNL     1       4.637  25.909  16.277  1.00  0.00     0.087 C 
ENDBRANCH  16  17
ENDBRANCH  15  16
ENDBRANCH  13  15
ENDBRANCH  11  12
ENDBRANCH   1  11
TORSDOF 9
ENDMDL
MODEL 7
REMARK VINA RESULT:    -4.731      2.919      7.023
REMARK INTER + INTRA:          -8.582
REMARK INTER:                  -6.906
REMARK INTRA:                  -1.677
REMARK UNBOUND:                -1.362
REMARK SMILES CC(=O)CCC=C(C)CCC=C(C)CCC=C(C)C
REMARK SMILES IDX 10 1 11 2 12 3 13 4 14 5 15 6 16 7 18 8 17 9 19 10 9 11 7 12
REMARK SMILES IDX 6 13 8 14 5 15 4 16 2 17 3 18 1 19
REMARK H PARENT
REMARK Flexibility Score: inf
ROOT
ATOM      1  C   UNL     1       8.024  30.707  16.111  1.00  0.00     0.032 C 
ENDROOT
BRANCH   1   2
ATOM      2  C   UNL     1       9.276  30.092  15.541  1.00  0.00    -0.028 C 
ATOM      3  C   UNL     1       9.300  29.274  14.461  1.00  0.00    -0.077 C 
ATOM      4  C   UNL     1       8.053  28.973  13.664  1.00  0.00     0.039 C 
BRANCH   3   5
ATOM      5  C   UNL     1      10.615  28.652  14.037  1.00  0.00     0.034 C 
BRANCH   5   6
ATOM      6  C   UNL     1      10.831  27.272  14.675  1.00  0.00     0.032 C 
BRANCH   6   7
ATOM      7  C   UNL     1      12.242  27.097  15.190  1.00  0.00    -0.028 C 
ATOM      8  C   UNL     1      11.856  24.751  15.981  1.00  0.00     0.039 C 
ATOM      9  C   UNL     1      12.708  25.985  15.799  1.00  0.00    -0.080 C 
ATOM     10  C   UNL     1      14.134  25.981  16.289  1.00  0.00     0.039 C 
ENDBRANCH   6   7
ENDBRANCH   5   6
ENDBRANCH   3   5
ENDBRANCH   1   2
BRANCH   1  11
ATOM     11  C   UNL     1       7.603  29.980  17.393  1.00  0.00     0.034 C 
BRANCH  11  12
ATOM     12  C   UNL     1       6.511  28.976  17.106  1.00  0.00    -0.077 C 
ATOM     13  C   UNL     1       6.841  27.688  16.868  1.00  0.00    -0.028 C 
ATOM     14  C   UNL     1       5.071  29.434  17.098  1.00  0.00     0.039 C 
BRANCH  13  15
ATOM     15  C   UNL     1       5.819  26.612  16.584  1.00  0.00     0.035 C 
BRANCH  15  16
ATOM     16  C   UNL     1       5.631  26.380  15.078  1.00  0.00     0.079 C 
BRANCH  16  17
ATOM     17  C   UNL     1       6.410  25.180  14.601  1.00  0.00     0.130 C 
ATOM     18  O   UNL     1       5.888  24.076  14.623  1.00  0.00    -0.300 OA
ATOM     19  C   UNL     1       7.823  25.308  14.114  1.00  0.00     0.087 C 
ENDBRANCH  16  17
ENDBRANCH  15  16
ENDBRANCH  13  15
ENDBRANCH  11  12
ENDBRANCH   1  11
TORSDOF 9
ENDMDL
MODEL 8
REMARK VINA RESULT:    -4.635      1.988      3.606
REMARK INTER + INTRA:          -8.435
REMARK INTER:                  -6.443
REMARK INTRA:                  -1.992
REMARK UNBOUND:                -1.362
REMARK SMILES CC(=O)CCC=C(C)CCC=C(C)CCC=C(C)C
REMARK SMILES IDX 10 1 11 2 12 3 13 4 14 5 15 6 16 7 18 8 17 9 19 10 9 11 7 12
REMARK SMILES IDX 6 13 8 14 5 15 4 16 2 17 3 18 1 19
REMARK H PARENT
REMARK Flexibility Score: inf
ROOT
ATOM      1  C   UNL     1       8.395  31.094  15.877  1.00  0.00     0.032 C 
ENDROOT
BRANCH   1   2
ATOM      2  C   UNL     1       7.648  30.000  16.595  1.00  0.00    -0.028 C 
ATOM      3  C   UNL     1       6.607  29.314  16.065  1.00  0.00    -0.077 C 
ATOM      4  C   UNL     1       6.153  29.532  14.642  1.00  0.00     0.039 C 
BRANCH   3   5
ATOM      5  C   UNL     1       5.885  28.294  16.922  1.00  0.00     0.034 C 
BRANCH   5   6
ATOM      6  C   UNL     1       6.710  27.014  17.113  1.00  0.00     0.032 C 
BRANCH   6   7
ATOM      7  C   UNL     1       7.366  26.562  15.828  1.00  0.00    -0.028 C 
ATOM      8  C   UNL     1       5.406  25.183  15.099  1.00  0.00     0.039 C 
ATOM      9  C   UNL     1       6.806  25.723  14.930  1.00  0.00    -0.080 C 
ATOM     10  C   UNL     1       7.607  25.339  13.712  1.00  0.00     0.039 C 
ENDBRANCH   6   7
ENDBRANCH   5   6
ENDBRANCH   3   5
ENDBRANCH   1   2
BRANCH   1  11
ATOM     11  C   UNL     1       9.861  30.698  15.669  1.00  0.00     0.034 C 
BRANCH  11  12
ATOM     12  C   UNL     1       9.980  29.617  14.619  1.00  0.00    -0.077 C 
ATOM     13  C   UNL     1      10.519  28.424  14.955  1.00  0.00    -0.028 C 
ATOM     14  C   UNL     1       9.488  29.892  13.218  1.00  0.00     0.039 C 
BRANCH  13  15
ATOM     15  C   UNL     1      10.669  27.282  13.977  1.00  0.00     0.035 C 
BRANCH  15  16
ATOM     16  C   UNL     1      12.075  26.668  14.020  1.00  0.00     0.079 C 
BRANCH  16  17
ATOM     17  C   UNL     1      12.346  25.993  15.342  1.00  0.00     0.130 C 
ATOM     18  O   UNL     1      11.652  25.051  15.689  1.00  0.00    -0.300 OA
ATOM     19  C   UNL     1      13.441  26.466  16.251  1.00  0.00     0.087 C 
ENDBRANCH  16  17
ENDBRANCH  15  16
ENDBRANCH  13  15
ENDBRANCH  11  12
ENDBRANCH   1  11
TORSDOF 9
ENDMDL
MODEL 9
REMARK VINA RESULT:    -4.626      2.964      9.287
REMARK INTER + INTRA:          -8.422
REMARK INTER:                  -7.269
REMARK INTRA:                  -1.153
REMARK UNBOUND:                -1.362
REMARK SMILES CC(=O)CCC=C(C)CCC=C(C)CCC=C(C)C
REMARK SMILES IDX 10 1 11 2 12 3 13 4 14 5 15 6 16 7 18 8 17 9 19 10 9 11 7 12
REMARK SMILES IDX 6 13 8 14 5 15 4 16 2 17 3 18 1 19
REMARK H PARENT
REMARK Flexibility Score: inf
ROOT
ATOM      1  C   UNL     1      13.554  26.395  16.214  1.00  0.00     0.032 C 
ENDROOT
BRANCH   1   2
ATOM      2  C   UNL     1      15.029  26.265  15.931  1.00  0.00    -0.028 C 
ATOM      3  C   UNL     1      15.747  27.153  15.203  1.00  0.00    -0.077 C 
ATOM      4  C   UNL     1      15.135  28.428  14.675  1.00  0.00     0.039 C 
BRANCH   3   5
ATOM      5  C   UNL     1      17.207  26.863  14.919  1.00  0.00     0.034 C 
BRANCH   5   6
ATOM      6  C   UNL     1      17.439  25.392  14.542  1.00  0.00     0.032 C 
BRANCH   6   7
ATOM      7  C   UNL     1      18.275  24.665  15.571  1.00  0.00    -0.028 C 
ATOM      8  C   UNL     1      20.457  25.403  14.585  1.00  0.00     0.039 C 
ATOM      9  C   UNL     1      19.626  24.639  15.588  1.00  0.00    -0.080 C 
ATOM     10  C   UNL     1      20.313  23.836  16.663  1.00  0.00     0.039 C 
ENDBRANCH   6   7
ENDBRANCH   5   6
ENDBRANCH   3   5
ENDBRANCH   1   2
BRANCH   1  11
ATOM     11  C   UNL     1      12.734  25.676  15.138  1.00  0.00     0.034 C 
BRANCH  11  12
ATOM     12  C   UNL     1      11.839  26.649  14.404  1.00  0.00    -0.077 C 
ATOM     13  C   UNL     1      11.517  27.823  14.990  1.00  0.00    -0.028 C 
ATOM     14  C   UNL     1      11.330  26.290  13.028  1.00  0.00     0.039 C 
BRANCH  13  15
ATOM     15  C   UNL     1      10.640  28.862  14.330  1.00  0.00     0.035 C 
BRANCH  15  16
ATOM     16  C   UNL     1       9.235  28.904  14.946  1.00  0.00     0.079 C 
BRANCH  16  17
ATOM     17  C   UNL     1       9.067  30.091  15.862  1.00  0.00     0.130 C 
ATOM     18  O   UNL     1       9.861  31.016  15.799  1.00  0.00    -0.300 OA
ATOM     19  C   UNL     1       7.953  30.153  16.864  1.00  0.00     0.087 C 
ENDBRANCH  16  17
ENDBRANCH  15  16
ENDBRANCH  13  15
ENDBRANCH  11  12
ENDBRANCH   1  11
TORSDOF 9
ENDMDL
