MODEL 1
REMARK VINA RESULT:    -4.128      0.000      0.000
REMARK INTER + INTRA:          -4.718
REMARK INTER:                  -4.611
REMARK INTRA:                  -0.107
REMARK UNBOUND:                -0.107
REMARK SMILES COc1cc2ccc(=O)oc2cc1OC
REMARK SMILES IDX 3 1 13 2 12 3 11 4 5 5 4 6 6 7 7 8 8 9 9 10 10 11 2 12 1 13
REMARK SMILES IDX 14 14 15 15
REMARK H PARENT
REMARK Flexibility Score: inf
ROOT
ATOM      1  C   UNL     1      75.516  41.889  21.417  1.00  0.00     0.161 A 
ATOM      2  C   UNL     1      75.204  41.222  22.616  1.00  0.00     0.164 A 
ATOM      3  C   UNL     1      74.162  40.275  22.637  1.00  0.00     0.098 A 
ATOM      4  C   UNL     1      73.437  39.992  21.477  1.00  0.00     0.142 A 
ATOM      5  C   UNL     1      73.749  40.659  20.275  1.00  0.00     0.022 A 
ATOM      6  C   UNL     1      74.783  41.604  20.248  1.00  0.00     0.062 A 
ATOM      7  C   UNL     1      73.005  40.355  19.131  1.00  0.00     0.019 A 
ATOM      8  C   UNL     1      71.985  39.409  19.210  1.00  0.00     0.094 A 
ATOM      9  C   UNL     1      71.732  38.786  20.436  1.00  0.00     0.336 A 
ATOM     10  O   UNL     1      70.814  37.928  20.528  1.00  0.00    -0.246 OA
ATOM     11  O   UNL     1      72.454  39.095  21.509  1.00  0.00    -0.423 OA
ENDROOT
BRANCH   1  12
ATOM     12  O   UNL     1      76.560  42.828  21.431  1.00  0.00    -0.493 OA
ATOM     13  C   UNL     1      77.420  43.095  20.329  1.00  0.00     0.278 C 
ENDBRANCH   1  12
BRANCH   2  14
ATOM     14  O   UNL     1      75.953  41.531  23.762  1.00  0.00    -0.493 OA
ATOM     15  C   UNL     1      76.295  40.595  24.780  1.00  0.00     0.278 C 
ENDBRANCH   2  14
TORSDOF 2
ENDMDL
MODEL 2
REMARK VINA RESULT:    -4.079      2.139      3.061
REMARK INTER + INTRA:          -4.664
REMARK INTER:                  -4.560
REMARK INTRA:                  -0.103
REMARK UNBOUND:                -0.107
REMARK SMILES COc1cc2ccc(=O)oc2cc1OC
REMARK SMILES IDX 3 1 13 2 12 3 11 4 5 5 4 6 6 7 7 8 8 9 9 10 10 11 2 12 1 13
REMARK SMILES IDX 14 14 15 15
REMARK H PARENT
REMARK Flexibility Score: inf
ROOT
ATOM      1  C   UNL     1      72.457  41.409  22.546  1.00  0.00     0.161 A 
ATOM      2  C   UNL     1      73.762  40.887  22.572  1.00  0.00     0.164 A 
ATOM      3  C   UNL     1      74.074  39.746  21.806  1.00  0.00     0.098 A 
ATOM      4  C   UNL     1      73.096  39.132  21.020  1.00  0.00     0.142 A 
ATOM      5  C   UNL     1      71.788  39.655  20.993  1.00  0.00     0.022 A 
ATOM      6  C   UNL     1      71.471  40.788  21.754  1.00  0.00     0.062 A 
ATOM      7  C   UNL     1      70.831  39.018  20.197  1.00  0.00     0.019 A 
ATOM      8  C   UNL     1      71.195  37.893  19.459  1.00  0.00     0.094 A 
ATOM      9  C   UNL     1      72.512  37.430  19.534  1.00  0.00     0.336 A 
ATOM     10  O   UNL     1      72.861  36.415  18.875  1.00  0.00    -0.246 OA
ATOM     11  O   UNL     1      73.402  38.055  20.300  1.00  0.00    -0.423 OA
ENDROOT
BRANCH   1  12
ATOM     12  O   UNL     1      72.181  42.546  23.322  1.00  0.00    -0.493 OA
ATOM     13  C   UNL     1      70.874  42.976  23.689  1.00  0.00     0.278 C 
ENDBRANCH   1  12
BRANCH   2  14
ATOM     14  O   UNL     1      74.720  41.530  23.373  1.00  0.00    -0.493 OA
ATOM     15  C   UNL     1      75.874  40.897  23.916  1.00  0.00     0.278 C 
ENDBRANCH   2  14
TORSDOF 2
ENDMDL
MODEL 3
REMARK VINA RESULT:    -3.886      1.834      5.272
REMARK INTER + INTRA:          -4.448
REMARK INTER:                  -4.320
REMARK INTRA:                  -0.128
REMARK UNBOUND:                -0.107
REMARK SMILES COc1cc2ccc(=O)oc2cc1OC
REMARK SMILES IDX 3 1 13 2 12 3 11 4 5 5 4 6 6 7 7 8 8 9 9 10 10 11 2 12 1 13
REMARK SMILES IDX 14 14 15 15
REMARK H PARENT
REMARK Flexibility Score: inf
ROOT
ATOM      1  C   UNL     1      72.373  40.880  22.160  1.00  0.00     0.161 A 
ATOM      2  C   UNL     1      72.553  40.215  20.934  1.00  0.00     0.164 A 
ATOM      3  C   UNL     1      73.710  40.461  20.169  1.00  0.00     0.098 A 
ATOM      4  C   UNL     1      74.679  41.359  20.620  1.00  0.00     0.142 A 
ATOM      5  C   UNL     1      74.500  42.026  21.849  1.00  0.00     0.022 A 
ATOM      6  C   UNL     1      73.351  41.786  22.614  1.00  0.00     0.062 A 
ATOM      7  C   UNL     1      75.489  42.919  22.274  1.00  0.00     0.019 A 
ATOM      8  C   UNL     1      76.614  43.124  21.478  1.00  0.00     0.094 A 
ATOM      9  C   UNL     1      76.725  42.427  20.270  1.00  0.00     0.336 A 
ATOM     10  O   UNL     1      77.733  42.599  19.535  1.00  0.00    -0.246 OA
ATOM     11  O   UNL     1      75.769  41.584  19.890  1.00  0.00    -0.423 OA
ENDROOT
BRANCH   1  12
ATOM     12  O   UNL     1      71.207  40.612  22.896  1.00  0.00    -0.493 OA
ATOM     13  C   UNL     1      70.307  41.606  23.374  1.00  0.00     0.278 C 
ENDBRANCH   1  12
BRANCH   2  14
ATOM     14  O   UNL     1      71.557  39.319  20.511  1.00  0.00    -0.493 OA
ATOM     15  C   UNL     1      71.742  37.914  20.373  1.00  0.00     0.278 C 
ENDBRANCH   2  14
TORSDOF 2
ENDMDL
MODEL 4
REMARK VINA RESULT:    -3.780      1.834      5.145
REMARK INTER + INTRA:          -4.329
REMARK INTER:                  -4.224
REMARK INTRA:                  -0.105
REMARK UNBOUND:                -0.107
REMARK SMILES COc1cc2ccc(=O)oc2cc1OC
REMARK SMILES IDX 3 1 13 2 12 3 11 4 5 5 4 6 6 7 7 8 8 9 9 10 10 11 2 12 1 13
REMARK SMILES IDX 14 14 15 15
REMARK H PARENT
REMARK Flexibility Score: inf
ROOT
ATOM      1  C   UNL     1      71.754  41.000  19.941  1.00  0.00     0.161 A 
ATOM      2  C   UNL     1      71.906  39.699  20.452  1.00  0.00     0.164 A 
ATOM      3  C   UNL     1      72.878  39.446  21.441  1.00  0.00     0.098 A 
ATOM      4  C   UNL     1      73.689  40.478  21.916  1.00  0.00     0.142 A 
ATOM      5  C   UNL     1      73.537  41.783  21.405  1.00  0.00     0.022 A 
ATOM      6  C   UNL     1      72.574  42.040  20.421  1.00  0.00     0.062 A 
ATOM      7  C   UNL     1      74.365  42.795  21.901  1.00  0.00     0.019 A 
ATOM      8  C   UNL     1      75.309  42.488  22.879  1.00  0.00     0.094 A 
ATOM      9  C   UNL     1      75.403  41.172  23.341  1.00  0.00     0.336 A 
ATOM     10  O   UNL     1      76.250  40.874  24.224  1.00  0.00    -0.246 OA
ATOM     11  O   UNL     1      74.604  40.228  22.851  1.00  0.00    -0.423 OA
ENDROOT
BRANCH   1  12
ATOM     12  O   UNL     1      70.777  41.216  18.956  1.00  0.00    -0.493 OA
ATOM     13  C   UNL     1      69.946  42.370  18.882  1.00  0.00     0.278 C 
ENDBRANCH   1  12
BRANCH   2  14
ATOM     14  O   UNL     1      71.073  38.686  19.951  1.00  0.00    -0.493 OA
ATOM     15  C   UNL     1      71.418  37.814  18.879  1.00  0.00     0.278 C 
ENDBRANCH   2  14
TORSDOF 2
ENDMDL
MODEL 5
REMARK VINA RESULT:    -3.774      2.189      2.612
REMARK INTER + INTRA:          -4.323
REMARK INTER:                  -4.221
REMARK INTRA:                  -0.102
REMARK UNBOUND:                -0.107
REMARK SMILES COc1cc2ccc(=O)oc2cc1OC
REMARK SMILES IDX 3 1 13 2 12 3 11 4 5 5 4 6 6 7 7 8 8 9 9 10 10 11 2 12 1 13
REMARK SMILES IDX 14 14 15 15
REMARK H PARENT
REMARK Flexibility Score: inf
ROOT
ATOM      1  C   UNL     1      73.962  41.834  22.248  1.00  0.00     0.161 A 
ATOM      2  C   UNL     1      72.573  41.857  22.468  1.00  0.00     0.164 A 
ATOM      3  C   UNL     1      71.744  40.936  21.797  1.00  0.00     0.098 A 
ATOM      4  C   UNL     1      72.293  40.001  20.917  1.00  0.00     0.142 A 
ATOM      5  C   UNL     1      73.685  39.977  20.696  1.00  0.00     0.022 A 
ATOM      6  C   UNL     1      74.514  40.891  21.359  1.00  0.00     0.062 A 
ATOM      7  C   UNL     1      74.203  39.029  19.809  1.00  0.00     0.019 A 
ATOM      8  C   UNL     1      73.337  38.141  19.173  1.00  0.00     0.094 A 
ATOM      9  C   UNL     1      71.967  38.223  19.440  1.00  0.00     0.336 A 
ATOM     10  O   UNL     1      71.168  37.430  18.875  1.00  0.00    -0.246 OA
ATOM     11  O   UNL     1      71.501  39.135  20.288  1.00  0.00    -0.423 OA
ENDROOT
BRANCH   1  12
ATOM     12  O   UNL     1      74.758  42.767  22.933  1.00  0.00    -0.493 OA
ATOM     13  C   UNL     1      76.084  43.125  22.559  1.00  0.00     0.278 C 
ENDBRANCH   1  12
BRANCH   2  14
ATOM     14  O   UNL     1      72.056  42.811  23.359  1.00  0.00    -0.493 OA
ATOM     15  C   UNL     1      70.695  42.875  23.773  1.00  0.00     0.278 C 
ENDBRANCH   2  14
TORSDOF 2
ENDMDL
MODEL 6
REMARK VINA RESULT:    -3.221      2.697      2.816
REMARK INTER + INTRA:          -3.706
REMARK INTER:                  -3.580
REMARK INTRA:                  -0.126
REMARK UNBOUND:                -0.107
REMARK SMILES COc1cc2ccc(=O)oc2cc1OC
REMARK SMILES IDX 3 1 13 2 12 3 11 4 5 5 4 6 6 7 7 8 8 9 9 10 10 11 2 12 1 13
REMARK SMILES IDX 14 14 15 15
REMARK H PARENT
REMARK Flexibility Score: inf
ROOT
ATOM      1  C   UNL     1      74.847  41.563  21.002  1.00  0.00     0.161 A 
ATOM      2  C   UNL     1      74.689  41.173  22.344  1.00  0.00     0.164 A 
ATOM      3  C   UNL     1      73.455  41.380  22.991  1.00  0.00     0.098 A 
ATOM      4  C   UNL     1      72.388  41.968  22.308  1.00  0.00     0.142 A 
ATOM      5  C   UNL     1      72.545  42.359  20.963  1.00  0.00     0.022 A 
ATOM      6  C   UNL     1      73.770  42.157  20.315  1.00  0.00     0.062 A 
ATOM      7  C   UNL     1      71.458  42.945  20.307  1.00  0.00     0.019 A 
ATOM      8  C   UNL     1      70.259  43.125  20.996  1.00  0.00     0.094 A 
ATOM      9  C   UNL     1      70.176  42.713  22.329  1.00  0.00     0.336 A 
ATOM     10  O   UNL     1      69.102  42.867  22.969  1.00  0.00    -0.246 OA
ATOM     11  O   UNL     1      71.226  42.158  22.929  1.00  0.00    -0.423 OA
ENDROOT
BRANCH   1  12
ATOM     12  O   UNL     1      76.091  41.343  20.389  1.00  0.00    -0.493 OA
ATOM     13  C   UNL     1      77.000  42.373  20.014  1.00  0.00     0.278 C 
ENDBRANCH   1  12
BRANCH   2  14
ATOM     14  O   UNL     1      75.783  40.585  22.999  1.00  0.00    -0.493 OA
ATOM     15  C   UNL     1      76.175  40.877  24.336  1.00  0.00     0.278 C 
ENDBRANCH   2  14
TORSDOF 2
ENDMDL
MODEL 7
REMARK VINA RESULT:    -2.284      1.655      4.904
REMARK INTER + INTRA:          -2.659
REMARK INTER:                  -2.547
REMARK INTRA:                  -0.112
REMARK UNBOUND:                -0.107
REMARK SMILES COc1cc2ccc(=O)oc2cc1OC
REMARK SMILES IDX 3 1 13 2 12 3 11 4 5 5 4 6 6 7 7 8 8 9 9 10 10 11 2 12 1 13
REMARK SMILES IDX 14 14 15 15
REMARK H PARENT
REMARK Flexibility Score: inf
ROOT
ATOM      1  C   UNL     1      72.500  39.846  20.933  1.00  0.00     0.161 A 
ATOM      2  C   UNL     1      72.701  40.687  22.042  1.00  0.00     0.164 A 
ATOM      3  C   UNL     1      73.834  41.522  22.089  1.00  0.00     0.098 A 
ATOM      4  C   UNL     1      74.759  41.521  21.043  1.00  0.00     0.142 A 
ATOM      5  C   UNL     1      74.558  40.678  19.931  1.00  0.00     0.022 A 
ATOM      6  C   UNL     1      73.433  39.845  19.878  1.00  0.00     0.062 A 
ATOM      7  C   UNL     1      75.502  40.699  18.899  1.00  0.00     0.019 A 
ATOM      8  C   UNL     1      76.605  41.545  18.998  1.00  0.00     0.094 A 
ATOM      9  C   UNL     1      76.739  42.354  20.131  1.00  0.00     0.336 A 
ATOM     10  O   UNL     1      77.729  43.125  20.240  1.00  0.00    -0.246 OA
ATOM     11  O   UNL     1      75.827  42.314  21.098  1.00  0.00    -0.423 OA
ENDROOT
BRANCH   1  12
ATOM     12  O   UNL     1      71.359  39.027  20.919  1.00  0.00    -0.493 OA
ATOM     13  C   UNL     1      71.001  38.160  19.847  1.00  0.00     0.278 C 
ENDBRANCH   1  12
BRANCH   2  14
ATOM     14  O   UNL     1      71.751  40.663  23.076  1.00  0.00    -0.493 OA
ATOM     15  C   UNL     1      70.697  41.609  23.226  1.00  0.00     0.278 C 
ENDBRANCH   2  14
TORSDOF 2
ENDMDL
