MODEL 1
REMARK VINA RESULT:    -7.912      0.000      0.000
REMARK INTER + INTRA:          -8.606
REMARK INTER:                  -8.606
REMARK INTRA:                   0.000
REMARK UNBOUND:                 0.000
REMARK SMILES Cc1cc(O)c2c(c1)C(=O)c1cc(O)cc(O)c1C2=O
REMARK SMILES IDX 1 1 2 2 8 3 7 4 6 5 4 6 3 7 19 8 20 9 18 10 11 11 9 12 10 13
REMARK SMILES IDX 12 14 13 15 15 16 16 17 5 18 17 20 14 22
REMARK H PARENT 5 19 17 21 14 23
REMARK Flexibility Score: inf
ROOT
ATOM      1  C   UNL     1      34.913  -4.670  28.835  1.00  0.00     0.044 C 
ATOM      2  C   UNL     1      36.348  -4.237  28.767  1.00  0.00    -0.047 A 
ATOM      3  C   UNL     1      36.688  -3.021  28.165  1.00  0.00     0.016 A 
ATOM      4  C   UNL     1      38.025  -2.593  28.117  1.00  0.00     0.038 A 
ATOM      5  C   UNL     1      39.042  -3.396  28.683  1.00  0.00     0.076 A 
ATOM      6  C   UNL     1      38.677  -4.579  29.380  1.00  0.00     0.127 A 
ATOM      7  C   UNL     1      37.342  -4.997  29.389  1.00  0.00     0.050 A 
ATOM      8  C   UNL     1      40.461  -2.991  28.476  1.00  0.00     0.201 C 
ATOM      9  O   UNL     1      41.384  -3.843  28.581  1.00  0.00    -0.288 OA
ATOM     10  C   UNL     1      40.788  -1.610  28.032  1.00  0.00     0.076 A 
ATOM     11  C   UNL     1      39.755  -0.789  27.531  1.00  0.00     0.041 A 
ATOM     12  C   UNL     1      38.365  -1.296  27.486  1.00  0.00     0.194 C 
ATOM     13  O   UNL     1      37.465  -0.612  26.924  1.00  0.00    -0.289 OA
ATOM     14  C   UNL     1      40.055   0.506  27.072  1.00  0.00     0.059 A 
ATOM     15  C   UNL     1      41.362   0.990  27.116  1.00  0.00     0.120 A 
ATOM     16  C   UNL     1      42.386   0.183  27.619  1.00  0.00     0.093 A 
ATOM     17  C   UNL     1      42.110  -1.112  28.079  1.00  0.00     0.131 A 
ENDROOT
BRANCH   6  18
ATOM     18  O   UNL     1      39.589  -5.348  30.105  1.00  0.00    -0.507 OA
ATOM     19  H   UNL     1      39.755  -6.331  29.935  1.00  0.00     0.293 HD
ENDBRANCH   6  18
BRANCH  17  20
ATOM     20  O   UNL     1      43.148  -1.891  28.589  1.00  0.00    -0.507 OA
ATOM     21  H   UNL     1      42.970  -2.733  29.124  1.00  0.00     0.293 HD
ENDBRANCH  17  20
BRANCH  15  22
ATOM     22  O   UNL     1      41.634   2.277  26.657  1.00  0.00    -0.508 OA
ATOM     23  H   UNL     1      42.394   2.461  26.012  1.00  0.00     0.293 HD
ENDBRANCH  15  22
TORSDOF 3
ENDMDL
MODEL 2
REMARK VINA RESULT:    -7.835      2.046      3.978
REMARK INTER + INTRA:          -8.522
REMARK INTER:                  -8.522
REMARK INTRA:                   0.000
REMARK UNBOUND:                 0.000
REMARK SMILES Cc1cc(O)c2c(c1)C(=O)c1cc(O)cc(O)c1C2=O
REMARK SMILES IDX 1 1 2 2 8 3 7 4 6 5 4 6 3 7 19 8 20 9 18 10 11 11 9 12 10 13
REMARK SMILES IDX 12 14 13 15 15 16 16 17 5 18 17 20 14 22
REMARK H PARENT 5 19 17 21 14 23
REMARK Flexibility Score: inf
ROOT
ATOM      1  C   UNL     1      43.106  -6.577  30.125  1.00  0.00     0.044 C 
ATOM      2  C   UNL     1      42.212  -5.495  29.595  1.00  0.00    -0.047 A 
ATOM      3  C   UNL     1      42.729  -4.224  29.327  1.00  0.00     0.016 A 
ATOM      4  C   UNL     1      41.908  -3.208  28.808  1.00  0.00     0.038 A 
ATOM      5  C   UNL     1      40.542  -3.471  28.550  1.00  0.00     0.076 A 
ATOM      6  C   UNL     1      40.050  -4.792  28.729  1.00  0.00     0.127 A 
ATOM      7  C   UNL     1      40.881  -5.776  29.274  1.00  0.00     0.050 A 
ATOM      8  C   UNL     1      39.666  -2.334  28.150  1.00  0.00     0.201 C 
ATOM      9  O   UNL     1      38.418  -2.411  28.311  1.00  0.00    -0.288 OA
ATOM     10  C   UNL     1      40.265  -1.062  27.668  1.00  0.00     0.076 A 
ATOM     11  C   UNL     1      41.643  -0.834  27.869  1.00  0.00     0.041 A 
ATOM     12  C   UNL     1      42.476  -1.871  28.519  1.00  0.00     0.194 C 
ATOM     13  O   UNL     1      43.678  -1.619  28.810  1.00  0.00    -0.289 OA
ATOM     14  C   UNL     1      42.217   0.381  27.452  1.00  0.00     0.059 A 
ATOM     15  C   UNL     1      41.438   1.359  26.836  1.00  0.00     0.120 A 
ATOM     16  C   UNL     1      40.074   1.134  26.629  1.00  0.00     0.093 A 
ATOM     17  C   UNL     1      39.482  -0.068  27.038  1.00  0.00     0.131 A 
ENDROOT
BRANCH   6  18
ATOM     18  O   UNL     1      38.764  -5.183  28.350  1.00  0.00    -0.507 OA
ATOM     19  H   UNL     1      38.542  -5.582  27.448  1.00  0.00     0.293 HD
ENDBRANCH   6  18
BRANCH  17  20
ATOM     20  O   UNL     1      38.122  -0.272  26.807  1.00  0.00    -0.507 OA
ATOM     21  H   UNL     1      37.701  -1.191  26.877  1.00  0.00     0.293 HD
ENDBRANCH  17  20
BRANCH  15  22
ATOM     22  O   UNL     1      42.029   2.555  26.431  1.00  0.00    -0.508 OA
ATOM     23  H   UNL     1      42.689   3.046  27.022  1.00  0.00     0.293 HD
ENDBRANCH  15  22
TORSDOF 3
ENDMDL
MODEL 3
REMARK VINA RESULT:    -7.717      1.764      5.881
REMARK INTER + INTRA:          -8.394
REMARK INTER:                  -8.394
REMARK INTRA:                   0.000
REMARK UNBOUND:                 0.000
REMARK SMILES Cc1cc(O)c2c(c1)C(=O)c1cc(O)cc(O)c1C2=O
REMARK SMILES IDX 1 1 2 2 8 3 7 4 6 5 4 6 3 7 19 8 20 9 18 10 11 11 9 12 10 13
REMARK SMILES IDX 12 14 13 15 15 16 16 17 5 18 17 20 14 22
REMARK H PARENT 5 19 17 21 14 23
REMARK Flexibility Score: inf
ROOT
ATOM      1  C   UNL     1      44.692  -3.114  29.378  1.00  0.00     0.044 C 
ATOM      2  C   UNL     1      43.361  -2.585  28.930  1.00  0.00    -0.047 A 
ATOM      3  C   UNL     1      42.220  -3.390  29.012  1.00  0.00     0.016 A 
ATOM      4  C   UNL     1      40.964  -2.899  28.617  1.00  0.00     0.038 A 
ATOM      5  C   UNL     1      40.847  -1.575  28.133  1.00  0.00     0.076 A 
ATOM      6  C   UNL     1      41.992  -0.733  28.149  1.00  0.00     0.127 A 
ATOM      7  C   UNL     1      43.234  -1.255  28.520  1.00  0.00     0.050 A 
ATOM      8  C   UNL     1      39.536  -1.138  27.577  1.00  0.00     0.201 C 
ATOM      9  O   UNL     1      39.479  -0.163  26.780  1.00  0.00    -0.288 OA
ATOM     10  C   UNL     1      38.304  -1.918  27.868  1.00  0.00     0.076 A 
ATOM     11  C   UNL     1      38.425  -3.213  28.414  1.00  0.00     0.041 A 
ATOM     12  C   UNL     1      39.765  -3.762  28.722  1.00  0.00     0.194 C 
ATOM     13  O   UNL     1      39.882  -4.963  29.092  1.00  0.00    -0.289 OA
ATOM     14  C   UNL     1      37.270  -3.978  28.659  1.00  0.00     0.059 A 
ATOM     15  C   UNL     1      36.005  -3.464  28.374  1.00  0.00     0.120 A 
ATOM     16  C   UNL     1      35.880  -2.179  27.840  1.00  0.00     0.093 A 
ATOM     17  C   UNL     1      37.018  -1.401  27.586  1.00  0.00     0.131 A 
ENDROOT
BRANCH   6  18
ATOM     18  O   UNL     1      41.939   0.629  27.844  1.00  0.00    -0.507 OA
ATOM     19  H   UNL     1      41.129   1.211  28.010  1.00  0.00     0.293 HD
ENDBRANCH   6  18
BRANCH  17  20
ATOM     20  O   UNL     1      36.864  -0.116  27.066  1.00  0.00    -0.507 OA
ATOM     21  H   UNL     1      37.052   0.710  27.622  1.00  0.00     0.293 HD
ENDBRANCH  17  20
BRANCH  15  22
ATOM     22  O   UNL     1      34.876  -4.241  28.626  1.00  0.00    -0.508 OA
ATOM     23  H   UNL     1      33.951  -3.830  28.678  1.00  0.00     0.293 HD
ENDBRANCH  15  22
TORSDOF 3
ENDMDL
MODEL 4
REMARK VINA RESULT:    -7.487      1.238      5.486
REMARK INTER + INTRA:          -8.143
REMARK INTER:                  -8.143
REMARK INTRA:                   0.000
REMARK UNBOUND:                 0.000
REMARK SMILES Cc1cc(O)c2c(c1)C(=O)c1cc(O)cc(O)c1C2=O
REMARK SMILES IDX 1 1 2 2 8 3 7 4 6 5 4 6 3 7 19 8 20 9 18 10 11 11 9 12 10 13
REMARK SMILES IDX 12 14 13 15 15 16 16 17 5 18 17 20 14 22
REMARK H PARENT 5 19 17 21 14 23
REMARK Flexibility Score: inf
ROOT
ATOM      1  C   UNL     1      42.001   2.001  26.470  1.00  0.00     0.044 C 
ATOM      2  C   UNL     1      41.570   0.722  27.126  1.00  0.00    -0.047 A 
ATOM      3  C   UNL     1      40.227   0.332  27.093  1.00  0.00     0.016 A 
ATOM      4  C   UNL     1      39.815  -0.875  27.682  1.00  0.00     0.038 A 
ATOM      5  C   UNL     1      40.765  -1.710  28.315  1.00  0.00     0.076 A 
ATOM      6  C   UNL     1      42.140  -1.356  28.255  1.00  0.00     0.127 A 
ATOM      7  C   UNL     1      42.520  -0.135  27.688  1.00  0.00     0.050 A 
ATOM      8  C   UNL     1      40.274  -2.900  29.064  1.00  0.00     0.201 C 
ATOM      9  O   UNL     1      40.988  -3.422  29.962  1.00  0.00    -0.288 OA
ATOM     10  C   UNL     1      38.895  -3.409  28.838  1.00  0.00     0.076 A 
ATOM     11  C   UNL     1      37.970  -2.598  28.146  1.00  0.00     0.041 A 
ATOM     12  C   UNL     1      38.390  -1.277  27.627  1.00  0.00     0.194 C 
ATOM     13  O   UNL     1      37.534  -0.501  27.119  1.00  0.00    -0.289 OA
ATOM     14  C   UNL     1      36.651  -3.049  27.958  1.00  0.00     0.059 A 
ATOM     15  C   UNL     1      36.251  -4.294  28.443  1.00  0.00     0.120 A 
ATOM     16  C   UNL     1      37.167  -5.104  29.122  1.00  0.00     0.093 A 
ATOM     17  C   UNL     1      38.485  -4.673  29.322  1.00  0.00     0.131 A 
ENDROOT
BRANCH   6  18
ATOM     18  O   UNL     1      43.162  -2.192  28.708  1.00  0.00    -0.507 OA
ATOM     19  H   UNL     1      44.017  -1.856  29.130  1.00  0.00     0.293 HD
ENDBRANCH   6  18
BRANCH  17  20
ATOM     20  O   UNL     1      39.381  -5.505  29.991  1.00  0.00    -0.507 OA
ATOM     21  H   UNL     1      39.504  -5.459  30.996  1.00  0.00     0.293 HD
ENDBRANCH  17  20
BRANCH  15  22
ATOM     22  O   UNL     1      34.939  -4.720  28.243  1.00  0.00    -0.508 OA
ATOM     23  H   UNL     1      34.183  -4.060  28.105  1.00  0.00     0.293 HD
ENDBRANCH  15  22
TORSDOF 3
ENDMDL
MODEL 5
REMARK VINA RESULT:    -7.211      1.339      3.379
REMARK INTER + INTRA:          -7.844
REMARK INTER:                  -7.844
REMARK INTRA:                   0.000
REMARK UNBOUND:                 0.000
REMARK SMILES Cc1cc(O)c2c(c1)C(=O)c1cc(O)cc(O)c1C2=O
REMARK SMILES IDX 1 1 2 2 8 3 7 4 6 5 4 6 3 7 19 8 20 9 18 10 11 11 9 12 10 13
REMARK SMILES IDX 12 14 13 15 15 16 16 17 5 18 17 20 14 22
REMARK H PARENT 5 19 17 21 14 23
REMARK Flexibility Score: inf
ROOT
ATOM      1  C   UNL     1      35.804  -6.944  29.664  1.00  0.00     0.044 C 
ATOM      2  C   UNL     1      36.252  -5.610  29.144  1.00  0.00    -0.047 A 
ATOM      3  C   UNL     1      37.572  -5.188  29.333  1.00  0.00     0.016 A 
ATOM      4  C   UNL     1      38.010  -3.950  28.831  1.00  0.00     0.038 A 
ATOM      5  C   UNL     1      37.109  -3.120  28.124  1.00  0.00     0.076 A 
ATOM      6  C   UNL     1      35.801  -3.601  27.849  1.00  0.00     0.127 A 
ATOM      7  C   UNL     1      35.382  -4.822  28.385  1.00  0.00     0.050 A 
ATOM      8  C   UNL     1      37.559  -1.751  27.743  1.00  0.00     0.201 C 
ATOM      9  O   UNL     1      36.711  -0.851  27.500  1.00  0.00    -0.288 OA
ATOM     10  C   UNL     1      39.006  -1.409  27.758  1.00  0.00     0.076 A 
ATOM     11  C   UNL     1      39.909  -2.277  28.408  1.00  0.00     0.041 A 
ATOM     12  C   UNL     1      39.414  -3.526  29.030  1.00  0.00     0.194 C 
ATOM     13  O   UNL     1      40.198  -4.238  29.717  1.00  0.00    -0.289 OA
ATOM     14  C   UNL     1      41.275  -1.948  28.463  1.00  0.00     0.059 A 
ATOM     15  C   UNL     1      41.747  -0.774  27.875  1.00  0.00     0.120 A 
ATOM     16  C   UNL     1      40.857   0.084  27.224  1.00  0.00     0.093 A 
ATOM     17  C   UNL     1      39.491  -0.224  27.158  1.00  0.00     0.131 A 
ENDROOT
BRANCH   6  18
ATOM     18  O   UNL     1      34.898  -2.924  27.025  1.00  0.00    -0.507 OA
ATOM     19  H   UNL     1      34.958  -2.917  26.016  1.00  0.00     0.293 HD
ENDBRANCH   6  18
BRANCH  17  20
ATOM     20  O   UNL     1      38.627   0.643  26.491  1.00  0.00    -0.507 OA
ATOM     21  H   UNL     1      38.228   0.409  25.589  1.00  0.00     0.293 HD
ENDBRANCH  17  20
BRANCH  15  22
ATOM     22  O   UNL     1      43.105  -0.469  27.942  1.00  0.00    -0.508 OA
ATOM     23  H   UNL     1      43.444   0.477  27.813  1.00  0.00     0.293 HD
ENDBRANCH  15  22
TORSDOF 3
ENDMDL
MODEL 6
REMARK VINA RESULT:    -7.008      1.823      3.784
REMARK INTER + INTRA:          -7.622
REMARK INTER:                  -7.622
REMARK INTRA:                   0.000
REMARK UNBOUND:                 0.000
REMARK SMILES Cc1cc(O)c2c(c1)C(=O)c1cc(O)cc(O)c1C2=O
REMARK SMILES IDX 1 1 2 2 8 3 7 4 6 5 4 6 3 7 19 8 20 9 18 10 11 11 9 12 10 13
REMARK SMILES IDX 12 14 13 15 15 16 16 17 5 18 17 20 14 22
REMARK H PARENT 5 19 17 21 14 23
REMARK Flexibility Score: inf
ROOT
ATOM      1  C   UNL     1      36.032  -6.813  28.951  1.00  0.00     0.044 C 
ATOM      2  C   UNL     1      36.990  -5.667  28.814  1.00  0.00    -0.047 A 
ATOM      3  C   UNL     1      38.340  -5.835  29.141  1.00  0.00     0.016 A 
ATOM      4  C   UNL     1      39.252  -4.776  28.994  1.00  0.00     0.038 A 
ATOM      5  C   UNL     1      38.806  -3.525  28.509  1.00  0.00     0.076 A 
ATOM      6  C   UNL     1      37.456  -3.394  28.084  1.00  0.00     0.127 A 
ATOM      7  C   UNL     1      36.563  -4.454  28.268  1.00  0.00     0.050 A 
ATOM      8  C   UNL     1      39.761  -2.382  28.515  1.00  0.00     0.201 C 
ATOM      9  O   UNL     1      39.331  -1.197  28.497  1.00  0.00    -0.288 OA
ATOM     10  C   UNL     1      41.221  -2.629  28.656  1.00  0.00     0.076 A 
ATOM     11  C   UNL     1      41.663  -3.901  29.076  1.00  0.00     0.041 A 
ATOM     12  C   UNL     1      40.680  -4.977  29.334  1.00  0.00     0.194 C 
ATOM     13  O   UNL     1      41.064  -6.073  29.828  1.00  0.00    -0.289 OA
ATOM     14  C   UNL     1      43.039  -4.138  29.251  1.00  0.00     0.059 A 
ATOM     15  C   UNL     1      43.970  -3.129  29.006  1.00  0.00     0.120 A 
ATOM     16  C   UNL     1      43.536  -1.870  28.582  1.00  0.00     0.093 A 
ATOM     17  C   UNL     1      42.170  -1.611  28.404  1.00  0.00     0.131 A 
ENDROOT
BRANCH   6  18
ATOM     18  O   UNL     1      36.967  -2.252  27.446  1.00  0.00    -0.507 OA
ATOM     19  H   UNL     1      36.862  -1.355  27.901  1.00  0.00     0.293 HD
ENDBRANCH   6  18
BRANCH  17  20
ATOM     20  O   UNL     1      41.765  -0.350  27.967  1.00  0.00    -0.507 OA
ATOM     21  H   UNL     1      41.042  -0.235  27.267  1.00  0.00     0.293 HD
ENDBRANCH  17  20
BRANCH  15  22
ATOM     22  O   UNL     1      45.327  -3.388  29.186  1.00  0.00    -0.508 OA
ATOM     23  H   UNL     1      46.005  -2.639  29.257  1.00  0.00     0.293 HD
ENDBRANCH  15  22
TORSDOF 3
ENDMDL
MODEL 7
REMARK VINA RESULT:    -6.988      1.805      4.229
REMARK INTER + INTRA:          -7.601
REMARK INTER:                  -7.601
REMARK INTRA:                   0.000
REMARK UNBOUND:                 0.000
REMARK SMILES Cc1cc(O)c2c(c1)C(=O)c1cc(O)cc(O)c1C2=O
REMARK SMILES IDX 1 1 2 2 8 3 7 4 6 5 4 6 3 7 19 8 20 9 18 10 11 11 9 12 10 13
REMARK SMILES IDX 12 14 13 15 15 16 16 17 5 18 17 20 14 22
REMARK H PARENT 5 19 17 21 14 23
REMARK Flexibility Score: inf
ROOT
ATOM      1  C   UNL     1      34.885  -1.702  27.416  1.00  0.00     0.044 C 
ATOM      2  C   UNL     1      36.378  -1.590  27.514  1.00  0.00    -0.047 A 
ATOM      3  C   UNL     1      37.119  -2.594  28.148  1.00  0.00     0.016 A 
ATOM      4  C   UNL     1      38.520  -2.513  28.226  1.00  0.00     0.038 A 
ATOM      5  C   UNL     1      39.193  -1.407  27.657  1.00  0.00     0.076 A 
ATOM      6  C   UNL     1      38.443  -0.445  26.928  1.00  0.00     0.127 A 
ATOM      7  C   UNL     1      37.048  -0.534  26.890  1.00  0.00     0.050 A 
ATOM      8  C   UNL     1      40.658  -1.272  27.893  1.00  0.00     0.201 C 
ATOM      9  O   UNL     1      41.216  -0.148  27.782  1.00  0.00    -0.288 OA
ATOM     10  C   UNL     1      41.448  -2.438  28.372  1.00  0.00     0.076 A 
ATOM     11  C   UNL     1      40.768  -3.566  28.877  1.00  0.00     0.041 A 
ATOM     12  C   UNL     1      39.288  -3.591  28.890  1.00  0.00     0.194 C 
ATOM     13  O   UNL     1      38.681  -4.543  29.454  1.00  0.00    -0.289 OA
ATOM     14  C   UNL     1      41.502  -4.661  29.369  1.00  0.00     0.059 A 
ATOM     15  C   UNL     1      42.896  -4.643  29.355  1.00  0.00     0.120 A 
ATOM     16  C   UNL     1      43.574  -3.531  28.848  1.00  0.00     0.093 A 
ATOM     17  C   UNL     1      42.862  -2.429  28.355  1.00  0.00     0.131 A 
ENDROOT
BRANCH   6  18
ATOM     18  O   UNL     1      39.034   0.588  26.199  1.00  0.00    -0.507 OA
ATOM     19  H   UNL     1      39.679   0.438  25.434  1.00  0.00     0.293 HD
ENDBRANCH   6  18
BRANCH  17  20
ATOM     20  O   UNL     1      43.562  -1.337  27.843  1.00  0.00    -0.507 OA
ATOM     21  H   UNL     1      43.991  -1.361  26.925  1.00  0.00     0.293 HD
ENDBRANCH  17  20
BRANCH  15  22
ATOM     22  O   UNL     1      43.602  -5.740  29.847  1.00  0.00    -0.508 OA
ATOM     23  H   UNL     1      44.185  -5.669  30.672  1.00  0.00     0.293 HD
ENDBRANCH  15  22
TORSDOF 3
ENDMDL
MODEL 8
REMARK VINA RESULT:    -6.547      2.150      3.863
REMARK INTER + INTRA:          -7.121
REMARK INTER:                  -7.121
REMARK INTRA:                   0.000
REMARK UNBOUND:                 0.000
REMARK SMILES Cc1cc(O)c2c(c1)C(=O)c1cc(O)cc(O)c1C2=O
REMARK SMILES IDX 1 1 2 2 8 3 7 4 6 5 4 6 3 7 19 8 20 9 18 10 11 11 9 12 10 13
REMARK SMILES IDX 12 14 13 15 15 16 16 17 5 18 17 20 14 22
REMARK H PARENT 5 19 17 21 14 23
REMARK Flexibility Score: inf
ROOT
ATOM      1  C   UNL     1      36.070  -0.880  27.465  1.00  0.00     0.044 C 
ATOM      2  C   UNL     1      37.070  -1.920  27.878  1.00  0.00    -0.047 A 
ATOM      3  C   UNL     1      38.436  -1.622  27.878  1.00  0.00     0.016 A 
ATOM      4  C   UNL     1      39.381  -2.579  28.286  1.00  0.00     0.038 A 
ATOM      5  C   UNL     1      38.950  -3.859  28.703  1.00  0.00     0.076 A 
ATOM      6  C   UNL     1      37.556  -4.119  28.797  1.00  0.00     0.127 A 
ATOM      7  C   UNL     1      36.638  -3.160  28.358  1.00  0.00     0.050 A 
ATOM      8  C   UNL     1      39.981  -4.899  28.977  1.00  0.00     0.201 C 
ATOM      9  O   UNL     1      39.673  -6.121  28.943  1.00  0.00    -0.288 OA
ATOM     10  C   UNL     1      41.401  -4.508  29.180  1.00  0.00     0.076 A 
ATOM     11  C   UNL     1      41.811  -3.205  28.824  1.00  0.00     0.041 A 
ATOM     12  C   UNL     1      40.823  -2.241  28.290  1.00  0.00     0.194 C 
ATOM     13  O   UNL     1      41.211  -1.121  27.856  1.00  0.00    -0.289 OA
ATOM     14  C   UNL     1      43.159  -2.833  28.974  1.00  0.00     0.059 A 
ATOM     15  C   UNL     1      44.093  -3.737  29.479  1.00  0.00     0.120 A 
ATOM     16  C   UNL     1      43.689  -5.025  29.841  1.00  0.00     0.093 A 
ATOM     17  C   UNL     1      42.352  -5.418  29.697  1.00  0.00     0.131 A 
ENDROOT
BRANCH   6  18
ATOM     18  O   UNL     1      37.035  -5.292  29.348  1.00  0.00    -0.507 OA
ATOM     19  H   UNL     1      36.106  -5.364  29.739  1.00  0.00     0.293 HD
ENDBRANCH   6  18
BRANCH  17  20
ATOM     20  O   UNL     1      41.974  -6.705  30.078  1.00  0.00    -0.507 OA
ATOM     21  H   UNL     1      41.182  -7.175  29.655  1.00  0.00     0.293 HD
ENDBRANCH  17  20
BRANCH  15  22
ATOM     22  O   UNL     1      45.423  -3.344  29.620  1.00  0.00    -0.508 OA
ATOM     23  H   UNL     1      45.681  -2.369  29.713  1.00  0.00     0.293 HD
ENDBRANCH  15  22
TORSDOF 3
ENDMDL
MODEL 9
REMARK VINA RESULT:    -6.080      2.160      6.054
REMARK INTER + INTRA:          -6.613
REMARK INTER:                  -6.613
REMARK INTRA:                   0.000
REMARK UNBOUND:                 0.000
REMARK SMILES Cc1cc(O)c2c(c1)C(=O)c1cc(O)cc(O)c1C2=O
REMARK SMILES IDX 1 1 2 2 8 3 7 4 6 5 4 6 3 7 19 8 20 9 18 10 11 11 9 12 10 13
REMARK SMILES IDX 12 14 13 15 15 16 16 17 5 18 17 20 14 22
REMARK H PARENT 5 19 17 21 14 23
REMARK Flexibility Score: inf
ROOT
ATOM      1  C   UNL     1      41.101   0.940  27.086  1.00  0.00     0.044 C 
ATOM      2  C   UNL     1      40.502  -0.375  27.491  1.00  0.00    -0.047 A 
ATOM      3  C   UNL     1      41.325  -1.485  27.710  1.00  0.00     0.016 A 
ATOM      4  C   UNL     1      40.779  -2.716  28.113  1.00  0.00     0.038 A 
ATOM      5  C   UNL     1      39.383  -2.838  28.302  1.00  0.00     0.076 A 
ATOM      6  C   UNL     1      38.568  -1.681  28.176  1.00  0.00     0.127 A 
ATOM      7  C   UNL     1      39.132  -0.476  27.747  1.00  0.00     0.050 A 
ATOM      8  C   UNL     1      38.821  -4.191  28.574  1.00  0.00     0.201 C 
ATOM      9  O   UNL     1      37.606  -4.430  28.343  1.00  0.00    -0.288 OA
ATOM     10  C   UNL     1      39.714  -5.297  29.011  1.00  0.00     0.076 A 
ATOM     11  C   UNL     1      41.111  -5.142  28.882  1.00  0.00     0.041 A 
ATOM     12  C   UNL     1      41.667  -3.877  28.351  1.00  0.00     0.194 C 
ATOM     13  O   UNL     1      42.904  -3.785  28.119  1.00  0.00    -0.289 OA
ATOM     14  C   UNL     1      41.966  -6.194  29.256  1.00  0.00     0.059 A 
ATOM     15  C   UNL     1      41.447  -7.386  29.760  1.00  0.00     0.120 A 
ATOM     16  C   UNL     1      40.065  -7.540  29.897  1.00  0.00     0.093 A 
ATOM     17  C   UNL     1      39.194  -6.506  29.529  1.00  0.00     0.131 A 
ENDROOT
BRANCH   6  18
ATOM     18  O   UNL     1      37.209  -1.668  28.499  1.00  0.00    -0.507 OA
ATOM     19  H   UNL     1      36.470  -1.781  27.818  1.00  0.00     0.293 HD
ENDBRANCH   6  18
BRANCH  17  20
ATOM     20  O   UNL     1      37.820  -6.681  29.688  1.00  0.00    -0.507 OA
ATOM     21  H   UNL     1      37.302  -7.359  29.141  1.00  0.00     0.293 HD
ENDBRANCH  17  20
BRANCH  15  22
ATOM     22  O   UNL     1      42.315  -8.414  30.125  1.00  0.00    -0.508 OA
ATOM     23  H   UNL     1      42.221  -9.348  29.743  1.00  0.00     0.293 HD
ENDBRANCH  15  22
TORSDOF 3
ENDMDL
