MODEL 1
REMARK VINA RESULT:    -2.328      0.000      0.000
REMARK INTER + INTRA:          -2.328
REMARK INTER:                  -2.328
REMARK INTRA:                   0.000
REMARK UNBOUND:                 0.000
REMARK SMILES CC(=O)[O-]
REMARK SMILES IDX 1 1 2 2 3 3 4 4
REMARK H PARENT
REMARK Flexibility Score: inf
ROOT
ATOM      1  C   UNL     1      24.243 -16.134 -41.757  1.00  0.00     0.063 C 
ATOM      2  C   UNL     1      23.263 -15.725 -40.710  1.00  0.00     0.038 C 
ATOM      3  O   UNL     1      23.668 -15.314 -39.592  1.00  0.00    -0.550 OA
ATOM      4  O   UNL     1      21.902 -15.746 -40.986  1.00  0.00    -0.550 OA
ENDROOT
TORSDOF 0
ENDMDL
MODEL 2
REMARK VINA RESULT:    -2.312     11.683     12.147
REMARK INTER + INTRA:          -2.312
REMARK INTER:                  -2.312
REMARK INTRA:                   0.000
REMARK UNBOUND:                 0.000
REMARK SMILES CC(=O)[O-]
REMARK SMILES IDX 1 1 2 2 3 3 4 4
REMARK H PARENT
REMARK Flexibility Score: inf
ROOT
ATOM      1  C   UNL     1      14.060  -8.527 -39.566  1.00  0.00     0.063 C 
ATOM      2  C   UNL     1      13.168  -9.201 -40.554  1.00  0.00     0.038 C 
ATOM      3  O   UNL     1      13.646  -9.670 -41.619  1.00  0.00    -0.550 OA
ATOM      4  O   UNL     1      11.817  -9.360 -40.275  1.00  0.00    -0.550 OA
ENDROOT
TORSDOF 0
ENDMDL
MODEL 3
REMARK VINA RESULT:    -2.292      1.978      2.197
REMARK INTER + INTRA:          -2.292
REMARK INTER:                  -2.292
REMARK INTRA:                   0.000
REMARK UNBOUND:                 0.000
REMARK SMILES CC(=O)[O-]
REMARK SMILES IDX 1 1 2 2 3 3 4 4
REMARK H PARENT
REMARK Flexibility Score: inf
ROOT
ATOM      1  C   UNL     1      23.880 -15.453 -39.980  1.00  0.00     0.063 C 
ATOM      2  C   UNL     1      24.344 -16.569 -40.854  1.00  0.00     0.038 C 
ATOM      3  O   UNL     1      25.061 -17.487 -40.378  1.00  0.00    -0.550 OA
ATOM      4  O   UNL     1      23.940 -16.628 -42.181  1.00  0.00    -0.550 OA
ENDROOT
TORSDOF 0
ENDMDL
MODEL 4
REMARK VINA RESULT:    -2.260      7.972      8.302
REMARK INTER + INTRA:          -2.260
REMARK INTER:                  -2.260
REMARK INTRA:                   0.000
REMARK UNBOUND:                 0.000
REMARK SMILES CC(=O)[O-]
REMARK SMILES IDX 1 1 2 2 3 3 4 4
REMARK H PARENT
REMARK Flexibility Score: inf
ROOT
ATOM      1  C   UNL     1      22.373  -7.508 -37.484  1.00  0.00     0.063 C 
ATOM      2  C   UNL     1      22.549  -7.893 -38.915  1.00  0.00     0.038 C 
ATOM      3  O   UNL     1      23.506  -8.634 -39.256  1.00  0.00    -0.550 OA
ATOM      4  O   UNL     1      21.624  -7.479 -39.865  1.00  0.00    -0.550 OA
ENDROOT
TORSDOF 0
ENDMDL
MODEL 5
REMARK VINA RESULT:    -2.249      1.957      2.094
REMARK INTER + INTRA:          -2.249
REMARK INTER:                  -2.249
REMARK INTRA:                   0.000
REMARK UNBOUND:                 0.000
REMARK SMILES CC(=O)[O-]
REMARK SMILES IDX 1 1 2 2 3 3 4 4
REMARK H PARENT
REMARK Flexibility Score: inf
ROOT
ATOM      1  C   UNL     1      24.978 -17.365 -40.595  1.00  0.00     0.063 C 
ATOM      2  C   UNL     1      24.284 -16.485 -41.580  1.00  0.00     0.038 C 
ATOM      3  O   UNL     1      24.192 -15.248 -41.367  1.00  0.00    -0.550 OA
ATOM      4  O   UNL     1      23.788 -17.020 -42.761  1.00  0.00    -0.550 OA
ENDROOT
TORSDOF 0
ENDMDL
MODEL 6
REMARK VINA RESULT:    -2.217      2.723      3.207
REMARK INTER + INTRA:          -2.217
REMARK INTER:                  -2.217
REMARK INTRA:                   0.000
REMARK UNBOUND:                 0.000
REMARK SMILES CC(=O)[O-]
REMARK SMILES IDX 1 1 2 2 3 3 4 4
REMARK H PARENT
REMARK Flexibility Score: inf
ROOT
ATOM      1  C   UNL     1      24.325 -16.499 -42.163  1.00  0.00     0.063 C 
ATOM      2  C   UNL     1      24.969 -17.594 -41.382  1.00  0.00     0.038 C 
ATOM      3  O   UNL     1      25.406 -18.617 -41.970  1.00  0.00    -0.550 OA
ATOM      4  O   UNL     1      25.139 -17.463 -40.009  1.00  0.00    -0.550 OA
ENDROOT
TORSDOF 0
ENDMDL
MODEL 7
REMARK VINA RESULT:    -2.158     10.544     11.033
REMARK INTER + INTRA:          -2.158
REMARK INTER:                  -2.158
REMARK INTRA:                   0.000
REMARK UNBOUND:                 0.000
REMARK SMILES CC(=O)[O-]
REMARK SMILES IDX 1 1 2 2 3 3 4 4
REMARK H PARENT
REMARK Flexibility Score: inf
ROOT
ATOM      1  C   UNL     1      13.269 -14.661 -33.854  1.00  0.00     0.063 C 
ATOM      2  C   UNL     1      14.706 -14.952 -34.130  1.00  0.00     0.038 C 
ATOM      3  O   UNL     1      15.591 -14.593 -33.311  1.00  0.00    -0.550 OA
ATOM      4  O   UNL     1      15.065 -15.669 -35.264  1.00  0.00    -0.550 OA
ENDROOT
TORSDOF 0
ENDMDL
MODEL 8
REMARK VINA RESULT:    -2.129      7.433      7.816
REMARK INTER + INTRA:          -2.129
REMARK INTER:                  -2.129
REMARK INTRA:                   0.000
REMARK UNBOUND:                 0.000
REMARK SMILES CC(=O)[O-]
REMARK SMILES IDX 1 1 2 2 3 3 4 4
REMARK H PARENT
REMARK Flexibility Score: inf
ROOT
ATOM      1  C   UNL     1      24.913  -7.846 -38.007  1.00  0.00     0.063 C 
ATOM      2  C   UNL     1      23.657  -8.461 -38.526  1.00  0.00     0.038 C 
ATOM      3  O   UNL     1      23.633  -8.976 -39.674  1.00  0.00    -0.550 OA
ATOM      4  O   UNL     1      22.526  -8.517 -37.721  1.00  0.00    -0.550 OA
ENDROOT
TORSDOF 0
ENDMDL
MODEL 9
REMARK VINA RESULT:    -2.060      7.561      8.083
REMARK INTER + INTRA:          -2.060
REMARK INTER:                  -2.060
REMARK INTRA:                   0.000
REMARK UNBOUND:                 0.000
REMARK SMILES CC(=O)[O-]
REMARK SMILES IDX 1 1 2 2 3 3 4 4
REMARK H PARENT
REMARK Flexibility Score: inf
ROOT
ATOM      1  C   UNL     1      22.657  -8.323 -37.876  1.00  0.00     0.063 C 
ATOM      2  C   UNL     1      24.064  -8.297 -38.369  1.00  0.00     0.038 C 
ATOM      3  O   UNL     1      24.620  -7.200 -38.633  1.00  0.00    -0.550 OA
ATOM      4  O   UNL     1      24.782  -9.480 -38.485  1.00  0.00    -0.550 OA
ENDROOT
TORSDOF 0
ENDMDL
