MODEL 1
REMARK VINA RESULT:     0.000      0.000      0.000
REMARK INTER + INTRA:          -0.253
REMARK INTER:                   0.000
REMARK INTRA:                  -0.253
REMARK UNBOUND:                -0.253
REMARK SMILES O=C([O-])c1ccccc1O
REMARK SMILES IDX 4 1 9 2 5 3 8 4 6 5 7 6 2 7 1 8 3 9 10 10
REMARK H PARENT 10 11
REMARK Flexibility Score: inf
ROOT
ATOM      1  C   UNL     1       9.449  24.836  57.609  1.00  0.00     0.039 A 
ATOM      2  C   UNL     1       8.277  24.343  58.237  1.00  0.00     0.124 A 
ATOM      3  C   UNL     1       9.332  25.494  56.370  1.00  0.00     0.014 A 
ATOM      4  C   UNL     1       7.041  24.462  57.587  1.00  0.00     0.047 A 
ATOM      5  C   UNL     1       8.090  25.622  55.746  1.00  0.00     0.001 A 
ATOM      6  C   UNL     1       6.947  25.099  56.349  1.00  0.00     0.004 A 
ENDROOT
BRANCH   1   7
ATOM      7  C   UNL     1      10.801  24.662  58.185  1.00  0.00     0.075 C 
ATOM      8  O   UNL     1      11.646  25.595  58.147  1.00  0.00    -0.545 OA
ATOM      9  O   UNL     1      11.132  23.481  58.839  1.00  0.00    -0.545 OA
ENDBRANCH   1   7
BRANCH   2  10
ATOM     10  O   UNL     1       8.286  23.763  59.508  1.00  0.00    -0.507 OA
ATOM     11  H   UNL     1       8.827  24.125  60.282  1.00  0.00     0.293 HD
ENDBRANCH   2  10
TORSDOF 2
ENDMDL
MODEL 2
REMARK VINA RESULT:     0.000     13.140     13.665
REMARK INTER + INTRA:          -0.253
REMARK INTER:                   0.000
REMARK INTRA:                  -0.253
REMARK UNBOUND:                -0.253
REMARK SMILES O=C([O-])c1ccccc1O
REMARK SMILES IDX 4 1 9 2 5 3 8 4 6 5 7 6 2 7 1 8 3 9 10 10
REMARK H PARENT 10 11
REMARK Flexibility Score: inf
ROOT
ATOM      1  C   UNL     1      15.700  19.397  47.563  1.00  0.00     0.039 A 
ATOM      2  C   UNL     1      15.081  18.130  47.402  1.00  0.00     0.124 A 
ATOM      3  C   UNL     1      16.768  19.522  48.471  1.00  0.00     0.014 A 
ATOM      4  C   UNL     1      15.500  17.050  48.190  1.00  0.00     0.047 A 
ATOM      5  C   UNL     1      17.187  18.430  49.234  1.00  0.00     0.001 A 
ATOM      6  C   UNL     1      16.547  17.197  49.101  1.00  0.00     0.004 A 
ENDROOT
BRANCH   1   7
ATOM      7  C   UNL     1      15.250  20.607  46.840  1.00  0.00     0.075 C 
ATOM      8  O   UNL     1      16.082  21.425  46.367  1.00  0.00    -0.545 OA
ATOM      9  O   UNL     1      13.895  20.820  46.614  1.00  0.00    -0.545 OA
ENDBRANCH   1   7
BRANCH   2  10
ATOM     10  O   UNL     1      14.081  17.893  46.457  1.00  0.00    -0.507 OA
ATOM     11  H   UNL     1      13.323  18.536  46.273  1.00  0.00     0.293 HD
ENDBRANCH   2  10
TORSDOF 2
ENDMDL
MODEL 3
REMARK VINA RESULT:     0.000     10.349     11.519
REMARK INTER + INTRA:          -0.253
REMARK INTER:                   0.000
REMARK INTRA:                  -0.253
REMARK UNBOUND:                -0.253
REMARK SMILES O=C([O-])c1ccccc1O
REMARK SMILES IDX 4 1 9 2 5 3 8 4 6 5 7 6 2 7 1 8 3 9 10 10
REMARK H PARENT 10 11
REMARK Flexibility Score: inf
ROOT
ATOM      1  C   UNL     1      16.884  19.384  51.398  1.00  0.00     0.039 A 
ATOM      2  C   UNL     1      16.098  20.283  52.165  1.00  0.00     0.124 A 
ATOM      3  C   UNL     1      17.704  18.456  52.066  1.00  0.00     0.014 A 
ATOM      4  C   UNL     1      16.202  20.273  53.562  1.00  0.00     0.047 A 
ATOM      5  C   UNL     1      17.779  18.446  53.460  1.00  0.00     0.001 A 
ATOM      6  C   UNL     1      17.037  19.360  54.207  1.00  0.00     0.004 A 
ENDROOT
BRANCH   1   7
ATOM      7  C   UNL     1      16.904  19.398  49.918  1.00  0.00     0.075 C 
ATOM      8  O   UNL     1      16.909  18.325  49.260  1.00  0.00    -0.545 OA
ATOM      9  O   UNL     1      16.846  20.607  49.233  1.00  0.00    -0.545 OA
ENDBRANCH   1   7
BRANCH   2  10
ATOM     10  O   UNL     1      15.187  21.171  51.589  1.00  0.00    -0.507 OA
ATOM     11  H   UNL     1      15.212  22.171  51.737  1.00  0.00     0.293 HD
ENDBRANCH   2  10
TORSDOF 2
ENDMDL
MODEL 4
REMARK VINA RESULT:     0.000     11.399     11.901
REMARK INTER + INTRA:          -0.253
REMARK INTER:                   0.000
REMARK INTRA:                  -0.253
REMARK UNBOUND:                -0.253
REMARK SMILES O=C([O-])c1ccccc1O
REMARK SMILES IDX 4 1 9 2 5 3 8 4 6 5 7 6 2 7 1 8 3 9 10 10
REMARK H PARENT 10 11
REMARK Flexibility Score: inf
ROOT
ATOM      1  C   UNL     1      13.409  16.999  50.443  1.00  0.00     0.039 A 
ATOM      2  C   UNL     1      12.654  15.832  50.158  1.00  0.00     0.124 A 
ATOM      3  C   UNL     1      13.651  17.341  51.786  1.00  0.00     0.014 A 
ATOM      4  C   UNL     1      12.113  15.083  51.212  1.00  0.00     0.047 A 
ATOM      5  C   UNL     1      13.123  16.572  52.825  1.00  0.00     0.001 A 
ATOM      6  C   UNL     1      12.346  15.449  52.538  1.00  0.00     0.004 A 
ENDROOT
BRANCH   1   7
ATOM      7  C   UNL     1      13.929  17.895  49.386  1.00  0.00     0.075 C 
ATOM      8  O   UNL     1      15.083  18.391  49.469  1.00  0.00    -0.545 OA
ATOM      9  O   UNL     1      13.169  18.145  48.249  1.00  0.00    -0.545 OA
ENDBRANCH   1   7
BRANCH   2  10
ATOM     10  O   UNL     1      12.445  15.365  48.859  1.00  0.00    -0.507 OA
ATOM     11  H   UNL     1      11.784  15.779  48.216  1.00  0.00     0.293 HD
ENDBRANCH   2  10
TORSDOF 2
ENDMDL
MODEL 5
REMARK VINA RESULT:     0.000      9.638     10.571
REMARK INTER + INTRA:          -0.253
REMARK INTER:                   0.000
REMARK INTRA:                  -0.253
REMARK UNBOUND:                -0.253
REMARK SMILES O=C([O-])c1ccccc1O
REMARK SMILES IDX 4 1 9 2 5 3 8 4 6 5 7 6 2 7 1 8 3 9 10 10
REMARK H PARENT 10 11
REMARK Flexibility Score: inf
ROOT
ATOM      1  C   UNL     1      14.662  19.926  51.142  1.00  0.00     0.039 A 
ATOM      2  C   UNL     1      15.409  19.668  49.964  1.00  0.00     0.124 A 
ATOM      3  C   UNL     1      14.484  21.258  51.558  1.00  0.00     0.014 A 
ATOM      4  C   UNL     1      16.006  20.734  49.277  1.00  0.00     0.047 A 
ATOM      5  C   UNL     1      15.069  22.310  50.850  1.00  0.00     0.001 A 
ATOM      6  C   UNL     1      15.837  22.048  49.716  1.00  0.00     0.004 A 
ENDROOT
BRANCH   1   7
ATOM      7  C   UNL     1      14.084  18.848  51.976  1.00  0.00     0.075 C 
ATOM      8  O   UNL     1      12.932  18.961  52.472  1.00  0.00    -0.545 OA
ATOM      9  O   UNL     1      14.785  17.662  52.165  1.00  0.00    -0.545 OA
ENDBRANCH   1   7
BRANCH   2  10
ATOM     10  O   UNL     1      15.556  18.388  49.426  1.00  0.00    -0.507 OA
ATOM     11  H   UNL     1      15.961  17.613  49.932  1.00  0.00     0.293 HD
ENDBRANCH   2  10
TORSDOF 2
ENDMDL
MODEL 6
REMARK VINA RESULT:     0.000      8.749     10.120
REMARK INTER + INTRA:          -0.253
REMARK INTER:                   0.000
REMARK INTRA:                  -0.253
REMARK UNBOUND:                -0.253
REMARK SMILES O=C([O-])c1ccccc1O
REMARK SMILES IDX 4 1 9 2 5 3 8 4 6 5 7 6 2 7 1 8 3 9 10 10
REMARK H PARENT 10 11
REMARK Flexibility Score: inf
ROOT
ATOM      1  C   UNL     1      16.592  21.273  53.350  1.00  0.00     0.039 A 
ATOM      2  C   UNL     1      17.455  20.149  53.268  1.00  0.00     0.124 A 
ATOM      3  C   UNL     1      16.789  22.349  52.465  1.00  0.00     0.014 A 
ATOM      4  C   UNL     1      18.518  20.159  52.355  1.00  0.00     0.047 A 
ATOM      5  C   UNL     1      17.841  22.334  51.547  1.00  0.00     0.001 A 
ATOM      6  C   UNL     1      18.711  21.244  51.499  1.00  0.00     0.004 A 
ENDROOT
BRANCH   1   7
ATOM      7  C   UNL     1      15.508  21.380  54.353  1.00  0.00     0.075 C 
ATOM      8  O   UNL     1      14.383  21.851  54.041  1.00  0.00    -0.545 OA
ATOM      9  O   UNL     1      15.701  20.893  55.641  1.00  0.00    -0.545 OA
ENDBRANCH   1   7
BRANCH   2  10
ATOM     10  O   UNL     1      17.275  19.000  54.040  1.00  0.00    -0.507 OA
ATOM     11  H   UNL     1      17.575  18.079  53.749  1.00  0.00     0.293 HD
ENDBRANCH   2  10
TORSDOF 2
ENDMDL
MODEL 7
REMARK VINA RESULT:     0.000      7.270      7.736
REMARK INTER + INTRA:          -0.253
REMARK INTER:                   0.000
REMARK INTRA:                  -0.253
REMARK UNBOUND:                -0.253
REMARK SMILES O=C([O-])c1ccccc1O
REMARK SMILES IDX 4 1 9 2 5 3 8 4 6 5 7 6 2 7 1 8 3 9 10 10
REMARK H PARENT 10 11
REMARK Flexibility Score: inf
ROOT
ATOM      1  C   UNL     1       9.346  19.255  52.731  1.00  0.00     0.039 A 
ATOM      2  C   UNL     1       9.327  19.653  54.093  1.00  0.00     0.124 A 
ATOM      3  C   UNL     1      10.341  19.776  51.883  1.00  0.00     0.014 A 
ATOM      4  C   UNL     1      10.253  20.600  54.550  1.00  0.00     0.047 A 
ATOM      5  C   UNL     1      11.269  20.704  52.360  1.00  0.00     0.001 A 
ATOM      6  C   UNL     1      11.220  21.123  53.690  1.00  0.00     0.004 A 
ENDROOT
BRANCH   1   7
ATOM      7  C   UNL     1       8.342  18.335  52.151  1.00  0.00     0.075 C 
ATOM      8  O   UNL     1       8.682  17.438  51.336  1.00  0.00    -0.545 OA
ATOM      9  O   UNL     1       7.015  18.409  52.556  1.00  0.00    -0.545 OA
ENDBRANCH   1   7
BRANCH   2  10
ATOM     10  O   UNL     1       8.438  19.115  55.026  1.00  0.00    -0.507 OA
ATOM     11  H   UNL     1       7.595  19.584  55.328  1.00  0.00     0.293 HD
ENDBRANCH   2  10
TORSDOF 2
ENDMDL
MODEL 8
REMARK VINA RESULT:     0.000      8.419     10.035
REMARK INTER + INTRA:          -0.253
REMARK INTER:                   0.000
REMARK INTRA:                  -0.253
REMARK UNBOUND:                -0.253
REMARK SMILES O=C([O-])c1ccccc1O
REMARK SMILES IDX 4 1 9 2 5 3 8 4 6 5 7 6 2 7 1 8 3 9 10 10
REMARK H PARENT 10 11
REMARK Flexibility Score: inf
ROOT
ATOM      1  C   UNL     1      15.792  18.596  55.785  1.00  0.00     0.039 A 
ATOM      2  C   UNL     1      15.895  19.290  54.552  1.00  0.00     0.124 A 
ATOM      3  C   UNL     1      16.885  17.827  56.228  1.00  0.00     0.014 A 
ATOM      4  C   UNL     1      17.050  19.147  53.772  1.00  0.00     0.047 A 
ATOM      5  C   UNL     1      18.037  17.713  55.448  1.00  0.00     0.001 A 
ATOM      6  C   UNL     1      18.117  18.364  54.217  1.00  0.00     0.004 A 
ENDROOT
BRANCH   1   7
ATOM      7  C   UNL     1      14.568  18.617  56.617  1.00  0.00     0.075 C 
ATOM      8  O   UNL     1      14.639  18.710  57.871  1.00  0.00    -0.545 OA
ATOM      9  O   UNL     1      13.315  18.605  56.014  1.00  0.00    -0.545 OA
ENDBRANCH   1   7
BRANCH   2  10
ATOM     10  O   UNL     1      14.899  20.149  54.082  1.00  0.00    -0.507 OA
ATOM     11  H   UNL     1      13.951  20.150  54.434  1.00  0.00     0.293 HD
ENDBRANCH   2  10
TORSDOF 2
ENDMDL
MODEL 9
REMARK VINA RESULT:     0.000      9.450      9.985
REMARK INTER + INTRA:          -0.253
REMARK INTER:                   0.000
REMARK INTRA:                  -0.253
REMARK UNBOUND:                -0.253
REMARK SMILES O=C([O-])c1ccccc1O
REMARK SMILES IDX 4 1 9 2 5 3 8 4 6 5 7 6 2 7 1 8 3 9 10 10
REMARK H PARENT 10 11
REMARK Flexibility Score: inf
ROOT
ATOM      1  C   UNL     1       9.455  17.711  50.894  1.00  0.00     0.039 A 
ATOM      2  C   UNL     1       9.719  19.065  50.564  1.00  0.00     0.124 A 
ATOM      3  C   UNL     1       8.973  16.847  49.892  1.00  0.00     0.014 A 
ATOM      4  C   UNL     1       9.436  19.530  49.272  1.00  0.00     0.047 A 
ATOM      5  C   UNL     1       8.717  17.322  48.605  1.00  0.00     0.001 A 
ATOM      6  C   UNL     1       8.939  18.665  48.297  1.00  0.00     0.004 A 
ENDROOT
BRANCH   1   7
ATOM      7  C   UNL     1       9.634  17.169  52.260  1.00  0.00     0.075 C 
ATOM      8  O   UNL     1      10.134  16.028  52.443  1.00  0.00    -0.545 OA
ATOM      9  O   UNL     1       9.314  17.949  53.365  1.00  0.00    -0.545 OA
ENDBRANCH   1   7
BRANCH   2  10
ATOM     10  O   UNL     1      10.287  19.967  51.466  1.00  0.00    -0.507 OA
ATOM     11  H   UNL     1      10.400  19.773  52.452  1.00  0.00     0.293 HD
ENDBRANCH   2  10
TORSDOF 2
ENDMDL
