MODEL 1
REMARK VINA RESULT:    -3.717      0.000      0.000
REMARK INTER + INTRA:          -9.715
REMARK INTER:                  -7.194
REMARK INTRA:                  -2.521
REMARK UNBOUND:                -2.521
REMARK SMILES CCCCCCCCCCCCCCCCCC(=O)[O-]
REMARK SMILES IDX 10 1 11 2 12 3 13 4 14 5 15 6 16 7 17 8 18 9 19 10 20 11
REMARK SMILES IDX 9 12 8 13 7 14 6 15 5 16 4 17 3 18 2 19 1 20
REMARK H PARENT
REMARK Flexibility Score: inf
ROOT
ATOM      1  C   UNL     1      -5.897  26.767 -13.335  1.00  0.00     0.000 C 
ENDROOT
BRANCH   1   2
ATOM      2  C   UNL     1      -4.818  25.678 -13.422  1.00  0.00     0.000 C 
BRANCH   2   3
ATOM      3  C   UNL     1      -4.564  25.043 -12.049  1.00  0.00     0.000 C 
BRANCH   3   4
ATOM      4  C   UNL     1      -4.880  23.538 -12.018  1.00  0.00     0.000 C 
BRANCH   4   5
ATOM      5  C   UNL     1      -6.285  23.191 -12.554  1.00  0.00     0.000 C 
BRANCH   5   6
ATOM      6  C   UNL     1      -7.208  22.641 -11.452  1.00  0.00     0.000 C 
BRANCH   6   7
ATOM      7  C   UNL     1      -6.431  22.014 -10.281  1.00  0.00     0.006 C 
BRANCH   7   8
ATOM      8  C   UNL     1      -6.133  20.516 -10.452  1.00  0.00     0.053 C 
BRANCH   8   9
ATOM      9  C   UNL     1      -6.440  19.737  -9.210  1.00  0.00     0.041 C 
ATOM     10  O   UNL     1      -7.521  19.928  -8.594  1.00  0.00    -0.550 OA
ATOM     11  O   UNL     1      -5.548  18.775  -8.753  1.00  0.00    -0.550 OA
ENDBRANCH   8   9
ENDBRANCH   7   8
ENDBRANCH   6   7
ENDBRANCH   5   6
ENDBRANCH   4   5
ENDBRANCH   3   4
ENDBRANCH   2   3
ENDBRANCH   1   2
BRANCH   1  12
ATOM     12  C   UNL     1      -7.181  26.400 -14.102  1.00  0.00     0.000 C 
BRANCH  12  13
ATOM     13  C   UNL     1      -8.467  26.374 -13.253  1.00  0.00    -0.000 C 
BRANCH  13  14
ATOM     14  C   UNL     1      -8.327  26.958 -11.836  1.00  0.00    -0.000 C 
BRANCH  14  15
ATOM     15  C   UNL     1      -8.688  25.949 -10.736  1.00  0.00    -0.000 C 
BRANCH  15  16
ATOM     16  C   UNL     1      -7.513  25.744  -9.768  1.00  0.00    -0.000 C 
BRANCH  16  17
ATOM     17  C   UNL     1      -6.565  26.961  -9.735  1.00  0.00    -0.000 C 
BRANCH  17  18
ATOM     18  C   UNL     1      -6.891  27.969  -8.620  1.00  0.00    -0.000 C 
BRANCH  18  19
ATOM     19  C   UNL     1      -6.848  29.426  -9.101  1.00  0.00    -0.003 C 
ATOM     20  C   UNL     1      -8.242  29.924  -9.472  1.00  0.00     0.004 C 
ENDBRANCH  18  19
ENDBRANCH  17  18
ENDBRANCH  16  17
ENDBRANCH  15  16
ENDBRANCH  14  15
ENDBRANCH  13  14
ENDBRANCH  12  13
ENDBRANCH   1  12
TORSDOF 16
ENDMDL
MODEL 2
REMARK VINA RESULT:    -3.710      1.397      2.344
REMARK INTER + INTRA:          -9.700
REMARK INTER:                  -8.580
REMARK INTRA:                  -1.120
REMARK UNBOUND:                -2.521
REMARK SMILES CCCCCCCCCCCCCCCCCC(=O)[O-]
REMARK SMILES IDX 10 1 11 2 12 3 13 4 14 5 15 6 16 7 17 8 18 9 19 10 20 11
REMARK SMILES IDX 9 12 8 13 7 14 6 15 5 16 4 17 3 18 2 19 1 20
REMARK H PARENT
REMARK Flexibility Score: inf
ROOT
ATOM      1  C   UNL     1      -4.589  24.940 -13.959  1.00  0.00     0.000 C 
ENDROOT
BRANCH   1   2
ATOM      2  C   UNL     1      -4.448  23.651 -13.137  1.00  0.00     0.000 C 
BRANCH   2   3
ATOM      3  C   UNL     1      -5.820  23.124 -12.699  1.00  0.00     0.000 C 
BRANCH   3   4
ATOM      4  C   UNL     1      -5.951  22.991 -11.172  1.00  0.00     0.000 C 
BRANCH   4   5
ATOM      5  C   UNL     1      -7.064  22.018 -10.730  1.00  0.00     0.000 C 
BRANCH   5   6
ATOM      6  C   UNL     1      -6.852  20.600 -11.291  1.00  0.00     0.000 C 
BRANCH   6   7
ATOM      7  C   UNL     1      -6.074  19.687 -10.327  1.00  0.00     0.006 C 
BRANCH   7   8
ATOM      8  C   UNL     1      -6.268  20.027  -8.841  1.00  0.00     0.053 C 
BRANCH   8   9
ATOM      9  C   UNL     1      -7.227  19.093  -8.171  1.00  0.00     0.041 C 
ATOM     10  O   UNL     1      -7.465  17.963  -8.673  1.00  0.00    -0.550 OA
ATOM     11  O   UNL     1      -7.832  19.455  -6.974  1.00  0.00    -0.550 OA
ENDBRANCH   8   9
ENDBRANCH   7   8
ENDBRANCH   6   7
ENDBRANCH   5   6
ENDBRANCH   4   5
ENDBRANCH   3   4
ENDBRANCH   2   3
ENDBRANCH   1   2
BRANCH   1  12
ATOM     12  C   UNL     1      -4.689  26.201 -13.081  1.00  0.00     0.000 C 
BRANCH  12  13
ATOM     13  C   UNL     1      -6.124  26.653 -12.742  1.00  0.00    -0.000 C 
BRANCH  13  14
ATOM     14  C   UNL     1      -6.401  26.881 -11.246  1.00  0.00    -0.000 C 
BRANCH  14  15
ATOM     15  C   UNL     1      -7.869  27.225 -10.956  1.00  0.00    -0.000 C 
BRANCH  15  16
ATOM     16  C   UNL     1      -7.977  28.451 -10.037  1.00  0.00    -0.000 C 
BRANCH  16  17
ATOM     17  C   UNL     1      -6.633  28.794  -9.361  1.00  0.00    -0.000 C 
BRANCH  17  18
ATOM     18  C   UNL     1      -6.462  30.291  -9.050  1.00  0.00    -0.000 C 
BRANCH  18  19
ATOM     19  C   UNL     1      -5.001  30.685  -8.792  1.00  0.00    -0.003 C 
ATOM     20  C   UNL     1      -4.718  30.800  -7.297  1.00  0.00     0.004 C 
ENDBRANCH  18  19
ENDBRANCH  17  18
ENDBRANCH  16  17
ENDBRANCH  15  16
ENDBRANCH  14  15
ENDBRANCH  13  14
ENDBRANCH  12  13
ENDBRANCH   1  12
TORSDOF 16
ENDMDL
MODEL 3
REMARK VINA RESULT:    -3.697      1.696      3.420
REMARK INTER + INTRA:          -9.676
REMARK INTER:                  -7.411
REMARK INTRA:                  -2.265
REMARK UNBOUND:                -2.521
REMARK SMILES CCCCCCCCCCCCCCCCCC(=O)[O-]
REMARK SMILES IDX 10 1 11 2 12 3 13 4 14 5 15 6 16 7 17 8 18 9 19 10 20 11
REMARK SMILES IDX 9 12 8 13 7 14 6 15 5 16 4 17 3 18 2 19 1 20
REMARK H PARENT
REMARK Flexibility Score: inf
ROOT
ATOM      1  C   UNL     1      -5.220  23.614 -11.663  1.00  0.00     0.000 C 
ENDROOT
BRANCH   1   2
ATOM      2  C   UNL     1      -6.723  23.483 -11.373  1.00  0.00     0.000 C 
BRANCH   2   3
ATOM      3  C   UNL     1      -7.475  22.945 -12.596  1.00  0.00     0.000 C 
BRANCH   3   4
ATOM      4  C   UNL     1      -7.304  21.428 -12.785  1.00  0.00     0.000 C 
BRANCH   4   5
ATOM      5  C   UNL     1      -7.342  20.633 -11.463  1.00  0.00     0.000 C 
BRANCH   5   6
ATOM      6  C   UNL     1      -6.061  19.808 -11.245  1.00  0.00     0.000 C 
BRANCH   6   7
ATOM      7  C   UNL     1      -5.899  19.330  -9.791  1.00  0.00     0.006 C 
BRANCH   7   8
ATOM      8  C   UNL     1      -6.784  20.075  -8.779  1.00  0.00     0.053 C 
BRANCH   8   9
ATOM      9  C   UNL     1      -7.297  19.166  -7.705  1.00  0.00     0.041 C 
ATOM     10  O   UNL     1      -6.694  18.092  -7.445  1.00  0.00    -0.550 OA
ATOM     11  O   UNL     1      -8.419  19.522  -6.968  1.00  0.00    -0.550 OA
ENDBRANCH   8   9
ENDBRANCH   7   8
ENDBRANCH   6   7
ENDBRANCH   5   6
ENDBRANCH   4   5
ENDBRANCH   3   4
ENDBRANCH   2   3
ENDBRANCH   1   2
BRANCH   1  12
ATOM     12  C   UNL     1      -4.930  24.233 -13.043  1.00  0.00     0.000 C 
BRANCH  12  13
ATOM     13  C   UNL     1      -4.515  25.718 -13.021  1.00  0.00    -0.000 C 
BRANCH  13  14
ATOM     14  C   UNL     1      -5.681  26.723 -13.061  1.00  0.00    -0.000 C 
BRANCH  14  15
ATOM     15  C   UNL     1      -6.769  26.333 -14.072  1.00  0.00    -0.000 C 
BRANCH  15  16
ATOM     16  C   UNL     1      -8.136  26.896 -13.653  1.00  0.00    -0.000 C 
BRANCH  16  17
ATOM     17  C   UNL     1      -8.358  26.818 -12.129  1.00  0.00    -0.000 C 
BRANCH  17  18
ATOM     18  C   UNL     1      -9.568  25.959 -11.723  1.00  0.00    -0.000 C 
BRANCH  18  19
ATOM     19  C   UNL     1      -9.691  25.780 -10.204  1.00  0.00    -0.003 C 
ATOM     20  C   UNL     1      -8.391  26.155  -9.499  1.00  0.00     0.004 C 
ENDBRANCH  18  19
ENDBRANCH  17  18
ENDBRANCH  16  17
ENDBRANCH  15  16
ENDBRANCH  14  15
ENDBRANCH  13  14
ENDBRANCH  12  13
ENDBRANCH   1  12
TORSDOF 16
ENDMDL
MODEL 4
REMARK VINA RESULT:    -3.655      3.645      6.605
REMARK INTER + INTRA:          -9.594
REMARK INTER:                  -7.367
REMARK INTRA:                  -2.226
REMARK UNBOUND:                -2.521
REMARK SMILES CCCCCCCCCCCCCCCCCC(=O)[O-]
REMARK SMILES IDX 10 1 11 2 12 3 13 4 14 5 15 6 16 7 17 8 18 9 19 10 20 11
REMARK SMILES IDX 9 12 8 13 7 14 6 15 5 16 4 17 3 18 2 19 1 20
REMARK H PARENT
REMARK Flexibility Score: inf
ROOT
ATOM      1  C   UNL     1      -5.166  23.860 -14.314  1.00  0.00     0.000 C 
ENDROOT
BRANCH   1   2
ATOM      2  C   UNL     1      -4.382  25.179 -14.376  1.00  0.00     0.000 C 
BRANCH   2   3
ATOM      3  C   UNL     1      -4.190  25.772 -12.975  1.00  0.00     0.000 C 
BRANCH   3   4
ATOM      4  C   UNL     1      -5.384  26.628 -12.519  1.00  0.00     0.000 C 
BRANCH   4   5
ATOM      5  C   UNL     1      -6.080  26.091 -11.250  1.00  0.00     0.000 C 
BRANCH   5   6
ATOM      6  C   UNL     1      -7.480  25.528 -11.551  1.00  0.00     0.000 C 
BRANCH   6   7
ATOM      7  C   UNL     1      -8.130  26.172 -12.788  1.00  0.00     0.006 C 
BRANCH   7   8
ATOM      8  C   UNL     1      -8.560  25.170 -13.870  1.00  0.00     0.053 C 
BRANCH   8   9
ATOM      9  C   UNL     1      -8.619  25.799 -15.228  1.00  0.00     0.041 C 
ATOM     10  O   UNL     1      -9.381  26.779 -15.438  1.00  0.00    -0.550 OA
ATOM     11  O   UNL     1      -7.808  25.325 -16.251  1.00  0.00    -0.550 OA
ENDBRANCH   8   9
ENDBRANCH   7   8
ENDBRANCH   6   7
ENDBRANCH   5   6
ENDBRANCH   4   5
ENDBRANCH   3   4
ENDBRANCH   2   3
ENDBRANCH   1   2
BRANCH   1  12
ATOM     12  C   UNL     1      -4.456  22.782 -13.474  1.00  0.00     0.000 C 
BRANCH  12  13
ATOM     13  C   UNL     1      -5.369  21.660 -12.941  1.00  0.00    -0.000 C 
BRANCH  13  14
ATOM     14  C   UNL     1      -6.838  22.061 -12.722  1.00  0.00    -0.000 C 
BRANCH  14  15
ATOM     15  C   UNL     1      -7.330  21.773 -11.297  1.00  0.00    -0.000 C 
BRANCH  15  16
ATOM     16  C   UNL     1      -6.148  21.611 -10.329  1.00  0.00    -0.000 C 
BRANCH  16  17
ATOM     17  C   UNL     1      -6.484  20.676  -9.149  1.00  0.00    -0.000 C 
BRANCH  17  18
ATOM     18  C   UNL     1      -6.306  19.182  -9.474  1.00  0.00    -0.000 C 
BRANCH  18  19
ATOM     19  C   UNL     1      -7.235  18.278  -8.653  1.00  0.00    -0.003 C 
ATOM     20  C   UNL     1      -7.674  18.965  -7.363  1.00  0.00     0.004 C 
ENDBRANCH  18  19
ENDBRANCH  17  18
ENDBRANCH  16  17
ENDBRANCH  15  16
ENDBRANCH  14  15
ENDBRANCH  13  14
ENDBRANCH  12  13
ENDBRANCH   1  12
TORSDOF 16
ENDMDL
MODEL 5
REMARK VINA RESULT:    -3.645      2.781      6.079
REMARK INTER + INTRA:          -9.574
REMARK INTER:                  -7.190
REMARK INTRA:                  -2.384
REMARK UNBOUND:                -2.521
REMARK SMILES CCCCCCCCCCCCCCCCCC(=O)[O-]
REMARK SMILES IDX 10 1 11 2 12 3 13 4 14 5 15 6 16 7 17 8 18 9 19 10 20 11
REMARK SMILES IDX 9 12 8 13 7 14 6 15 5 16 4 17 3 18 2 19 1 20
REMARK H PARENT
REMARK Flexibility Score: inf
ROOT
ATOM      1  C   UNL     1      -9.664  24.243 -13.106  1.00  0.00     0.000 C 
ENDROOT
BRANCH   1   2
ATOM      2  C   UNL     1      -8.834  25.192 -13.983  1.00  0.00     0.000 C 
BRANCH   2   3
ATOM      3  C   UNL     1      -8.039  26.182 -13.123  1.00  0.00     0.000 C 
BRANCH   3   4
ATOM      4  C   UNL     1      -6.681  26.555 -13.741  1.00  0.00     0.000 C 
BRANCH   4   5
ATOM      5  C   UNL     1      -5.478  26.242 -12.826  1.00  0.00     0.000 C 
BRANCH   5   6
ATOM      6  C   UNL     1      -5.459  24.769 -12.377  1.00  0.00     0.000 C 
BRANCH   6   7
ATOM      7  C   UNL     1      -5.137  24.606 -10.880  1.00  0.00     0.006 C 
BRANCH   7   8
ATOM      8  C   UNL     1      -6.355  24.267 -10.006  1.00  0.00     0.053 C 
BRANCH   8   9
ATOM      9  C   UNL     1      -7.150  25.487  -9.653  1.00  0.00     0.041 C 
ATOM     10  O   UNL     1      -8.407  25.464  -9.719  1.00  0.00    -0.550 OA
ATOM     11  O   UNL     1      -6.504  26.638  -9.219  1.00  0.00    -0.550 OA
ENDBRANCH   8   9
ENDBRANCH   7   8
ENDBRANCH   6   7
ENDBRANCH   5   6
ENDBRANCH   4   5
ENDBRANCH   3   4
ENDBRANCH   2   3
ENDBRANCH   1   2
BRANCH   1  12
ATOM     12  C   UNL     1      -8.887  22.980 -12.691  1.00  0.00     0.000 C 
BRANCH  12  13
ATOM     13  C   UNL     1      -7.941  22.409 -13.766  1.00  0.00    -0.000 C 
BRANCH  13  14
ATOM     14  C   UNL     1      -6.859  21.449 -13.242  1.00  0.00    -0.000 C 
BRANCH  14  15
ATOM     15  C   UNL     1      -7.191  20.875 -11.857  1.00  0.00    -0.000 C 
BRANCH  15  16
ATOM     16  C   UNL     1      -5.930  20.772 -10.986  1.00  0.00    -0.000 C 
BRANCH  16  17
ATOM     17  C   UNL     1      -6.254  20.371  -9.532  1.00  0.00    -0.000 C 
BRANCH  17  18
ATOM     18  C   UNL     1      -6.063  18.872  -9.246  1.00  0.00    -0.000 C 
BRANCH  18  19
ATOM     19  C   UNL     1      -7.253  18.249  -8.502  1.00  0.00    -0.003 C 
ATOM     20  C   UNL     1      -7.625  19.073  -7.273  1.00  0.00     0.004 C 
ENDBRANCH  18  19
ENDBRANCH  17  18
ENDBRANCH  16  17
ENDBRANCH  15  16
ENDBRANCH  14  15
ENDBRANCH  13  14
ENDBRANCH  12  13
ENDBRANCH   1  12
TORSDOF 16
ENDMDL
MODEL 6
REMARK VINA RESULT:    -3.638      3.233      6.356
REMARK INTER + INTRA:          -9.561
REMARK INTER:                  -7.369
REMARK INTRA:                  -2.193
REMARK UNBOUND:                -2.521
REMARK SMILES CCCCCCCCCCCCCCCCCC(=O)[O-]
REMARK SMILES IDX 10 1 11 2 12 3 13 4 14 5 15 6 16 7 17 8 18 9 19 10 20 11
REMARK SMILES IDX 9 12 8 13 7 14 6 15 5 16 4 17 3 18 2 19 1 20
REMARK H PARENT
REMARK Flexibility Score: inf
ROOT
ATOM      1  C   UNL     1      -4.346  25.514 -13.180  1.00  0.00     0.000 C 
ENDROOT
BRANCH   1   2
ATOM      2  C   UNL     1      -5.524  26.498 -13.170  1.00  0.00     0.000 C 
BRANCH   2   3
ATOM      3  C   UNL     1      -6.127  26.622 -11.766  1.00  0.00     0.000 C 
BRANCH   3   4
ATOM      4  C   UNL     1      -7.417  25.801 -11.594  1.00  0.00     0.000 C 
BRANCH   4   5
ATOM      5  C   UNL     1      -7.536  25.121 -10.213  1.00  0.00     0.000 C 
BRANCH   5   6
ATOM      6  C   UNL     1      -6.173  24.639  -9.683  1.00  0.00     0.000 C 
BRANCH   6   7
ATOM      7  C   UNL     1      -5.754  25.349  -8.383  1.00  0.00     0.006 C 
BRANCH   7   8
ATOM      8  C   UNL     1      -6.885  26.132  -7.699  1.00  0.00     0.053 C 
BRANCH   8   9
ATOM      9  C   UNL     1      -6.578  27.595  -7.605  1.00  0.00     0.041 C 
ATOM     10  O   UNL     1      -6.196  28.093  -6.513  1.00  0.00    -0.550 OA
ATOM     11  O   UNL     1      -6.679  28.402  -8.731  1.00  0.00    -0.550 OA
ENDBRANCH   8   9
ENDBRANCH   7   8
ENDBRANCH   6   7
ENDBRANCH   5   6
ENDBRANCH   4   5
ENDBRANCH   3   4
ENDBRANCH   2   3
ENDBRANCH   1   2
BRANCH   1  12
ATOM     12  C   UNL     1      -4.790  24.051 -13.362  1.00  0.00     0.000 C 
BRANCH  12  13
ATOM     13  C   UNL     1      -4.254  23.066 -12.304  1.00  0.00    -0.000 C 
BRANCH  13  14
ATOM     14  C   UNL     1      -5.032  21.743 -12.188  1.00  0.00    -0.000 C 
BRANCH  14  15
ATOM     15  C   UNL     1      -6.550  21.950 -12.086  1.00  0.00    -0.000 C 
BRANCH  15  16
ATOM     16  C   UNL     1      -7.152  21.075 -10.977  1.00  0.00    -0.000 C 
BRANCH  16  17
ATOM     17  C   UNL     1      -6.218  20.958  -9.754  1.00  0.00    -0.000 C 
BRANCH  17  18
ATOM     18  C   UNL     1      -5.958  19.508  -9.311  1.00  0.00    -0.000 C 
BRANCH  18  19
ATOM     19  C   UNL     1      -7.237  18.776  -8.880  1.00  0.00    -0.003 C 
ATOM     20  C   UNL     1      -7.297  18.621  -7.363  1.00  0.00     0.004 C 
ENDBRANCH  18  19
ENDBRANCH  17  18
ENDBRANCH  16  17
ENDBRANCH  15  16
ENDBRANCH  14  15
ENDBRANCH  13  14
ENDBRANCH  12  13
ENDBRANCH   1  12
TORSDOF 16
ENDMDL
MODEL 7
REMARK VINA RESULT:    -3.616      1.577      2.325
REMARK INTER + INTRA:          -9.520
REMARK INTER:                  -6.919
REMARK INTRA:                  -2.601
REMARK UNBOUND:                -2.521
REMARK SMILES CCCCCCCCCCCCCCCCCC(=O)[O-]
REMARK SMILES IDX 10 1 11 2 12 3 13 4 14 5 15 6 16 7 17 8 18 9 19 10 20 11
REMARK SMILES IDX 9 12 8 13 7 14 6 15 5 16 4 17 3 18 2 19 1 20
REMARK H PARENT
REMARK Flexibility Score: inf
ROOT
ATOM      1  C   UNL     1      -4.236  25.583 -13.016  1.00  0.00     0.000 C 
ENDROOT
BRANCH   1   2
ATOM      2  C   UNL     1      -4.540  24.107 -12.722  1.00  0.00     0.000 C 
BRANCH   2   3
ATOM      3  C   UNL     1      -4.724  23.313 -14.021  1.00  0.00     0.000 C 
BRANCH   3   4
ATOM      4  C   UNL     1      -5.193  21.868 -13.779  1.00  0.00     0.000 C 
BRANCH   4   5
ATOM      5  C   UNL     1      -5.598  21.588 -12.316  1.00  0.00     0.000 C 
BRANCH   5   6
ATOM      6  C   UNL     1      -6.992  20.943 -12.213  1.00  0.00     0.000 C 
BRANCH   6   7
ATOM      7  C   UNL     1      -7.584  21.023 -10.795  1.00  0.00     0.006 C 
BRANCH   7   8
ATOM      8  C   UNL     1      -6.538  20.969  -9.670  1.00  0.00     0.053 C 
BRANCH   8   9
ATOM      9  C   UNL     1      -6.649  19.715  -8.859  1.00  0.00     0.041 C 
ATOM     10  O   UNL     1      -7.568  19.593  -8.007  1.00  0.00    -0.550 OA
ATOM     11  O   UNL     1      -5.760  18.669  -9.069  1.00  0.00    -0.550 OA
ENDBRANCH   8   9
ENDBRANCH   7   8
ENDBRANCH   6   7
ENDBRANCH   5   6
ENDBRANCH   4   5
ENDBRANCH   3   4
ENDBRANCH   2   3
ENDBRANCH   1   2
BRANCH   1  12
ATOM     12  C   UNL     1      -5.420  26.513 -12.689  1.00  0.00     0.000 C 
BRANCH  12  13
ATOM     13  C   UNL     1      -6.554  26.523 -13.734  1.00  0.00    -0.000 C 
BRANCH  13  14
ATOM     14  C   UNL     1      -7.956  26.216 -13.179  1.00  0.00    -0.000 C 
BRANCH  14  15
ATOM     15  C   UNL     1      -8.144  24.736 -12.817  1.00  0.00    -0.000 C 
BRANCH  15  16
ATOM     16  C   UNL     1      -8.429  24.566 -11.317  1.00  0.00    -0.000 C 
BRANCH  16  17
ATOM     17  C   UNL     1      -8.450  25.916 -10.571  1.00  0.00    -0.000 C 
BRANCH  17  18
ATOM     18  C   UNL     1      -7.895  25.840  -9.138  1.00  0.00    -0.000 C 
BRANCH  18  19
ATOM     19  C   UNL     1      -6.393  26.146  -9.061  1.00  0.00    -0.003 C 
ATOM     20  C   UNL     1      -5.563  24.887  -9.290  1.00  0.00     0.004 C 
ENDBRANCH  18  19
ENDBRANCH  17  18
ENDBRANCH  16  17
ENDBRANCH  15  16
ENDBRANCH  14  15
ENDBRANCH  13  14
ENDBRANCH  12  13
ENDBRANCH   1  12
TORSDOF 16
ENDMDL
MODEL 8
REMARK VINA RESULT:    -3.607      2.531      5.930
REMARK INTER + INTRA:          -9.501
REMARK INTER:                  -7.341
REMARK INTRA:                  -2.161
REMARK UNBOUND:                -2.521
REMARK SMILES CCCCCCCCCCCCCCCCCC(=O)[O-]
REMARK SMILES IDX 10 1 11 2 12 3 13 4 14 5 15 6 16 7 17 8 18 9 19 10 20 11
REMARK SMILES IDX 9 12 8 13 7 14 6 15 5 16 4 17 3 18 2 19 1 20
REMARK H PARENT
REMARK Flexibility Score: inf
ROOT
ATOM      1  C   UNL     1      -4.135  24.609 -11.780  1.00  0.00     0.000 C 
ENDROOT
BRANCH   1   2
ATOM      2  C   UNL     1      -4.083  25.502 -13.029  1.00  0.00     0.000 C 
BRANCH   2   3
ATOM      3  C   UNL     1      -5.237  26.513 -13.032  1.00  0.00     0.000 C 
BRANCH   3   4
ATOM      4  C   UNL     1      -6.035  26.514 -11.717  1.00  0.00     0.000 C 
BRANCH   4   5
ATOM      5  C   UNL     1      -7.494  26.036 -11.879  1.00  0.00     0.000 C 
BRANCH   5   6
ATOM      6  C   UNL     1      -7.930  25.104 -10.735  1.00  0.00     0.000 C 
BRANCH   6   7
ATOM      7  C   UNL     1      -8.084  23.640 -11.184  1.00  0.00     0.006 C 
BRANCH   7   8
ATOM      8  C   UNL     1      -8.866  23.460 -12.494  1.00  0.00     0.053 C 
BRANCH   8   9
ATOM      9  C   UNL     1      -9.648  22.182 -12.511  1.00  0.00     0.041 C 
ATOM     10  O   UNL     1     -10.007  21.646 -11.430  1.00  0.00    -0.550 OA
ATOM     11  O   UNL     1     -10.009  21.603 -13.721  1.00  0.00    -0.550 OA
ENDBRANCH   8   9
ENDBRANCH   7   8
ENDBRANCH   6   7
ENDBRANCH   5   6
ENDBRANCH   4   5
ENDBRANCH   3   4
ENDBRANCH   2   3
ENDBRANCH   1   2
BRANCH   1  12
ATOM     12  C   UNL     1      -4.314  23.118 -12.119  1.00  0.00     0.000 C 
BRANCH  12  13
ATOM     13  C   UNL     1      -5.357  22.815 -13.214  1.00  0.00    -0.000 C 
BRANCH  13  14
ATOM     14  C   UNL     1      -5.310  21.386 -13.784  1.00  0.00    -0.000 C 
BRANCH  14  15
ATOM     15  C   UNL     1      -6.371  20.463 -13.169  1.00  0.00    -0.000 C 
BRANCH  15  16
ATOM     16  C   UNL     1      -5.860  19.823 -11.870  1.00  0.00    -0.000 C 
BRANCH  16  17
ATOM     17  C   UNL     1      -6.648  20.301 -10.633  1.00  0.00    -0.000 C 
BRANCH  17  18
ATOM     18  C   UNL     1      -6.121  19.730  -9.305  1.00  0.00    -0.000 C 
BRANCH  18  19
ATOM     19  C   UNL     1      -6.926  18.518  -8.815  1.00  0.00    -0.003 C 
ATOM     20  C   UNL     1      -7.308  18.671  -7.345  1.00  0.00     0.004 C 
ENDBRANCH  18  19
ENDBRANCH  17  18
ENDBRANCH  16  17
ENDBRANCH  15  16
ENDBRANCH  14  15
ENDBRANCH  13  14
ENDBRANCH  12  13
ENDBRANCH   1  12
TORSDOF 16
ENDMDL
MODEL 9
REMARK VINA RESULT:    -3.592      4.734      8.139
REMARK INTER + INTRA:          -9.473
REMARK INTER:                  -6.846
REMARK INTRA:                  -2.627
REMARK UNBOUND:                -2.521
REMARK SMILES CCCCCCCCCCCCCCCCCC(=O)[O-]
REMARK SMILES IDX 10 1 11 2 12 3 13 4 14 5 15 6 16 7 17 8 18 9 19 10 20 11
REMARK SMILES IDX 9 12 8 13 7 14 6 15 5 16 4 17 3 18 2 19 1 20
REMARK H PARENT
REMARK Flexibility Score: inf
ROOT
ATOM      1  C   UNL     1     -12.562  31.957  -7.847  1.00  0.00     0.000 C 
ENDROOT
BRANCH   1   2
ATOM      2  C   UNL     1     -12.531  31.260  -6.479  1.00  0.00     0.000 C 
BRANCH   2   3
ATOM      3  C   UNL     1     -13.171  29.868  -6.557  1.00  0.00     0.000 C 
BRANCH   3   4
ATOM      4  C   UNL     1     -12.187  28.737  -6.209  1.00  0.00     0.000 C 
BRANCH   4   5
ATOM      5  C   UNL     1     -12.333  27.493  -7.111  1.00  0.00     0.000 C 
BRANCH   5   6
ATOM      6  C   UNL     1     -11.204  27.394  -8.152  1.00  0.00     0.000 C 
BRANCH   6   7
ATOM      7  C   UNL     1     -11.721  27.452  -9.601  1.00  0.00     0.006 C 
BRANCH   7   8
ATOM      8  C   UNL     1     -13.186  27.898  -9.731  1.00  0.00     0.053 C 
BRANCH   8   9
ATOM      9  C   UNL     1     -13.946  27.053 -10.706  1.00  0.00     0.041 C 
ATOM     10  O   UNL     1     -15.104  27.390 -11.068  1.00  0.00    -0.550 OA
ATOM     11  O   UNL     1     -13.363  25.911 -11.240  1.00  0.00    -0.550 OA
ENDBRANCH   8   9
ENDBRANCH   7   8
ENDBRANCH   6   7
ENDBRANCH   5   6
ENDBRANCH   4   5
ENDBRANCH   3   4
ENDBRANCH   2   3
ENDBRANCH   1   2
BRANCH   1  12
ATOM     12  C   UNL     1     -11.795  31.179  -8.932  1.00  0.00     0.000 C 
BRANCH  12  13
ATOM     13  C   UNL     1     -10.297  30.955  -8.644  1.00  0.00    -0.000 C 
BRANCH  13  14
ATOM     14  C   UNL     1      -9.493  30.342  -9.805  1.00  0.00    -0.000 C 
BRANCH  14  15
ATOM     15  C   UNL     1      -8.015  30.119  -9.454  1.00  0.00    -0.000 C 
BRANCH  15  16
ATOM     16  C   UNL     1      -7.871  29.203  -8.230  1.00  0.00    -0.000 C 
BRANCH  16  17
ATOM     17  C   UNL     1      -7.437  27.774  -8.617  1.00  0.00    -0.000 C 
BRANCH  17  18
ATOM     18  C   UNL     1      -6.671  27.700  -9.949  1.00  0.00    -0.000 C 
BRANCH  18  19
ATOM     19  C   UNL     1      -7.195  26.597 -10.879  1.00  0.00    -0.003 C 
ATOM     20  C   UNL     1      -8.335  27.111 -11.754  1.00  0.00     0.004 C 
ENDBRANCH  18  19
ENDBRANCH  17  18
ENDBRANCH  16  17
ENDBRANCH  15  16
ENDBRANCH  14  15
ENDBRANCH  13  14
ENDBRANCH  12  13
ENDBRANCH   1  12
TORSDOF 16
ENDMDL
