MODEL 1
REMARK VINA RESULT:    16.245      0.000      0.000
REMARK INTER + INTRA:          24.522
REMARK INTER:                  22.893
REMARK INTRA:                   1.630
REMARK UNBOUND:                 1.630
REMARK SMILES C[C@H](CO)CCC(=O)[C@@H](C)[C@@H]1C(=O)C[C@H]2[C@@H]3CC=C4C[C@@H](O)CC[C@@]4(C)[C@H]3CC[C@]21C
REMARK SMILES IDX 6 1 5 2 2 3 1 4 3 5 4 6 7 8 8 9 9 10 10 11 11 12 12 13 30 14
REMARK SMILES IDX 13 15 14 16 15 17 29 18 31 19 16 20 28 21 27 22 17 23 25 24
REMARK SMILES IDX 18 25 19 26 24 27 26 28 20 29 23 30 21 31 22 32
REMARK H PARENT 4 7 22 33
REMARK Flexibility Score: inf
ROOT
ATOM      1  C   UNL     1      28.204  31.878  25.097  1.00  0.00     0.076 C 
ENDROOT
BRANCH   1   2
ATOM      2  C   UNL     1      28.749  33.123  24.384  1.00  0.00     0.013 C 
BRANCH   2   3
ATOM      3  C   UNL     1      27.673  33.850  23.544  1.00  0.00     0.012 C 
ATOM      4  C   UNL     1      28.270  34.435  22.252  1.00  0.00     0.010 C 
BRANCH   3   5
ATOM      5  C   UNL     1      27.013  34.966  24.383  1.00  0.00     0.159 C 
BRANCH   5   6
ATOM      6  O   UNL     1      26.171  35.758  23.587  1.00  0.00    -0.396 OA
ATOM      7  H   UNL     1      26.375  35.533  22.642  1.00  0.00     0.210 HD
ENDBRANCH   5   6
ENDBRANCH   3   5
ENDBRANCH   2   3
ENDBRANCH   1   2
BRANCH   1   8
ATOM      8  C   UNL     1      28.767  30.625  24.477  1.00  0.00     0.136 C 
ATOM      9  O   UNL     1      29.105  30.647  23.303  1.00  0.00    -0.299 OA
BRANCH   8  10
ATOM     10  C   UNL     1      28.923  29.351  25.292  1.00  0.00     0.064 C 
ATOM     11  C   UNL     1      29.125  29.708  26.780  1.00  0.00     0.017 C 
BRANCH  10  12
ATOM     12  C   UNL     1      27.731  28.366  25.021  1.00  0.00     0.072 C 
ATOM     13  C   UNL     1      26.476  29.104  24.700  1.00  0.00     0.137 C 
ATOM     14  C   UNL     1      27.296  27.387  26.182  1.00  0.00    -0.019 C 
ATOM     15  O   UNL     1      26.337  29.770  23.684  1.00  0.00    -0.299 OA
ATOM     16  C   UNL     1      25.394  28.943  25.690  1.00  0.00     0.080 C 
ATOM     17  C   UNL     1      25.927  27.925  26.719  1.00  0.00     0.007 C 
ATOM     18  C   UNL     1      27.087  25.973  25.581  1.00  0.00     0.008 C 
ATOM     19  C   UNL     1      28.338  27.285  27.334  1.00  0.00     0.012 C 
ATOM     20  C   UNL     1      24.835  26.836  27.027  1.00  0.00     0.001 C 
ATOM     21  C   UNL     1      26.570  24.952  26.605  1.00  0.00     0.005 C 
ATOM     22  C   UNL     1      25.404  25.476  27.502  1.00  0.00     0.003 C 
ATOM     23  C   UNL     1      23.884  27.382  28.104  1.00  0.00     0.031 C 
ATOM     24  C   UNL     1      24.257  24.409  27.764  1.00  0.00    -0.008 C 
ATOM     25  C   UNL     1      22.848  26.382  28.510  1.00  0.00    -0.027 C 
ATOM     26  C   UNL     1      23.035  25.047  28.451  1.00  0.00    -0.065 C 
ATOM     27  C   UNL     1      23.719  23.748  26.442  1.00  0.00     0.014 C 
ATOM     28  C   UNL     1      24.848  23.315  28.691  1.00  0.00     0.016 C 
ATOM     29  C   UNL     1      21.840  24.157  28.718  1.00  0.00     0.063 C 
ATOM     30  C   UNL     1      22.456  22.877  26.632  1.00  0.00     0.033 C 
ATOM     31  C   UNL     1      21.327  23.605  27.385  1.00  0.00     0.118 C 
BRANCH  31  32
ATOM     32  O   UNL     1      20.818  24.657  26.603  1.00  0.00    -0.393 OA
ATOM     33  H   UNL     1      19.909  24.384  26.312  1.00  0.00     0.210 HD
ENDBRANCH  31  32
ENDBRANCH  10  12
ENDBRANCH   8  10
ENDBRANCH   1   8
TORSDOF 8
ENDMDL
