MODEL 1
REMARK VINA RESULT:     6.338      0.000      0.000
REMARK INTER + INTRA:           8.098
REMARK INTER:                   7.450
REMARK INTRA:                   0.648
REMARK UNBOUND:                 0.648
REMARK SMILES C=C[C@@]1(C)CC[C@H](C(=C)C)C[C@H]1C(=C)C
REMARK SMILES IDX 7 1 6 2 5 3 3 4 12 5 11 6 4 7 8 8 10 9 9 10 13 11 14 12
REMARK SMILES IDX 15 13 2 14 1 15
REMARK H PARENT
REMARK Flexibility Score: inf
ROOT
ATOM      1  C   UNL     1     137.178 137.053 162.604  1.00  0.00     0.015 C 
ATOM      2  C   UNL     1     137.437 138.032 161.442  1.00  0.00     0.009 C 
ATOM      3  C   UNL     1     137.350 139.495 161.900  1.00  0.00     0.012 C 
ATOM      4  C   UNL     1     135.991 139.846 162.577  1.00  0.00    -0.008 C 
ATOM      5  C   UNL     1     135.645 138.837 163.736  1.00  0.00     0.024 C 
ATOM      6  C   UNL     1     135.849 137.349 163.335  1.00  0.00     0.017 C 
ATOM      7  C   UNL     1     134.875 139.768 161.497  1.00  0.00     0.016 C 
ENDROOT
BRANCH   1   8
ATOM      8  C   UNL     1     137.227 135.608 162.122  1.00  0.00    -0.077 C 
ATOM      9  C   UNL     1     136.002 134.967 161.520  1.00  0.00     0.039 C 
ATOM     10  C   UNL     1     138.351 134.875 162.218  1.00  0.00     0.008 C 
ENDBRANCH   1   8
BRANCH   5  11
ATOM     11  C   UNL     1     136.239 139.157 165.117  1.00  0.00    -0.077 C 
ATOM     12  C   UNL     1     136.275 140.396 165.633  1.00  0.00     0.008 C 
ATOM     13  C   UNL     1     136.831 138.045 165.952  1.00  0.00     0.039 C 
ENDBRANCH   5  11
BRANCH   4  14
ATOM     14  C   UNL     1     135.981 141.295 163.080  1.00  0.00    -0.028 C 
ATOM     15  C   UNL     1     134.878 142.027 163.298  1.00  0.00     0.004 C 
ENDBRANCH   4  14
TORSDOF 3
ENDMDL
MODEL 2
REMARK VINA RESULT:     9.259      1.027      3.023
REMARK INTER + INTRA:          11.531
REMARK INTER:                  10.221
REMARK INTRA:                   1.310
REMARK UNBOUND:                 0.648
REMARK SMILES C=C[C@@]1(C)CC[C@H](C(=C)C)C[C@H]1C(=C)C
REMARK SMILES IDX 7 1 6 2 5 3 3 4 12 5 11 6 4 7 8 8 10 9 9 10 13 11 14 12
REMARK SMILES IDX 15 13 2 14 1 15
REMARK H PARENT
REMARK Flexibility Score: inf
ROOT
ATOM      1  C   UNL     1     135.960 137.385 162.216  1.00  0.00     0.015 C 
ATOM      2  C   UNL     1     135.318 137.313 163.615  1.00  0.00     0.009 C 
ATOM      3  C   UNL     1     134.875 138.699 164.109  1.00  0.00     0.012 C 
ATOM      4  C   UNL     1     136.032 139.743 164.124  1.00  0.00    -0.008 C 
ATOM      5  C   UNL     1     136.766 139.813 162.732  1.00  0.00     0.024 C 
ATOM      6  C   UNL     1     137.111 138.414 162.150  1.00  0.00     0.017 C 
ATOM      7  C   UNL     1     137.059 139.315 165.210  1.00  0.00     0.016 C 
ENDROOT
BRANCH   1   8
ATOM      8  C   UNL     1     136.431 136.008 161.760  1.00  0.00    -0.077 C 
ATOM      9  C   UNL     1     137.847 135.564 162.027  1.00  0.00     0.039 C 
ATOM     10  C   UNL     1     135.606 135.163 161.118  1.00  0.00     0.008 C 
ENDBRANCH   1   8
BRANCH   5  11
ATOM     11  C   UNL     1     136.145 140.747 161.681  1.00  0.00    -0.077 C 
ATOM     12  C   UNL     1     136.668 141.940 161.356  1.00  0.00     0.008 C 
ATOM     13  C   UNL     1     134.875 140.335 160.973  1.00  0.00     0.039 C 
ENDBRANCH   5  11
BRANCH   4  14
ATOM     14  C   UNL     1     135.524 141.125 164.555  1.00  0.00    -0.028 C 
ATOM     15  C   UNL     1     134.917 142.008 163.749  1.00  0.00     0.004 C 
ENDBRANCH   4  14
TORSDOF 3
ENDMDL
