MODEL 1
REMARK VINA RESULT:    -4.203      0.000      0.000
REMARK INTER + INTRA:         -15.474
REMARK INTER:                 -11.082
REMARK INTRA:                  -4.392
REMARK UNBOUND:                -4.392
REMARK SMILES CCCCCCCCCCCCCCCCCCCCCCCCCCCCCC(=O)[O-]
REMARK SMILES IDX 16 1 17 2 18 3 19 4 20 5 21 6 22 7 23 8 24 9 25 10 26 11
REMARK SMILES IDX 27 12 28 13 29 14 30 15 31 16 32 17 15 18 14 19 13 20 12 21
REMARK SMILES IDX 11 22 10 23 9 24 8 25 7 26 6 27 5 28 4 29 3 30 2 31 1 32
REMARK H PARENT
REMARK Flexibility Score: inf
ROOT
ATOM      1  C   UNL     1      12.182  22.645 -22.691  1.00  0.00     0.000 C 
ENDROOT
BRANCH   1   2
ATOM      2  C   UNL     1      12.798  23.333 -23.921  1.00  0.00     0.000 C 
BRANCH   2   3
ATOM      3  C   UNL     1      12.226  22.828 -25.264  1.00  0.00     0.000 C 
BRANCH   3   4
ATOM      4  C   UNL     1      13.326  22.283 -26.193  1.00  0.00     0.000 C 
BRANCH   4   5
ATOM      5  C   UNL     1      12.766  21.395 -27.315  1.00  0.00     0.000 C 
BRANCH   5   6
ATOM      6  C   UNL     1      11.945  20.212 -26.774  1.00  0.00     0.000 C 
BRANCH   6   7
ATOM      7  C   UNL     1      12.700  18.878 -26.857  1.00  0.00     0.000 C 
BRANCH   7   8
ATOM      8  C   UNL     1      12.900  18.217 -25.481  1.00  0.00     0.000 C 
BRANCH   8   9
ATOM      9  C   UNL     1      12.404  19.115 -24.327  1.00  0.00     0.000 C 
BRANCH   9  10
ATOM     10  C   UNL     1      13.480  19.390 -23.263  1.00  0.00     0.000 C 
BRANCH  10  11
ATOM     11  C   UNL     1      12.977  19.144 -21.831  1.00  0.00     0.000 C 
BRANCH  11  12
ATOM     12  C   UNL     1      14.015  18.433 -20.945  1.00  0.00     0.000 C 
BRANCH  12  13
ATOM     13  C   UNL     1      15.315  18.020 -21.667  1.00  0.00     0.006 C 
BRANCH  13  14
ATOM     14  C   UNL     1      15.589  16.508 -21.676  1.00  0.00     0.053 C 
BRANCH  14  15
ATOM     15  C   UNL     1      15.167  15.870 -22.964  1.00  0.00     0.041 C 
ATOM     16  O   UNL     1      13.945  15.695 -23.215  1.00  0.00    -0.550 OA
ATOM     17  O   UNL     1      16.122  15.493 -23.899  1.00  0.00    -0.550 OA
ENDBRANCH  14  15
ENDBRANCH  13  14
ENDBRANCH  12  13
ENDBRANCH  11  12
ENDBRANCH  10  11
ENDBRANCH   9  10
ENDBRANCH   8   9
ENDBRANCH   7   8
ENDBRANCH   6   7
ENDBRANCH   5   6
ENDBRANCH   4   5
ENDBRANCH   3   4
ENDBRANCH   2   3
ENDBRANCH   1   2
BRANCH   1  18
ATOM     18  C   UNL     1      12.817  23.109 -21.370  1.00  0.00     0.000 C 
BRANCH  18  19
ATOM     19  C   UNL     1      11.947  22.798 -20.138  1.00  0.00     0.000 C 
BRANCH  19  20
ATOM     20  C   UNL     1      12.619  21.937 -19.052  1.00  0.00     0.000 C 
BRANCH  20  21
ATOM     21  C   UNL     1      14.143  21.820 -19.229  1.00  0.00     0.000 C 
BRANCH  21  22
ATOM     22  C   UNL     1      14.810  21.051 -18.077  1.00  0.00     0.000 C 
BRANCH  22  23
ATOM     23  C   UNL     1      16.329  20.909 -18.258  1.00  0.00     0.000 C 
BRANCH  23  24
ATOM     24  C   UNL     1      16.695  19.480 -18.686  1.00  0.00    -0.000 C 
BRANCH  24  25
ATOM     25  C   UNL     1      16.382  18.432 -17.601  1.00  0.00    -0.000 C 
BRANCH  25  26
ATOM     26  C   UNL     1      16.798  16.992 -17.950  1.00  0.00    -0.000 C 
BRANCH  26  27
ATOM     27  C   UNL     1      16.347  15.967 -16.899  1.00  0.00    -0.000 C 
BRANCH  27  28
ATOM     28  C   UNL     1      16.995  16.253 -15.536  1.00  0.00    -0.000 C 
BRANCH  28  29
ATOM     29  C   UNL     1      18.362  15.568 -15.380  1.00  0.00    -0.000 C 
BRANCH  29  30
ATOM     30  C   UNL     1      19.462  16.541 -14.918  1.00  0.00    -0.000 C 
BRANCH  30  31
ATOM     31  C   UNL     1      19.190  17.986 -15.361  1.00  0.00    -0.003 C 
ATOM     32  C   UNL     1      20.133  18.451 -16.470  1.00  0.00     0.004 C 
ENDBRANCH  30  31
ENDBRANCH  29  30
ENDBRANCH  28  29
ENDBRANCH  27  28
ENDBRANCH  26  27
ENDBRANCH  25  26
ENDBRANCH  24  25
ENDBRANCH  23  24
ENDBRANCH  22  23
ENDBRANCH  21  22
ENDBRANCH  20  21
ENDBRANCH  19  20
ENDBRANCH  18  19
ENDBRANCH   1  18
TORSDOF 28
ENDMDL
MODEL 2
REMARK VINA RESULT:    -4.134      1.845      3.609
REMARK INTER + INTRA:         -15.292
REMARK INTER:                 -10.315
REMARK INTRA:                  -4.977
REMARK UNBOUND:                -4.392
REMARK SMILES CCCCCCCCCCCCCCCCCCCCCCCCCCCCCC(=O)[O-]
REMARK SMILES IDX 16 1 17 2 18 3 19 4 20 5 21 6 22 7 23 8 24 9 25 10 26 11
REMARK SMILES IDX 27 12 28 13 29 14 30 15 31 16 32 17 15 18 14 19 13 20 12 21
REMARK SMILES IDX 11 22 10 23 9 24 8 25 7 26 6 27 5 28 4 29 3 30 2 31 1 32
REMARK H PARENT
REMARK Flexibility Score: inf
ROOT
ATOM      1  C   UNL     1      14.102  22.625 -20.119  1.00  0.00     0.000 C 
ENDROOT
BRANCH   1   2
ATOM      2  C   UNL     1      13.000  23.344 -20.915  1.00  0.00     0.000 C 
BRANCH   2   3
ATOM      3  C   UNL     1      12.239  22.420 -21.891  1.00  0.00     0.000 C 
BRANCH   3   4
ATOM      4  C   UNL     1      13.092  22.041 -23.114  1.00  0.00     0.000 C 
BRANCH   4   5
ATOM      5  C   UNL     1      12.969  20.554 -23.483  1.00  0.00     0.000 C 
BRANCH   5   6
ATOM      6  C   UNL     1      13.861  19.656 -22.609  1.00  0.00     0.000 C 
BRANCH   6   7
ATOM      7  C   UNL     1      13.056  18.632 -21.796  1.00  0.00     0.000 C 
BRANCH   7   8
ATOM      8  C   UNL     1      13.810  18.133 -20.550  1.00  0.00     0.000 C 
BRANCH   8   9
ATOM      9  C   UNL     1      15.322  18.436 -20.624  1.00  0.00     0.000 C 
BRANCH   9  10
ATOM     10  C   UNL     1      16.194  17.352 -19.970  1.00  0.00     0.000 C 
BRANCH  10  11
ATOM     11  C   UNL     1      15.403  16.457 -19.002  1.00  0.00     0.000 C 
BRANCH  11  12
ATOM     12  C   UNL     1      15.755  14.965 -19.140  1.00  0.00     0.000 C 
BRANCH  12  13
ATOM     13  C   UNL     1      15.868  14.454 -20.592  1.00  0.00     0.006 C 
BRANCH  13  14
ATOM     14  C   UNL     1      14.525  14.311 -21.325  1.00  0.00     0.053 C 
BRANCH  14  15
ATOM     15  C   UNL     1      14.559  14.936 -22.686  1.00  0.00     0.041 C 
ATOM     16  O   UNL     1      15.419  15.815 -22.958  1.00  0.00    -0.550 OA
ATOM     17  O   UNL     1      13.659  14.528 -23.661  1.00  0.00    -0.550 OA
ENDBRANCH  14  15
ENDBRANCH  13  14
ENDBRANCH  12  13
ENDBRANCH  11  12
ENDBRANCH  10  11
ENDBRANCH   9  10
ENDBRANCH   8   9
ENDBRANCH   7   8
ENDBRANCH   6   7
ENDBRANCH   5   6
ENDBRANCH   4   5
ENDBRANCH   3   4
ENDBRANCH   2   3
ENDBRANCH   1   2
BRANCH   1  18
ATOM     18  C   UNL     1      13.543  21.580 -19.140  1.00  0.00     0.000 C 
BRANCH  18  19
ATOM     19  C   UNL     1      14.617  20.986 -18.209  1.00  0.00     0.000 C 
BRANCH  19  20
ATOM     20  C   UNL     1      16.045  21.527 -18.412  1.00  0.00     0.000 C 
BRANCH  20  21
ATOM     21  C   UNL     1      17.105  20.752 -17.611  1.00  0.00     0.000 C 
BRANCH  21  22
ATOM     22  C   UNL     1      16.589  19.391 -17.116  1.00  0.00     0.000 C 
BRANCH  22  23
ATOM     23  C   UNL     1      17.404  18.839 -15.937  1.00  0.00     0.000 C 
BRANCH  23  24
ATOM     24  C   UNL     1      17.071  17.360 -15.690  1.00  0.00    -0.000 C 
BRANCH  24  25
ATOM     25  C   UNL     1      18.242  16.418 -16.026  1.00  0.00    -0.000 C 
BRANCH  25  26
ATOM     26  C   UNL     1      18.758  16.514 -17.473  1.00  0.00    -0.000 C 
BRANCH  26  27
ATOM     27  C   UNL     1      20.255  16.850 -17.554  1.00  0.00    -0.000 C 
BRANCH  27  28
ATOM     28  C   UNL     1      20.850  17.055 -16.153  1.00  0.00    -0.000 C 
BRANCH  28  29
ATOM     29  C   UNL     1      20.955  18.539 -15.769  1.00  0.00    -0.000 C 
BRANCH  29  30
ATOM     30  C   UNL     1      20.788  18.773 -14.257  1.00  0.00    -0.000 C 
BRANCH  30  31
ATOM     31  C   UNL     1      20.317  20.198 -13.933  1.00  0.00    -0.003 C 
ATOM     32  C   UNL     1      19.270  20.235 -12.819  1.00  0.00     0.004 C 
ENDBRANCH  30  31
ENDBRANCH  29  30
ENDBRANCH  28  29
ENDBRANCH  27  28
ENDBRANCH  26  27
ENDBRANCH  25  26
ENDBRANCH  24  25
ENDBRANCH  23  24
ENDBRANCH  22  23
ENDBRANCH  21  22
ENDBRANCH  20  21
ENDBRANCH  19  20
ENDBRANCH  18  19
ENDBRANCH   1  18
TORSDOF 28
ENDMDL
MODEL 3
REMARK VINA RESULT:    -4.090      2.592      8.530
REMARK INTER + INTRA:         -15.175
REMARK INTER:                 -11.100
REMARK INTRA:                  -4.075
REMARK UNBOUND:                -4.392
REMARK SMILES CCCCCCCCCCCCCCCCCCCCCCCCCCCCCC(=O)[O-]
REMARK SMILES IDX 16 1 17 2 18 3 19 4 20 5 21 6 22 7 23 8 24 9 25 10 26 11
REMARK SMILES IDX 27 12 28 13 29 14 30 15 31 16 32 17 15 18 14 19 13 20 12 21
REMARK SMILES IDX 11 22 10 23 9 24 8 25 7 26 6 27 5 28 4 29 3 30 2 31 1 32
REMARK H PARENT
REMARK Flexibility Score: inf
ROOT
ATOM      1  C   UNL     1      13.322  21.877 -18.993  1.00  0.00     0.000 C 
ENDROOT
BRANCH   1   2
ATOM      2  C   UNL     1      14.440  21.134 -18.245  1.00  0.00     0.000 C 
BRANCH   2   3
ATOM      3  C   UNL     1      15.859  21.631 -18.599  1.00  0.00     0.000 C 
BRANCH   3   4
ATOM      4  C   UNL     1      16.954  20.754 -17.967  1.00  0.00     0.000 C 
BRANCH   4   5
ATOM      5  C   UNL     1      16.424  19.388 -17.503  1.00  0.00     0.000 C 
BRANCH   5   6
ATOM      6  C   UNL     1      17.270  18.783 -16.369  1.00  0.00     0.000 C 
BRANCH   6   7
ATOM      7  C   UNL     1      18.585  18.172 -16.871  1.00  0.00     0.000 C 
BRANCH   7   8
ATOM      8  C   UNL     1      19.829  18.876 -16.299  1.00  0.00     0.000 C 
BRANCH   8   9
ATOM      9  C   UNL     1      19.462  19.931 -15.233  1.00  0.00     0.000 C 
BRANCH   9  10
ATOM     10  C   UNL     1      19.956  19.570 -13.823  1.00  0.00     0.000 C 
BRANCH  10  11
ATOM     11  C   UNL     1      18.907  18.803 -13.002  1.00  0.00     0.000 C 
BRANCH  11  12
ATOM     12  C   UNL     1      19.151  17.284 -12.987  1.00  0.00     0.000 C 
BRANCH  12  13
ATOM     13  C   UNL     1      17.888  16.422 -12.781  1.00  0.00     0.006 C 
BRANCH  13  14
ATOM     14  C   UNL     1      16.618  16.982 -13.441  1.00  0.00     0.053 C 
BRANCH  14  15
ATOM     15  C   UNL     1      15.893  15.940 -14.237  1.00  0.00     0.041 C 
ATOM     16  O   UNL     1      16.335  15.578 -15.360  1.00  0.00    -0.550 OA
ATOM     17  O   UNL     1      14.746  15.347 -13.725  1.00  0.00    -0.550 OA
ENDBRANCH  14  15
ENDBRANCH  13  14
ENDBRANCH  12  13
ENDBRANCH  11  12
ENDBRANCH  10  11
ENDBRANCH   9  10
ENDBRANCH   8   9
ENDBRANCH   7   8
ENDBRANCH   6   7
ENDBRANCH   5   6
ENDBRANCH   4   5
ENDBRANCH   3   4
ENDBRANCH   2   3
ENDBRANCH   1   2
BRANCH   1  18
ATOM     18  C   UNL     1      13.841  22.666 -20.206  1.00  0.00     0.000 C 
BRANCH  18  19
ATOM     19  C   UNL     1      12.717  23.335 -21.020  1.00  0.00     0.000 C 
BRANCH  19  20
ATOM     20  C   UNL     1      12.266  22.572 -22.280  1.00  0.00     0.000 C 
BRANCH  20  21
ATOM     21  C   UNL     1      12.592  23.316 -23.587  1.00  0.00     0.000 C 
BRANCH  21  22
ATOM     22  C   UNL     1      13.709  22.631 -24.390  1.00  0.00     0.000 C 
BRANCH  22  23
ATOM     23  C   UNL     1      13.241  22.156 -25.774  1.00  0.00     0.000 C 
BRANCH  23  24
ATOM     24  C   UNL     1      12.119  21.115 -25.643  1.00  0.00    -0.000 C 
BRANCH  24  25
ATOM     25  C   UNL     1      12.505  19.742 -26.224  1.00  0.00    -0.000 C 
BRANCH  25  26
ATOM     26  C   UNL     1      12.904  18.684 -25.180  1.00  0.00    -0.000 C 
BRANCH  26  27
ATOM     27  C   UNL     1      12.501  19.072 -23.749  1.00  0.00    -0.000 C 
BRANCH  27  28
ATOM     28  C   UNL     1      13.740  19.341 -22.882  1.00  0.00    -0.000 C 
BRANCH  28  29
ATOM     29  C   UNL     1      13.535  18.921 -21.418  1.00  0.00    -0.000 C 
BRANCH  29  30
ATOM     30  C   UNL     1      14.863  18.646 -20.690  1.00  0.00    -0.000 C 
BRANCH  30  31
ATOM     31  C   UNL     1      15.526  17.340 -21.152  1.00  0.00    -0.003 C 
ATOM     32  C   UNL     1      16.445  16.737 -20.089  1.00  0.00     0.004 C 
ENDBRANCH  30  31
ENDBRANCH  29  30
ENDBRANCH  28  29
ENDBRANCH  27  28
ENDBRANCH  26  27
ENDBRANCH  25  26
ENDBRANCH  24  25
ENDBRANCH  23  24
ENDBRANCH  22  23
ENDBRANCH  21  22
ENDBRANCH  20  21
ENDBRANCH  19  20
ENDBRANCH  18  19
ENDBRANCH   1  18
TORSDOF 28
ENDMDL
MODEL 4
REMARK VINA RESULT:    -4.066      1.429      2.197
REMARK INTER + INTRA:         -15.113
REMARK INTER:                 -11.290
REMARK INTRA:                  -3.823
REMARK UNBOUND:                -4.392
REMARK SMILES CCCCCCCCCCCCCCCCCCCCCCCCCCCCCC(=O)[O-]
REMARK SMILES IDX 16 1 17 2 18 3 19 4 20 5 21 6 22 7 23 8 24 9 25 10 26 11
REMARK SMILES IDX 27 12 28 13 29 14 30 15 31 16 32 17 15 18 14 19 13 20 12 21
REMARK SMILES IDX 11 22 10 23 9 24 8 25 7 26 6 27 5 28 4 29 3 30 2 31 1 32
REMARK H PARENT
REMARK Flexibility Score: inf
ROOT
ATOM      1  C   UNL     1      13.305  21.979 -24.418  1.00  0.00     0.000 C 
ENDROOT
BRANCH   1   2
ATOM      2  C   UNL     1      13.761  22.643 -25.727  1.00  0.00     0.000 C 
BRANCH   2   3
ATOM      3  C   UNL     1      12.975  22.168 -26.969  1.00  0.00     0.000 C 
BRANCH   3   4
ATOM      4  C   UNL     1      12.022  21.004 -26.640  1.00  0.00     0.000 C 
BRANCH   4   5
ATOM      5  C   UNL     1      12.094  19.871 -27.675  1.00  0.00     0.000 C 
BRANCH   5   6
ATOM      6  C   UNL     1      12.153  18.480 -27.021  1.00  0.00     0.000 C 
BRANCH   6   7
ATOM      7  C   UNL     1      13.004  18.461 -25.743  1.00  0.00     0.000 C 
BRANCH   7   8
ATOM      8  C   UNL     1      12.257  17.863 -24.537  1.00  0.00     0.000 C 
BRANCH   8   9
ATOM      9  C   UNL     1      12.330  18.777 -23.295  1.00  0.00     0.000 C 
BRANCH   9  10
ATOM     10  C   UNL     1      12.194  18.012 -21.967  1.00  0.00     0.000 C 
BRANCH  10  11
ATOM     11  C   UNL     1      13.374  18.263 -21.013  1.00  0.00     0.000 C 
BRANCH  11  12
ATOM     12  C   UNL     1      14.688  18.569 -21.752  1.00  0.00     0.000 C 
BRANCH  12  13
ATOM     13  C   UNL     1      15.745  17.447 -21.694  1.00  0.00     0.006 C 
BRANCH  13  14
ATOM     14  C   UNL     1      15.531  16.313 -22.709  1.00  0.00     0.053 C 
BRANCH  14  15
ATOM     15  C   UNL     1      15.193  15.016 -22.040  1.00  0.00     0.041 C 
ATOM     16  O   UNL     1      14.448  14.180 -22.616  1.00  0.00    -0.550 OA
ATOM     17  O   UNL     1      15.724  14.720 -20.791  1.00  0.00    -0.550 OA
ENDBRANCH  14  15
ENDBRANCH  13  14
ENDBRANCH  12  13
ENDBRANCH  11  12
ENDBRANCH  10  11
ENDBRANCH   9  10
ENDBRANCH   8   9
ENDBRANCH   7   8
ENDBRANCH   6   7
ENDBRANCH   5   6
ENDBRANCH   4   5
ENDBRANCH   3   4
ENDBRANCH   2   3
ENDBRANCH   1   2
BRANCH   1  18
ATOM     18  C   UNL     1      12.475  22.922 -23.531  1.00  0.00     0.000 C 
BRANCH  18  19
ATOM     19  C   UNL     1      11.879  22.223 -22.295  1.00  0.00     0.000 C 
BRANCH  19  20
ATOM     20  C   UNL     1      12.840  22.045 -21.105  1.00  0.00     0.000 C 
BRANCH  20  21
ATOM     21  C   UNL     1      12.140  21.538 -19.832  1.00  0.00     0.000 C 
BRANCH  21  22
ATOM     22  C   UNL     1      13.072  21.539 -18.609  1.00  0.00     0.000 C 
BRANCH  22  23
ATOM     23  C   UNL     1      14.551  21.711 -18.988  1.00  0.00     0.000 C 
BRANCH  23  24
ATOM     24  C   UNL     1      15.462  21.056 -17.939  1.00  0.00    -0.000 C 
BRANCH  24  25
ATOM     25  C   UNL     1      16.412  20.005 -18.543  1.00  0.00    -0.000 C 
BRANCH  25  26
ATOM     26  C   UNL     1      16.284  18.594 -17.943  1.00  0.00    -0.000 C 
BRANCH  26  27
ATOM     27  C   UNL     1      17.529  18.164 -17.152  1.00  0.00    -0.000 C 
BRANCH  27  28
ATOM     28  C   UNL     1      18.309  19.387 -16.645  1.00  0.00    -0.000 C 
BRANCH  28  29
ATOM     29  C   UNL     1      19.728  19.027 -16.179  1.00  0.00    -0.000 C 
BRANCH  29  30
ATOM     30  C   UNL     1      19.885  19.098 -14.650  1.00  0.00    -0.000 C 
BRANCH  30  31
ATOM     31  C   UNL     1      20.014  20.540 -14.140  1.00  0.00    -0.003 C 
ATOM     32  C   UNL     1      21.246  20.746 -13.257  1.00  0.00     0.004 C 
ENDBRANCH  30  31
ENDBRANCH  29  30
ENDBRANCH  28  29
ENDBRANCH  27  28
ENDBRANCH  26  27
ENDBRANCH  25  26
ENDBRANCH  24  25
ENDBRANCH  23  24
ENDBRANCH  22  23
ENDBRANCH  21  22
ENDBRANCH  20  21
ENDBRANCH  19  20
ENDBRANCH  18  19
ENDBRANCH   1  18
TORSDOF 28
ENDMDL
MODEL 5
REMARK VINA RESULT:    -3.974      1.372      2.325
REMARK INTER + INTRA:         -14.871
REMARK INTER:                 -10.485
REMARK INTRA:                  -4.387
REMARK UNBOUND:                -4.392
REMARK SMILES CCCCCCCCCCCCCCCCCCCCCCCCCCCCCC(=O)[O-]
REMARK SMILES IDX 16 1 17 2 18 3 19 4 20 5 21 6 22 7 23 8 24 9 25 10 26 11
REMARK SMILES IDX 27 12 28 13 29 14 30 15 31 16 32 17 15 18 14 19 13 20 12 21
REMARK SMILES IDX 11 22 10 23 9 24 8 25 7 26 6 27 5 28 4 29 3 30 2 31 1 32
REMARK H PARENT
REMARK Flexibility Score: inf
ROOT
ATOM      1  C   UNL     1      13.325  21.981 -24.402  1.00  0.00     0.000 C 
ENDROOT
BRANCH   1   2
ATOM      2  C   UNL     1      13.768  22.621 -25.728  1.00  0.00     0.000 C 
BRANCH   2   3
ATOM      3  C   UNL     1      12.983  22.108 -26.956  1.00  0.00     0.000 C 
BRANCH   3   4
ATOM      4  C   UNL     1      12.092  20.901 -26.610  1.00  0.00     0.000 C 
BRANCH   4   5
ATOM      5  C   UNL     1      12.219  19.761 -27.632  1.00  0.00     0.000 C 
BRANCH   5   6
ATOM      6  C   UNL     1      12.199  18.372 -26.970  1.00  0.00     0.000 C 
BRANCH   6   7
ATOM      7  C   UNL     1      13.010  18.325 -25.667  1.00  0.00     0.000 C 
BRANCH   7   8
ATOM      8  C   UNL     1      12.193  17.795 -24.474  1.00  0.00     0.000 C 
BRANCH   8   9
ATOM      9  C   UNL     1      12.261  18.741 -23.256  1.00  0.00     0.000 C 
BRANCH   9  10
ATOM     10  C   UNL     1      12.187  18.005 -21.908  1.00  0.00     0.000 C 
BRANCH  10  11
ATOM     11  C   UNL     1      13.368  18.338 -20.982  1.00  0.00     0.000 C 
BRANCH  11  12
ATOM     12  C   UNL     1      14.622  18.791 -21.750  1.00  0.00     0.000 C 
BRANCH  12  13
ATOM     13  C   UNL     1      15.802  17.797 -21.718  1.00  0.00     0.006 C 
BRANCH  13  14
ATOM     14  C   UNL     1      15.504  16.431 -22.356  1.00  0.00     0.053 C 
BRANCH  14  15
ATOM     15  C   UNL     1      15.596  15.314 -21.362  1.00  0.00     0.041 C 
ATOM     16  O   UNL     1      15.713  15.567 -20.134  1.00  0.00    -0.550 OA
ATOM     17  O   UNL     1      15.526  13.995 -21.790  1.00  0.00    -0.550 OA
ENDBRANCH  14  15
ENDBRANCH  13  14
ENDBRANCH  12  13
ENDBRANCH  11  12
ENDBRANCH  10  11
ENDBRANCH   9  10
ENDBRANCH   8   9
ENDBRANCH   7   8
ENDBRANCH   6   7
ENDBRANCH   5   6
ENDBRANCH   4   5
ENDBRANCH   3   4
ENDBRANCH   2   3
ENDBRANCH   1   2
BRANCH   1  18
ATOM     18  C   UNL     1      12.508  22.941 -23.522  1.00  0.00     0.000 C 
BRANCH  18  19
ATOM     19  C   UNL     1      11.898  22.256 -22.284  1.00  0.00     0.000 C 
BRANCH  19  20
ATOM     20  C   UNL     1      12.852  22.079 -21.087  1.00  0.00     0.000 C 
BRANCH  20  21
ATOM     21  C   UNL     1      12.138  21.601 -19.811  1.00  0.00     0.000 C 
BRANCH  21  22
ATOM     22  C   UNL     1      13.066  21.595 -18.586  1.00  0.00     0.000 C 
BRANCH  22  23
ATOM     23  C   UNL     1      14.553  21.656 -18.966  1.00  0.00     0.000 C 
BRANCH  23  24
ATOM     24  C   UNL     1      15.413  20.932 -17.918  1.00  0.00    -0.000 C 
BRANCH  24  25
ATOM     25  C   UNL     1      16.327  19.857 -18.534  1.00  0.00    -0.000 C 
BRANCH  25  26
ATOM     26  C   UNL     1      16.011  18.413 -18.107  1.00  0.00    -0.000 C 
BRANCH  26  27
ATOM     27  C   UNL     1      16.999  17.866 -17.066  1.00  0.00    -0.000 C 
BRANCH  27  28
ATOM     28  C   UNL     1      18.067  16.983 -17.730  1.00  0.00    -0.000 C 
BRANCH  28  29
ATOM     29  C   UNL     1      18.062  15.546 -17.188  1.00  0.00    -0.000 C 
BRANCH  29  30
ATOM     30  C   UNL     1      17.507  15.455 -15.755  1.00  0.00    -0.000 C 
BRANCH  30  31
ATOM     31  C   UNL     1      16.165  14.711 -15.692  1.00  0.00    -0.003 C 
ATOM     32  C   UNL     1      15.221  15.284 -14.635  1.00  0.00     0.004 C 
ENDBRANCH  30  31
ENDBRANCH  29  30
ENDBRANCH  28  29
ENDBRANCH  27  28
ENDBRANCH  26  27
ENDBRANCH  25  26
ENDBRANCH  24  25
ENDBRANCH  23  24
ENDBRANCH  22  23
ENDBRANCH  21  22
ENDBRANCH  20  21
ENDBRANCH  19  20
ENDBRANCH  18  19
ENDBRANCH   1  18
TORSDOF 28
ENDMDL
MODEL 6
REMARK VINA RESULT:    -3.955      1.706      8.133
REMARK INTER + INTRA:         -14.819
REMARK INTER:                 -11.448
REMARK INTRA:                  -3.371
REMARK UNBOUND:                -4.392
REMARK SMILES CCCCCCCCCCCCCCCCCCCCCCCCCCCCCC(=O)[O-]
REMARK SMILES IDX 16 1 17 2 18 3 19 4 20 5 21 6 22 7 23 8 24 9 25 10 26 11
REMARK SMILES IDX 27 12 28 13 29 14 30 15 31 16 32 17 15 18 14 19 13 20 12 21
REMARK SMILES IDX 11 22 10 23 9 24 8 25 7 26 6 27 5 28 4 29 3 30 2 31 1 32
REMARK H PARENT
REMARK Flexibility Score: inf
ROOT
ATOM      1  C   UNL     1      12.700  21.751 -18.555  1.00  0.00     0.000 C 
ENDROOT
BRANCH   1   2
ATOM      2  C   UNL     1      13.817  20.917 -19.205  1.00  0.00     0.000 C 
BRANCH   2   3
ATOM      3  C   UNL     1      14.984  20.592 -18.248  1.00  0.00     0.000 C 
BRANCH   3   4
ATOM      4  C   UNL     1      16.063  21.690 -18.258  1.00  0.00     0.000 C 
BRANCH   4   5
ATOM      5  C   UNL     1      17.451  21.159 -17.868  1.00  0.00     0.000 C 
BRANCH   5   6
ATOM      6  C   UNL     1      17.393  19.743 -17.269  1.00  0.00     0.000 C 
BRANCH   6   7
ATOM      7  C   UNL     1      18.679  19.360 -16.524  1.00  0.00     0.000 C 
BRANCH   7   8
ATOM      8  C   UNL     1      18.434  19.026 -15.041  1.00  0.00     0.000 C 
BRANCH   8   9
ATOM      9  C   UNL     1      17.128  18.231 -14.832  1.00  0.00     0.000 C 
BRANCH   9  10
ATOM     10  C   UNL     1      17.353  16.718 -14.679  1.00  0.00     0.000 C 
BRANCH  10  11
ATOM     11  C   UNL     1      16.366  15.882 -15.510  1.00  0.00     0.000 C 
BRANCH  11  12
ATOM     12  C   UNL     1      16.455  16.173 -17.018  1.00  0.00     0.000 C 
BRANCH  12  13
ATOM     13  C   UNL     1      17.171  15.089 -17.850  1.00  0.00     0.006 C 
BRANCH  13  14
ATOM     14  C   UNL     1      16.715  15.001 -19.315  1.00  0.00     0.053 C 
BRANCH  14  15
ATOM     15  C   UNL     1      16.484  13.586 -19.747  1.00  0.00     0.041 C 
ATOM     16  O   UNL     1      17.428  12.911 -20.238  1.00  0.00    -0.550 OA
ATOM     17  O   UNL     1      15.235  13.004 -19.582  1.00  0.00    -0.550 OA
ENDBRANCH  14  15
ENDBRANCH  13  14
ENDBRANCH  12  13
ENDBRANCH  11  12
ENDBRANCH  10  11
ENDBRANCH   9  10
ENDBRANCH   8   9
ENDBRANCH   7   8
ENDBRANCH   6   7
ENDBRANCH   5   6
ENDBRANCH   4   5
ENDBRANCH   3   4
ENDBRANCH   2   3
ENDBRANCH   1   2
BRANCH   1  18
ATOM     18  C   UNL     1      12.122  22.813 -19.504  1.00  0.00     0.000 C 
BRANCH  18  19
ATOM     19  C   UNL     1      12.985  23.037 -20.760  1.00  0.00     0.000 C 
BRANCH  19  20
ATOM     20  C   UNL     1      12.346  22.597 -22.091  1.00  0.00     0.000 C 
BRANCH  20  21
ATOM     21  C   UNL     1      13.369  22.438 -23.230  1.00  0.00     0.000 C 
BRANCH  21  22
ATOM     22  C   UNL     1      12.858  23.011 -24.562  1.00  0.00     0.000 C 
BRANCH  22  23
ATOM     23  C   UNL     1      13.803  22.717 -25.737  1.00  0.00     0.000 C 
BRANCH  23  24
ATOM     24  C   UNL     1      13.006  22.342 -26.996  1.00  0.00    -0.000 C 
BRANCH  24  25
ATOM     25  C   UNL     1      12.033  21.172 -26.762  1.00  0.00    -0.000 C 
BRANCH  25  26
ATOM     26  C   UNL     1      12.441  19.845 -27.426  1.00  0.00    -0.000 C 
BRANCH  26  27
ATOM     27  C   UNL     1      12.712  18.726 -26.410  1.00  0.00    -0.000 C 
BRANCH  27  28
ATOM     28  C   UNL     1      12.604  19.249 -24.970  1.00  0.00    -0.000 C 
BRANCH  28  29
ATOM     29  C   UNL     1      13.092  18.225 -23.934  1.00  0.00    -0.000 C 
BRANCH  29  30
ATOM     30  C   UNL     1      13.267  18.839 -22.533  1.00  0.00    -0.000 C 
BRANCH  30  31
ATOM     31  C   UNL     1      14.666  18.585 -21.953  1.00  0.00    -0.003 C 
ATOM     32  C   UNL     1      14.639  17.679 -20.722  1.00  0.00     0.004 C 
ENDBRANCH  30  31
ENDBRANCH  29  30
ENDBRANCH  28  29
ENDBRANCH  27  28
ENDBRANCH  26  27
ENDBRANCH  25  26
ENDBRANCH  24  25
ENDBRANCH  23  24
ENDBRANCH  22  23
ENDBRANCH  21  22
ENDBRANCH  20  21
ENDBRANCH  19  20
ENDBRANCH  18  19
ENDBRANCH   1  18
TORSDOF 28
ENDMDL
MODEL 7
REMARK VINA RESULT:    -3.946      2.722      8.608
REMARK INTER + INTRA:         -14.795
REMARK INTER:                 -11.411
REMARK INTRA:                  -3.384
REMARK UNBOUND:                -4.392
REMARK SMILES CCCCCCCCCCCCCCCCCCCCCCCCCCCCCC(=O)[O-]
REMARK SMILES IDX 16 1 17 2 18 3 19 4 20 5 21 6 22 7 23 8 24 9 25 10 26 11
REMARK SMILES IDX 27 12 28 13 29 14 30 15 31 16 32 17 15 18 14 19 13 20 12 21
REMARK SMILES IDX 11 22 10 23 9 24 8 25 7 26 6 27 5 28 4 29 3 30 2 31 1 32
REMARK H PARENT
REMARK Flexibility Score: inf
ROOT
ATOM      1  C   UNL     1      13.389  21.733 -18.996  1.00  0.00     0.000 C 
ENDROOT
BRANCH   1   2
ATOM      2  C   UNL     1      14.570  21.088 -18.252  1.00  0.00     0.000 C 
BRANCH   2   3
ATOM      3  C   UNL     1      15.940  21.696 -18.621  1.00  0.00     0.000 C 
BRANCH   3   4
ATOM      4  C   UNL     1      17.102  20.984 -17.906  1.00  0.00     0.000 C 
BRANCH   4   5
ATOM      5  C   UNL     1      16.645  19.736 -17.134  1.00  0.00     0.000 C 
BRANCH   5   6
ATOM      6  C   UNL     1      17.819  18.822 -16.744  1.00  0.00     0.000 C 
BRANCH   6   7
ATOM      7  C   UNL     1      19.134  19.593 -16.560  1.00  0.00     0.000 C 
BRANCH   7   8
ATOM      8  C   UNL     1      19.637  19.578 -15.105  1.00  0.00     0.000 C 
BRANCH   8   9
ATOM      9  C   UNL     1      20.927  18.747 -14.943  1.00  0.00     0.000 C 
BRANCH   9  10
ATOM     10  C   UNL     1      20.669  17.308 -14.464  1.00  0.00     0.000 C 
BRANCH  10  11
ATOM     11  C   UNL     1      21.074  16.253 -15.506  1.00  0.00     0.000 C 
BRANCH  11  12
ATOM     12  C   UNL     1      19.865  15.611 -16.209  1.00  0.00     0.000 C 
BRANCH  12  13
ATOM     13  C   UNL     1      20.217  14.536 -17.259  1.00  0.00     0.006 C 
BRANCH  13  14
ATOM     14  C   UNL     1      21.549  13.811 -17.010  1.00  0.00     0.053 C 
BRANCH  14  15
ATOM     15  C   UNL     1      22.384  13.731 -18.250  1.00  0.00     0.041 C 
ATOM     16  O   UNL     1      22.313  12.720 -18.998  1.00  0.00    -0.550 OA
ATOM     17  O   UNL     1      23.221  14.785 -18.594  1.00  0.00    -0.550 OA
ENDBRANCH  14  15
ENDBRANCH  13  14
ENDBRANCH  12  13
ENDBRANCH  11  12
ENDBRANCH  10  11
ENDBRANCH   9  10
ENDBRANCH   8   9
ENDBRANCH   7   8
ENDBRANCH   6   7
ENDBRANCH   5   6
ENDBRANCH   4   5
ENDBRANCH   3   4
ENDBRANCH   2   3
ENDBRANCH   1   2
BRANCH   1  18
ATOM     18  C   UNL     1      13.839  22.636 -20.156  1.00  0.00     0.000 C 
BRANCH  18  19
ATOM     19  C   UNL     1      12.662  23.242 -20.945  1.00  0.00     0.000 C 
BRANCH  19  20
ATOM     20  C   UNL     1      12.264  22.487 -22.227  1.00  0.00     0.000 C 
BRANCH  20  21
ATOM     21  C   UNL     1      12.607  23.258 -23.513  1.00  0.00     0.000 C 
BRANCH  21  22
ATOM     22  C   UNL     1      13.747  22.600 -24.306  1.00  0.00     0.000 C 
BRANCH  22  23
ATOM     23  C   UNL     1      13.335  22.216 -25.736  1.00  0.00     0.000 C 
BRANCH  23  24
ATOM     24  C   UNL     1      12.133  21.260 -25.717  1.00  0.00    -0.000 C 
BRANCH  24  25
ATOM     25  C   UNL     1      12.454  19.884 -26.328  1.00  0.00    -0.000 C 
BRANCH  25  26
ATOM     26  C   UNL     1      12.883  18.807 -25.315  1.00  0.00    -0.000 C 
BRANCH  26  27
ATOM     27  C   UNL     1      12.510  19.165 -23.869  1.00  0.00    -0.000 C 
BRANCH  27  28
ATOM     28  C   UNL     1      13.740  19.101 -22.951  1.00  0.00    -0.000 C 
BRANCH  28  29
ATOM     29  C   UNL     1      13.363  19.079 -21.462  1.00  0.00    -0.000 C 
BRANCH  29  30
ATOM     30  C   UNL     1      13.418  17.664 -20.858  1.00  0.00    -0.000 C 
BRANCH  30  31
ATOM     31  C   UNL     1      14.856  17.147 -20.707  1.00  0.00    -0.003 C 
ATOM     32  C   UNL     1      15.838  18.245 -20.299  1.00  0.00     0.004 C 
ENDBRANCH  30  31
ENDBRANCH  29  30
ENDBRANCH  28  29
ENDBRANCH  27  28
ENDBRANCH  26  27
ENDBRANCH  25  26
ENDBRANCH  24  25
ENDBRANCH  23  24
ENDBRANCH  22  23
ENDBRANCH  21  22
ENDBRANCH  20  21
ENDBRANCH  19  20
ENDBRANCH  18  19
ENDBRANCH   1  18
TORSDOF 28
ENDMDL
MODEL 8
REMARK VINA RESULT:    -3.910      2.164      5.392
REMARK INTER + INTRA:         -14.702
REMARK INTER:                  -9.876
REMARK INTRA:                  -4.826
REMARK UNBOUND:                -4.392
REMARK SMILES CCCCCCCCCCCCCCCCCCCCCCCCCCCCCC(=O)[O-]
REMARK SMILES IDX 16 1 17 2 18 3 19 4 20 5 21 6 22 7 23 8 24 9 25 10 26 11
REMARK SMILES IDX 27 12 28 13 29 14 30 15 31 16 32 17 15 18 14 19 13 20 12 21
REMARK SMILES IDX 11 22 10 23 9 24 8 25 7 26 6 27 5 28 4 29 3 30 2 31 1 32
REMARK H PARENT
REMARK Flexibility Score: inf
ROOT
ATOM      1  C   UNL     1      17.074  21.034 -18.008  1.00  0.00     0.000 C 
ENDROOT
BRANCH   1   2
ATOM      2  C   UNL     1      15.860  21.774 -18.595  1.00  0.00     0.000 C 
BRANCH   2   3
ATOM      3  C   UNL     1      14.504  21.152 -18.194  1.00  0.00     0.000 C 
BRANCH   3   4
ATOM      4  C   UNL     1      13.339  21.723 -19.022  1.00  0.00     0.000 C 
BRANCH   4   5
ATOM      5  C   UNL     1      13.807  22.719 -20.095  1.00  0.00     0.000 C 
BRANCH   5   6
ATOM      6  C   UNL     1      12.646  23.247 -20.955  1.00  0.00     0.000 C 
BRANCH   6   7
ATOM      7  C   UNL     1      12.286  22.300 -22.109  1.00  0.00     0.000 C 
BRANCH   7   8
ATOM      8  C   UNL     1      13.524  21.775 -22.859  1.00  0.00     0.000 C 
BRANCH   8   9
ATOM      9  C   UNL     1      13.501  20.240 -23.018  1.00  0.00     0.000 C 
BRANCH   9  10
ATOM     10  C   UNL     1      12.642  19.531 -21.958  1.00  0.00     0.000 C 
BRANCH  10  11
ATOM     11  C   UNL     1      13.208  18.160 -21.553  1.00  0.00     0.000 C 
BRANCH  11  12
ATOM     12  C   UNL     1      14.089  18.224 -20.293  1.00  0.00     0.000 C 
BRANCH  12  13
ATOM     13  C   UNL     1      15.599  18.392 -20.562  1.00  0.00     0.006 C 
BRANCH  13  14
ATOM     14  C   UNL     1      16.475  17.251 -20.020  1.00  0.00     0.053 C 
BRANCH  14  15
ATOM     15  C   UNL     1      15.703  15.978 -19.860  1.00  0.00     0.041 C 
ATOM     16  O   UNL     1      15.206  15.673 -18.743  1.00  0.00    -0.550 OA
ATOM     17  O   UNL     1      15.509  15.141 -20.951  1.00  0.00    -0.550 OA
ENDBRANCH  14  15
ENDBRANCH  13  14
ENDBRANCH  12  13
ENDBRANCH  11  12
ENDBRANCH  10  11
ENDBRANCH   9  10
ENDBRANCH   8   9
ENDBRANCH   7   8
ENDBRANCH   6   7
ENDBRANCH   5   6
ENDBRANCH   4   5
ENDBRANCH   3   4
ENDBRANCH   2   3
ENDBRANCH   1   2
BRANCH   1  18
ATOM     18  C   UNL     1      16.684  19.745 -17.267  1.00  0.00     0.000 C 
BRANCH  18  19
ATOM     19  C   UNL     1      17.881  18.812 -17.002  1.00  0.00     0.000 C 
BRANCH  19  20
ATOM     20  C   UNL     1      19.049  19.438 -16.218  1.00  0.00     0.000 C 
BRANCH  20  21
ATOM     21  C   UNL     1      20.359  18.640 -16.343  1.00  0.00     0.000 C 
BRANCH  21  22
ATOM     22  C   UNL     1      20.170  17.318 -17.105  1.00  0.00     0.000 C 
BRANCH  22  23
ATOM     23  C   UNL     1      20.924  16.146 -16.458  1.00  0.00     0.000 C 
BRANCH  23  24
ATOM     24  C   UNL     1      22.018  16.658 -15.510  1.00  0.00    -0.000 C 
BRANCH  24  25
ATOM     25  C   UNL     1      21.787  16.242 -14.046  1.00  0.00    -0.000 C 
BRANCH  25  26
ATOM     26  C   UNL     1      20.478  15.474 -13.789  1.00  0.00    -0.000 C 
BRANCH  26  27
ATOM     27  C   UNL     1      19.913  15.710 -12.380  1.00  0.00    -0.000 C 
BRANCH  27  28
ATOM     28  C   UNL     1      18.448  16.169 -12.443  1.00  0.00    -0.000 C 
BRANCH  28  29
ATOM     29  C   UNL     1      18.189  17.152 -13.596  1.00  0.00    -0.000 C 
BRANCH  29  30
ATOM     30  C   UNL     1      16.724  17.135 -14.069  1.00  0.00    -0.000 C 
BRANCH  30  31
ATOM     31  C   UNL     1      16.321  15.784 -14.679  1.00  0.00    -0.003 C 
ATOM     32  C   UNL     1      17.177  15.404 -15.888  1.00  0.00     0.004 C 
ENDBRANCH  30  31
ENDBRANCH  29  30
ENDBRANCH  28  29
ENDBRANCH  27  28
ENDBRANCH  26  27
ENDBRANCH  25  26
ENDBRANCH  24  25
ENDBRANCH  23  24
ENDBRANCH  22  23
ENDBRANCH  21  22
ENDBRANCH  20  21
ENDBRANCH  19  20
ENDBRANCH  18  19
ENDBRANCH   1  18
TORSDOF 28
ENDMDL
MODEL 9
REMARK VINA RESULT:    -3.876      2.965      8.982
REMARK INTER + INTRA:         -14.612
REMARK INTER:                  -9.618
REMARK INTRA:                  -4.994
REMARK UNBOUND:                -4.392
REMARK SMILES CCCCCCCCCCCCCCCCCCCCCCCCCCCCCC(=O)[O-]
REMARK SMILES IDX 16 1 17 2 18 3 19 4 20 5 21 6 22 7 23 8 24 9 25 10 26 11
REMARK SMILES IDX 27 12 28 13 29 14 30 15 31 16 32 17 15 18 14 19 13 20 12 21
REMARK SMILES IDX 11 22 10 23 9 24 8 25 7 26 6 27 5 28 4 29 3 30 2 31 1 32
REMARK H PARENT
REMARK Flexibility Score: inf
ROOT
ATOM      1  C   UNL     1      17.224  19.177 -16.719  1.00  0.00     0.000 C 
ENDROOT
BRANCH   1   2
ATOM      2  C   UNL     1      18.305  18.085 -16.747  1.00  0.00     0.000 C 
BRANCH   2   3
ATOM      3  C   UNL     1      19.746  18.641 -16.782  1.00  0.00     0.000 C 
BRANCH   3   4
ATOM      4  C   UNL     1      20.482  18.423 -15.447  1.00  0.00     0.000 C 
BRANCH   4   5
ATOM      5  C   UNL     1      20.343  19.619 -14.493  1.00  0.00     0.000 C 
BRANCH   5   6
ATOM      6  C   UNL     1      19.350  19.347 -13.349  1.00  0.00     0.000 C 
BRANCH   6   7
ATOM      7  C   UNL     1      19.243  17.855 -13.001  1.00  0.00     0.000 C 
BRANCH   7   8
ATOM      8  C   UNL     1      17.786  17.371 -12.889  1.00  0.00     0.000 C 
BRANCH   8   9
ATOM      9  C   UNL     1      17.474  16.229 -13.880  1.00  0.00     0.000 C 
BRANCH   9  10
ATOM     10  C   UNL     1      15.985  16.130 -14.248  1.00  0.00     0.000 C 
BRANCH  10  11
ATOM     11  C   UNL     1      15.667  14.903 -15.119  1.00  0.00     0.000 C 
BRANCH  11  12
ATOM     12  C   UNL     1      15.796  15.188 -16.625  1.00  0.00     0.000 C 
BRANCH  12  13
ATOM     13  C   UNL     1      16.697  14.203 -17.400  1.00  0.00     0.006 C 
BRANCH  13  14
ATOM     14  C   UNL     1      17.982  14.824 -17.969  1.00  0.00     0.053 C 
BRANCH  14  15
ATOM     15  C   UNL     1      19.169  14.559 -17.095  1.00  0.00     0.041 C 
ATOM     16  O   UNL     1      20.290  15.058 -17.379  1.00  0.00    -0.550 OA
ATOM     17  O   UNL     1      19.030  13.783 -15.952  1.00  0.00    -0.550 OA
ENDBRANCH  14  15
ENDBRANCH  13  14
ENDBRANCH  12  13
ENDBRANCH  11  12
ENDBRANCH  10  11
ENDBRANCH   9  10
ENDBRANCH   8   9
ENDBRANCH   7   8
ENDBRANCH   6   7
ENDBRANCH   5   6
ENDBRANCH   4   5
ENDBRANCH   3   4
ENDBRANCH   2   3
ENDBRANCH   1   2
BRANCH   1  18
ATOM     18  C   UNL     1      17.746  20.543 -17.194  1.00  0.00     0.000 C 
BRANCH  18  19
ATOM     19  C   UNL     1      16.728  21.314 -18.056  1.00  0.00     0.000 C 
BRANCH  19  20
ATOM     20  C   UNL     1      15.257  20.896 -17.879  1.00  0.00     0.000 C 
BRANCH  20  21
ATOM     21  C   UNL     1      14.370  21.279 -19.077  1.00  0.00     0.000 C 
BRANCH  21  22
ATOM     22  C   UNL     1      12.997  21.816 -18.644  1.00  0.00     0.000 C 
BRANCH  22  23
ATOM     23  C   UNL     1      12.304  22.636 -19.744  1.00  0.00     0.000 C 
BRANCH  23  24
ATOM     24  C   UNL     1      13.261  22.889 -20.919  1.00  0.00    -0.000 C 
BRANCH  24  25
ATOM     25  C   UNL     1      12.555  22.843 -22.286  1.00  0.00    -0.000 C 
BRANCH  25  26
ATOM     26  C   UNL     1      12.184  21.434 -22.780  1.00  0.00    -0.000 C 
BRANCH  26  27
ATOM     27  C   UNL     1      13.255  20.383 -22.450  1.00  0.00    -0.000 C 
BRANCH  27  28
ATOM     28  C   UNL     1      12.688  19.288 -21.534  1.00  0.00    -0.000 C 
BRANCH  28  29
ATOM     29  C   UNL     1      13.604  18.057 -21.452  1.00  0.00    -0.000 C 
BRANCH  29  30
ATOM     30  C   UNL     1      15.083  18.402 -21.702  1.00  0.00    -0.000 C 
BRANCH  30  31
ATOM     31  C   UNL     1      15.952  18.195 -20.453  1.00  0.00    -0.003 C 
ATOM     32  C   UNL     1      15.202  17.490 -19.323  1.00  0.00     0.004 C 
ENDBRANCH  30  31
ENDBRANCH  29  30
ENDBRANCH  28  29
ENDBRANCH  27  28
ENDBRANCH  26  27
ENDBRANCH  25  26
ENDBRANCH  24  25
ENDBRANCH  23  24
ENDBRANCH  22  23
ENDBRANCH  21  22
ENDBRANCH  20  21
ENDBRANCH  19  20
ENDBRANCH  18  19
ENDBRANCH   1  18
TORSDOF 28
ENDMDL
