MODEL 1
REMARK VINA RESULT:    -3.490      0.000      0.000
REMARK INTER + INTRA:          -4.616
REMARK INTER:                  -4.306
REMARK INTRA:                  -0.310
REMARK UNBOUND:                -0.310
REMARK SMILES O=c1c(O)c(-c2cc(O)c(O)c(O)c2)oc2cc(O)cc(O)c12
REMARK SMILES IDX 5 1 3 2 2 3 1 4 23 5 21 6 20 7 18 8 17 9 16 10 15 11 6 12
REMARK SMILES IDX 7 13 8 14 14 15 10 16 12 17 9 18 11 20 13 22 4 24 22 26
REMARK SMILES IDX 19 28
REMARK H PARENT 9 19 11 21 13 23 4 25 22 27 19 29
REMARK Flexibility Score: inf
ROOT
ATOM      1  C   UNL     1     -12.424 -16.606  31.610  1.00  0.00     0.180 A 
ATOM      2  C   UNL     1     -13.047 -17.864  31.675  1.00  0.00     0.208 A 
ATOM      3  C   UNL     1     -13.119 -18.649  30.513  1.00  0.00     0.238 A 
ATOM      4  O   UNL     1     -13.631 -19.796  30.590  1.00  0.00    -0.285 OA
ATOM      5  C   UNL     1     -12.582 -18.160  29.299  1.00  0.00     0.111 A 
ATOM      6  C   UNL     1     -12.635 -18.852  28.051  1.00  0.00     0.134 A 
ATOM      7  C   UNL     1     -11.956 -18.332  26.942  1.00  0.00     0.093 A 
ATOM      8  C   UNL     1     -11.281 -17.111  27.019  1.00  0.00     0.123 A 
ATOM      9  C   UNL     1     -11.274 -16.398  28.215  1.00  0.00     0.094 A 
ATOM     10  C   UNL     1     -11.911 -16.909  29.349  1.00  0.00     0.146 A 
ATOM     11  O   UNL     1     -11.871 -16.203  30.472  1.00  0.00    -0.452 OA
ENDROOT
BRANCH   1  12
ATOM     12  C   UNL     1     -12.331 -15.711  32.787  1.00  0.00     0.029 A 
ATOM     13  C   UNL     1     -11.144 -15.598  33.526  1.00  0.00     0.062 A 
ATOM     14  C   UNL     1     -11.079 -14.767  34.648  1.00  0.00     0.162 A 
ATOM     15  C   UNL     1     -13.466 -15.006  33.209  1.00  0.00     0.062 A 
ATOM     16  C   UNL     1     -12.212 -14.040  35.057  1.00  0.00     0.200 A 
ATOM     17  C   UNL     1     -13.420 -14.168  34.330  1.00  0.00     0.162 A 
BRANCH  14  18
ATOM     18  O   UNL     1      -9.875 -14.679  35.348  1.00  0.00    -0.504 OA
ATOM     19  H   UNL     1      -9.149 -14.019  35.096  1.00  0.00     0.293 HD
ENDBRANCH  14  18
BRANCH  16  20
ATOM     20  O   UNL     1     -12.102 -13.214  36.180  1.00  0.00    -0.502 OA
ATOM     21  H   UNL     1     -12.870 -12.983  36.792  1.00  0.00     0.293 HD
ENDBRANCH  16  20
BRANCH  17  22
ATOM     22  O   UNL     1     -14.588 -13.489  34.680  1.00  0.00    -0.504 OA
ATOM     23  H   UNL     1     -14.673 -12.884  35.483  1.00  0.00     0.293 HD
ENDBRANCH  17  22
ENDBRANCH   1  12
BRANCH   2  24
ATOM     24  O   UNL     1     -13.552 -18.336  32.889  1.00  0.00    -0.502 OA
ATOM     25  H   UNL     1     -14.006 -17.731  33.562  1.00  0.00     0.293 HD
ENDBRANCH   2  24
BRANCH   6  26
ATOM     26  O   UNL     1     -13.357 -20.031  27.843  1.00  0.00    -0.507 OA
ATOM     27  H   UNL     1     -13.267 -20.866  28.402  1.00  0.00     0.293 HD
ENDBRANCH   6  26
BRANCH   8  28
ATOM     28  O   UNL     1     -10.621 -16.593  25.907  1.00  0.00    -0.508 OA
ATOM     29  H   UNL     1     -11.079 -15.955  25.268  1.00  0.00     0.293 HD
ENDBRANCH   8  28
TORSDOF 7
ENDMDL
MODEL 2
REMARK VINA RESULT:    -3.427      0.066      1.767
REMARK INTER + INTRA:          -4.539
REMARK INTER:                  -4.195
REMARK INTRA:                  -0.343
REMARK UNBOUND:                -0.310
REMARK SMILES O=c1c(O)c(-c2cc(O)c(O)c(O)c2)oc2cc(O)cc(O)c12
REMARK SMILES IDX 5 1 3 2 2 3 1 4 23 5 21 6 20 7 18 8 17 9 16 10 15 11 6 12
REMARK SMILES IDX 7 13 8 14 14 15 10 16 12 17 9 18 11 20 13 22 4 24 22 26
REMARK SMILES IDX 19 28
REMARK H PARENT 9 19 11 21 13 23 4 25 22 27 19 29
REMARK Flexibility Score: inf
ROOT
ATOM      1  C   UNL     1     -12.485 -16.643  31.644  1.00  0.00     0.180 A 
ATOM      2  C   UNL     1     -13.086 -17.912  31.700  1.00  0.00     0.208 A 
ATOM      3  C   UNL     1     -13.134 -18.695  30.537  1.00  0.00     0.238 A 
ATOM      4  O   UNL     1     -13.625 -19.851  30.606  1.00  0.00    -0.285 OA
ATOM      5  C   UNL     1     -12.595 -18.193  29.328  1.00  0.00     0.111 A 
ATOM      6  C   UNL     1     -12.626 -18.884  28.078  1.00  0.00     0.134 A 
ATOM      7  C   UNL     1     -11.947 -18.348  26.976  1.00  0.00     0.093 A 
ATOM      8  C   UNL     1     -11.295 -17.116  27.061  1.00  0.00     0.123 A 
ATOM      9  C   UNL     1     -11.311 -16.406  28.259  1.00  0.00     0.094 A 
ATOM     10  C   UNL     1     -11.948 -16.931  29.386  1.00  0.00     0.146 A 
ATOM     11  O   UNL     1     -11.930 -16.227  30.512  1.00  0.00    -0.452 OA
ENDROOT
BRANCH   1  12
ATOM     12  C   UNL     1     -12.418 -15.749  32.824  1.00  0.00     0.029 A 
ATOM     13  C   UNL     1     -13.522 -14.980  33.220  1.00  0.00     0.062 A 
ATOM     14  C   UNL     1     -13.436 -14.124  34.322  1.00  0.00     0.162 A 
ATOM     15  C   UNL     1     -11.211 -15.621  33.525  1.00  0.00     0.062 A 
ATOM     16  C   UNL     1     -12.232 -14.014  35.041  1.00  0.00     0.200 A 
ATOM     17  C   UNL     1     -11.107 -14.770  34.631  1.00  0.00     0.162 A 
BRANCH  14  18
ATOM     18  O   UNL     1     -14.562 -13.385  34.685  1.00  0.00    -0.504 OA
ATOM     19  H   UNL     1     -15.505 -13.716  34.518  1.00  0.00     0.293 HD
ENDBRANCH  14  18
BRANCH  16  20
ATOM     20  O   UNL     1     -12.191 -13.153  36.141  1.00  0.00    -0.502 OA
ATOM     21  H   UNL     1     -12.986 -12.941  36.726  1.00  0.00     0.293 HD
ENDBRANCH  16  20
BRANCH  17  22
ATOM     22  O   UNL     1      -9.875 -14.706  35.286  1.00  0.00    -0.504 OA
ATOM     23  H   UNL     1      -9.004 -15.022  34.885  1.00  0.00     0.293 HD
ENDBRANCH  17  22
ENDBRANCH   1  12
BRANCH   2  24
ATOM     24  O   UNL     1     -13.592 -18.397  32.910  1.00  0.00    -0.502 OA
ATOM     25  H   UNL     1     -14.294 -17.899  33.444  1.00  0.00     0.293 HD
ENDBRANCH   2  24
BRANCH   6  26
ATOM     26  O   UNL     1     -13.325 -20.075  27.862  1.00  0.00    -0.507 OA
ATOM     27  H   UNL     1     -13.108 -20.745  27.139  1.00  0.00     0.293 HD
ENDBRANCH   6  26
BRANCH   8  28
ATOM     28  O   UNL     1     -10.635 -16.584  25.956  1.00  0.00    -0.508 OA
ATOM     29  H   UNL     1      -9.708 -16.894  25.691  1.00  0.00     0.293 HD
ENDBRANCH   8  28
TORSDOF 7
ENDMDL
MODEL 3
REMARK VINA RESULT:    -3.193      1.414      1.428
REMARK INTER + INTRA:          -4.249
REMARK INTER:                  -4.326
REMARK INTRA:                   0.077
REMARK UNBOUND:                -0.310
REMARK SMILES O=c1c(O)c(-c2cc(O)c(O)c(O)c2)oc2cc(O)cc(O)c12
REMARK SMILES IDX 5 1 3 2 2 3 1 4 23 5 21 6 20 7 18 8 17 9 16 10 15 11 6 12
REMARK SMILES IDX 7 13 8 14 14 15 10 16 12 17 9 18 11 20 13 22 4 24 22 26
REMARK SMILES IDX 19 28
REMARK H PARENT 9 19 11 21 13 23 4 25 22 27 19 29
REMARK Flexibility Score: inf
ROOT
ATOM      1  C   UNL     1     -12.284 -16.174  31.819  1.00  0.00     0.180 A 
ATOM      2  C   UNL     1     -11.826 -17.501  31.761  1.00  0.00     0.208 A 
ATOM      3  C   UNL     1     -11.942 -18.210  30.555  1.00  0.00     0.238 A 
ATOM      4  O   UNL     1     -11.481 -19.379  30.494  1.00  0.00    -0.285 OA
ATOM      5  C   UNL     1     -12.530 -17.589  29.427  1.00  0.00     0.111 A 
ATOM      6  C   UNL     1     -12.736 -18.226  28.166  1.00  0.00     0.134 A 
ATOM      7  C   UNL     1     -13.208 -17.475  27.082  1.00  0.00     0.093 A 
ATOM      8  C   UNL     1     -13.543 -16.127  27.230  1.00  0.00     0.123 A 
ATOM      9  C   UNL     1     -13.402 -15.512  28.471  1.00  0.00     0.094 A 
ATOM     10  C   UNL     1     -12.899 -16.225  29.563  1.00  0.00     0.146 A 
ATOM     11  O   UNL     1     -12.771 -15.597  30.726  1.00  0.00    -0.452 OA
ENDROOT
BRANCH   1  12
ATOM     12  C   UNL     1     -12.218 -15.370  33.062  1.00  0.00     0.029 A 
ATOM     13  C   UNL     1     -11.075 -15.378  33.875  1.00  0.00     0.062 A 
ATOM     14  C   UNL     1     -11.036 -14.633  35.057  1.00  0.00     0.162 A 
ATOM     15  C   UNL     1     -13.338 -14.633  33.468  1.00  0.00     0.062 A 
ATOM     16  C   UNL     1     -12.152 -13.873  35.452  1.00  0.00     0.200 A 
ATOM     17  C   UNL     1     -13.317 -13.880  34.648  1.00  0.00     0.162 A 
BRANCH  14  18
ATOM     18  O   UNL     1      -9.875 -14.663  35.830  1.00  0.00    -0.504 OA
ATOM     19  H   UNL     1      -8.985 -14.974  35.459  1.00  0.00     0.293 HD
ENDBRANCH  14  18
BRANCH  16  20
ATOM     20  O   UNL     1     -12.069 -13.135  36.637  1.00  0.00    -0.502 OA
ATOM     21  H   UNL     1     -12.867 -12.842  37.180  1.00  0.00     0.293 HD
ENDBRANCH  16  20
BRANCH  17  22
ATOM     22  O   UNL     1     -14.468 -13.162  34.978  1.00  0.00    -0.504 OA
ATOM     23  H   UNL     1     -14.472 -12.188  35.244  1.00  0.00     0.293 HD
ENDBRANCH  17  22
ENDBRANCH   1  12
BRANCH   2  24
ATOM     24  O   UNL     1     -11.228 -18.088  32.880  1.00  0.00    -0.502 OA
ATOM     25  H   UNL     1     -11.330 -17.707  33.813  1.00  0.00     0.293 HD
ENDBRANCH   2  24
BRANCH   6  26
ATOM     26  O   UNL     1     -12.520 -19.588  27.935  1.00  0.00    -0.507 OA
ATOM     27  H   UNL     1     -12.026 -20.205  28.561  1.00  0.00     0.293 HD
ENDBRANCH   6  26
BRANCH   8  28
ATOM     28  O   UNL     1     -14.026 -15.392  26.150  1.00  0.00    -0.508 OA
ATOM     29  H   UNL     1     -13.406 -14.859  25.552  1.00  0.00     0.293 HD
ENDBRANCH   8  28
TORSDOF 7
ENDMDL
MODEL 4
REMARK VINA RESULT:    -3.102      1.410      2.265
REMARK INTER + INTRA:          -4.137
REMARK INTER:                  -4.210
REMARK INTRA:                   0.073
REMARK UNBOUND:                -0.310
REMARK SMILES O=c1c(O)c(-c2cc(O)c(O)c(O)c2)oc2cc(O)cc(O)c12
REMARK SMILES IDX 5 1 3 2 2 3 1 4 23 5 21 6 20 7 18 8 17 9 16 10 15 11 6 12
REMARK SMILES IDX 7 13 8 14 14 15 10 16 12 17 9 18 11 20 13 22 4 24 22 26
REMARK SMILES IDX 19 28
REMARK H PARENT 9 19 11 21 13 23 4 25 22 27 19 29
REMARK Flexibility Score: inf
ROOT
ATOM      1  C   UNL     1     -12.384 -16.197  31.813  1.00  0.00     0.180 A 
ATOM      2  C   UNL     1     -11.914 -17.519  31.751  1.00  0.00     0.208 A 
ATOM      3  C   UNL     1     -12.009 -18.220  30.538  1.00  0.00     0.238 A 
ATOM      4  O   UNL     1     -11.538 -19.385  30.475  1.00  0.00    -0.285 OA
ATOM      5  C   UNL     1     -12.588 -17.595  29.408  1.00  0.00     0.111 A 
ATOM      6  C   UNL     1     -12.773 -18.224  28.139  1.00  0.00     0.134 A 
ATOM      7  C   UNL     1     -13.236 -17.469  27.055  1.00  0.00     0.093 A 
ATOM      8  C   UNL     1     -13.584 -16.125  27.209  1.00  0.00     0.123 A 
ATOM      9  C   UNL     1     -13.464 -15.518  28.457  1.00  0.00     0.094 A 
ATOM     10  C   UNL     1     -12.970 -16.235  29.549  1.00  0.00     0.146 A 
ATOM     11  O   UNL     1     -12.861 -15.616  30.719  1.00  0.00    -0.452 OA
ENDROOT
BRANCH   1  12
ATOM     12  C   UNL     1     -12.341 -15.402  33.063  1.00  0.00     0.029 A 
ATOM     13  C   UNL     1     -13.435 -14.627  33.473  1.00  0.00     0.062 A 
ATOM     14  C   UNL     1     -13.370 -13.865  34.643  1.00  0.00     0.162 A 
ATOM     15  C   UNL     1     -11.163 -15.375  33.823  1.00  0.00     0.062 A 
ATOM     16  C   UNL     1     -12.196 -13.857  35.419  1.00  0.00     0.200 A 
ATOM     17  C   UNL     1     -11.080 -14.619  34.997  1.00  0.00     0.162 A 
BRANCH  14  18
ATOM     18  O   UNL     1     -14.486 -13.115  35.017  1.00  0.00    -0.504 OA
ATOM     19  H   UNL     1     -14.646 -12.823  35.974  1.00  0.00     0.293 HD
ENDBRANCH  14  18
BRANCH  16  20
ATOM     20  O   UNL     1     -12.176 -13.087  36.586  1.00  0.00    -0.502 OA
ATOM     21  H   UNL     1     -12.763 -13.258  37.389  1.00  0.00     0.293 HD
ENDBRANCH  16  20
BRANCH  17  22
ATOM     22  O   UNL     1      -9.877 -14.653  35.706  1.00  0.00    -0.504 OA
ATOM     23  H   UNL     1      -9.509 -13.876  36.235  1.00  0.00     0.293 HD
ENDBRANCH  17  22
ENDBRANCH   1  12
BRANCH   2  24
ATOM     24  O   UNL     1     -11.326 -18.110  32.873  1.00  0.00    -0.502 OA
ATOM     25  H   UNL     1     -11.712 -18.933  33.320  1.00  0.00     0.293 HD
ENDBRANCH   2  24
BRANCH   6  26
ATOM     26  O   UNL     1     -12.542 -19.582  27.901  1.00  0.00    -0.507 OA
ATOM     27  H   UNL     1     -12.875 -20.333  28.487  1.00  0.00     0.293 HD
ENDBRANCH   6  26
BRANCH   8  28
ATOM     28  O   UNL     1     -14.059 -15.385  26.129  1.00  0.00    -0.508 OA
ATOM     29  H   UNL     1     -14.890 -14.811  26.203  1.00  0.00     0.293 HD
ENDBRANCH   8  28
TORSDOF 7
ENDMDL
MODEL 5
REMARK VINA RESULT:    -2.612      1.852      7.048
REMARK INTER + INTRA:          -3.532
REMARK INTER:                  -3.715
REMARK INTRA:                   0.183
REMARK UNBOUND:                -0.310
REMARK SMILES O=c1c(O)c(-c2cc(O)c(O)c(O)c2)oc2cc(O)cc(O)c12
REMARK SMILES IDX 5 1 3 2 2 3 1 4 23 5 21 6 20 7 18 8 17 9 16 10 15 11 6 12
REMARK SMILES IDX 7 13 8 14 14 15 10 16 12 17 9 18 11 20 13 22 4 24 22 26
REMARK SMILES IDX 19 28
REMARK H PARENT 9 19 11 21 13 23 4 25 22 27 19 29
REMARK Flexibility Score: inf
ROOT
ATOM      1  C   UNL     1     -12.370 -15.984  31.473  1.00  0.00     0.180 A 
ATOM      2  C   UNL     1     -11.253 -16.615  32.047  1.00  0.00     0.208 A 
ATOM      3  C   UNL     1     -10.843 -16.235  33.335  1.00  0.00     0.238 A 
ATOM      4  O   UNL     1      -9.875 -16.841  33.864  1.00  0.00    -0.285 OA
ATOM      5  C   UNL     1     -11.545 -15.218  34.026  1.00  0.00     0.111 A 
ATOM      6  C   UNL     1     -11.193 -14.725  35.319  1.00  0.00     0.134 A 
ATOM      7  C   UNL     1     -12.035 -13.809  35.961  1.00  0.00     0.093 A 
ATOM      8  C   UNL     1     -13.181 -13.320  35.331  1.00  0.00     0.123 A 
ATOM      9  C   UNL     1     -13.501 -13.749  34.046  1.00  0.00     0.094 A 
ATOM     10  C   UNL     1     -12.700 -14.690  33.393  1.00  0.00     0.146 A 
ATOM     11  O   UNL     1     -13.047 -15.081  32.172  1.00  0.00    -0.452 OA
ENDROOT
BRANCH   1  12
ATOM     12  C   UNL     1     -12.847 -16.314  30.110  1.00  0.00     0.029 A 
ATOM     13  C   UNL     1     -12.785 -17.624  29.613  1.00  0.00     0.062 A 
ATOM     14  C   UNL     1     -13.218 -17.916  28.316  1.00  0.00     0.162 A 
ATOM     15  C   UNL     1     -13.317 -15.290  29.277  1.00  0.00     0.062 A 
ATOM     16  C   UNL     1     -13.712 -16.891  27.487  1.00  0.00     0.200 A 
ATOM     17  C   UNL     1     -13.755 -15.563  27.976  1.00  0.00     0.162 A 
BRANCH  14  18
ATOM     18  O   UNL     1     -13.145 -19.234  27.865  1.00  0.00    -0.504 OA
ATOM     19  H   UNL     1     -13.048 -20.018  28.499  1.00  0.00     0.293 HD
ENDBRANCH  14  18
BRANCH  16  20
ATOM     20  O   UNL     1     -14.143 -17.226  26.200  1.00  0.00    -0.502 OA
ATOM     21  H   UNL     1     -14.754 -18.001  25.991  1.00  0.00     0.293 HD
ENDBRANCH  16  20
BRANCH  17  22
ATOM     22  O   UNL     1     -14.220 -14.491  27.211  1.00  0.00    -0.504 OA
ATOM     23  H   UNL     1     -15.190 -14.215  27.153  1.00  0.00     0.293 HD
ENDBRANCH  17  22
ENDBRANCH   1  12
BRANCH   2  24
ATOM     24  O   UNL     1     -10.587 -17.632  31.356  1.00  0.00    -0.502 OA
ATOM     25  H   UNL     1      -9.735 -18.056  31.702  1.00  0.00     0.293 HD
ENDBRANCH   2  24
BRANCH   6  26
ATOM     26  O   UNL     1     -10.023 -15.079  35.997  1.00  0.00    -0.507 OA
ATOM     27  H   UNL     1      -9.168 -14.544  35.987  1.00  0.00     0.293 HD
ENDBRANCH   6  26
BRANCH   8  28
ATOM     28  O   UNL     1     -14.006 -12.397  35.972  1.00  0.00    -0.508 OA
ATOM     29  H   UNL     1     -13.638 -11.734  36.643  1.00  0.00     0.293 HD
ENDBRANCH   8  28
TORSDOF 7
ENDMDL
MODEL 6
REMARK VINA RESULT:    -2.376      1.638      2.972
REMARK INTER + INTRA:          -3.242
REMARK INTER:                  -3.101
REMARK INTRA:                  -0.141
REMARK UNBOUND:                -0.310
REMARK SMILES O=c1c(O)c(-c2cc(O)c(O)c(O)c2)oc2cc(O)cc(O)c12
REMARK SMILES IDX 5 1 3 2 2 3 1 4 23 5 21 6 20 7 18 8 17 9 16 10 15 11 6 12
REMARK SMILES IDX 7 13 8 14 14 15 10 16 12 17 9 18 11 20 13 22 4 24 22 26
REMARK SMILES IDX 19 28
REMARK H PARENT 9 19 11 21 13 23 4 25 22 27 19 29
REMARK Flexibility Score: inf
ROOT
ATOM      1  C   UNL     1     -12.560 -16.542  32.117  1.00  0.00     0.180 A 
ATOM      2  C   UNL     1     -12.906 -16.173  30.806  1.00  0.00     0.208 A 
ATOM      3  C   UNL     1     -12.999 -17.168  29.820  1.00  0.00     0.238 A 
ATOM      4  O   UNL     1     -13.361 -16.839  28.661  1.00  0.00    -0.285 OA
ATOM      5  C   UNL     1     -12.728 -18.517  30.154  1.00  0.00     0.111 A 
ATOM      6  C   UNL     1     -12.751 -19.603  29.227  1.00  0.00     0.134 A 
ATOM      7  C   UNL     1     -12.595 -20.914  29.694  1.00  0.00     0.093 A 
ATOM      8  C   UNL     1     -12.351 -21.173  31.044  1.00  0.00     0.123 A 
ATOM      9  C   UNL     1     -12.266 -20.116  31.947  1.00  0.00     0.094 A 
ATOM     10  C   UNL     1     -12.454 -18.800  31.518  1.00  0.00     0.146 A 
ATOM     11  O   UNL     1     -12.377 -17.823  32.414  1.00  0.00    -0.452 OA
ENDROOT
BRANCH   1  12
ATOM     12  C   UNL     1     -12.420 -15.546  33.205  1.00  0.00     0.029 A 
ATOM     13  C   UNL     1     -11.210 -15.388  33.897  1.00  0.00     0.062 A 
ATOM     14  C   UNL     1     -11.100 -14.460  34.937  1.00  0.00     0.162 A 
ATOM     15  C   UNL     1     -13.531 -14.785  33.592  1.00  0.00     0.062 A 
ATOM     16  C   UNL     1     -12.210 -13.679  35.310  1.00  0.00     0.200 A 
ATOM     17  C   UNL     1     -13.440 -13.851  34.630  1.00  0.00     0.162 A 
BRANCH  14  18
ATOM     18  O   UNL     1      -9.875 -14.331  35.592  1.00  0.00    -0.504 OA
ATOM     19  H   UNL     1      -8.994 -14.313  35.094  1.00  0.00     0.293 HD
ENDBRANCH  14  18
BRANCH  16  20
ATOM     20  O   UNL     1     -12.054 -12.757  36.349  1.00  0.00    -0.502 OA
ATOM     21  H   UNL     1     -12.187 -12.975  37.325  1.00  0.00     0.293 HD
ENDBRANCH  16  20
BRANCH  17  22
ATOM     22  O   UNL     1     -14.587 -13.123  34.949  1.00  0.00    -0.504 OA
ATOM     23  H   UNL     1     -15.263 -13.406  35.645  1.00  0.00     0.293 HD
ENDBRANCH  17  22
ENDBRANCH   1  12
BRANCH   2  24
ATOM     24  O   UNL     1     -13.191 -14.839  30.502  1.00  0.00    -0.502 OA
ATOM     25  H   UNL     1     -14.138 -14.486  30.437  1.00  0.00     0.293 HD
ENDBRANCH   2  24
BRANCH   6  26
ATOM     26  O   UNL     1     -12.896 -19.445  27.845  1.00  0.00    -0.507 OA
ATOM     27  H   UNL     1     -12.638 -18.617  27.331  1.00  0.00     0.293 HD
ENDBRANCH   6  26
BRANCH   8  28
ATOM     28  O   UNL     1     -12.181 -22.479  31.498  1.00  0.00    -0.508 OA
ATOM     29  H   UNL     1     -12.499 -23.274  30.956  1.00  0.00     0.293 HD
ENDBRANCH   8  28
TORSDOF 7
ENDMDL
MODEL 7
REMARK VINA RESULT:    -2.116      1.761      3.444
REMARK INTER + INTRA:          -2.921
REMARK INTER:                  -2.905
REMARK INTRA:                  -0.016
REMARK UNBOUND:                -0.310
REMARK SMILES O=c1c(O)c(-c2cc(O)c(O)c(O)c2)oc2cc(O)cc(O)c12
REMARK SMILES IDX 5 1 3 2 2 3 1 4 23 5 21 6 20 7 18 8 17 9 16 10 15 11 6 12
REMARK SMILES IDX 7 13 8 14 14 15 10 16 12 17 9 18 11 20 13 22 4 24 22 26
REMARK SMILES IDX 19 28
REMARK H PARENT 9 19 11 21 13 23 4 25 22 27 19 29
REMARK Flexibility Score: inf
ROOT
ATOM      1  C   UNL     1     -12.696 -16.125  32.394  1.00  0.00     0.180 A 
ATOM      2  C   UNL     1     -13.112 -15.683  31.126  1.00  0.00     0.208 A 
ATOM      3  C   UNL     1     -13.228 -16.616  30.084  1.00  0.00     0.238 A 
ATOM      4  O   UNL     1     -13.653 -16.223  28.966  1.00  0.00    -0.285 OA
ATOM      5  C   UNL     1     -12.911 -17.975  30.317  1.00  0.00     0.111 A 
ATOM      6  C   UNL     1     -12.953 -19.000  29.323  1.00  0.00     0.134 A 
ATOM      7  C   UNL     1     -12.745 -20.334  29.697  1.00  0.00     0.093 A 
ATOM      8  C   UNL     1     -12.431 -20.671  31.015  1.00  0.00     0.123 A 
ATOM      9  C   UNL     1     -12.328 -19.673  31.980  1.00  0.00     0.094 A 
ATOM     10  C   UNL     1     -12.566 -18.337  31.645  1.00  0.00     0.146 A 
ATOM     11  O   UNL     1     -12.469 -17.417  32.598  1.00  0.00    -0.452 OA
ENDROOT
BRANCH   1  12
ATOM     12  C   UNL     1     -12.527 -15.197  33.536  1.00  0.00     0.029 A 
ATOM     13  C   UNL     1     -13.539 -14.296  33.900  1.00  0.00     0.062 A 
ATOM     14  C   UNL     1     -13.355 -13.411  34.966  1.00  0.00     0.162 A 
ATOM     15  C   UNL     1     -11.311 -15.174  34.232  1.00  0.00     0.062 A 
ATOM     16  C   UNL     1     -12.143 -13.405  35.681  1.00  0.00     0.200 A 
ATOM     17  C   UNL     1     -11.109 -14.295  35.303  1.00  0.00     0.162 A 
BRANCH  14  18
ATOM     18  O   UNL     1     -14.392 -12.538  35.298  1.00  0.00    -0.504 OA
ATOM     19  H   UNL     1     -15.293 -12.568  34.837  1.00  0.00     0.293 HD
ENDBRANCH  14  18
BRANCH  16  20
ATOM     20  O   UNL     1     -12.003 -12.509  36.745  1.00  0.00    -0.502 OA
ATOM     21  H   UNL     1     -11.138 -12.054  36.994  1.00  0.00     0.293 HD
ENDBRANCH  16  20
BRANCH  17  22
ATOM     22  O   UNL     1      -9.875 -14.340  35.954  1.00  0.00    -0.504 OA
ATOM     23  H   UNL     1      -9.345 -13.524  36.222  1.00  0.00     0.293 HD
ENDBRANCH  17  22
ENDBRANCH   1  12
BRANCH   2  24
ATOM     24  O   UNL     1     -13.442 -14.340  30.924  1.00  0.00    -0.502 OA
ATOM     25  H   UNL     1     -14.117 -14.045  30.229  1.00  0.00     0.293 HD
ENDBRANCH   2  24
BRANCH   6  26
ATOM     26  O   UNL     1     -13.167 -18.759  27.963  1.00  0.00    -0.507 OA
ATOM     27  H   UNL     1     -14.066 -18.566  27.548  1.00  0.00     0.293 HD
ENDBRANCH   6  26
BRANCH   8  28
ATOM     28  O   UNL     1     -12.210 -21.999  31.375  1.00  0.00    -0.508 OA
ATOM     29  H   UNL     1     -11.280 -22.401  31.376  1.00  0.00     0.293 HD
ENDBRANCH   8  28
TORSDOF 7
ENDMDL
MODEL 8
REMARK VINA RESULT:    -1.951      1.764      7.222
REMARK INTER + INTRA:          -2.717
REMARK INTER:                  -2.654
REMARK INTRA:                  -0.063
REMARK UNBOUND:                -0.310
REMARK SMILES O=c1c(O)c(-c2cc(O)c(O)c(O)c2)oc2cc(O)cc(O)c12
REMARK SMILES IDX 5 1 3 2 2 3 1 4 23 5 21 6 20 7 18 8 17 9 16 10 15 11 6 12
REMARK SMILES IDX 7 13 8 14 14 15 10 16 12 17 9 18 11 20 13 22 4 24 22 26
REMARK SMILES IDX 19 28
REMARK H PARENT 9 19 11 21 13 23 4 25 22 27 19 29
REMARK Flexibility Score: inf
ROOT
ATOM      1  C   UNL     1     -12.976 -16.255  32.329  1.00  0.00     0.180 A 
ATOM      2  C   UNL     1     -14.080 -15.386  32.297  1.00  0.00     0.208 A 
ATOM      3  C   UNL     1     -14.172 -14.365  33.255  1.00  0.00     0.238 A 
ATOM      4  O   UNL     1     -15.135 -13.557  33.188  1.00  0.00    -0.285 OA
ATOM      5  C   UNL     1     -13.167 -14.235  34.244  1.00  0.00     0.111 A 
ATOM      6  C   UNL     1     -13.179 -13.263  35.289  1.00  0.00     0.134 A 
ATOM      7  C   UNL     1     -12.068 -13.142  36.133  1.00  0.00     0.093 A 
ATOM      8  C   UNL     1     -10.975 -14.003  36.012  1.00  0.00     0.123 A 
ATOM      9  C   UNL     1     -10.980 -14.994  35.034  1.00  0.00     0.094 A 
ATOM     10  C   UNL     1     -12.058 -15.115  34.153  1.00  0.00     0.146 A 
ATOM     11  O   UNL     1     -12.017 -16.067  33.228  1.00  0.00    -0.452 OA
ENDROOT
BRANCH   1  12
ATOM     12  C   UNL     1     -12.822 -17.371  31.367  1.00  0.00     0.029 A 
ATOM     13  C   UNL     1     -12.874 -17.152  29.982  1.00  0.00     0.062 A 
ATOM     14  C   UNL     1     -12.750 -18.218  29.087  1.00  0.00     0.162 A 
ATOM     15  C   UNL     1     -12.681 -18.680  31.845  1.00  0.00     0.062 A 
ATOM     16  C   UNL     1     -12.584 -19.531  29.567  1.00  0.00     0.200 A 
ATOM     17  C   UNL     1     -12.555 -19.761  30.964  1.00  0.00     0.162 A 
BRANCH  14  18
ATOM     18  O   UNL     1     -12.799 -17.953  27.718  1.00  0.00    -0.504 OA
ATOM     19  H   UNL     1     -13.673 -17.825  27.222  1.00  0.00     0.293 HD
ENDBRANCH  14  18
BRANCH  16  20
ATOM     20  O   UNL     1     -12.456 -20.567  28.638  1.00  0.00    -0.502 OA
ATOM     21  H   UNL     1     -11.703 -20.641  27.970  1.00  0.00     0.293 HD
ENDBRANCH  16  20
BRANCH  17  22
ATOM     22  O   UNL     1     -12.406 -21.034  31.517  1.00  0.00    -0.504 OA
ATOM     23  H   UNL     1     -12.550 -21.893  31.007  1.00  0.00     0.293 HD
ENDBRANCH  17  22
ENDBRANCH   1  12
BRANCH   2  24
ATOM     24  O   UNL     1     -15.050 -15.518  31.298  1.00  0.00    -0.502 OA
ATOM     25  H   UNL     1     -15.522 -16.395  31.112  1.00  0.00     0.293 HD
ENDBRANCH   2  24
BRANCH   6  26
ATOM     26  O   UNL     1     -14.259 -12.416  35.555  1.00  0.00    -0.507 OA
ATOM     27  H   UNL     1     -15.089 -12.347  34.986  1.00  0.00     0.293 HD
ENDBRANCH   6  26
BRANCH   8  28
ATOM     28  O   UNL     1      -9.880 -13.886  36.866  1.00  0.00    -0.508 OA
ATOM     29  H   UNL     1      -9.571 -14.661  37.440  1.00  0.00     0.293 HD
ENDBRANCH   8  28
TORSDOF 7
ENDMDL
MODEL 9
REMARK VINA RESULT:    -1.257      2.038      2.927
REMARK INTER + INTRA:          -1.860
REMARK INTER:                  -2.342
REMARK INTRA:                   0.482
REMARK UNBOUND:                -0.310
REMARK SMILES O=c1c(O)c(-c2cc(O)c(O)c(O)c2)oc2cc(O)cc(O)c12
REMARK SMILES IDX 5 1 3 2 2 3 1 4 23 5 21 6 20 7 18 8 17 9 16 10 15 11 6 12
REMARK SMILES IDX 7 13 8 14 14 15 10 16 12 17 9 18 11 20 13 22 4 24 22 26
REMARK SMILES IDX 19 28
REMARK H PARENT 9 19 11 21 13 23 4 25 22 27 19 29
REMARK Flexibility Score: inf
ROOT
ATOM      1  C   UNL     1     -12.498 -15.224  33.133  1.00  0.00     0.180 A 
ATOM      2  C   UNL     1     -13.529 -14.946  32.220  1.00  0.00     0.208 A 
ATOM      3  C   UNL     1     -13.621 -15.705  31.043  1.00  0.00     0.238 A 
ATOM      4  O   UNL     1     -14.578 -15.487  30.256  1.00  0.00    -0.285 OA
ATOM      5  C   UNL     1     -12.671 -16.722  30.786  1.00  0.00     0.111 A 
ATOM      6  C   UNL     1     -12.642 -17.526  29.606  1.00  0.00     0.134 A 
ATOM      7  C   UNL     1     -11.736 -18.589  29.516  1.00  0.00     0.093 A 
ATOM      8  C   UNL     1     -10.813 -18.836  30.535  1.00  0.00     0.123 A 
ATOM      9  C   UNL     1     -10.792 -18.020  31.663  1.00  0.00     0.094 A 
ATOM     10  C   UNL     1     -11.708 -16.974  31.798  1.00  0.00     0.146 A 
ATOM     11  O   UNL     1     -11.661 -16.227  32.895  1.00  0.00    -0.452 OA
ENDROOT
BRANCH   1  12
ATOM     12  C   UNL     1     -12.322 -14.450  34.384  1.00  0.00     0.029 A 
ATOM     13  C   UNL     1     -11.178 -14.603  35.181  1.00  0.00     0.062 A 
ATOM     14  C   UNL     1     -11.037 -13.882  36.371  1.00  0.00     0.162 A 
ATOM     15  C   UNL     1     -13.343 -13.591  34.813  1.00  0.00     0.062 A 
ATOM     16  C   UNL     1     -12.052 -13.001  36.790  1.00  0.00     0.200 A 
ATOM     17  C   UNL     1     -13.219 -12.861  36.001  1.00  0.00     0.162 A 
BRANCH  14  18
ATOM     18  O   UNL     1      -9.879 -14.059  37.128  1.00  0.00    -0.504 OA
ATOM     19  H   UNL     1      -9.890 -14.064  38.141  1.00  0.00     0.293 HD
ENDBRANCH  14  18
BRANCH  16  20
ATOM     20  O   UNL     1     -11.868 -12.294  37.982  1.00  0.00    -0.502 OA
ATOM     21  H   UNL     1     -12.567 -12.207  38.704  1.00  0.00     0.293 HD
ENDBRANCH  16  20
BRANCH  17  22
ATOM     22  O   UNL     1     -14.274 -12.018  36.356  1.00  0.00    -0.504 OA
ATOM     23  H   UNL     1     -14.933 -12.214  37.095  1.00  0.00     0.293 HD
ENDBRANCH  17  22
ENDBRANCH   1  12
BRANCH   2  24
ATOM     24  O   UNL     1     -14.470 -13.952  32.504  1.00  0.00    -0.502 OA
ATOM     25  H   UNL     1     -14.220 -13.077  32.949  1.00  0.00     0.293 HD
ENDBRANCH   2  24
BRANCH   6  26
ATOM     26  O   UNL     1     -13.459 -17.306  28.492  1.00  0.00    -0.507 OA
ATOM     27  H   UNL     1     -13.984 -16.462  28.323  1.00  0.00     0.293 HD
ENDBRANCH   6  26
BRANCH   8  28
ATOM     28  O   UNL     1      -9.904 -19.887  30.431  1.00  0.00    -0.508 OA
ATOM     29  H   UNL     1      -9.231 -20.081  31.163  1.00  0.00     0.293 HD
ENDBRANCH   8  28
TORSDOF 7
ENDMDL
