MODEL 1
REMARK VINA RESULT:    -5.790      0.000      0.000
REMARK INTER + INTRA:          -7.048
REMARK INTER:                  -6.974
REMARK INTRA:                  -0.074
REMARK UNBOUND:                -0.074
REMARK SMILES Oc1cc(O)c2cc(O)c(-c3ccc(O)c(O)c3)[o+]c2c1
REMARK SMILES IDX 10 1 19 2 20 3 21 4 2 5 3 6 4 7 6 8 7 9 8 10 11 11 12 12
REMARK SMILES IDX 13 13 14 14 18 15 16 16 15 17 17 19 9 21 1 23 5 25
REMARK H PARENT 15 18 17 20 9 22 1 24 5 26
REMARK Flexibility Score: inf
ROOT
ATOM      1  C   UNL     1     174.347 169.924 172.881  1.00  0.00     0.402 A 
ATOM      2  O   UNL     1     173.216 170.625 172.894  1.00  0.00    -0.202 OA
ATOM      3  C   UNL     1     172.014 170.068 173.001  1.00  0.00     0.368 A 
ATOM      4  C   UNL     1     170.882 170.889 173.002  1.00  0.00     0.162 A 
ATOM      5  C   UNL     1     169.608 170.332 173.111  1.00  0.00     0.128 A 
ATOM      6  C   UNL     1     169.460 168.945 173.218  1.00  0.00     0.093 A 
ATOM      7  C   UNL     1     170.577 168.102 173.219  1.00  0.00     0.136 A 
ATOM      8  C   UNL     1     171.875 168.665 173.112  1.00  0.00     0.125 A 
ATOM      9  C   UNL     1     173.053 167.897 173.118  1.00  0.00     0.078 A 
ATOM     10  C   UNL     1     174.298 168.524 173.013  1.00  0.00     0.223 A 
ENDROOT
BRANCH   1  11
ATOM     11  C   UNL     1     175.625 170.660 172.746  1.00  0.00     0.087 A 
ATOM     12  C   UNL     1     176.584 170.290 171.790  1.00  0.00     0.022 A 
ATOM     13  C   UNL     1     177.771 171.014 171.667  1.00  0.00     0.051 A 
ATOM     14  C   UNL     1     178.021 172.123 172.482  1.00  0.00     0.157 A 
ATOM     15  C   UNL     1     175.863 171.785 173.551  1.00  0.00     0.068 A 
ATOM     16  C   UNL     1     177.051 172.517 173.434  1.00  0.00     0.158 A 
BRANCH  14  17
ATOM     17  O   UNL     1     179.230 172.801 172.311  1.00  0.00    -0.504 OA
ATOM     18  H   UNL     1     179.748 172.819 171.444  1.00  0.00     0.293 HD
ENDBRANCH  14  17
BRANCH  16  19
ATOM     19  O   UNL     1     177.224 173.618 174.275  1.00  0.00    -0.504 OA
ATOM     20  H   UNL     1     178.125 173.977 174.557  1.00  0.00     0.293 HD
ENDBRANCH  16  19
ENDBRANCH   1  11
BRANCH  10  21
ATOM     21  O   UNL     1     175.468 167.768 173.069  1.00  0.00    -0.500 OA
ATOM     22  H   UNL     1     176.227 168.006 173.698  1.00  0.00     0.294 HD
ENDBRANCH  10  21
BRANCH   5  23
ATOM     23  O   UNL     1     168.492 171.168 173.110  1.00  0.00    -0.507 OA
ATOM     24  H   UNL     1     167.552 170.797 173.021  1.00  0.00     0.293 HD
ENDBRANCH   5  23
BRANCH   7  25
ATOM     25  O   UNL     1     170.346 166.726 173.327  1.00  0.00    -0.507 OA
ATOM     26  H   UNL     1     171.072 166.032 173.424  1.00  0.00     0.293 HD
ENDBRANCH   7  25
TORSDOF 6
ENDMDL
MODEL 2
REMARK VINA RESULT:    -5.700      1.571      2.733
REMARK INTER + INTRA:          -6.941
REMARK INTER:                  -6.605
REMARK INTRA:                  -0.336
REMARK UNBOUND:                -0.074
REMARK SMILES Oc1cc(O)c2cc(O)c(-c3ccc(O)c(O)c3)[o+]c2c1
REMARK SMILES IDX 10 1 19 2 20 3 21 4 2 5 3 6 4 7 6 8 7 9 8 10 11 11 12 12
REMARK SMILES IDX 13 13 14 14 18 15 16 16 15 17 17 19 9 21 1 23 5 25
REMARK H PARENT 15 18 17 20 9 22 1 24 5 26
REMARK Flexibility Score: inf
ROOT
ATOM      1  C   UNL     1     174.413 169.761 172.595  1.00  0.00     0.402 A 
ATOM      2  O   UNL     1     174.314 168.798 173.509  1.00  0.00    -0.202 OA
ATOM      3  C   UNL     1     173.237 168.032 173.647  1.00  0.00     0.368 A 
ATOM      4  C   UNL     1     173.226 167.048 174.640  1.00  0.00     0.162 A 
ATOM      5  C   UNL     1     172.108 166.231 174.810  1.00  0.00     0.128 A 
ATOM      6  C   UNL     1     170.991 166.398 173.984  1.00  0.00     0.093 A 
ATOM      7  C   UNL     1     170.977 167.377 172.983  1.00  0.00     0.136 A 
ATOM      8  C   UNL     1     172.113 168.207 172.806  1.00  0.00     0.125 A 
ATOM      9  C   UNL     1     172.194 169.206 171.819  1.00  0.00     0.078 A 
ATOM     10  C   UNL     1     173.349 169.982 171.701  1.00  0.00     0.223 A 
ENDROOT
BRANCH   1  11
ATOM     11  C   UNL     1     175.663 170.554 172.547  1.00  0.00     0.087 A 
ATOM     12  C   UNL     1     176.699 170.233 171.656  1.00  0.00     0.022 A 
ATOM     13  C   UNL     1     177.858 171.010 171.613  1.00  0.00     0.051 A 
ATOM     14  C   UNL     1     178.002 172.125 172.444  1.00  0.00     0.157 A 
ATOM     15  C   UNL     1     175.795 171.685 173.367  1.00  0.00     0.068 A 
ATOM     16  C   UNL     1     176.955 172.471 173.330  1.00  0.00     0.158 A 
BRANCH  14  17
ATOM     17  O   UNL     1     179.188 172.857 172.355  1.00  0.00    -0.504 OA
ATOM     18  H   UNL     1     179.815 172.822 171.564  1.00  0.00     0.293 HD
ENDBRANCH  14  17
BRANCH  16  19
ATOM     19  O   UNL     1     177.021 173.574 174.183  1.00  0.00    -0.504 OA
ATOM     20  H   UNL     1     177.023 173.509 175.191  1.00  0.00     0.293 HD
ENDBRANCH  16  19
ENDBRANCH   1  11
BRANCH  10  21
ATOM     21  O   UNL     1     173.450 170.938 170.691  1.00  0.00    -0.500 OA
ATOM     22  H   UNL     1     174.344 171.199 170.291  1.00  0.00     0.294 HD
ENDBRANCH  10  21
BRANCH   5  23
ATOM     23  O   UNL     1     172.116 165.256 175.805  1.00  0.00    -0.507 OA
ATOM     24  H   UNL     1     171.403 164.536 175.848  1.00  0.00     0.293 HD
ENDBRANCH   5  23
BRANCH   7  25
ATOM     25  O   UNL     1     169.822 167.482 172.202  1.00  0.00    -0.507 OA
ATOM     26  H   UNL     1     169.730 167.114 171.267  1.00  0.00     0.293 HD
ENDBRANCH   7  25
TORSDOF 6
ENDMDL
MODEL 3
REMARK VINA RESULT:    -5.697      3.886      6.155
REMARK INTER + INTRA:          -6.937
REMARK INTER:                  -6.753
REMARK INTRA:                  -0.184
REMARK UNBOUND:                -0.074
REMARK SMILES Oc1cc(O)c2cc(O)c(-c3ccc(O)c(O)c3)[o+]c2c1
REMARK SMILES IDX 10 1 19 2 20 3 21 4 2 5 3 6 4 7 6 8 7 9 8 10 11 11 12 12
REMARK SMILES IDX 13 13 14 14 18 15 16 16 15 17 17 19 9 21 1 23 5 25
REMARK H PARENT 15 18 17 20 9 22 1 24 5 26
REMARK Flexibility Score: inf
ROOT
ATOM      1  C   UNL     1     176.171 169.058 170.468  1.00  0.00     0.402 A 
ATOM      2  O   UNL     1     176.970 167.995 170.513  1.00  0.00    -0.202 OA
ATOM      3  C   UNL     1     176.823 166.938 169.720  1.00  0.00     0.368 A 
ATOM      4  C   UNL     1     177.712 165.867 169.844  1.00  0.00     0.162 A 
ATOM      5  C   UNL     1     177.581 164.744 169.027  1.00  0.00     0.128 A 
ATOM      6  C   UNL     1     176.554 164.689 168.078  1.00  0.00     0.093 A 
ATOM      7  C   UNL     1     175.651 165.749 167.934  1.00  0.00     0.136 A 
ATOM      8  C   UNL     1     175.783 166.893 168.761  1.00  0.00     0.125 A 
ATOM      9  C   UNL     1     174.932 168.009 168.678  1.00  0.00     0.078 A 
ATOM     10  C   UNL     1     175.128 169.104 169.524  1.00  0.00     0.223 A 
ENDROOT
BRANCH   1  11
ATOM     11  C   UNL     1     176.431 170.169 171.412  1.00  0.00     0.087 A 
ATOM     12  C   UNL     1     175.464 170.578 172.344  1.00  0.00     0.022 A 
ATOM     13  C   UNL     1     175.741 171.612 173.239  1.00  0.00     0.051 A 
ATOM     14  C   UNL     1     176.987 172.250 173.232  1.00  0.00     0.157 A 
ATOM     15  C   UNL     1     177.688 170.792 171.416  1.00  0.00     0.068 A 
ATOM     16  C   UNL     1     177.976 171.831 172.311  1.00  0.00     0.158 A 
BRANCH  14  17
ATOM     17  O   UNL     1     177.198 173.281 174.150  1.00  0.00    -0.504 OA
ATOM     18  H   UNL     1     177.890 173.249 174.885  1.00  0.00     0.293 HD
ENDBRANCH  14  17
BRANCH  16  19
ATOM     19  O   UNL     1     179.243 172.412 172.250  1.00  0.00    -0.504 OA
ATOM     20  H   UNL     1     179.997 172.063 171.675  1.00  0.00     0.293 HD
ENDBRANCH  16  19
ENDBRANCH   1  11
BRANCH  10  21
ATOM     21  O   UNL     1     174.316 170.232 169.408  1.00  0.00    -0.500 OA
ATOM     22  H   UNL     1     173.729 170.384 168.596  1.00  0.00     0.294 HD
ENDBRANCH  10  21
BRANCH   5  23
ATOM     23  O   UNL     1     178.476 163.685 169.167  1.00  0.00    -0.507 OA
ATOM     24  H   UNL     1     178.158 162.724 169.216  1.00  0.00     0.293 HD
ENDBRANCH   5  23
BRANCH   7  25
ATOM     25  O   UNL     1     174.651 165.616 166.965  1.00  0.00    -0.507 OA
ATOM     26  H   UNL     1     173.993 166.341 166.722  1.00  0.00     0.293 HD
ENDBRANCH   7  25
TORSDOF 6
ENDMDL
MODEL 4
REMARK VINA RESULT:    -5.654      3.869      4.479
REMARK INTER + INTRA:          -6.885
REMARK INTER:                  -6.656
REMARK INTRA:                  -0.229
REMARK UNBOUND:                -0.074
REMARK SMILES Oc1cc(O)c2cc(O)c(-c3ccc(O)c(O)c3)[o+]c2c1
REMARK SMILES IDX 10 1 19 2 20 3 21 4 2 5 3 6 4 7 6 8 7 9 8 10 11 11 12 12
REMARK SMILES IDX 13 13 14 14 18 15 16 16 15 17 17 19 9 21 1 23 5 25
REMARK H PARENT 15 18 17 20 9 22 1 24 5 26
REMARK Flexibility Score: inf
ROOT
ATOM      1  C   UNL     1     174.510 170.612 170.733  1.00  0.00     0.402 A 
ATOM      2  O   UNL     1     174.710 170.581 169.417  1.00  0.00    -0.202 OA
ATOM      3  C   UNL     1     173.773 170.220 168.545  1.00  0.00     0.368 A 
ATOM      4  C   UNL     1     174.080 170.216 167.182  1.00  0.00     0.162 A 
ATOM      5  C   UNL     1     173.118 169.839 166.244  1.00  0.00     0.128 A 
ATOM      6  C   UNL     1     171.839 169.463 166.670  1.00  0.00     0.093 A 
ATOM      7  C   UNL     1     171.507 169.459 168.030  1.00  0.00     0.136 A 
ATOM      8  C   UNL     1     172.482 169.844 168.986  1.00  0.00     0.125 A 
ATOM      9  C   UNL     1     172.235 169.882 170.370  1.00  0.00     0.078 A 
ATOM     10  C   UNL     1     173.245 170.278 171.251  1.00  0.00     0.223 A 
ENDROOT
BRANCH   1  11
ATOM     11  C   UNL     1     175.636 171.022 171.602  1.00  0.00     0.087 A 
ATOM     12  C   UNL     1     176.207 170.133 172.526  1.00  0.00     0.022 A 
ATOM     13  C   UNL     1     177.284 170.535 173.318  1.00  0.00     0.051 A 
ATOM     14  C   UNL     1     177.818 171.823 173.198  1.00  0.00     0.157 A 
ATOM     15  C   UNL     1     176.184 172.306 171.464  1.00  0.00     0.068 A 
ATOM     16  C   UNL     1     177.264 172.719 172.255  1.00  0.00     0.158 A 
BRANCH  14  17
ATOM     17  O   UNL     1     178.892 172.163 174.024  1.00  0.00    -0.504 OA
ATOM     18  H   UNL     1     178.947 173.023 174.551  1.00  0.00     0.293 HD
ENDBRANCH  14  17
BRANCH  16  19
ATOM     19  O   UNL     1     177.749 174.015 172.070  1.00  0.00    -0.504 OA
ATOM     20  H   UNL     1     177.884 174.679 172.819  1.00  0.00     0.293 HD
ENDBRANCH  16  19
ENDBRANCH   1  11
BRANCH  10  21
ATOM     21  O   UNL     1     172.985 170.365 172.619  1.00  0.00    -0.500 OA
ATOM     22  H   UNL     1     172.268 169.802 173.061  1.00  0.00     0.294 HD
ENDBRANCH  10  21
BRANCH   5  23
ATOM     23  O   UNL     1     173.443 169.841 164.889  1.00  0.00    -0.507 OA
ATOM     24  H   UNL     1     173.475 168.982 164.351  1.00  0.00     0.293 HD
ENDBRANCH   5  23
BRANCH   7  25
ATOM     25  O   UNL     1     170.210 169.068 168.375  1.00  0.00    -0.507 OA
ATOM     26  H   UNL     1     169.790 169.221 169.280  1.00  0.00     0.293 HD
ENDBRANCH   7  25
TORSDOF 6
ENDMDL
MODEL 5
REMARK VINA RESULT:    -5.601      3.733      4.804
REMARK INTER + INTRA:          -6.821
REMARK INTER:                  -6.489
REMARK INTRA:                  -0.332
REMARK UNBOUND:                -0.074
REMARK SMILES Oc1cc(O)c2cc(O)c(-c3ccc(O)c(O)c3)[o+]c2c1
REMARK SMILES IDX 10 1 19 2 20 3 21 4 2 5 3 6 4 7 6 8 7 9 8 10 11 11 12 12
REMARK SMILES IDX 13 13 14 14 18 15 16 16 15 17 17 19 9 21 1 23 5 25
REMARK H PARENT 15 18 17 20 9 22 1 24 5 26
REMARK Flexibility Score: inf
ROOT
ATOM      1  C   UNL     1     175.834 169.435 170.952  1.00  0.00     0.402 A 
ATOM      2  O   UNL     1     175.384 169.744 169.738  1.00  0.00    -0.202 OA
ATOM      3  C   UNL     1     174.952 168.837 168.868  1.00  0.00     0.368 A 
ATOM      4  C   UNL     1     174.502 169.260 167.614  1.00  0.00     0.162 A 
ATOM      5  C   UNL     1     174.045 168.330 166.679  1.00  0.00     0.128 A 
ATOM      6  C   UNL     1     174.038 166.968 166.998  1.00  0.00     0.093 A 
ATOM      7  C   UNL     1     174.484 166.519 168.246  1.00  0.00     0.136 A 
ATOM      8  C   UNL     1     174.947 167.462 169.200  1.00  0.00     0.125 A 
ATOM      9  C   UNL     1     175.401 167.105 170.482  1.00  0.00     0.078 A 
ATOM     10  C   UNL     1     175.837 168.092 171.371  1.00  0.00     0.223 A 
ENDROOT
BRANCH   1  11
ATOM     11  C   UNL     1     176.299 170.536 171.828  1.00  0.00     0.087 A 
ATOM     12  C   UNL     1     175.460 171.098 172.803  1.00  0.00     0.022 A 
ATOM     13  C   UNL     1     175.929 172.118 173.632  1.00  0.00     0.051 A 
ATOM     14  C   UNL     1     177.241 172.589 173.514  1.00  0.00     0.157 A 
ATOM     15  C   UNL     1     177.622 170.991 171.721  1.00  0.00     0.068 A 
ATOM     16  C   UNL     1     178.101 172.014 172.549  1.00  0.00     0.158 A 
BRANCH  14  17
ATOM     17  O   UNL     1     177.646 173.616 174.371  1.00  0.00    -0.504 OA
ATOM     18  H   UNL     1     177.700 173.524 175.375  1.00  0.00     0.293 HD
ENDBRANCH  14  17
BRANCH  16  19
ATOM     19  O   UNL     1     179.425 172.424 172.379  1.00  0.00    -0.504 OA
ATOM     20  H   UNL     1     180.192 171.794 172.192  1.00  0.00     0.293 HD
ENDBRANCH  16  19
ENDBRANCH   1  11
BRANCH  10  21
ATOM     21  O   UNL     1     176.240 167.744 172.660  1.00  0.00    -0.500 OA
ATOM     22  H   UNL     1     176.044 166.829 173.050  1.00  0.00     0.294 HD
ENDBRANCH  10  21
BRANCH   5  23
ATOM     23  O   UNL     1     173.600 168.771 165.434  1.00  0.00    -0.507 OA
ATOM     24  H   UNL     1     173.291 169.725 165.289  1.00  0.00     0.293 HD
ENDBRANCH   5  23
BRANCH   7  25
ATOM     25  O   UNL     1     174.448 165.142 168.487  1.00  0.00    -0.507 OA
ATOM     26  H   UNL     1     175.153 164.634 169.001  1.00  0.00     0.293 HD
ENDBRANCH   7  25
TORSDOF 6
ENDMDL
MODEL 6
REMARK VINA RESULT:    -5.587      3.619      4.144
REMARK INTER + INTRA:          -6.805
REMARK INTER:                  -6.639
REMARK INTRA:                  -0.165
REMARK UNBOUND:                -0.074
REMARK SMILES Oc1cc(O)c2cc(O)c(-c3ccc(O)c(O)c3)[o+]c2c1
REMARK SMILES IDX 10 1 19 2 20 3 21 4 2 5 3 6 4 7 6 8 7 9 8 10 11 11 12 12
REMARK SMILES IDX 13 13 14 14 18 15 16 16 15 17 17 19 9 21 1 23 5 25
REMARK H PARENT 15 18 17 20 9 22 1 24 5 26
REMARK Flexibility Score: inf
ROOT
ATOM      1  C   UNL     1     175.868 168.626 172.479  1.00  0.00     0.402 A 
ATOM      2  O   UNL     1     175.420 168.099 173.616  1.00  0.00    -0.202 OA
ATOM      3  C   UNL     1     174.945 166.862 173.709  1.00  0.00     0.368 A 
ATOM      4  C   UNL     1     174.494 166.398 174.949  1.00  0.00     0.162 A 
ATOM      5  C   UNL     1     173.988 165.105 175.076  1.00  0.00     0.128 A 
ATOM      6  C   UNL     1     173.930 164.266 173.957  1.00  0.00     0.093 A 
ATOM      7  C   UNL     1     174.375 164.706 172.705  1.00  0.00     0.136 A 
ATOM      8  C   UNL     1     174.893 166.020 172.573  1.00  0.00     0.125 A 
ATOM      9  C   UNL     1     175.374 166.542 171.360  1.00  0.00     0.078 A 
ATOM     10  C   UNL     1     175.875 167.846 171.308  1.00  0.00     0.223 A 
ENDROOT
BRANCH   1  11
ATOM     11  C   UNL     1     176.363 170.022 172.501  1.00  0.00     0.087 A 
ATOM     12  C   UNL     1     175.799 171.011 171.680  1.00  0.00     0.022 A 
ATOM     13  C   UNL     1     176.268 172.324 171.736  1.00  0.00     0.051 A 
ATOM     14  C   UNL     1     177.295 172.680 172.617  1.00  0.00     0.157 A 
ATOM     15  C   UNL     1     177.378 170.380 173.401  1.00  0.00     0.068 A 
ATOM     16  C   UNL     1     177.855 171.696 173.464  1.00  0.00     0.158 A 
BRANCH  14  17
ATOM     17  O   UNL     1     177.721 174.010 172.619  1.00  0.00    -0.504 OA
ATOM     18  H   UNL     1     178.463 174.364 173.207  1.00  0.00     0.293 HD
ENDBRANCH  14  17
BRANCH  16  19
ATOM     19  O   UNL     1     178.875 171.976 174.375  1.00  0.00    -0.504 OA
ATOM     20  H   UNL     1     179.482 171.276 174.777  1.00  0.00     0.293 HD
ENDBRANCH  16  19
ENDBRANCH   1  11
BRANCH  10  21
ATOM     21  O   UNL     1     176.399 168.347 170.116  1.00  0.00    -0.500 OA
ATOM     22  H   UNL     1     177.168 167.892 169.639  1.00  0.00     0.294 HD
ENDBRANCH  10  21
BRANCH   5  23
ATOM     23  O   UNL     1     173.542 164.661 176.320  1.00  0.00    -0.507 OA
ATOM     24  H   UNL     1     172.651 164.190 176.427  1.00  0.00     0.293 HD
ENDBRANCH   5  23
BRANCH   7  25
ATOM     25  O   UNL     1     174.282 163.809 171.636  1.00  0.00    -0.507 OA
ATOM     26  H   UNL     1     175.062 163.300 171.250  1.00  0.00     0.293 HD
ENDBRANCH   7  25
TORSDOF 6
ENDMDL
MODEL 7
REMARK VINA RESULT:    -5.568      2.542      2.638
REMARK INTER + INTRA:          -6.781
REMARK INTER:                  -6.450
REMARK INTRA:                  -0.331
REMARK UNBOUND:                -0.074
REMARK SMILES Oc1cc(O)c2cc(O)c(-c3ccc(O)c(O)c3)[o+]c2c1
REMARK SMILES IDX 10 1 19 2 20 3 21 4 2 5 3 6 4 7 6 8 7 9 8 10 11 11 12 12
REMARK SMILES IDX 13 13 14 14 18 15 16 16 15 17 17 19 9 21 1 23 5 25
REMARK H PARENT 15 18 17 20 9 22 1 24 5 26
REMARK Flexibility Score: inf
ROOT
ATOM      1  C   UNL     1     174.579 170.365 171.173  1.00  0.00     0.402 A 
ATOM      2  O   UNL     1     173.363 170.662 171.625  1.00  0.00    -0.202 OA
ATOM      3  C   UNL     1     172.245 170.229 171.051  1.00  0.00     0.368 A 
ATOM      4  C   UNL     1     171.013 170.597 171.597  1.00  0.00     0.162 A 
ATOM      5  C   UNL     1     169.824 170.159 171.014  1.00  0.00     0.128 A 
ATOM      6  C   UNL     1     169.864 169.346 169.876  1.00  0.00     0.093 A 
ATOM      7  C   UNL     1     171.085 168.964 169.309  1.00  0.00     0.136 A 
ATOM      8  C   UNL     1     172.297 169.405 169.901  1.00  0.00     0.125 A 
ATOM      9  C   UNL     1     173.567 169.060 169.409  1.00  0.00     0.078 A 
ATOM     10  C   UNL     1     174.718 169.529 170.049  1.00  0.00     0.223 A 
ENDROOT
BRANCH   1  11
ATOM     11  C   UNL     1     175.748 170.918 171.894  1.00  0.00     0.087 A 
ATOM     12  C   UNL     1     176.443 170.161 172.851  1.00  0.00     0.022 A 
ATOM     13  C   UNL     1     177.556 170.697 173.500  1.00  0.00     0.051 A 
ATOM     14  C   UNL     1     178.005 171.988 173.202  1.00  0.00     0.157 A 
ATOM     15  C   UNL     1     176.209 172.205 171.578  1.00  0.00     0.068 A 
ATOM     16  C   UNL     1     177.326 172.751 172.224  1.00  0.00     0.158 A 
BRANCH  14  17
ATOM     17  O   UNL     1     179.122 172.466 173.892  1.00  0.00    -0.504 OA
ATOM     18  H   UNL     1     179.688 173.242 173.580  1.00  0.00     0.293 HD
ENDBRANCH  14  17
BRANCH  16  19
ATOM     19  O   UNL     1     177.720 174.042 171.867  1.00  0.00    -0.504 OA
ATOM     20  H   UNL     1     178.211 174.673 172.483  1.00  0.00     0.293 HD
ENDBRANCH  16  19
ENDBRANCH   1  11
BRANCH  10  21
ATOM     21  O   UNL     1     175.978 169.147 169.592  1.00  0.00    -0.500 OA
ATOM     22  H   UNL     1     176.136 168.245 169.158  1.00  0.00     0.294 HD
ENDBRANCH  10  21
BRANCH   5  23
ATOM     23  O   UNL     1     168.605 170.538 171.574  1.00  0.00    -0.507 OA
ATOM     24  H   UNL     1     168.042 171.277 171.168  1.00  0.00     0.293 HD
ENDBRANCH   5  23
BRANCH   7  25
ATOM     25  O   UNL     1     171.041 168.153 168.170  1.00  0.00    -0.507 OA
ATOM     26  H   UNL     1     171.229 168.476 167.233  1.00  0.00     0.293 HD
ENDBRANCH   7  25
TORSDOF 6
ENDMDL
MODEL 8
REMARK VINA RESULT:    -5.524      2.900      4.880
REMARK INTER + INTRA:          -6.729
REMARK INTER:                  -6.390
REMARK INTRA:                  -0.339
REMARK UNBOUND:                -0.074
REMARK SMILES Oc1cc(O)c2cc(O)c(-c3ccc(O)c(O)c3)[o+]c2c1
REMARK SMILES IDX 10 1 19 2 20 3 21 4 2 5 3 6 4 7 6 8 7 9 8 10 11 11 12 12
REMARK SMILES IDX 13 13 14 14 18 15 16 16 15 17 17 19 9 21 1 23 5 25
REMARK H PARENT 15 18 17 20 9 22 1 24 5 26
REMARK Flexibility Score: inf
ROOT
ATOM      1  C   UNL     1     175.635 168.683 172.274  1.00  0.00     0.402 A 
ATOM      2  O   UNL     1     176.294 167.765 171.570  1.00  0.00    -0.202 OA
ATOM      3  C   UNL     1     175.900 166.499 171.474  1.00  0.00     0.368 A 
ATOM      4  C   UNL     1     176.660 165.607 170.713  1.00  0.00     0.162 A 
ATOM      5  C   UNL     1     176.273 164.272 170.596  1.00  0.00     0.128 A 
ATOM      6  C   UNL     1     175.117 163.823 171.243  1.00  0.00     0.093 A 
ATOM      7  C   UNL     1     174.338 164.696 172.011  1.00  0.00     0.136 A 
ATOM      8  C   UNL     1     174.728 166.055 172.131  1.00  0.00     0.125 A 
ATOM      9  C   UNL     1     174.001 167.006 172.868  1.00  0.00     0.078 A 
ATOM     10  C   UNL     1     174.444 168.329 172.936  1.00  0.00     0.223 A 
ENDROOT
BRANCH   1  11
ATOM     11  C   UNL     1     176.181 170.059 172.313  1.00  0.00     0.087 A 
ATOM     12  C   UNL     1     175.722 171.054 171.435  1.00  0.00     0.022 A 
ATOM     13  C   UNL     1     176.235 172.350 171.508  1.00  0.00     0.051 A 
ATOM     14  C   UNL     1     177.204 172.683 172.461  1.00  0.00     0.157 A 
ATOM     15  C   UNL     1     177.136 170.396 173.285  1.00  0.00     0.068 A 
ATOM     16  C   UNL     1     177.657 171.694 173.365  1.00  0.00     0.158 A 
BRANCH  14  17
ATOM     17  O   UNL     1     177.680 173.996 172.477  1.00  0.00    -0.504 OA
ATOM     18  H   UNL     1     178.605 174.264 172.175  1.00  0.00     0.293 HD
ENDBRANCH  14  17
BRANCH  16  19
ATOM     19  O   UNL     1     178.613 171.952 174.349  1.00  0.00    -0.504 OA
ATOM     20  H   UNL     1     179.603 172.041 174.165  1.00  0.00     0.293 HD
ENDBRANCH  16  19
ENDBRANCH   1  11
BRANCH  10  21
ATOM     21  O   UNL     1     173.697 169.284 173.626  1.00  0.00    -0.500 OA
ATOM     22  H   UNL     1     173.408 169.140 174.587  1.00  0.00     0.294 HD
ENDBRANCH  10  21
BRANCH   5  23
ATOM     23  O   UNL     1     177.045 163.398 169.833  1.00  0.00    -0.507 OA
ATOM     24  H   UNL     1     177.562 163.718 169.022  1.00  0.00     0.293 HD
ENDBRANCH   5  23
BRANCH   7  25
ATOM     25  O   UNL     1     173.199 164.170 172.629  1.00  0.00    -0.507 OA
ATOM     26  H   UNL     1     172.353 164.691 172.805  1.00  0.00     0.293 HD
ENDBRANCH   7  25
TORSDOF 6
ENDMDL
MODEL 9
REMARK VINA RESULT:    -5.509      1.395      6.866
REMARK INTER + INTRA:          -6.711
REMARK INTER:                  -6.379
REMARK INTRA:                  -0.332
REMARK UNBOUND:                -0.074
REMARK SMILES Oc1cc(O)c2cc(O)c(-c3ccc(O)c(O)c3)[o+]c2c1
REMARK SMILES IDX 10 1 19 2 20 3 21 4 2 5 3 6 4 7 6 8 7 9 8 10 11 11 12 12
REMARK SMILES IDX 13 13 14 14 18 15 16 16 15 17 17 19 9 21 1 23 5 25
REMARK H PARENT 15 18 17 20 9 22 1 24 5 26
REMARK Flexibility Score: inf
ROOT
ATOM      1  C   UNL     1     173.988 169.811 172.084  1.00  0.00     0.402 A 
ATOM      2  O   UNL     1     174.513 170.750 172.868  1.00  0.00    -0.202 OA
ATOM      3  C   UNL     1     175.768 171.171 172.761  1.00  0.00     0.368 A 
ATOM      4  C   UNL     1     176.230 172.161 173.633  1.00  0.00     0.162 A 
ATOM      5  C   UNL     1     177.544 172.621 173.546  1.00  0.00     0.128 A 
ATOM      6  C   UNL     1     178.405 172.089 172.580  1.00  0.00     0.093 A 
ATOM      7  C   UNL     1     177.968 171.097 171.695  1.00  0.00     0.136 A 
ATOM      8  C   UNL     1     176.631 170.629 171.780  1.00  0.00     0.125 A 
ATOM      9  C   UNL     1     176.102 169.646 170.925  1.00  0.00     0.078 A 
ATOM     10  C   UNL     1     174.772 169.239 171.065  1.00  0.00     0.223 A 
ENDROOT
BRANCH   1  11
ATOM     11  C   UNL     1     172.578 169.418 172.309  1.00  0.00     0.087 A 
ATOM     12  C   UNL     1     172.247 168.238 172.995  1.00  0.00     0.022 A 
ATOM     13  C   UNL     1     170.911 167.902 173.215  1.00  0.00     0.051 A 
ATOM     14  C   UNL     1     169.881 168.737 172.769  1.00  0.00     0.157 A 
ATOM     15  C   UNL     1     171.547 170.269 171.880  1.00  0.00     0.068 A 
ATOM     16  C   UNL     1     170.203 169.939 172.097  1.00  0.00     0.158 A 
BRANCH  14  17
ATOM     17  O   UNL     1     168.565 168.340 173.017  1.00  0.00    -0.504 OA
ATOM     18  H   UNL     1     168.311 167.449 173.420  1.00  0.00     0.293 HD
ENDBRANCH  14  17
BRANCH  16  19
ATOM     19  O   UNL     1     169.231 170.827 171.632  1.00  0.00    -0.504 OA
ATOM     20  H   UNL     1     169.439 171.687 171.143  1.00  0.00     0.293 HD
ENDBRANCH  16  19
ENDBRANCH   1  11
BRANCH  10  21
ATOM     21  O   UNL     1     174.232 168.300 170.186  1.00  0.00    -0.500 OA
ATOM     22  H   UNL     1     174.326 168.396 169.182  1.00  0.00     0.294 HD
ENDBRANCH  10  21
BRANCH   5  23
ATOM     23  O   UNL     1     177.985 173.608 174.425  1.00  0.00    -0.507 OA
ATOM     24  H   UNL     1     177.516 173.781 175.307  1.00  0.00     0.293 HD
ENDBRANCH   5  23
BRANCH   7  25
ATOM     25  O   UNL     1     178.890 170.615 170.761  1.00  0.00    -0.507 OA
ATOM     26  H   UNL     1     179.547 169.869 170.940  1.00  0.00     0.293 HD
ENDBRANCH   7  25
TORSDOF 6
ENDMDL
