MODEL 1
REMARK VINA RESULT:    -4.948      0.000      0.000
REMARK INTER + INTRA:          -8.002
REMARK INTER:                  -7.551
REMARK INTRA:                  -0.451
REMARK UNBOUND:                -0.451
REMARK SMILES CCCCCCCCCC=CC(=O)[O-]
REMARK SMILES IDX 7 1 8 2 9 3 10 4 11 5 12 6 13 7 14 8 6 9 5 10 4 11 3 12 2 13
REMARK SMILES IDX 1 14
REMARK H PARENT
REMARK Flexibility Score: inf
ROOT
ATOM      1  C   UNL     1      12.465  -3.067   6.859  1.00  0.00     0.000 C 
ENDROOT
BRANCH   1   2
ATOM      2  C   UNL     1      13.091  -1.725   7.255  1.00  0.00     0.004 C 
BRANCH   2   3
ATOM      3  C   UNL     1      14.189  -1.920   8.307  1.00  0.00     0.027 C 
BRANCH   3   4
ATOM      4  C   UNL     1      14.979  -3.169   8.047  1.00  0.00    -0.025 C 
ATOM      5  C   UNL     1      16.315  -3.181   8.129  1.00  0.00     0.020 C 
BRANCH   5   6
ATOM      6  C   UNL     1      17.109  -4.396   7.892  1.00  0.00     0.064 C 
ATOM      7  O   UNL     1      16.946  -5.430   8.594  1.00  0.00    -0.545 OA
ATOM      8  O   UNL     1      18.055  -4.406   6.875  1.00  0.00    -0.545 OA
ENDBRANCH   5   6
ENDBRANCH   3   4
ENDBRANCH   2   3
ENDBRANCH   1   2
BRANCH   1   9
ATOM      9  C   UNL     1      11.105  -3.263   7.542  1.00  0.00     0.000 C 
BRANCH   9  10
ATOM     10  C   UNL     1      10.698  -2.012   8.329  1.00  0.00     0.000 C 
BRANCH  10  11
ATOM     11  C   UNL     1       9.254  -2.129   8.839  1.00  0.00    -0.000 C 
BRANCH  11  12
ATOM     12  C   UNL     1       9.122  -3.063  10.056  1.00  0.00    -0.000 C 
BRANCH  12  13
ATOM     13  C   UNL     1       7.699  -3.594  10.311  1.00  0.00    -0.003 C 
ATOM     14  C   UNL     1       6.680  -2.481  10.552  1.00  0.00     0.004 C 
ENDBRANCH  12  13
ENDBRANCH  11  12
ENDBRANCH  10  11
ENDBRANCH   9  10
ENDBRANCH   1   9
TORSDOF 9
ENDMDL
MODEL 2
REMARK VINA RESULT:    -4.922      9.000     11.774
REMARK INTER + INTRA:          -7.962
REMARK INTER:                  -7.257
REMARK INTRA:                  -0.705
REMARK UNBOUND:                -0.451
REMARK SMILES CCCCCCCCCC=CC(=O)[O-]
REMARK SMILES IDX 7 1 8 2 9 3 10 4 11 5 12 6 13 7 14 8 6 9 5 10 4 11 3 12 2 13
REMARK SMILES IDX 1 14
REMARK H PARENT
REMARK Flexibility Score: inf
ROOT
ATOM      1  C   UNL     1       8.453  -0.135  18.070  1.00  0.00     0.000 C 
ENDROOT
BRANCH   1   2
ATOM      2  C   UNL     1       6.957  -0.172  18.396  1.00  0.00     0.004 C 
BRANCH   2   3
ATOM      3  C   UNL     1       6.228   1.028  17.778  1.00  0.00     0.027 C 
BRANCH   3   4
ATOM      4  C   UNL     1       5.225   0.587  16.752  1.00  0.00    -0.025 C 
ATOM      5  C   UNL     1       5.562  -0.237  15.753  1.00  0.00     0.020 C 
BRANCH   5   6
ATOM      6  C   UNL     1       4.593  -0.692  14.745  1.00  0.00     0.064 C 
ATOM      7  O   UNL     1       3.370  -0.403  14.838  1.00  0.00    -0.545 OA
ATOM      8  O   UNL     1       5.032  -1.453  13.670  1.00  0.00    -0.545 OA
ENDBRANCH   5   6
ENDBRANCH   3   4
ENDBRANCH   2   3
ENDBRANCH   1   2
BRANCH   1   9
ATOM      9  C   UNL     1       9.044  -1.550  18.027  1.00  0.00     0.000 C 
BRANCH   9  10
ATOM     10  C   UNL     1       8.708  -2.247  16.703  1.00  0.00     0.000 C 
BRANCH  10  11
ATOM     11  C   UNL     1       8.610  -3.767  16.892  1.00  0.00    -0.000 C 
BRANCH  11  12
ATOM     12  C   UNL     1       9.954  -4.487  16.675  1.00  0.00    -0.000 C 
BRANCH  12  13
ATOM     13  C   UNL     1      10.858  -3.857  15.600  1.00  0.00    -0.003 C 
ATOM     14  C   UNL     1      12.347  -4.071  15.871  1.00  0.00     0.004 C 
ENDBRANCH  12  13
ENDBRANCH  11  12
ENDBRANCH  10  11
ENDBRANCH   9  10
ENDBRANCH   1   9
TORSDOF 9
ENDMDL
MODEL 3
REMARK VINA RESULT:    -4.878     18.918     20.232
REMARK INTER + INTRA:          -7.895
REMARK INTER:                  -6.252
REMARK INTRA:                  -1.643
REMARK UNBOUND:                -0.451
REMARK SMILES CCCCCCCCCC=CC(=O)[O-]
REMARK SMILES IDX 7 1 8 2 9 3 10 4 11 5 12 6 13 7 14 8 6 9 5 10 4 11 3 12 2 13
REMARK SMILES IDX 1 14
REMARK H PARENT
REMARK Flexibility Score: inf
ROOT
ATOM      1  C   UNL     1      18.701   8.241  24.414  1.00  0.00     0.000 C 
ENDROOT
BRANCH   1   2
ATOM      2  C   UNL     1      18.140   6.895  23.943  1.00  0.00     0.004 C 
BRANCH   2   3
ATOM      3  C   UNL     1      18.359   6.704  22.437  1.00  0.00     0.027 C 
BRANCH   3   4
ATOM      4  C   UNL     1      19.209   7.802  21.865  1.00  0.00    -0.025 C 
ATOM      5  C   UNL     1      20.385   7.543  21.282  1.00  0.00     0.020 C 
BRANCH   5   6
ATOM      6  C   UNL     1      21.228   8.600  20.704  1.00  0.00     0.064 C 
ATOM      7  O   UNL     1      20.865   9.236  19.679  1.00  0.00    -0.545 OA
ATOM      8  O   UNL     1      22.446   8.904  21.298  1.00  0.00    -0.545 OA
ENDBRANCH   5   6
ENDBRANCH   3   4
ENDBRANCH   2   3
ENDBRANCH   1   2
BRANCH   1   9
ATOM      9  C   UNL     1      19.772   8.044  25.493  1.00  0.00     0.000 C 
BRANCH   9  10
ATOM     10  C   UNL     1      21.180   8.237  24.915  1.00  0.00     0.000 C 
BRANCH  10  11
ATOM     11  C   UNL     1      21.857   6.884  24.655  1.00  0.00    -0.000 C 
BRANCH  11  12
ATOM     12  C   UNL     1      21.296   5.752  25.536  1.00  0.00    -0.000 C 
BRANCH  12  13
ATOM     13  C   UNL     1      20.996   4.440  24.789  1.00  0.00    -0.003 C 
ATOM     14  C   UNL     1      21.216   4.547  23.280  1.00  0.00     0.004 C 
ENDBRANCH  12  13
ENDBRANCH  11  12
ENDBRANCH  10  11
ENDBRANCH   9  10
ENDBRANCH   1   9
TORSDOF 9
ENDMDL
MODEL 4
REMARK VINA RESULT:    -4.824     12.081     14.252
REMARK INTER + INTRA:          -7.813
REMARK INTER:                  -7.280
REMARK INTRA:                  -0.533
REMARK UNBOUND:                -0.451
REMARK SMILES CCCCCCCCCC=CC(=O)[O-]
REMARK SMILES IDX 7 1 8 2 9 3 10 4 11 5 12 6 13 7 14 8 6 9 5 10 4 11 3 12 2 13
REMARK SMILES IDX 1 14
REMARK H PARENT
REMARK Flexibility Score: inf
ROOT
ATOM      1  C   UNL     1       8.124   5.749  15.927  1.00  0.00     0.000 C 
ENDROOT
BRANCH   1   2
ATOM      2  C   UNL     1       7.829   7.035  16.706  1.00  0.00     0.004 C 
BRANCH   2   3
ATOM      3  C   UNL     1       6.976   6.745  17.947  1.00  0.00     0.027 C 
BRANCH   3   4
ATOM      4  C   UNL     1       7.610   5.693  18.811  1.00  0.00    -0.025 C 
ATOM      5  C   UNL     1       7.595   5.783  20.145  1.00  0.00     0.020 C 
BRANCH   5   6
ATOM      6  C   UNL     1       8.198   4.759  21.012  1.00  0.00     0.064 C 
ATOM      7  O   UNL     1       7.725   3.592  21.068  1.00  0.00    -0.545 OA
ATOM      8  O   UNL     1       9.307   5.082  21.782  1.00  0.00    -0.545 OA
ENDBRANCH   5   6
ENDBRANCH   3   4
ENDBRANCH   2   3
ENDBRANCH   1   2
BRANCH   1   9
ATOM      9  C   UNL     1       8.757   6.061  14.566  1.00  0.00     0.000 C 
BRANCH   9  10
ATOM     10  C   UNL     1      10.060   6.853  14.732  1.00  0.00     0.000 C 
BRANCH  10  11
ATOM     11  C   UNL     1      11.012   6.597  13.556  1.00  0.00    -0.000 C 
BRANCH  11  12
ATOM     12  C   UNL     1      10.575   7.311  12.263  1.00  0.00    -0.000 C 
BRANCH  12  13
ATOM     13  C   UNL     1      10.590   6.429  11.001  1.00  0.00    -0.003 C 
ATOM     14  C   UNL     1      10.177   4.983  11.277  1.00  0.00     0.004 C 
ENDBRANCH  12  13
ENDBRANCH  11  12
ENDBRANCH  10  11
ENDBRANCH   9  10
ENDBRANCH   1   9
TORSDOF 9
ENDMDL
MODEL 5
REMARK VINA RESULT:    -4.780      3.377      5.165
REMARK INTER + INTRA:          -7.746
REMARK INTER:                  -6.781
REMARK INTRA:                  -0.965
REMARK UNBOUND:                -0.451
REMARK SMILES CCCCCCCCCC=CC(=O)[O-]
REMARK SMILES IDX 7 1 8 2 9 3 10 4 11 5 12 6 13 7 14 8 6 9 5 10 4 11 3 12 2 13
REMARK SMILES IDX 1 14
REMARK H PARENT
REMARK Flexibility Score: inf
ROOT
ATOM      1  C   UNL     1      12.953  -0.214   8.041  1.00  0.00     0.000 C 
ENDROOT
BRANCH   1   2
ATOM      2  C   UNL     1      13.490  -1.649   8.056  1.00  0.00     0.004 C 
BRANCH   2   3
ATOM      3  C   UNL     1      14.803  -1.738   8.844  1.00  0.00     0.027 C 
BRANCH   3   4
ATOM      4  C   UNL     1      15.478  -3.062   8.631  1.00  0.00    -0.025 C 
ATOM      5  C   UNL     1      16.675  -3.148   8.040  1.00  0.00     0.020 C 
BRANCH   5   6
ATOM      6  C   UNL     1      17.362  -4.432   7.833  1.00  0.00     0.064 C 
ATOM      7  O   UNL     1      18.221  -4.573   6.921  1.00  0.00    -0.545 OA
ATOM      8  O   UNL     1      17.061  -5.509   8.656  1.00  0.00    -0.545 OA
ENDBRANCH   5   6
ENDBRANCH   3   4
ENDBRANCH   2   3
ENDBRANCH   1   2
BRANCH   1   9
ATOM      9  C   UNL     1      14.063   0.786   7.693  1.00  0.00     0.000 C 
BRANCH   9  10
ATOM     10  C   UNL     1      13.672   2.210   8.107  1.00  0.00     0.000 C 
BRANCH  10  11
ATOM     11  C   UNL     1      14.478   2.668   9.330  1.00  0.00    -0.000 C 
BRANCH  11  12
ATOM     12  C   UNL     1      15.751   1.832   9.558  1.00  0.00    -0.000 C 
BRANCH  12  13
ATOM     13  C   UNL     1      16.097   1.571  11.035  1.00  0.00    -0.003 C 
ATOM     14  C   UNL     1      15.169   0.553  11.697  1.00  0.00     0.004 C 
ENDBRANCH  12  13
ENDBRANCH  11  12
ENDBRANCH  10  11
ENDBRANCH   9  10
ENDBRANCH   1   9
TORSDOF 9
ENDMDL
MODEL 6
REMARK VINA RESULT:    -4.778      8.635     10.679
REMARK INTER + INTRA:          -7.743
REMARK INTER:                  -6.502
REMARK INTRA:                  -1.241
REMARK UNBOUND:                -0.451
REMARK SMILES CCCCCCCCCC=CC(=O)[O-]
REMARK SMILES IDX 7 1 8 2 9 3 10 4 11 5 12 6 13 7 14 8 6 9 5 10 4 11 3 12 2 13
REMARK SMILES IDX 1 14
REMARK H PARENT
REMARK Flexibility Score: inf
ROOT
ATOM      1  C   UNL     1       6.763   1.615  17.766  1.00  0.00     0.000 C 
ENDROOT
BRANCH   1   2
ATOM      2  C   UNL     1       6.832   0.175  18.287  1.00  0.00     0.004 C 
BRANCH   2   3
ATOM      3  C   UNL     1       8.267  -0.362  18.230  1.00  0.00     0.027 C 
BRANCH   3   4
ATOM      4  C   UNL     1       8.307  -1.753  17.667  1.00  0.00    -0.025 C 
ATOM      5  C   UNL     1       9.356  -2.192  16.962  1.00  0.00     0.020 C 
BRANCH   5   6
ATOM      6  C   UNL     1       9.423  -3.555  16.412  1.00  0.00     0.064 C 
ATOM      7  O   UNL     1       8.648  -4.461  16.820  1.00  0.00    -0.545 OA
ATOM      8  O   UNL     1      10.354  -3.849  15.425  1.00  0.00    -0.545 OA
ENDBRANCH   5   6
ENDBRANCH   3   4
ENDBRANCH   2   3
ENDBRANCH   1   2
BRANCH   1   9
ATOM      9  C   UNL     1       5.531   1.820  16.875  1.00  0.00     0.000 C 
BRANCH   9  10
ATOM     10  C   UNL     1       4.403   0.855  17.263  1.00  0.00     0.000 C 
BRANCH  10  11
ATOM     11  C   UNL     1       3.856   0.125  16.029  1.00  0.00    -0.000 C 
BRANCH  11  12
ATOM     12  C   UNL     1       4.849   0.110  14.852  1.00  0.00    -0.000 C 
BRANCH  12  13
ATOM     13  C   UNL     1       5.673  -1.184  14.718  1.00  0.00    -0.003 C 
ATOM     14  C   UNL     1       7.078  -0.943  14.166  1.00  0.00     0.004 C 
ENDBRANCH  12  13
ENDBRANCH  11  12
ENDBRANCH  10  11
ENDBRANCH   9  10
ENDBRANCH   1   9
TORSDOF 9
ENDMDL
MODEL 7
REMARK VINA RESULT:    -4.774     11.582     13.914
REMARK INTER + INTRA:          -7.737
REMARK INTER:                  -7.151
REMARK INTRA:                  -0.586
REMARK UNBOUND:                -0.451
REMARK SMILES CCCCCCCCCC=CC(=O)[O-]
REMARK SMILES IDX 7 1 8 2 9 3 10 4 11 5 12 6 13 7 14 8 6 9 5 10 4 11 3 12 2 13
REMARK SMILES IDX 1 14
REMARK H PARENT
REMARK Flexibility Score: inf
ROOT
ATOM      1  C   UNL     1       6.190   1.928  18.110  1.00  0.00     0.000 C 
ENDROOT
BRANCH   1   2
ATOM      2  C   UNL     1       6.801   2.906  17.101  1.00  0.00     0.004 C 
BRANCH   2   3
ATOM      3  C   UNL     1       7.785   3.862  17.787  1.00  0.00     0.027 C 
BRANCH   3   4
ATOM      4  C   UNL     1       7.300   4.258  19.151  1.00  0.00    -0.025 C 
ATOM      5  C   UNL     1       8.027   5.049  19.949  1.00  0.00     0.020 C 
BRANCH   5   6
ATOM      6  C   UNL     1       7.567   5.461  21.284  1.00  0.00     0.064 C 
ATOM      7  O   UNL     1       6.891   6.513  21.445  1.00  0.00    -0.545 OA
ATOM      8  O   UNL     1       7.881   4.678  22.386  1.00  0.00    -0.545 OA
ENDBRANCH   5   6
ENDBRANCH   3   4
ENDBRANCH   2   3
ENDBRANCH   1   2
BRANCH   1   9
ATOM      9  C   UNL     1       5.703   0.651  17.415  1.00  0.00     0.000 C 
BRANCH   9  10
ATOM     10  C   UNL     1       6.883  -0.244  17.014  1.00  0.00     0.000 C 
BRANCH  10  11
ATOM     11  C   UNL     1       7.782  -0.541  18.222  1.00  0.00    -0.000 C 
BRANCH  11  12
ATOM     12  C   UNL     1       8.747  -1.716  17.977  1.00  0.00    -0.000 C 
BRANCH  12  13
ATOM     13  C   UNL     1       8.499  -2.495  16.673  1.00  0.00    -0.003 C 
ATOM     14  C   UNL     1       8.803  -3.987  16.801  1.00  0.00     0.004 C 
ENDBRANCH  12  13
ENDBRANCH  11  12
ENDBRANCH  10  11
ENDBRANCH   9  10
ENDBRANCH   1   9
TORSDOF 9
ENDMDL
MODEL 8
REMARK VINA RESULT:    -4.755      4.423      6.157
REMARK INTER + INTRA:          -7.709
REMARK INTER:                  -6.884
REMARK INTRA:                  -0.825
REMARK UNBOUND:                -0.451
REMARK SMILES CCCCCCCCCC=CC(=O)[O-]
REMARK SMILES IDX 7 1 8 2 9 3 10 4 11 5 12 6 13 7 14 8 6 9 5 10 4 11 3 12 2 13
REMARK SMILES IDX 1 14
REMARK H PARENT
REMARK Flexibility Score: inf
ROOT
ATOM      1  C   UNL     1      16.033   1.631   9.648  1.00  0.00     0.000 C 
ENDROOT
BRANCH   1   2
ATOM      2  C   UNL     1      15.187   0.505   9.045  1.00  0.00     0.004 C 
BRANCH   2   3
ATOM      3  C   UNL     1      15.328  -0.787   9.860  1.00  0.00     0.027 C 
BRANCH   3   4
ATOM      4  C   UNL     1      15.044  -1.997   9.018  1.00  0.00    -0.025 C 
ATOM      5  C   UNL     1      15.952  -2.483   8.164  1.00  0.00     0.020 C 
BRANCH   5   6
ATOM      6  C   UNL     1      15.700  -3.674   7.338  1.00  0.00     0.064 C 
ATOM      7  O   UNL     1      14.528  -4.013   7.022  1.00  0.00    -0.545 OA
ATOM      8  O   UNL     1      16.772  -4.439   6.899  1.00  0.00    -0.545 OA
ENDBRANCH   5   6
ENDBRANCH   3   4
ENDBRANCH   2   3
ENDBRANCH   1   2
BRANCH   1   9
ATOM      9  C   UNL     1      16.040   1.555  11.180  1.00  0.00     0.000 C 
BRANCH   9  10
ATOM     10  C   UNL     1      16.019   2.957  11.802  1.00  0.00     0.000 C 
BRANCH  10  11
ATOM     11  C   UNL     1      14.661   3.249  12.454  1.00  0.00    -0.000 C 
BRANCH  11  12
ATOM     12  C   UNL     1      13.524   3.408  11.427  1.00  0.00    -0.000 C 
BRANCH  12  13
ATOM     13  C   UNL     1      13.746   4.517  10.383  1.00  0.00    -0.003 C 
ATOM     14  C   UNL     1      13.350   4.095   8.968  1.00  0.00     0.004 C 
ENDBRANCH  12  13
ENDBRANCH  11  12
ENDBRANCH  10  11
ENDBRANCH   9  10
ENDBRANCH   1   9
TORSDOF 9
ENDMDL
MODEL 9
REMARK VINA RESULT:    -4.697     15.787     17.504
REMARK INTER + INTRA:          -7.620
REMARK INTER:                  -6.052
REMARK INTRA:                  -1.567
REMARK UNBOUND:                -0.451
REMARK SMILES CCCCCCCCCC=CC(=O)[O-]
REMARK SMILES IDX 7 1 8 2 9 3 10 4 11 5 12 6 13 7 14 8 6 9 5 10 4 11 3 12 2 13
REMARK SMILES IDX 1 14
REMARK H PARENT
REMARK Flexibility Score: inf
ROOT
ATOM      1  C   UNL     1      20.673  -0.868  23.224  1.00  0.00     0.000 C 
ENDROOT
BRANCH   1   2
ATOM      2  C   UNL     1      19.993  -0.823  21.852  1.00  0.00     0.004 C 
BRANCH   2   3
ATOM      3  C   UNL     1      18.648  -1.560  21.879  1.00  0.00     0.027 C 
BRANCH   3   4
ATOM      4  C   UNL     1      18.274  -1.960  23.277  1.00  0.00    -0.025 C 
ATOM      5  C   UNL     1      17.342  -2.891  23.511  1.00  0.00     0.020 C 
BRANCH   5   6
ATOM      6  C   UNL     1      16.968  -3.309  24.871  1.00  0.00     0.064 C 
ATOM      7  O   UNL     1      17.836  -3.717  25.689  1.00  0.00    -0.545 OA
ATOM      8  O   UNL     1      15.637  -3.254  25.261  1.00  0.00    -0.545 OA
ENDBRANCH   5   6
ENDBRANCH   3   4
ENDBRANCH   2   3
ENDBRANCH   1   2
BRANCH   1   9
ATOM      9  C   UNL     1      22.096  -1.430  23.116  1.00  0.00     0.000 C 
BRANCH   9  10
ATOM     10  C   UNL     1      22.254  -2.294  21.858  1.00  0.00     0.000 C 
BRANCH  10  11
ATOM     11  C   UNL     1      22.369  -3.780  22.224  1.00  0.00    -0.000 C 
BRANCH  11  12
ATOM     12  C   UNL     1      21.042  -4.544  22.057  1.00  0.00    -0.000 C 
BRANCH  12  13
ATOM     13  C   UNL     1      20.336  -4.909  23.375  1.00  0.00    -0.003 C 
ATOM     14  C   UNL     1      21.210  -4.674  24.607  1.00  0.00     0.004 C 
ENDBRANCH  12  13
ENDBRANCH  11  12
ENDBRANCH  10  11
ENDBRANCH   9  10
ENDBRANCH   1   9
TORSDOF 9
ENDMDL
