MODEL 1
REMARK VINA RESULT:    -7.403      0.000      0.000
REMARK INTER + INTRA:         -14.112
REMARK INTER:                 -12.164
REMARK INTRA:                  -1.949
REMARK UNBOUND:                -1.949
REMARK SMILES COc1ccc([C@H]2CC(=O)c3c(O)cc(O[C@H]4O[C@H](CO[C@H]5O[C@@H](C)[C@@H](O)[C@H](O)[C@@H]5O)[C@H](O)[C@H](O)[C@H]4O)cc3O2)cc1O
REMARK SMILES IDX 19 1 32 2 34 3 36 4 17 5 18 6 20 7 21 8 22 9 25 10 24 11
REMARK SMILES IDX 26 12 23 13 28 14 30 15 27 16 29 18 31 20 33 22 35 24 16 26
REMARK SMILES IDX 15 27 14 28 38 29 12 30 39 31 11 32 40 33 9 34 7 35 10 36
REMARK SMILES IDX 8 37 13 38 6 40 41 41 5 42 42 43 4 44 3 45 43 46 2 48 1 49
REMARK SMILES IDX 37 50
REMARK H PARENT 27 17 29 19 31 21 33 23 35 25 13 39 43 47 37 51
REMARK Flexibility Score: inf
ROOT
ATOM      1  C   UNL     1      52.054 -31.765  -6.569  1.00  0.00     0.180 C 
ATOM      2  C   UNL     1      53.291 -31.364  -7.612  1.00  0.00     0.177 C 
ATOM      3  C   UNL     1      54.467 -31.203  -6.695  1.00  0.00     0.180 C 
ATOM      4  C   UNL     1      54.620 -32.541  -6.003  1.00  0.00     0.214 C 
ATOM      5  C   UNL     1      53.671 -32.530  -4.783  1.00  0.00     0.339 C 
ATOM      6  O   UNL     1      52.402 -32.029  -5.167  1.00  0.00    -0.332 OA
ENDROOT
BRANCH   1   7
ATOM      7  C   UNL     1      50.830 -32.651  -7.031  1.00  0.00     0.198 C 
BRANCH   7   8
ATOM      8  O   UNL     1      51.303 -33.716  -7.917  1.00  0.00    -0.347 OA
BRANCH   8   9
ATOM      9  C   UNL     1      51.515 -34.994  -7.372  1.00  0.00     0.281 C 
ATOM     10  C   UNL     1      49.006 -37.902  -7.474  1.00  0.00     0.041 C 
ATOM     11  C   UNL     1      50.179 -36.980  -6.902  1.00  0.00     0.150 C 
ATOM     12  C   UNL     1      51.576 -37.706  -6.892  1.00  0.00     0.174 C 
ATOM     13  O   UNL     1      50.254 -35.650  -7.421  1.00  0.00    -0.344 OA
ATOM     14  C   UNL     1      52.591 -37.236  -8.035  1.00  0.00     0.179 C 
ATOM     15  C   UNL     1      52.398 -35.747  -8.380  1.00  0.00     0.202 C 
BRANCH  12  16
ATOM     16  O   UNL     1      51.407 -39.081  -6.828  1.00  0.00    -0.388 OA
ATOM     17  H   UNL     1      50.694 -39.278  -6.157  1.00  0.00     0.211 HD
ENDBRANCH  12  16
BRANCH  14  18
ATOM     18  O   UNL     1      53.893 -37.451  -7.535  1.00  0.00    -0.387 OA
ATOM     19  H   UNL     1      54.095 -38.398  -7.775  1.00  0.00     0.211 HD
ENDBRANCH  14  18
BRANCH  15  20
ATOM     20  O   UNL     1      53.618 -35.068  -8.772  1.00  0.00    -0.385 OA
ATOM     21  H   UNL     1      54.333 -35.606  -8.286  1.00  0.00     0.211 HD
ENDBRANCH  15  20
ENDBRANCH   8   9
ENDBRANCH   7   8
ENDBRANCH   1   7
BRANCH   2  22
ATOM     22  O   UNL     1      53.571 -32.305  -8.629  1.00  0.00    -0.387 OA
ATOM     23  H   UNL     1      52.878 -32.127  -9.354  1.00  0.00     0.211 HD
ENDBRANCH   2  22
BRANCH   3  24
ATOM     24  O   UNL     1      55.648 -30.750  -7.382  1.00  0.00    -0.387 OA
ATOM     25  H   UNL     1      55.886 -29.920  -6.922  1.00  0.00     0.211 HD
ENDBRANCH   3  24
BRANCH   5  26
ATOM     26  O   UNL     1      54.117 -31.660  -3.744  1.00  0.00    -0.462 OA
BRANCH  26  27
ATOM     27  C   UNL     1      54.262 -31.916  -2.348  1.00  0.00     0.130 A 
ATOM     28  C   UNL     1      54.324 -33.212  -1.888  1.00  0.00     0.093 A 
ATOM     29  C   UNL     1      54.144 -30.845  -1.407  1.00  0.00     0.094 A 
ATOM     30  C   UNL     1      54.184 -33.509  -0.506  1.00  0.00     0.133 A 
ATOM     31  C   UNL     1      54.052 -31.144  -0.005  1.00  0.00     0.138 A 
ATOM     32  C   UNL     1      54.192 -32.443   0.469  1.00  0.00     0.102 A 
ATOM     33  O   UNL     1      53.784 -30.103   0.962  1.00  0.00    -0.484 OA
ATOM     34  C   UNL     1      54.496 -32.685   1.906  1.00  0.00     0.174 C 
ATOM     35  C   UNL     1      54.033 -30.244   2.406  1.00  0.00     0.211 C 
ATOM     36  O   UNL     1      54.964 -33.825   2.237  1.00  0.00    -0.294 OA
ATOM     37  C   UNL     1      54.157 -31.710   2.959  1.00  0.00     0.131 C 
BRANCH  30  38
ATOM     38  O   UNL     1      54.082 -34.841  -0.089  1.00  0.00    -0.507 OA
ATOM     39  H   UNL     1      54.710 -35.511  -0.475  1.00  0.00     0.293 HD
ENDBRANCH  30  38
BRANCH  35  40
ATOM     40  C   UNL     1      52.880 -29.581   3.146  1.00  0.00    -0.003 A 
ATOM     41  C   UNL     1      52.219 -30.201   4.217  1.00  0.00     0.057 A 
ATOM     42  C   UNL     1      52.527 -28.266   2.793  1.00  0.00     0.011 A 
ATOM     43  C   UNL     1      51.260 -29.524   4.970  1.00  0.00     0.158 A 
ATOM     44  C   UNL     1      51.546 -27.589   3.510  1.00  0.00     0.051 A 
ATOM     45  C   UNL     1      50.966 -28.170   4.652  1.00  0.00     0.160 A 
BRANCH  43  46
ATOM     46  O   UNL     1      50.574 -30.133   6.011  1.00  0.00    -0.504 OA
ATOM     47  H   UNL     1      50.919 -30.154   6.956  1.00  0.00     0.293 HD
ENDBRANCH  43  46
BRANCH  45  48
ATOM     48  O   UNL     1      50.066 -27.476   5.481  1.00  0.00    -0.493 OA
ATOM     49  C   UNL     1      48.700 -27.125   5.144  1.00  0.00     0.278 C 
ENDBRANCH  45  48
ENDBRANCH  35  40
ENDBRANCH  26  27
ENDBRANCH   5  26
BRANCH   4  50
ATOM     50  O   UNL     1      55.951 -32.819  -5.609  1.00  0.00    -0.384 OA
ATOM     51  H   UNL     1      55.948 -32.958  -4.610  1.00  0.00     0.211 HD
ENDBRANCH   4  50
TORSDOF 15
ENDMDL
MODEL 2
REMARK VINA RESULT:    -7.246      0.889      1.724
REMARK INTER + INTRA:         -13.855
REMARK INTER:                 -12.075
REMARK INTRA:                  -1.779
REMARK UNBOUND:                -1.949
REMARK SMILES COc1ccc([C@H]2CC(=O)c3c(O)cc(O[C@H]4O[C@H](CO[C@H]5O[C@@H](C)[C@@H](O)[C@H](O)[C@@H]5O)[C@H](O)[C@H](O)[C@H]4O)cc3O2)cc1O
REMARK SMILES IDX 19 1 32 2 34 3 36 4 17 5 18 6 20 7 21 8 22 9 25 10 24 11
REMARK SMILES IDX 26 12 23 13 28 14 30 15 27 16 29 18 31 20 33 22 35 24 16 26
REMARK SMILES IDX 15 27 14 28 38 29 12 30 39 31 11 32 40 33 9 34 7 35 10 36
REMARK SMILES IDX 8 37 13 38 6 40 41 41 5 42 42 43 4 44 3 45 43 46 2 48 1 49
REMARK SMILES IDX 37 50
REMARK H PARENT 27 17 29 19 31 21 33 23 35 25 13 39 43 47 37 51
REMARK Flexibility Score: inf
ROOT
ATOM      1  C   UNL     1      52.383 -31.322  -6.607  1.00  0.00     0.180 C 
ATOM      2  C   UNL     1      53.730 -31.014  -7.540  1.00  0.00     0.177 C 
ATOM      3  C   UNL     1      54.834 -30.948  -6.527  1.00  0.00     0.180 C 
ATOM      4  C   UNL     1      54.825 -32.296  -5.839  1.00  0.00     0.214 C 
ATOM      5  C   UNL     1      53.782 -32.217  -4.702  1.00  0.00     0.339 C 
ATOM      6  O   UNL     1      52.592 -31.618  -5.184  1.00  0.00    -0.332 OA
ENDROOT
BRANCH   1   7
ATOM      7  C   UNL     1      51.137 -32.109  -7.177  1.00  0.00     0.198 C 
BRANCH   7   8
ATOM      8  O   UNL     1      50.935 -33.335  -6.402  1.00  0.00    -0.347 OA
BRANCH   8   9
ATOM      9  C   UNL     1      51.343 -34.556  -6.966  1.00  0.00     0.281 C 
ATOM     10  C   UNL     1      54.984 -35.697  -7.414  1.00  0.00     0.041 C 
ATOM     11  C   UNL     1      53.427 -35.559  -7.742  1.00  0.00     0.150 C 
ATOM     12  C   UNL     1      52.642 -36.912  -7.558  1.00  0.00     0.174 C 
ATOM     13  O   UNL     1      52.748 -34.446  -7.155  1.00  0.00    -0.344 OA
ATOM     14  C   UNL     1      51.735 -36.996  -6.244  1.00  0.00     0.179 C 
ATOM     15  C   UNL     1      51.168 -35.614  -5.865  1.00  0.00     0.202 C 
BRANCH  12  16
ATOM     16  O   UNL     1      53.497 -37.993  -7.715  1.00  0.00    -0.388 OA
ATOM     17  H   UNL     1      54.321 -37.676  -8.182  1.00  0.00     0.211 HD
ENDBRANCH  12  16
BRANCH  14  18
ATOM     18  O   UNL     1      50.681 -37.887  -6.535  1.00  0.00    -0.387 OA
ATOM     19  H   UNL     1      50.359 -38.187  -5.640  1.00  0.00     0.211 HD
ENDBRANCH  14  18
BRANCH  15  20
ATOM     20  O   UNL     1      49.857 -35.663  -5.247  1.00  0.00    -0.385 OA
ATOM     21  H   UNL     1      50.032 -35.259  -4.329  1.00  0.00     0.211 HD
ENDBRANCH  15  20
ENDBRANCH   8   9
ENDBRANCH   7   8
ENDBRANCH   1   7
BRANCH   2  22
ATOM     22  O   UNL     1      54.021 -31.970  -8.540  1.00  0.00    -0.387 OA
ATOM     23  H   UNL     1      55.005 -31.830  -8.763  1.00  0.00     0.211 HD
ENDBRANCH   2  22
BRANCH   3  24
ATOM     24  O   UNL     1      56.099 -30.584  -7.109  1.00  0.00    -0.387 OA
ATOM     25  H   UNL     1      56.481 -29.950  -6.470  1.00  0.00     0.211 HD
ENDBRANCH   3  24
BRANCH   5  26
ATOM     26  O   UNL     1      54.205 -31.388  -3.620  1.00  0.00    -0.462 OA
BRANCH  26  27
ATOM     27  C   UNL     1      54.324 -31.699  -2.233  1.00  0.00     0.130 A 
ATOM     28  C   UNL     1      54.349 -33.012  -1.821  1.00  0.00     0.093 A 
ATOM     29  C   UNL     1      54.217 -30.661  -1.254  1.00  0.00     0.094 A 
ATOM     30  C   UNL     1      54.182 -33.357  -0.453  1.00  0.00     0.133 A 
ATOM     31  C   UNL     1      54.098 -31.010   0.135  1.00  0.00     0.138 A 
ATOM     32  C   UNL     1      54.201 -32.329   0.561  1.00  0.00     0.102 A 
ATOM     33  O   UNL     1      53.839 -30.000   1.136  1.00  0.00    -0.484 OA
ATOM     34  C   UNL     1      54.478 -32.632   1.992  1.00  0.00     0.174 C 
ATOM     35  C   UNL     1      54.065 -30.200   2.577  1.00  0.00     0.211 C 
ATOM     36  O   UNL     1      54.915 -33.794   2.286  1.00  0.00    -0.294 OA
ATOM     37  C   UNL     1      54.146 -31.688   3.076  1.00  0.00     0.131 C 
BRANCH  30  38
ATOM     38  O   UNL     1      54.043 -34.701  -0.088  1.00  0.00    -0.507 OA
ATOM     39  H   UNL     1      54.836 -35.181   0.277  1.00  0.00     0.293 HD
ENDBRANCH  30  38
BRANCH  35  40
ATOM     40  C   UNL     1      52.916 -29.538   3.325  1.00  0.00    -0.003 A 
ATOM     41  C   UNL     1      52.204 -30.194   4.340  1.00  0.00     0.057 A 
ATOM     42  C   UNL     1      52.621 -28.192   3.042  1.00  0.00     0.011 A 
ATOM     43  C   UNL     1      51.249 -29.525   5.107  1.00  0.00     0.158 A 
ATOM     44  C   UNL     1      51.647 -27.521   3.773  1.00  0.00     0.051 A 
ATOM     45  C   UNL     1      51.014 -28.145   4.863  1.00  0.00     0.160 A 
BRANCH  43  46
ATOM     46  O   UNL     1      50.513 -30.168   6.093  1.00  0.00    -0.504 OA
ATOM     47  H   UNL     1      50.224 -29.716   6.943  1.00  0.00     0.293 HD
ENDBRANCH  43  46
BRANCH  45  48
ATOM     48  O   UNL     1      50.117 -27.467   5.709  1.00  0.00    -0.493 OA
ATOM     49  C   UNL     1      49.354 -26.284   5.361  1.00  0.00     0.278 C 
ENDBRANCH  45  48
ENDBRANCH  35  40
ENDBRANCH  26  27
ENDBRANCH   5  26
BRANCH   4  50
ATOM     50  O   UNL     1      56.094 -32.678  -5.339  1.00  0.00    -0.384 OA
ATOM     51  H   UNL     1      56.408 -31.946  -4.720  1.00  0.00     0.211 HD
ENDBRANCH   4  50
TORSDOF 15
ENDMDL
MODEL 3
REMARK VINA RESULT:    -7.166      2.582      5.377
REMARK INTER + INTRA:         -13.723
REMARK INTER:                 -11.962
REMARK INTRA:                  -1.761
REMARK UNBOUND:                -1.949
REMARK SMILES COc1ccc([C@H]2CC(=O)c3c(O)cc(O[C@H]4O[C@H](CO[C@H]5O[C@@H](C)[C@@H](O)[C@H](O)[C@@H]5O)[C@H](O)[C@H](O)[C@H]4O)cc3O2)cc1O
REMARK SMILES IDX 19 1 32 2 34 3 36 4 17 5 18 6 20 7 21 8 22 9 25 10 24 11
REMARK SMILES IDX 26 12 23 13 28 14 30 15 27 16 29 18 31 20 33 22 35 24 16 26
REMARK SMILES IDX 15 27 14 28 38 29 12 30 39 31 11 32 40 33 9 34 7 35 10 36
REMARK SMILES IDX 8 37 13 38 6 40 41 41 5 42 42 43 4 44 3 45 43 46 2 48 1 49
REMARK SMILES IDX 37 50
REMARK H PARENT 27 17 29 19 31 21 33 23 35 25 13 39 43 47 37 51
REMARK Flexibility Score: inf
ROOT
ATOM      1  C   UNL     1      52.334 -30.576  -3.105  1.00  0.00     0.180 C 
ATOM      2  C   UNL     1      52.690 -29.131  -3.857  1.00  0.00     0.177 C 
ATOM      3  C   UNL     1      52.640 -28.143  -2.730  1.00  0.00     0.180 C 
ATOM      4  C   UNL     1      53.677 -28.620  -1.735  1.00  0.00     0.214 C 
ATOM      5  C   UNL     1      52.990 -29.674  -0.837  1.00  0.00     0.339 C 
ATOM      6  O   UNL     1      52.253 -30.580  -1.639  1.00  0.00    -0.332 OA
ENDROOT
BRANCH   1   7
ATOM      7  C   UNL     1      52.878 -31.955  -3.651  1.00  0.00     0.198 C 
BRANCH   7   8
ATOM      8  O   UNL     1      53.702 -31.721  -4.839  1.00  0.00    -0.347 OA
BRANCH   8   9
ATOM      9  C   UNL     1      53.369 -32.395  -6.026  1.00  0.00     0.281 C 
ATOM     10  C   UNL     1      49.882 -33.736  -6.923  1.00  0.00     0.041 C 
ATOM     11  C   UNL     1      51.478 -33.674  -6.884  1.00  0.00     0.150 C 
ATOM     12  C   UNL     1      52.110 -33.338  -8.288  1.00  0.00     0.174 C 
ATOM     13  O   UNL     1      52.062 -32.915  -5.823  1.00  0.00    -0.344 OA
ATOM     14  C   UNL     1      52.664 -31.846  -8.441  1.00  0.00     0.179 C 
ATOM     15  C   UNL     1      53.206 -31.309  -7.102  1.00  0.00     0.202 C 
BRANCH  12  16
ATOM     16  O   UNL     1      51.253 -33.722  -9.309  1.00  0.00    -0.388 OA
ATOM     17  H   UNL     1      51.199 -34.719  -9.314  1.00  0.00     0.211 HD
ENDBRANCH  12  16
BRANCH  14  18
ATOM     18  O   UNL     1      53.699 -31.894  -9.397  1.00  0.00    -0.387 OA
ATOM     19  H   UNL     1      53.328 -32.455 -10.133  1.00  0.00     0.211 HD
ENDBRANCH  14  18
BRANCH  15  20
ATOM     20  O   UNL     1      54.322 -30.394  -7.241  1.00  0.00    -0.385 OA
ATOM     21  H   UNL     1      54.398 -30.294  -8.252  1.00  0.00     0.211 HD
ENDBRANCH  15  20
ENDBRANCH   8   9
ENDBRANCH   7   8
ENDBRANCH   1   7
BRANCH   2  22
ATOM     22  O   UNL     1      53.935 -29.073  -4.524  1.00  0.00    -0.387 OA
ATOM     23  H   UNL     1      53.745 -29.402  -5.470  1.00  0.00     0.211 HD
ENDBRANCH   2  22
BRANCH   3  24
ATOM     24  O   UNL     1      52.822 -26.786  -3.174  1.00  0.00    -0.387 OA
ATOM     25  H   UNL     1      53.083 -26.304  -2.364  1.00  0.00     0.211 HD
ENDBRANCH   3  24
BRANCH   5  26
ATOM     26  O   UNL     1      52.034 -29.102   0.055  1.00  0.00    -0.462 OA
BRANCH  26  27
ATOM     27  C   UNL     1      52.071 -28.995   1.477  1.00  0.00     0.130 A 
ATOM     28  C   UNL     1      52.878 -29.836   2.210  1.00  0.00     0.093 A 
ATOM     29  C   UNL     1      51.130 -28.159   2.157  1.00  0.00     0.094 A 
ATOM     30  C   UNL     1      52.732 -29.952   3.618  1.00  0.00     0.133 A 
ATOM     31  C   UNL     1      51.018 -28.242   3.587  1.00  0.00     0.138 A 
ATOM     32  C   UNL     1      51.883 -29.031   4.337  1.00  0.00     0.102 A 
ATOM     33  O   UNL     1      49.981 -27.525   4.294  1.00  0.00    -0.484 OA
ATOM     34  C   UNL     1      52.022 -28.803   5.802  1.00  0.00     0.174 C 
ATOM     35  C   UNL     1      50.013 -27.258   5.742  1.00  0.00     0.211 C 
ATOM     36  O   UNL     1      53.051 -29.276   6.388  1.00  0.00    -0.294 OA
ATOM     37  C   UNL     1      50.960 -28.168   6.605  1.00  0.00     0.131 C 
BRANCH  30  38
ATOM     38  O   UNL     1      53.447 -30.935   4.311  1.00  0.00    -0.507 OA
ATOM     39  H   UNL     1      53.449 -30.910   5.307  1.00  0.00     0.293 HD
ENDBRANCH  30  38
BRANCH  35  40
ATOM     40  C   UNL     1      48.602 -27.440   6.282  1.00  0.00    -0.003 A 
ATOM     41  C   UNL     1      47.543 -27.892   5.479  1.00  0.00     0.057 A 
ATOM     42  C   UNL     1      48.377 -27.227   7.654  1.00  0.00     0.011 A 
ATOM     43  C   UNL     1      46.292 -28.185   6.022  1.00  0.00     0.158 A 
ATOM     44  C   UNL     1      47.125 -27.479   8.205  1.00  0.00     0.051 A 
ATOM     45  C   UNL     1      46.099 -28.039   7.423  1.00  0.00     0.160 A 
BRANCH  43  46
ATOM     46  O   UNL     1      45.227 -28.601   5.237  1.00  0.00    -0.504 OA
ATOM     47  H   UNL     1      44.587 -27.961   4.798  1.00  0.00     0.293 HD
ENDBRANCH  43  46
BRANCH  45  48
ATOM     48  O   UNL     1      44.860 -28.429   7.964  1.00  0.00    -0.493 OA
ATOM     49  C   UNL     1      43.988 -27.598   8.771  1.00  0.00     0.278 C 
ENDBRANCH  45  48
ENDBRANCH  35  40
ENDBRANCH  26  27
ENDBRANCH   5  26
BRANCH   4  50
ATOM     50  O   UNL     1      54.232 -27.574  -0.958  1.00  0.00    -0.384 OA
ATOM     51  H   UNL     1      54.182 -26.731  -1.508  1.00  0.00     0.211 HD
ENDBRANCH   4  50
TORSDOF 15
ENDMDL
MODEL 4
REMARK VINA RESULT:    -7.020      1.885     11.126
REMARK INTER + INTRA:         -13.482
REMARK INTER:                 -11.637
REMARK INTRA:                  -1.845
REMARK UNBOUND:                -1.949
REMARK SMILES COc1ccc([C@H]2CC(=O)c3c(O)cc(O[C@H]4O[C@H](CO[C@H]5O[C@@H](C)[C@@H](O)[C@H](O)[C@@H]5O)[C@H](O)[C@H](O)[C@H]4O)cc3O2)cc1O
REMARK SMILES IDX 19 1 32 2 34 3 36 4 17 5 18 6 20 7 21 8 22 9 25 10 24 11
REMARK SMILES IDX 26 12 23 13 28 14 30 15 27 16 29 18 31 20 33 22 35 24 16 26
REMARK SMILES IDX 15 27 14 28 38 29 12 30 39 31 11 32 40 33 9 34 7 35 10 36
REMARK SMILES IDX 8 37 13 38 6 40 41 41 5 42 42 43 4 44 3 45 43 46 2 48 1 49
REMARK SMILES IDX 37 50
REMARK H PARENT 27 17 29 19 31 21 33 23 35 25 13 39 43 47 37 51
REMARK Flexibility Score: inf
ROOT
ATOM      1  C   UNL     1      52.236 -30.858   0.288  1.00  0.00     0.180 C 
ATOM      2  C   UNL     1      52.450 -32.190   1.268  1.00  0.00     0.177 C 
ATOM      3  C   UNL     1      53.933 -32.404   1.227  1.00  0.00     0.180 C 
ATOM      4  C   UNL     1      54.537 -31.118   1.752  1.00  0.00     0.214 C 
ATOM      5  C   UNL     1      54.647 -30.149   0.554  1.00  0.00     0.339 C 
ATOM      6  O   UNL     1      53.437 -30.158  -0.184  1.00  0.00    -0.332 OA
ENDROOT
BRANCH   1   7
ATOM      7  C   UNL     1      51.035 -29.853   0.500  1.00  0.00     0.198 C 
BRANCH   7   8
ATOM      8  O   UNL     1      51.442 -28.791   1.422  1.00  0.00    -0.347 OA
BRANCH   8   9
ATOM      9  C   UNL     1      50.867 -28.764   2.704  1.00  0.00     0.281 C 
ATOM     10  C   UNL     1      52.734 -29.420   5.997  1.00  0.00     0.041 C 
ATOM     11  C   UNL     1      51.513 -29.406   4.967  1.00  0.00     0.150 C 
ATOM     12  C   UNL     1      50.369 -28.411   5.391  1.00  0.00     0.174 C 
ATOM     13  O   UNL     1      51.849 -29.300   3.581  1.00  0.00    -0.344 OA
ATOM     14  C   UNL     1      50.303 -27.055   4.546  1.00  0.00     0.179 C 
ATOM     15  C   UNL     1      50.752 -27.280   3.089  1.00  0.00     0.202 C 
BRANCH  12  16
ATOM     16  O   UNL     1      50.383 -28.212   6.763  1.00  0.00    -0.388 OA
ATOM     17  H   UNL     1      51.334 -28.203   7.068  1.00  0.00     0.211 HD
ENDBRANCH  12  16
BRANCH  14  18
ATOM     18  O   UNL     1      48.961 -26.623   4.576  1.00  0.00    -0.387 OA
ATOM     19  H   UNL     1      49.010 -25.694   4.936  1.00  0.00     0.211 HD
ENDBRANCH  14  18
BRANCH  15  20
ATOM     20  O   UNL     1      50.074 -26.434   2.125  1.00  0.00    -0.385 OA
ATOM     21  H   UNL     1      49.830 -27.094   1.389  1.00  0.00     0.211 HD
ENDBRANCH  15  20
ENDBRANCH   8   9
ENDBRANCH   7   8
ENDBRANCH   1   7
BRANCH   2  22
ATOM     22  O   UNL     1      51.997 -32.055   2.600  1.00  0.00    -0.387 OA
ATOM     23  H   UNL     1      51.882 -31.053   2.742  1.00  0.00     0.211 HD
ENDBRANCH   2  22
BRANCH   3  24
ATOM     24  O   UNL     1      54.343 -33.587   1.938  1.00  0.00    -0.387 OA
ATOM     25  H   UNL     1      54.803 -33.241   2.728  1.00  0.00     0.211 HD
ENDBRANCH   3  24
BRANCH   5  26
ATOM     26  O   UNL     1      55.656 -30.535  -0.379  1.00  0.00    -0.462 OA
BRANCH  26  27
ATOM     27  C   UNL     1      55.571 -30.688  -1.795  1.00  0.00     0.130 A 
ATOM     28  C   UNL     1      55.312 -29.595  -2.591  1.00  0.00     0.093 A 
ATOM     29  C   UNL     1      55.554 -31.995  -2.374  1.00  0.00     0.094 A 
ATOM     30  C   UNL     1      54.943 -29.749  -3.954  1.00  0.00     0.133 A 
ATOM     31  C   UNL     1      55.229 -32.146  -3.766  1.00  0.00     0.138 A 
ATOM     32  C   UNL     1      55.044 -31.042  -4.590  1.00  0.00     0.102 A 
ATOM     33  O   UNL     1      55.057 -33.457  -4.351  1.00  0.00    -0.484 OA
ATOM     34  C   UNL     1      55.110 -31.195  -6.069  1.00  0.00     0.174 C 
ATOM     35  C   UNL     1      55.090 -33.716  -5.801  1.00  0.00     0.211 C 
ATOM     36  O   UNL     1      55.294 -30.147  -6.774  1.00  0.00    -0.294 OA
ATOM     37  C   UNL     1      54.845 -32.481  -6.742  1.00  0.00     0.131 C 
BRANCH  30  38
ATOM     38  O   UNL     1      54.523 -28.635  -4.690  1.00  0.00    -0.507 OA
ATOM     39  H   UNL     1      53.916 -28.778  -5.467  1.00  0.00     0.293 HD
ENDBRANCH  30  38
BRANCH  35  40
ATOM     40  C   UNL     1      54.011 -34.741  -6.116  1.00  0.00    -0.003 A 
ATOM     41  C   UNL     1      54.261 -35.880  -6.897  1.00  0.00     0.057 A 
ATOM     42  C   UNL     1      52.742 -34.580  -5.530  1.00  0.00     0.011 A 
ATOM     43  C   UNL     1      53.299 -36.877  -7.059  1.00  0.00     0.158 A 
ATOM     44  C   UNL     1      51.759 -35.547  -5.712  1.00  0.00     0.051 A 
ATOM     45  C   UNL     1      52.048 -36.739  -6.399  1.00  0.00     0.160 A 
BRANCH  43  46
ATOM     46  O   UNL     1      53.520 -37.992  -7.854  1.00  0.00    -0.504 OA
ATOM     47  H   UNL     1      54.422 -38.224  -8.234  1.00  0.00     0.293 HD
ENDBRANCH  43  46
BRANCH  45  48
ATOM     48  O   UNL     1      51.127 -37.799  -6.498  1.00  0.00    -0.493 OA
ATOM     49  C   UNL     1      49.800 -37.718  -7.078  1.00  0.00     0.278 C 
ENDBRANCH  45  48
ENDBRANCH  35  40
ENDBRANCH  26  27
ENDBRANCH   5  26
BRANCH   4  50
ATOM     50  O   UNL     1      55.795 -31.302   2.374  1.00  0.00    -0.384 OA
ATOM     51  H   UNL     1      55.645 -31.280   3.371  1.00  0.00     0.211 HD
ENDBRANCH   4  50
TORSDOF 15
ENDMDL
MODEL 5
REMARK VINA RESULT:    -6.963      7.437     10.946
REMARK INTER + INTRA:         -13.389
REMARK INTER:                 -11.612
REMARK INTRA:                  -1.777
REMARK UNBOUND:                -1.949
REMARK SMILES COc1ccc([C@H]2CC(=O)c3c(O)cc(O[C@H]4O[C@H](CO[C@H]5O[C@@H](C)[C@@H](O)[C@H](O)[C@@H]5O)[C@H](O)[C@H](O)[C@H]4O)cc3O2)cc1O
REMARK SMILES IDX 19 1 32 2 34 3 36 4 17 5 18 6 20 7 21 8 22 9 25 10 24 11
REMARK SMILES IDX 26 12 23 13 28 14 30 15 27 16 29 18 31 20 33 22 35 24 16 26
REMARK SMILES IDX 15 27 14 28 38 29 12 30 39 31 11 32 40 33 9 34 7 35 10 36
REMARK SMILES IDX 8 37 13 38 6 40 41 41 5 42 42 43 4 44 3 45 43 46 2 48 1 49
REMARK SMILES IDX 37 50
REMARK H PARENT 27 17 29 19 31 21 33 23 35 25 13 39 43 47 37 51
REMARK Flexibility Score: inf
ROOT
ATOM      1  C   UNL     1      54.803 -24.593   0.394  1.00  0.00     0.180 C 
ATOM      2  C   UNL     1      55.764 -25.354  -0.737  1.00  0.00     0.177 C 
ATOM      3  C   UNL     1      54.987 -26.596  -1.057  1.00  0.00     0.180 C 
ATOM      4  C   UNL     1      53.650 -26.108  -1.575  1.00  0.00     0.214 C 
ATOM      5  C   UNL     1      52.749 -25.866  -0.344  1.00  0.00     0.339 C 
ATOM      6  O   UNL     1      53.470 -25.154   0.646  1.00  0.00    -0.332 OA
ENDROOT
BRANCH   1   7
ATOM      7  C   UNL     1      54.803 -23.022   0.564  1.00  0.00     0.198 C 
BRANCH   7   8
ATOM      8  O   UNL     1      54.386 -22.394  -0.692  1.00  0.00    -0.347 OA
BRANCH   8   9
ATOM      9  C   UNL     1      53.147 -21.732  -0.728  1.00  0.00     0.281 C 
ATOM     10  C   UNL     1      51.393 -20.122   2.287  1.00  0.00     0.041 C 
ATOM     11  C   UNL     1      51.531 -20.876   0.886  1.00  0.00     0.150 C 
ATOM     12  C   UNL     1      51.042 -20.000  -0.329  1.00  0.00     0.174 C 
ATOM     13  O   UNL     1      52.779 -21.523   0.630  1.00  0.00    -0.344 OA
ATOM     14  C   UNL     1      52.208 -19.389  -1.236  1.00  0.00     0.179 C 
ATOM     15  C   UNL     1      53.429 -20.328  -1.288  1.00  0.00     0.202 C 
BRANCH  12  16
ATOM     16  O   UNL     1      50.114 -19.060   0.094  1.00  0.00    -0.388 OA
ATOM     17  H   UNL     1      50.609 -18.249   0.405  1.00  0.00     0.211 HD
ENDBRANCH  12  16
BRANCH  14  18
ATOM     18  O   UNL     1      51.671 -19.222  -2.529  1.00  0.00    -0.387 OA
ATOM     19  H   UNL     1      52.313 -18.608  -2.984  1.00  0.00     0.211 HD
ENDBRANCH  14  18
BRANCH  15  20
ATOM     20  O   UNL     1      54.150 -20.290  -2.546  1.00  0.00    -0.385 OA
ATOM     21  H   UNL     1      54.479 -21.249  -2.638  1.00  0.00     0.211 HD
ENDBRANCH  15  20
ENDBRANCH   8   9
ENDBRANCH   7   8
ENDBRANCH   1   7
BRANCH   2  22
ATOM     22  O   UNL     1      56.040 -24.616  -1.910  1.00  0.00    -0.387 OA
ATOM     23  H   UNL     1      56.549 -23.792  -1.592  1.00  0.00     0.211 HD
ENDBRANCH   2  22
BRANCH   3  24
ATOM     24  O   UNL     1      55.689 -27.473  -1.957  1.00  0.00    -0.387 OA
ATOM     25  H   UNL     1      55.533 -28.365  -1.589  1.00  0.00     0.211 HD
ENDBRANCH   3  24
BRANCH   5  26
ATOM     26  O   UNL     1      52.342 -27.079   0.290  1.00  0.00    -0.462 OA
BRANCH  26  27
ATOM     27  C   UNL     1      52.311 -27.410   1.677  1.00  0.00     0.130 A 
ATOM     28  C   UNL     1      53.068 -28.457   2.152  1.00  0.00     0.093 A 
ATOM     29  C   UNL     1      51.350 -26.794   2.540  1.00  0.00     0.094 A 
ATOM     30  C   UNL     1      52.851 -28.991   3.451  1.00  0.00     0.133 A 
ATOM     31  C   UNL     1      51.167 -27.304   3.870  1.00  0.00     0.138 A 
ATOM     32  C   UNL     1      51.982 -28.308   4.380  1.00  0.00     0.102 A 
ATOM     33  O   UNL     1      50.107 -26.806   4.718  1.00  0.00    -0.484 OA
ATOM     34  C   UNL     1      52.052 -28.539   5.849  1.00  0.00     0.174 C 
ATOM     35  C   UNL     1      50.072 -26.992   6.178  1.00  0.00     0.211 C 
ATOM     36  O   UNL     1      53.045 -29.198   6.306  1.00  0.00    -0.294 OA
ATOM     37  C   UNL     1      50.962 -28.149   6.761  1.00  0.00     0.131 C 
BRANCH  30  38
ATOM     38  O   UNL     1      53.518 -30.159   3.841  1.00  0.00    -0.507 OA
ATOM     39  H   UNL     1      54.297 -30.080   4.456  1.00  0.00     0.293 HD
ENDBRANCH  30  38
BRANCH  35  40
ATOM     40  C   UNL     1      48.633 -27.289   6.576  1.00  0.00    -0.003 A 
ATOM     41  C   UNL     1      47.688 -27.781   5.664  1.00  0.00     0.057 A 
ATOM     42  C   UNL     1      48.269 -27.142   7.927  1.00  0.00     0.011 A 
ATOM     43  C   UNL     1      46.416 -28.177   6.078  1.00  0.00     0.158 A 
ATOM     44  C   UNL     1      46.992 -27.498   8.349  1.00  0.00     0.051 A 
ATOM     45  C   UNL     1      46.085 -28.096   7.458  1.00  0.00     0.160 A 
BRANCH  43  46
ATOM     46  O   UNL     1      45.459 -28.636   5.183  1.00  0.00    -0.504 OA
ATOM     47  H   UNL     1      44.718 -28.056   4.829  1.00  0.00     0.293 HD
ENDBRANCH  43  46
BRANCH  45  48
ATOM     48  O   UNL     1      44.832 -28.589   7.868  1.00  0.00    -0.493 OA
ATOM     49  C   UNL     1      43.860 -27.871   8.670  1.00  0.00     0.278 C 
ENDBRANCH  45  48
ENDBRANCH  35  40
ENDBRANCH  26  27
ENDBRANCH   5  26
BRANCH   4  50
ATOM     50  O   UNL     1      53.039 -27.006  -2.484  1.00  0.00    -0.384 OA
ATOM     51  H   UNL     1      52.310 -27.492  -1.985  1.00  0.00     0.211 HD
ENDBRANCH   4  50
TORSDOF 15
ENDMDL
MODEL 6
REMARK VINA RESULT:    -6.959      6.323     10.435
REMARK INTER + INTRA:         -13.382
REMARK INTER:                 -11.382
REMARK INTRA:                  -2.000
REMARK UNBOUND:                -1.949
REMARK SMILES COc1ccc([C@H]2CC(=O)c3c(O)cc(O[C@H]4O[C@H](CO[C@H]5O[C@@H](C)[C@@H](O)[C@H](O)[C@@H]5O)[C@H](O)[C@H](O)[C@H]4O)cc3O2)cc1O
REMARK SMILES IDX 19 1 32 2 34 3 36 4 17 5 18 6 20 7 21 8 22 9 25 10 24 11
REMARK SMILES IDX 26 12 23 13 28 14 30 15 27 16 29 18 31 20 33 22 35 24 16 26
REMARK SMILES IDX 15 27 14 28 38 29 12 30 39 31 11 32 40 33 9 34 7 35 10 36
REMARK SMILES IDX 8 37 13 38 6 40 41 41 5 42 42 43 4 44 3 45 43 46 2 48 1 49
REMARK SMILES IDX 37 50
REMARK H PARENT 27 17 29 19 31 21 33 23 35 25 13 39 43 47 37 51
REMARK Flexibility Score: inf
ROOT
ATOM      1  C   UNL     1      54.154 -25.885  -0.361  1.00  0.00     0.180 C 
ATOM      2  C   UNL     1      55.124 -26.990  -1.148  1.00  0.00     0.177 C 
ATOM      3  C   UNL     1      54.285 -28.233  -1.150  1.00  0.00     0.180 C 
ATOM      4  C   UNL     1      53.015 -27.857  -1.883  1.00  0.00     0.214 C 
ATOM      5  C   UNL     1      52.064 -27.221  -0.845  1.00  0.00     0.339 C 
ATOM      6  O   UNL     1      52.774 -26.284  -0.054  1.00  0.00    -0.332 OA
ENDROOT
BRANCH   1   7
ATOM      7  C   UNL     1      54.249 -24.336  -0.655  1.00  0.00     0.198 C 
BRANCH   7   8
ATOM      8  O   UNL     1      54.440 -23.609   0.602  1.00  0.00    -0.347 OA
BRANCH   8   9
ATOM      9  C   UNL     1      53.583 -22.533   0.888  1.00  0.00     0.281 C 
ATOM     10  C   UNL     1      51.740 -20.399  -1.721  1.00  0.00     0.041 C 
ATOM     11  C   UNL     1      52.491 -20.739  -0.353  1.00  0.00     0.150 C 
ATOM     12  C   UNL     1      51.533 -20.692   0.897  1.00  0.00     0.174 C 
ATOM     13  O   UNL     1      53.332 -21.896  -0.358  1.00  0.00    -0.344 OA
ATOM     14  C   UNL     1      51.112 -22.120   1.481  1.00  0.00     0.179 C 
ATOM     15  C   UNL     1      52.239 -23.155   1.299  1.00  0.00     0.202 C 
BRANCH  12  16
ATOM     16  O   UNL     1      50.457 -19.852   0.652  1.00  0.00    -0.388 OA
ATOM     17  H   UNL     1      50.521 -19.072   1.272  1.00  0.00     0.211 HD
ENDBRANCH  12  16
BRANCH  14  18
ATOM     18  O   UNL     1      50.844 -21.934   2.853  1.00  0.00    -0.387 OA
ATOM     19  H   UNL     1      51.007 -22.830   3.260  1.00  0.00     0.211 HD
ENDBRANCH  14  18
BRANCH  15  20
ATOM     20  O   UNL     1      52.305 -24.147   2.355  1.00  0.00    -0.385 OA
ATOM     21  H   UNL     1      51.521 -23.886   2.950  1.00  0.00     0.211 HD
ENDBRANCH  15  20
ENDBRANCH   8   9
ENDBRANCH   7   8
ENDBRANCH   1   7
BRANCH   2  22
ATOM     22  O   UNL     1      55.514 -26.644  -2.461  1.00  0.00    -0.387 OA
ATOM     23  H   UNL     1      54.699 -26.187  -2.869  1.00  0.00     0.211 HD
ENDBRANCH   2  22
BRANCH   3  24
ATOM     24  O   UNL     1      54.977 -29.368  -1.702  1.00  0.00    -0.387 OA
ATOM     25  H   UNL     1      54.795 -30.089  -1.067  1.00  0.00     0.211 HD
ENDBRANCH   3  24
BRANCH   5  26
ATOM     26  O   UNL     1      51.543 -28.173   0.083  1.00  0.00    -0.462 OA
BRANCH  26  27
ATOM     27  C   UNL     1      51.685 -28.228   1.501  1.00  0.00     0.130 A 
ATOM     28  C   UNL     1      52.531 -29.152   2.072  1.00  0.00     0.093 A 
ATOM     29  C   UNL     1      50.809 -27.469   2.339  1.00  0.00     0.094 A 
ATOM     30  C   UNL     1      52.486 -29.426   3.466  1.00  0.00     0.133 A 
ATOM     31  C   UNL     1      50.800 -27.713   3.755  1.00  0.00     0.138 A 
ATOM     32  C   UNL     1      51.705 -28.587   4.345  1.00  0.00     0.102 A 
ATOM     33  O   UNL     1      49.828 -27.074   4.613  1.00  0.00    -0.484 OA
ATOM     34  C   UNL     1      51.954 -28.527   5.811  1.00  0.00     0.174 C 
ATOM     35  C   UNL     1      49.969 -26.973   6.076  1.00  0.00     0.211 C 
ATOM     36  O   UNL     1      53.017 -29.070   6.263  1.00  0.00    -0.294 OA
ATOM     37  C   UNL     1      50.963 -27.982   6.758  1.00  0.00     0.131 C 
BRANCH  30  38
ATOM     38  O   UNL     1      53.236 -30.486   3.989  1.00  0.00    -0.507 OA
ATOM     39  H   UNL     1      53.289 -30.589   4.978  1.00  0.00     0.293 HD
ENDBRANCH  30  38
BRANCH  35  40
ATOM     40  C   UNL     1      48.598 -27.207   6.694  1.00  0.00    -0.003 A 
ATOM     41  C   UNL     1      47.498 -27.640   5.939  1.00  0.00     0.057 A 
ATOM     42  C   UNL     1      48.459 -27.063   8.086  1.00  0.00     0.011 A 
ATOM     43  C   UNL     1      46.289 -27.981   6.546  1.00  0.00     0.158 A 
ATOM     44  C   UNL     1      47.249 -27.364   8.703  1.00  0.00     0.051 A 
ATOM     45  C   UNL     1      46.184 -27.905   7.962  1.00  0.00     0.160 A 
BRANCH  43  46
ATOM     46  O   UNL     1      45.181 -28.380   5.811  1.00  0.00    -0.504 OA
ATOM     47  H   UNL     1      44.426 -28.914   6.206  1.00  0.00     0.293 HD
ENDBRANCH  43  46
BRANCH  45  48
ATOM     48  O   UNL     1      44.989 -28.343   8.562  1.00  0.00    -0.493 OA
ATOM     49  C   UNL     1      44.037 -27.505   9.265  1.00  0.00     0.278 C 
ENDBRANCH  45  48
ENDBRANCH  35  40
ENDBRANCH  26  27
ENDBRANCH   5  26
BRANCH   4  50
ATOM     50  O   UNL     1      52.398 -28.953  -2.534  1.00  0.00    -0.384 OA
ATOM     51  H   UNL     1      51.784 -29.394  -1.866  1.00  0.00     0.211 HD
ENDBRANCH   4  50
TORSDOF 15
ENDMDL
MODEL 7
REMARK VINA RESULT:    -6.953      2.101     11.055
REMARK INTER + INTRA:         -13.373
REMARK INTER:                 -11.619
REMARK INTRA:                  -1.754
REMARK UNBOUND:                -1.949
REMARK SMILES COc1ccc([C@H]2CC(=O)c3c(O)cc(O[C@H]4O[C@H](CO[C@H]5O[C@@H](C)[C@@H](O)[C@H](O)[C@@H]5O)[C@H](O)[C@H](O)[C@H]4O)cc3O2)cc1O
REMARK SMILES IDX 19 1 32 2 34 3 36 4 17 5 18 6 20 7 21 8 22 9 25 10 24 11
REMARK SMILES IDX 26 12 23 13 28 14 30 15 27 16 29 18 31 20 33 22 35 24 16 26
REMARK SMILES IDX 15 27 14 28 38 29 12 30 39 31 11 32 40 33 9 34 7 35 10 36
REMARK SMILES IDX 8 37 13 38 6 40 41 41 5 42 42 43 4 44 3 45 43 46 2 48 1 49
REMARK SMILES IDX 37 50
REMARK H PARENT 27 17 29 19 31 21 33 23 35 25 13 39 43 47 37 51
REMARK Flexibility Score: inf
ROOT
ATOM      1  C   UNL     1      52.353 -30.909   0.110  1.00  0.00     0.180 C 
ATOM      2  C   UNL     1      52.588 -32.334   0.943  1.00  0.00     0.177 C 
ATOM      3  C   UNL     1      54.076 -32.513   0.890  1.00  0.00     0.180 C 
ATOM      4  C   UNL     1      54.651 -31.280   1.554  1.00  0.00     0.214 C 
ATOM      5  C   UNL     1      54.748 -30.185   0.468  1.00  0.00     0.339 C 
ATOM      6  O   UNL     1      53.542 -30.139  -0.276  1.00  0.00    -0.332 OA
ENDROOT
BRANCH   1   7
ATOM      7  C   UNL     1      51.131 -29.956   0.419  1.00  0.00     0.198 C 
BRANCH   7   8
ATOM      8  O   UNL     1      51.123 -29.617   1.844  1.00  0.00    -0.347 OA
BRANCH   8   9
ATOM      9  C   UNL     1      51.429 -28.297   2.218  1.00  0.00     0.281 C 
ATOM     10  C   UNL     1      49.319 -25.198   1.379  1.00  0.00     0.041 C 
ATOM     11  C   UNL     1      50.634 -26.056   1.675  1.00  0.00     0.150 C 
ATOM     12  C   UNL     1      51.319 -25.670   3.040  1.00  0.00     0.174 C 
ATOM     13  O   UNL     1      50.527 -27.470   1.495  1.00  0.00    -0.344 OA
ATOM     14  C   UNL     1      51.104 -26.720   4.227  1.00  0.00     0.179 C 
ATOM     15  C   UNL     1      51.007 -28.161   3.689  1.00  0.00     0.202 C 
BRANCH  12  16
ATOM     16  O   UNL     1      51.005 -24.365   3.388  1.00  0.00    -0.388 OA
ATOM     17  H   UNL     1      50.198 -24.383   3.976  1.00  0.00     0.211 HD
ENDBRANCH  12  16
BRANCH  14  18
ATOM     18  O   UNL     1      52.218 -26.598   5.083  1.00  0.00    -0.387 OA
ATOM     19  H   UNL     1      52.897 -27.215   4.693  1.00  0.00     0.211 HD
ENDBRANCH  14  18
BRANCH  15  20
ATOM     20  O   UNL     1      51.544 -29.164   4.589  1.00  0.00    -0.385 OA
ATOM     21  H   UNL     1      50.974 -29.037   5.423  1.00  0.00     0.211 HD
ENDBRANCH  15  20
ENDBRANCH   8   9
ENDBRANCH   7   8
ENDBRANCH   1   7
BRANCH   2  22
ATOM     22  O   UNL     1      52.126 -32.353   2.278  1.00  0.00    -0.387 OA
ATOM     23  H   UNL     1      52.023 -33.340   2.510  1.00  0.00     0.211 HD
ENDBRANCH   2  22
BRANCH   3  24
ATOM     24  O   UNL     1      54.506 -33.757   1.472  1.00  0.00    -0.387 OA
ATOM     25  H   UNL     1      53.938 -33.858   2.262  1.00  0.00     0.211 HD
ENDBRANCH   3  24
BRANCH   5  26
ATOM     26  O   UNL     1      55.769 -30.448  -0.494  1.00  0.00    -0.462 OA
BRANCH  26  27
ATOM     27  C   UNL     1      55.663 -30.617  -1.906  1.00  0.00     0.130 A 
ATOM     28  C   UNL     1      55.400 -29.531  -2.711  1.00  0.00     0.093 A 
ATOM     29  C   UNL     1      55.627 -31.931  -2.470  1.00  0.00     0.094 A 
ATOM     30  C   UNL     1      55.011 -29.699  -4.067  1.00  0.00     0.133 A 
ATOM     31  C   UNL     1      55.281 -32.095  -3.855  1.00  0.00     0.138 A 
ATOM     32  C   UNL     1      55.093 -31.000  -4.690  1.00  0.00     0.102 A 
ATOM     33  O   UNL     1      55.091 -33.411  -4.423  1.00  0.00    -0.484 OA
ATOM     34  C   UNL     1      55.137 -31.171  -6.168  1.00  0.00     0.174 C 
ATOM     35  C   UNL     1      55.102 -33.687  -5.869  1.00  0.00     0.211 C 
ATOM     36  O   UNL     1      55.318 -30.132  -6.887  1.00  0.00    -0.294 OA
ATOM     37  C   UNL     1      54.853 -32.462  -6.821  1.00  0.00     0.131 C 
BRANCH  30  38
ATOM     38  O   UNL     1      54.589 -28.591  -4.810  1.00  0.00    -0.507 OA
ATOM     39  H   UNL     1      54.978 -28.447  -5.716  1.00  0.00     0.293 HD
ENDBRANCH  30  38
BRANCH  35  40
ATOM     40  C   UNL     1      54.010 -34.708  -6.157  1.00  0.00    -0.003 A 
ATOM     41  C   UNL     1      54.244 -35.864  -6.917  1.00  0.00     0.057 A 
ATOM     42  C   UNL     1      52.747 -34.522  -5.567  1.00  0.00     0.011 A 
ATOM     43  C   UNL     1      53.271 -36.855  -7.053  1.00  0.00     0.158 A 
ATOM     44  C   UNL     1      51.754 -35.483  -5.723  1.00  0.00     0.051 A 
ATOM     45  C   UNL     1      52.026 -36.691  -6.388  1.00  0.00     0.160 A 
BRANCH  43  46
ATOM     46  O   UNL     1      53.476 -37.988  -7.827  1.00  0.00    -0.504 OA
ATOM     47  H   UNL     1      54.388 -38.371  -8.007  1.00  0.00     0.293 HD
ENDBRANCH  43  46
BRANCH  45  48
ATOM     48  O   UNL     1      51.094 -37.744  -6.460  1.00  0.00    -0.493 OA
ATOM     49  C   UNL     1      49.777 -37.670  -7.064  1.00  0.00     0.278 C 
ENDBRANCH  45  48
ENDBRANCH  35  40
ENDBRANCH  26  27
ENDBRANCH   5  26
BRANCH   4  50
ATOM     50  O   UNL     1      55.910 -31.505   2.162  1.00  0.00    -0.384 OA
ATOM     51  H   UNL     1      56.408 -32.168   1.587  1.00  0.00     0.211 HD
ENDBRANCH   4  50
TORSDOF 15
ENDMDL
MODEL 8
REMARK VINA RESULT:    -6.932      2.612      5.837
REMARK INTER + INTRA:         -13.338
REMARK INTER:                 -11.545
REMARK INTRA:                  -1.793
REMARK UNBOUND:                -1.949
REMARK SMILES COc1ccc([C@H]2CC(=O)c3c(O)cc(O[C@H]4O[C@H](CO[C@H]5O[C@@H](C)[C@@H](O)[C@H](O)[C@@H]5O)[C@H](O)[C@H](O)[C@H]4O)cc3O2)cc1O
REMARK SMILES IDX 19 1 32 2 34 3 36 4 17 5 18 6 20 7 21 8 22 9 25 10 24 11
REMARK SMILES IDX 26 12 23 13 28 14 30 15 27 16 29 18 31 20 33 22 35 24 16 26
REMARK SMILES IDX 15 27 14 28 38 29 12 30 39 31 11 32 40 33 9 34 7 35 10 36
REMARK SMILES IDX 8 37 13 38 6 40 41 41 5 42 42 43 4 44 3 45 43 46 2 48 1 49
REMARK SMILES IDX 37 50
REMARK H PARENT 27 17 29 19 31 21 33 23 35 25 13 39 43 47 37 51
REMARK Flexibility Score: inf
ROOT
ATOM      1  C   UNL     1      53.650 -30.859  -3.271  1.00  0.00     0.180 C 
ATOM      2  C   UNL     1      54.401 -32.057  -2.386  1.00  0.00     0.177 C 
ATOM      3  C   UNL     1      54.288 -31.556  -0.977  1.00  0.00     0.180 C 
ATOM      4  C   UNL     1      52.802 -31.407  -0.724  1.00  0.00     0.214 C 
ATOM      5  C   UNL     1      52.392 -30.013  -1.248  1.00  0.00     0.339 C 
ATOM      6  O   UNL     1      52.956 -29.798  -2.531  1.00  0.00    -0.332 OA
ENDROOT
BRANCH   1   7
ATOM      7  C   UNL     1      52.929 -31.165  -4.643  1.00  0.00     0.198 C 
BRANCH   7   8
ATOM      8  O   UNL     1      52.104 -32.366  -4.505  1.00  0.00    -0.347 OA
BRANCH   8   9
ATOM      9  C   UNL     1      51.719 -33.050  -5.671  1.00  0.00     0.281 C 
ATOM     10  C   UNL     1      52.088 -31.719  -9.256  1.00  0.00     0.041 C 
ATOM     11  C   UNL     1      51.447 -32.531  -8.039  1.00  0.00     0.150 C 
ATOM     12  C   UNL     1      51.564 -34.091  -8.217  1.00  0.00     0.174 C 
ATOM     13  O   UNL     1      51.807 -32.099  -6.725  1.00  0.00    -0.344 OA
ATOM     14  C   UNL     1      52.673 -34.795  -7.306  1.00  0.00     0.179 C 
ATOM     15  C   UNL     1      52.834 -34.068  -5.956  1.00  0.00     0.202 C 
BRANCH  12  16
ATOM     16  O   UNL     1      51.657 -34.420  -9.561  1.00  0.00    -0.388 OA
ATOM     17  H   UNL     1      51.353 -33.634 -10.098  1.00  0.00     0.211 HD
ENDBRANCH  12  16
BRANCH  14  18
ATOM     18  O   UNL     1      52.241 -36.121  -7.092  1.00  0.00    -0.387 OA
ATOM     19  H   UNL     1      51.253 -36.082  -7.225  1.00  0.00     0.211 HD
ENDBRANCH  14  18
BRANCH  15  20
ATOM     20  O   UNL     1      53.180 -34.943  -4.852  1.00  0.00    -0.385 OA
ATOM     21  H   UNL     1      53.280 -34.289  -4.079  1.00  0.00     0.211 HD
ENDBRANCH  15  20
ENDBRANCH   8   9
ENDBRANCH   7   8
ENDBRANCH   1   7
BRANCH   2  22
ATOM     22  O   UNL     1      53.848 -33.352  -2.507  1.00  0.00    -0.387 OA
ATOM     23  H   UNL     1      52.839 -33.208  -2.544  1.00  0.00     0.211 HD
ENDBRANCH   2  22
BRANCH   3  24
ATOM     24  O   UNL     1      54.970 -32.401  -0.033  1.00  0.00    -0.387 OA
ATOM     25  H   UNL     1      54.683 -33.305  -0.271  1.00  0.00     0.211 HD
ENDBRANCH   3  24
BRANCH   5  26
ATOM     26  O   UNL     1      52.890 -28.949  -0.438  1.00  0.00    -0.462 OA
BRANCH  26  27
ATOM     27  C   UNL     1      52.183 -27.881   0.190  1.00  0.00     0.130 A 
ATOM     28  C   UNL     1      52.698 -26.604   0.160  1.00  0.00     0.093 A 
ATOM     29  C   UNL     1      51.051 -28.160   1.018  1.00  0.00     0.094 A 
ATOM     30  C   UNL     1      52.180 -25.583   1.002  1.00  0.00     0.133 A 
ATOM     31  C   UNL     1      50.497 -27.113   1.831  1.00  0.00     0.138 A 
ATOM     32  C   UNL     1      50.962 -25.806   1.747  1.00  0.00     0.102 A 
ATOM     33  O   UNL     1      49.450 -27.391   2.789  1.00  0.00    -0.484 OA
ATOM     34  C   UNL     1      50.138 -24.684   2.273  1.00  0.00     0.174 C 
ATOM     35  C   UNL     1      48.588 -26.354   3.382  1.00  0.00     0.211 C 
ATOM     36  O   UNL     1      50.407 -23.502   1.874  1.00  0.00    -0.294 OA
ATOM     37  C   UNL     1      49.122 -24.878   3.324  1.00  0.00     0.131 C 
BRANCH  30  38
ATOM     38  O   UNL     1      52.830 -24.346   1.073  1.00  0.00    -0.507 OA
ATOM     39  H   UNL     1      52.514 -23.679   1.742  1.00  0.00     0.293 HD
ENDBRANCH  30  38
BRANCH  35  40
ATOM     40  C   UNL     1      48.384 -26.701   4.850  1.00  0.00    -0.003 A 
ATOM     41  C   UNL     1      49.347 -26.416   5.830  1.00  0.00     0.057 A 
ATOM     42  C   UNL     1      47.150 -27.249   5.243  1.00  0.00     0.011 A 
ATOM     43  C   UNL     1      49.086 -26.613   7.186  1.00  0.00     0.158 A 
ATOM     44  C   UNL     1      46.887 -27.487   6.588  1.00  0.00     0.051 A 
ATOM     45  C   UNL     1      47.807 -27.096   7.577  1.00  0.00     0.160 A 
BRANCH  43  46
ATOM     46  O   UNL     1      50.039 -26.367   8.164  1.00  0.00    -0.504 OA
ATOM     47  H   UNL     1      50.899 -25.879   7.980  1.00  0.00     0.293 HD
ENDBRANCH  43  46
BRANCH  45  48
ATOM     48  O   UNL     1      47.531 -27.199   8.953  1.00  0.00    -0.493 OA
ATOM     49  C   UNL     1      46.330 -27.764   9.537  1.00  0.00     0.278 C 
ENDBRANCH  45  48
ENDBRANCH  35  40
ENDBRANCH  26  27
ENDBRANCH   5  26
BRANCH   4  50
ATOM     50  O   UNL     1      52.447 -31.563   0.638  1.00  0.00    -0.384 OA
ATOM     51  H   UNL     1      51.707 -32.247   0.680  1.00  0.00     0.211 HD
ENDBRANCH   4  50
TORSDOF 15
ENDMDL
MODEL 9
REMARK VINA RESULT:    -6.852      1.778      2.497
REMARK INTER + INTRA:         -13.206
REMARK INTER:                 -11.250
REMARK INTRA:                  -1.956
REMARK UNBOUND:                -1.949
REMARK SMILES COc1ccc([C@H]2CC(=O)c3c(O)cc(O[C@H]4O[C@H](CO[C@H]5O[C@@H](C)[C@@H](O)[C@H](O)[C@@H]5O)[C@H](O)[C@H](O)[C@H]4O)cc3O2)cc1O
REMARK SMILES IDX 19 1 32 2 34 3 36 4 17 5 18 6 20 7 21 8 22 9 25 10 24 11
REMARK SMILES IDX 26 12 23 13 28 14 30 15 27 16 29 18 31 20 33 22 35 24 16 26
REMARK SMILES IDX 15 27 14 28 38 29 12 30 39 31 11 32 40 33 9 34 7 35 10 36
REMARK SMILES IDX 8 37 13 38 6 40 41 41 5 42 42 43 4 44 3 45 43 46 2 48 1 49
REMARK SMILES IDX 37 50
REMARK H PARENT 27 17 29 19 31 21 33 23 35 25 13 39 43 47 37 51
REMARK Flexibility Score: inf
ROOT
ATOM      1  C   UNL     1      52.127 -31.726  -8.071  1.00  0.00     0.180 C 
ATOM      2  C   UNL     1      53.571 -31.952  -8.872  1.00  0.00     0.177 C 
ATOM      3  C   UNL     1      54.591 -31.762  -7.789  1.00  0.00     0.180 C 
ATOM      4  C   UNL     1      54.265 -32.810  -6.745  1.00  0.00     0.214 C 
ATOM      5  C   UNL     1      53.180 -32.209  -5.824  1.00  0.00     0.339 C 
ATOM      6  O   UNL     1      52.170 -31.597  -6.608  1.00  0.00    -0.332 OA
ENDROOT
BRANCH   1   7
ATOM      7  C   UNL     1      50.793 -32.430  -8.543  1.00  0.00     0.198 C 
BRANCH   7   8
ATOM      8  O   UNL     1      50.185 -33.136  -7.413  1.00  0.00    -0.347 OA
BRANCH   8   9
ATOM      9  C   UNL     1      50.266 -34.538  -7.380  1.00  0.00     0.281 C 
ATOM     10  C   UNL     1      53.101 -36.642  -8.896  1.00  0.00     0.041 C 
ATOM     11  C   UNL     1      51.617 -36.275  -8.432  1.00  0.00     0.150 C 
ATOM     12  C   UNL     1      51.122 -37.152  -7.221  1.00  0.00     0.174 C 
ATOM     13  O   UNL     1      51.327 -34.886  -8.260  1.00  0.00    -0.344 OA
ATOM     14  C   UNL     1      51.095 -36.402  -5.809  1.00  0.00     0.179 C 
ATOM     15  C   UNL     1      50.773 -34.904  -5.976  1.00  0.00     0.202 C 
BRANCH  12  16
ATOM     16  O   UNL     1      51.794 -38.365  -7.194  1.00  0.00    -0.388 OA
ATOM     17  H   UNL     1      52.745 -38.202  -7.454  1.00  0.00     0.211 HD
ENDBRANCH  12  16
BRANCH  14  18
ATOM     18  O   UNL     1      50.095 -37.028  -5.036  1.00  0.00    -0.387 OA
ATOM     19  H   UNL     1      49.239 -36.725  -5.450  1.00  0.00     0.211 HD
ENDBRANCH  14  18
BRANCH  15  20
ATOM     20  O   UNL     1      50.023 -34.335  -4.872  1.00  0.00    -0.385 OA
ATOM     21  H   UNL     1      50.371 -34.865  -4.076  1.00  0.00     0.211 HD
ENDBRANCH  15  20
ENDBRANCH   8   9
ENDBRANCH   7   8
ENDBRANCH   1   7
BRANCH   2  22
ATOM     22  O   UNL     1      53.737 -33.205  -9.505  1.00  0.00    -0.387 OA
ATOM     23  H   UNL     1      53.735 -33.001 -10.503  1.00  0.00     0.211 HD
ENDBRANCH   2  22
BRANCH   3  24
ATOM     24  O   UNL     1      55.942 -31.815  -8.284  1.00  0.00    -0.387 OA
ATOM     25  H   UNL     1      56.293 -30.918  -8.111  1.00  0.00     0.211 HD
ENDBRANCH   3  24
BRANCH   5  26
ATOM     26  O   UNL     1      53.681 -31.169  -4.985  1.00  0.00    -0.462 OA
BRANCH  26  27
ATOM     27  C   UNL     1      53.804 -31.131  -3.564  1.00  0.00     0.130 A 
ATOM     28  C   UNL     1      53.995 -32.297  -2.858  1.00  0.00     0.093 A 
ATOM     29  C   UNL     1      53.532 -29.920  -2.854  1.00  0.00     0.094 A 
ATOM     30  C   UNL     1      53.840 -32.336  -1.447  1.00  0.00     0.133 A 
ATOM     31  C   UNL     1      53.424 -29.951  -1.421  1.00  0.00     0.138 A 
ATOM     32  C   UNL     1      53.693 -31.108  -0.700  1.00  0.00     0.102 A 
ATOM     33  O   UNL     1      53.005 -28.781  -0.682  1.00  0.00    -0.484 OA
ATOM     34  C   UNL     1      53.970 -31.030   0.761  1.00  0.00     0.174 C 
ATOM     35  C   UNL     1      53.218 -28.610   0.766  1.00  0.00     0.211 C 
ATOM     36  O   UNL     1      54.552 -32.021   1.315  1.00  0.00    -0.294 OA
ATOM     37  C   UNL     1      53.486 -29.917   1.597  1.00  0.00     0.131 C 
BRANCH  30  38
ATOM     38  O   UNL     1      53.874 -33.565  -0.778  1.00  0.00    -0.507 OA
ATOM     39  H   UNL     1      54.557 -33.702  -0.066  1.00  0.00     0.293 HD
ENDBRANCH  30  38
BRANCH  35  40
ATOM     40  C   UNL     1      51.971 -27.957   1.346  1.00  0.00    -0.003 A 
ATOM     41  C   UNL     1      50.732 -27.988   0.688  1.00  0.00     0.057 A 
ATOM     42  C   UNL     1      52.052 -27.378   2.625  1.00  0.00     0.011 A 
ATOM     43  C   UNL     1      49.573 -27.506   1.298  1.00  0.00     0.158 A 
ATOM     44  C   UNL     1      50.913 -26.860   3.232  1.00  0.00     0.051 A 
ATOM     45  C   UNL     1      49.654 -26.994   2.622  1.00  0.00     0.160 A 
BRANCH  43  46
ATOM     46  O   UNL     1      48.346 -27.500   0.649  1.00  0.00    -0.504 OA
ATOM     47  H   UNL     1      48.257 -27.474  -0.352  1.00  0.00     0.293 HD
ENDBRANCH  43  46
BRANCH  45  48
ATOM     48  O   UNL     1      48.459 -26.601   3.253  1.00  0.00    -0.493 OA
ATOM     49  C   UNL     1      48.156 -26.754   4.663  1.00  0.00     0.278 C 
ENDBRANCH  45  48
ENDBRANCH  35  40
ENDBRANCH  26  27
ENDBRANCH   5  26
BRANCH   4  50
ATOM     50  O   UNL     1      55.393 -33.225  -5.997  1.00  0.00    -0.384 OA
ATOM     51  H   UNL     1      55.634 -32.473  -5.370  1.00  0.00     0.211 HD
ENDBRANCH   4  50
TORSDOF 15
ENDMDL
