MODEL 1
REMARK VINA RESULT:    -7.530      0.000      0.000
REMARK INTER + INTRA:         -15.448
REMARK INTER:                 -12.593
REMARK INTRA:                  -2.855
REMARK UNBOUND:                -2.855
REMARK SMILES COc1cc(-c2oc3cc(O)cc(O)c3c(=O)c2O[C@@H]2O[C@@H](CO[C@@H]3O[C@@H](C)[C@@H](O)[C@@H](O)[C@H]3O)[C@H](O)[C@@H](O)[C@@H]2O)ccc1O
REMARK SMILES IDX 22 1 35 2 37 3 39 4 20 5 21 6 23 7 24 8 25 9 28 10 27 11
REMARK SMILES IDX 29 12 26 13 31 14 33 15 30 16 32 18 34 20 36 22 38 24 19 26
REMARK SMILES IDX 18 27 6 28 16 29 7 30 15 31 17 32 8 33 13 34 9 35 12 36
REMARK SMILES IDX 10 37 5 38 4 39 41 40 3 41 42 42 43 43 2 44 1 45 44 46 14 48
REMARK SMILES IDX 11 50 40 52
REMARK H PARENT 30 17 32 19 34 21 36 23 38 25 44 47 14 49 11 51 40 53
REMARK Flexibility Score: inf
ROOT
ATOM      1  C   UNL     1      20.525 -25.416 -21.422  1.00  0.00     0.180 C 
ATOM      2  C   UNL     1      20.975 -26.778 -21.993  1.00  0.00     0.177 C 
ATOM      3  C   UNL     1      21.210 -27.770 -20.839  1.00  0.00     0.180 C 
ATOM      4  C   UNL     1      22.146 -27.146 -19.790  1.00  0.00     0.214 C 
ATOM      5  C   UNL     1      21.639 -25.750 -19.378  1.00  0.00     0.339 C 
ATOM      6  O   UNL     1      21.493 -24.911 -20.514  1.00  0.00    -0.332 OA
ENDROOT
BRANCH   1   7
ATOM      7  C   UNL     1      20.340 -24.381 -22.540  1.00  0.00     0.198 C 
BRANCH   7   8
ATOM      8  O   UNL     1      19.008 -24.439 -23.018  1.00  0.00    -0.347 OA
BRANCH   8   9
ATOM      9  C   UNL     1      18.968 -24.508 -24.437  1.00  0.00     0.281 C 
ATOM     10  C   UNL     1      18.876 -20.888 -25.132  1.00  0.00     0.041 C 
ATOM     11  C   UNL     1      18.387 -22.238 -24.603  1.00  0.00     0.150 C 
ATOM     12  C   UNL     1      16.941 -22.541 -25.077  1.00  0.00     0.174 C 
ATOM     13  O   UNL     1      19.290 -23.252 -25.020  1.00  0.00    -0.344 OA
ATOM     14  C   UNL     1      16.507 -23.941 -24.594  1.00  0.00     0.179 C 
ATOM     15  C   UNL     1      17.585 -24.999 -24.897  1.00  0.00     0.202 C 
BRANCH  12  16
ATOM     16  O   UNL     1      16.794 -22.414 -26.472  1.00  0.00    -0.388 OA
ATOM     17  H   UNL     1      16.834 -21.452 -26.705  1.00  0.00     0.211 HD
ENDBRANCH  12  16
BRANCH  14  18
ATOM     18  O   UNL     1      15.287 -24.313 -25.183  1.00  0.00    -0.387 OA
ATOM     19  H   UNL     1      15.433 -24.322 -26.164  1.00  0.00     0.211 HD
ENDBRANCH  14  18
BRANCH  15  20
ATOM     20  O   UNL     1      17.628 -25.297 -26.271  1.00  0.00    -0.385 OA
ATOM     21  H   UNL     1      17.026 -26.073 -26.418  1.00  0.00     0.211 HD
ENDBRANCH  15  20
ENDBRANCH   8   9
ENDBRANCH   7   8
ENDBRANCH   1   7
BRANCH   2  22
ATOM     22  O   UNL     1      19.982 -27.281 -22.851  1.00  0.00    -0.387 OA
ATOM     23  H   UNL     1      19.106 -27.080 -22.428  1.00  0.00     0.211 HD
ENDBRANCH   2  22
BRANCH   3  24
ATOM     24  O   UNL     1      21.780 -28.949 -21.350  1.00  0.00    -0.387 OA
ATOM     25  H   UNL     1      21.989 -29.527 -20.571  1.00  0.00     0.211 HD
ENDBRANCH   3  24
BRANCH   5  26
ATOM     26  O   UNL     1      20.416 -25.859 -18.639  1.00  0.00    -0.454 OA
BRANCH  26  27
ATOM     27  C   UNL     1      20.159 -25.382 -17.337  1.00  0.00     0.214 A 
ATOM     28  C   UNL     1      19.212 -24.350 -17.186  1.00  0.00     0.180 A 
ATOM     29  C   UNL     1      20.781 -25.891 -16.172  1.00  0.00     0.239 A 
ATOM     30  O   UNL     1      18.933 -23.863 -15.983  1.00  0.00    -0.452 OA
ATOM     31  C   UNL     1      20.478 -25.324 -14.915  1.00  0.00     0.111 A 
ATOM     32  O   UNL     1      21.592 -26.851 -16.249  1.00  0.00    -0.285 OA
ATOM     33  C   UNL     1      19.522 -24.283 -14.873  1.00  0.00     0.146 A 
ATOM     34  C   UNL     1      21.102 -25.732 -13.710  1.00  0.00     0.134 A 
ATOM     35  C   UNL     1      19.193 -23.676 -13.658  1.00  0.00     0.094 A 
ATOM     36  C   UNL     1      20.761 -25.108 -12.502  1.00  0.00     0.093 A 
ATOM     37  C   UNL     1      19.814 -24.083 -12.473  1.00  0.00     0.123 A 
BRANCH  28  38
ATOM     38  C   UNL     1      18.488 -23.794 -18.346  1.00  0.00     0.025 A 
ATOM     39  C   UNL     1      19.063 -22.752 -19.090  1.00  0.00     0.062 A 
ATOM     40  C   UNL     1      17.244 -24.313 -18.738  1.00  0.00     0.016 A 
ATOM     41  C   UNL     1      18.384 -22.200 -20.195  1.00  0.00     0.161 A 
ATOM     42  C   UNL     1      16.568 -23.774 -19.833  1.00  0.00     0.051 A 
ATOM     43  C   UNL     1      17.132 -22.718 -20.560  1.00  0.00     0.157 A 
BRANCH  41  44
ATOM     44  O   UNL     1      18.918 -21.143 -20.949  1.00  0.00    -0.493 OA
ATOM     45  C   UNL     1      18.671 -19.764 -20.691  1.00  0.00     0.278 C 
ENDBRANCH  41  44
BRANCH  43  46
ATOM     46  O   UNL     1      16.454 -22.174 -21.650  1.00  0.00    -0.504 OA
ATOM     47  H   UNL     1      15.454 -22.008 -21.622  1.00  0.00     0.293 HD
ENDBRANCH  43  46
ENDBRANCH  28  38
BRANCH  34  48
ATOM     48  O   UNL     1      22.065 -26.743 -13.706  1.00  0.00    -0.507 OA
ATOM     49  H   UNL     1      22.005 -27.536 -13.077  1.00  0.00     0.293 HD
ENDBRANCH  34  48
BRANCH  37  50
ATOM     50  O   UNL     1      19.501 -23.471 -11.262  1.00  0.00    -0.508 OA
ATOM     51  H   UNL     1      18.552 -23.452 -10.907  1.00  0.00     0.293 HD
ENDBRANCH  37  50
ENDBRANCH  26  27
ENDBRANCH   5  26
BRANCH   4  52
ATOM     52  O   UNL     1      22.220 -27.985 -18.666  1.00  0.00    -0.384 OA
ATOM     53  H   UNL     1      21.748 -27.516 -17.928  1.00  0.00     0.211 HD
ENDBRANCH   4  52
TORSDOF 16
ENDMDL
MODEL 2
REMARK VINA RESULT:    -7.498      7.142      9.800
REMARK INTER + INTRA:         -15.394
REMARK INTER:                 -12.348
REMARK INTRA:                  -3.046
REMARK UNBOUND:                -2.855
REMARK SMILES COc1cc(-c2oc3cc(O)cc(O)c3c(=O)c2O[C@@H]2O[C@@H](CO[C@@H]3O[C@@H](C)[C@@H](O)[C@@H](O)[C@H]3O)[C@H](O)[C@@H](O)[C@@H]2O)ccc1O
REMARK SMILES IDX 22 1 35 2 37 3 39 4 20 5 21 6 23 7 24 8 25 9 28 10 27 11
REMARK SMILES IDX 29 12 26 13 31 14 33 15 30 16 32 18 34 20 36 22 38 24 19 26
REMARK SMILES IDX 18 27 6 28 16 29 7 30 15 31 17 32 8 33 13 34 9 35 12 36
REMARK SMILES IDX 10 37 5 38 4 39 41 40 3 41 42 42 43 43 2 44 1 45 44 46 14 48
REMARK SMILES IDX 11 50 40 52
REMARK H PARENT 30 17 32 19 34 21 36 23 38 25 44 47 14 49 11 51 40 53
REMARK Flexibility Score: inf
ROOT
ATOM      1  C   UNL     1      28.116 -25.202 -17.869  1.00  0.00     0.180 C 
ATOM      2  C   UNL     1      29.507 -25.762 -18.235  1.00  0.00     0.177 C 
ATOM      3  C   UNL     1      30.525 -24.610 -18.314  1.00  0.00     0.180 C 
ATOM      4  C   UNL     1      29.992 -23.499 -19.235  1.00  0.00     0.214 C 
ATOM      5  C   UNL     1      28.561 -23.100 -18.824  1.00  0.00     0.339 C 
ATOM      6  O   UNL     1      27.704 -24.231 -18.819  1.00  0.00    -0.332 OA
ENDROOT
BRANCH   1   7
ATOM      7  C   UNL     1      27.060 -26.315 -17.841  1.00  0.00     0.198 C 
BRANCH   7   8
ATOM      8  O   UNL     1      27.327 -27.244 -18.875  1.00  0.00    -0.347 OA
BRANCH   8   9
ATOM      9  C   UNL     1      26.356 -28.279 -18.908  1.00  0.00     0.281 C 
ATOM     10  C   UNL     1      26.615 -29.124 -22.489  1.00  0.00     0.041 C 
ATOM     11  C   UNL     1      26.315 -28.266 -21.257  1.00  0.00     0.150 C 
ATOM     12  C   UNL     1      24.892 -27.653 -21.328  1.00  0.00     0.174 C 
ATOM     13  O   UNL     1      26.478 -29.060 -20.091  1.00  0.00    -0.344 OA
ATOM     14  C   UNL     1      24.591 -26.860 -20.039  1.00  0.00     0.179 C 
ATOM     15  C   UNL     1      24.945 -27.677 -18.781  1.00  0.00     0.202 C 
BRANCH  12  16
ATOM     16  O   UNL     1      23.899 -28.622 -21.574  1.00  0.00    -0.388 OA
ATOM     17  H   UNL     1      23.733 -28.658 -22.551  1.00  0.00     0.211 HD
ENDBRANCH  12  16
BRANCH  14  18
ATOM     18  O   UNL     1      23.241 -26.472 -19.998  1.00  0.00    -0.387 OA
ATOM     19  H   UNL     1      22.784 -26.950 -20.737  1.00  0.00     0.211 HD
ENDBRANCH  14  18
BRANCH  15  20
ATOM     20  O   UNL     1      24.014 -28.708 -18.570  1.00  0.00    -0.385 OA
ATOM     21  H   UNL     1      23.255 -28.315 -18.063  1.00  0.00     0.211 HD
ENDBRANCH  15  20
ENDBRANCH   8   9
ENDBRANCH   7   8
ENDBRANCH   1   7
BRANCH   2  22
ATOM     22  O   UNL     1      29.916 -26.685 -17.256  1.00  0.00    -0.387 OA
ATOM     23  H   UNL     1      30.272 -26.158 -16.494  1.00  0.00     0.211 HD
ENDBRANCH   2  22
BRANCH   3  24
ATOM     24  O   UNL     1      31.744 -25.102 -18.811  1.00  0.00    -0.387 OA
ATOM     25  H   UNL     1      31.525 -25.689 -19.581  1.00  0.00     0.211 HD
ENDBRANCH   3  24
BRANCH   5  26
ATOM     26  O   UNL     1      28.570 -22.436 -17.554  1.00  0.00    -0.454 OA
BRANCH  26  27
ATOM     27  C   UNL     1      28.060 -21.156 -17.255  1.00  0.00     0.214 A 
ATOM     28  C   UNL     1      26.840 -21.079 -16.555  1.00  0.00     0.180 A 
ATOM     29  C   UNL     1      28.709 -19.946 -17.600  1.00  0.00     0.239 A 
ATOM     30  O   UNL     1      26.313 -19.899 -16.249  1.00  0.00    -0.452 OA
ATOM     31  C   UNL     1      28.099 -18.713 -17.282  1.00  0.00     0.111 A 
ATOM     32  O   UNL     1      29.828 -19.964 -18.175  1.00  0.00    -0.285 OA
ATOM     33  C   UNL     1      26.867 -18.744 -16.588  1.00  0.00     0.146 A 
ATOM     34  C   UNL     1      28.651 -17.460 -17.645  1.00  0.00     0.134 A 
ATOM     35  C   UNL     1      26.212 -17.554 -16.259  1.00  0.00     0.094 A 
ATOM     36  C   UNL     1      27.976 -16.278 -17.310  1.00  0.00     0.093 A 
ATOM     37  C   UNL     1      26.762 -16.321 -16.622  1.00  0.00     0.123 A 
BRANCH  28  38
ATOM     38  C   UNL     1      26.121 -22.294 -16.122  1.00  0.00     0.025 A 
ATOM     39  C   UNL     1      25.172 -22.880 -16.974  1.00  0.00     0.062 A 
ATOM     40  C   UNL     1      26.396 -22.892 -14.883  1.00  0.00     0.016 A 
ATOM     41  C   UNL     1      24.469 -24.034 -16.576  1.00  0.00     0.161 A 
ATOM     42  C   UNL     1      25.705 -24.038 -14.484  1.00  0.00     0.051 A 
ATOM     43  C   UNL     1      24.741 -24.608 -15.325  1.00  0.00     0.157 A 
BRANCH  41  44
ATOM     44  O   UNL     1      23.497 -24.636 -17.391  1.00  0.00    -0.493 OA
ATOM     45  C   UNL     1      22.200 -24.098 -17.630  1.00  0.00     0.278 C 
ENDBRANCH  41  44
BRANCH  43  46
ATOM     46  O   UNL     1      24.045 -25.747 -14.924  1.00  0.00    -0.504 OA
ATOM     47  H   UNL     1      24.530 -26.582 -14.613  1.00  0.00     0.293 HD
ENDBRANCH  43  46
ENDBRANCH  28  38
BRANCH  34  48
ATOM     48  O   UNL     1      29.855 -17.381 -18.347  1.00  0.00    -0.507 OA
ATOM     49  H   UNL     1      30.532 -16.649 -18.165  1.00  0.00     0.293 HD
ENDBRANCH  34  48
BRANCH  37  50
ATOM     50  O   UNL     1      26.107 -15.132 -16.311  1.00  0.00    -0.508 OA
ATOM     51  H   UNL     1      26.602 -14.249 -16.271  1.00  0.00     0.293 HD
ENDBRANCH  37  50
ENDBRANCH  26  27
ENDBRANCH   5  26
BRANCH   4  52
ATOM     52  O   UNL     1      30.843 -22.383 -19.169  1.00  0.00    -0.384 OA
ATOM     53  H   UNL     1      30.792 -21.933 -20.052  1.00  0.00     0.211 HD
ENDBRANCH   4  52
TORSDOF 16
ENDMDL
MODEL 3
REMARK VINA RESULT:    -7.400      1.715      8.706
REMARK INTER + INTRA:         -15.231
REMARK INTER:                 -12.268
REMARK INTRA:                  -2.963
REMARK UNBOUND:                -2.855
REMARK SMILES COc1cc(-c2oc3cc(O)cc(O)c3c(=O)c2O[C@@H]2O[C@@H](CO[C@@H]3O[C@@H](C)[C@@H](O)[C@@H](O)[C@H]3O)[C@H](O)[C@@H](O)[C@@H]2O)ccc1O
REMARK SMILES IDX 22 1 35 2 37 3 39 4 20 5 21 6 23 7 24 8 25 9 28 10 27 11
REMARK SMILES IDX 29 12 26 13 31 14 33 15 30 16 32 18 34 20 36 22 38 24 19 26
REMARK SMILES IDX 18 27 6 28 16 29 7 30 15 31 17 32 8 33 13 34 9 35 12 36
REMARK SMILES IDX 10 37 5 38 4 39 41 40 3 41 42 42 43 43 2 44 1 45 44 46 14 48
REMARK SMILES IDX 11 50 40 52
REMARK H PARENT 30 17 32 19 34 21 36 23 38 25 44 47 14 49 11 51 40 53
REMARK Flexibility Score: inf
ROOT
ATOM      1  C   UNL     1      20.019 -26.467 -19.407  1.00  0.00     0.180 C 
ATOM      2  C   UNL     1      20.860 -27.719 -19.739  1.00  0.00     0.177 C 
ATOM      3  C   UNL     1      21.064 -27.816 -21.262  1.00  0.00     0.180 C 
ATOM      4  C   UNL     1      19.709 -27.713 -21.983  1.00  0.00     0.214 C 
ATOM      5  C   UNL     1      18.929 -26.478 -21.490  1.00  0.00     0.339 C 
ATOM      6  O   UNL     1      18.770 -26.511 -20.080  1.00  0.00    -0.332 OA
ENDROOT
BRANCH   1   7
ATOM      7  C   UNL     1      19.742 -26.369 -17.901  1.00  0.00     0.198 C 
BRANCH   7   8
ATOM      8  O   UNL     1      20.910 -25.921 -17.236  1.00  0.00    -0.347 OA
BRANCH   8   9
ATOM      9  C   UNL     1      21.187 -26.707 -16.086  1.00  0.00     0.281 C 
ATOM     10  C   UNL     1      19.989 -24.333 -13.530  1.00  0.00     0.041 C 
ATOM     11  C   UNL     1      20.872 -24.865 -14.662  1.00  0.00     0.150 C 
ATOM     12  C   UNL     1      22.377 -24.761 -14.301  1.00  0.00     0.174 C 
ATOM     13  O   UNL     1      20.501 -26.206 -14.945  1.00  0.00    -0.344 OA
ATOM     14  C   UNL     1      23.236 -25.376 -15.425  1.00  0.00     0.179 C 
ATOM     15  C   UNL     1      22.706 -26.761 -15.844  1.00  0.00     0.202 C 
BRANCH  12  16
ATOM     16  O   UNL     1      22.674 -25.345 -13.054  1.00  0.00    -0.388 OA
ATOM     17  H   UNL     1      21.869 -25.282 -12.480  1.00  0.00     0.211 HD
ENDBRANCH  12  16
BRANCH  14  18
ATOM     18  O   UNL     1      24.580 -25.475 -15.026  1.00  0.00    -0.387 OA
ATOM     19  H   UNL     1      24.943 -26.296 -15.447  1.00  0.00     0.211 HD
ENDBRANCH  14  18
BRANCH  15  20
ATOM     20  O   UNL     1      22.989 -27.728 -14.863  1.00  0.00    -0.385 OA
ATOM     21  H   UNL     1      23.575 -28.408 -15.286  1.00  0.00     0.211 HD
ENDBRANCH  15  20
ENDBRANCH   8   9
ENDBRANCH   7   8
ENDBRANCH   1   7
BRANCH   2  22
ATOM     22  O   UNL     1      22.110 -27.631 -19.102  1.00  0.00    -0.387 OA
ATOM     23  H   UNL     1      22.422 -28.561 -18.950  1.00  0.00     0.211 HD
ENDBRANCH   2  22
BRANCH   3  24
ATOM     24  O   UNL     1      21.680 -29.040 -21.570  1.00  0.00    -0.387 OA
ATOM     25  H   UNL     1      22.387 -29.185 -20.889  1.00  0.00     0.211 HD
ENDBRANCH   3  24
BRANCH   5  26
ATOM     26  O   UNL     1      19.572 -25.273 -21.922  1.00  0.00    -0.454 OA
BRANCH  26  27
ATOM     27  C   UNL     1      19.008 -24.230 -22.685  1.00  0.00     0.214 A 
ATOM     28  C   UNL     1      18.587 -23.069 -22.007  1.00  0.00     0.180 A 
ATOM     29  C   UNL     1      18.858 -24.271 -24.092  1.00  0.00     0.239 A 
ATOM     30  O   UNL     1      18.048 -22.057 -22.676  1.00  0.00    -0.452 OA
ATOM     31  C   UNL     1      18.252 -23.186 -24.761  1.00  0.00     0.111 A 
ATOM     32  O   UNL     1      19.271 -25.263 -24.749  1.00  0.00    -0.285 OA
ATOM     33  C   UNL     1      17.853 -22.072 -23.987  1.00  0.00     0.146 A 
ATOM     34  C   UNL     1      18.009 -23.175 -26.157  1.00  0.00     0.134 A 
ATOM     35  C   UNL     1      17.236 -20.975 -24.594  1.00  0.00     0.094 A 
ATOM     36  C   UNL     1      17.385 -22.067 -26.747  1.00  0.00     0.093 A 
ATOM     37  C   UNL     1      16.997 -20.972 -25.972  1.00  0.00     0.123 A 
BRANCH  28  38
ATOM     38  C   UNL     1      18.747 -22.929 -20.546  1.00  0.00     0.025 A 
ATOM     39  C   UNL     1      19.978 -22.507 -20.019  1.00  0.00     0.062 A 
ATOM     40  C   UNL     1      17.676 -23.182 -19.675  1.00  0.00     0.016 A 
ATOM     41  C   UNL     1      20.154 -22.377 -18.628  1.00  0.00     0.161 A 
ATOM     42  C   UNL     1      17.844 -23.051 -18.296  1.00  0.00     0.051 A 
ATOM     43  C   UNL     1      19.079 -22.653 -17.770  1.00  0.00     0.157 A 
BRANCH  41  44
ATOM     44  O   UNL     1      21.376 -21.978 -18.063  1.00  0.00    -0.493 OA
ATOM     45  C   UNL     1      22.533 -22.805 -17.979  1.00  0.00     0.278 C 
ENDBRANCH  41  44
BRANCH  43  46
ATOM     46  O   UNL     1      19.249 -22.530 -16.392  1.00  0.00    -0.504 OA
ATOM     47  H   UNL     1      18.679 -23.056 -15.738  1.00  0.00     0.293 HD
ENDBRANCH  43  46
ENDBRANCH  28  38
BRANCH  34  48
ATOM     48  O   UNL     1      18.369 -24.260 -26.958  1.00  0.00    -0.507 OA
ATOM     49  H   UNL     1      18.960 -25.007 -26.610  1.00  0.00     0.293 HD
ENDBRANCH  34  48
BRANCH  37  50
ATOM     50  O   UNL     1      16.369 -19.888 -26.581  1.00  0.00    -0.508 OA
ATOM     51  H   UNL     1      15.360 -19.835 -26.660  1.00  0.00     0.293 HD
ENDBRANCH  37  50
ENDBRANCH  26  27
ENDBRANCH   5  26
BRANCH   4  52
ATOM     52  O   UNL     1      19.917 -27.632 -23.369  1.00  0.00    -0.384 OA
ATOM     53  H   UNL     1      19.842 -28.556 -23.724  1.00  0.00     0.211 HD
ENDBRANCH   4  52
TORSDOF 16
ENDMDL
MODEL 4
REMARK VINA RESULT:    -7.398     12.423     15.327
REMARK INTER + INTRA:         -15.226
REMARK INTER:                 -12.265
REMARK INTRA:                  -2.961
REMARK UNBOUND:                -2.855
REMARK SMILES COc1cc(-c2oc3cc(O)cc(O)c3c(=O)c2O[C@@H]2O[C@@H](CO[C@@H]3O[C@@H](C)[C@@H](O)[C@@H](O)[C@H]3O)[C@H](O)[C@@H](O)[C@@H]2O)ccc1O
REMARK SMILES IDX 22 1 35 2 37 3 39 4 20 5 21 6 23 7 24 8 25 9 28 10 27 11
REMARK SMILES IDX 29 12 26 13 31 14 33 15 30 16 32 18 34 20 36 22 38 24 19 26
REMARK SMILES IDX 18 27 6 28 16 29 7 30 15 31 17 32 8 33 13 34 9 35 12 36
REMARK SMILES IDX 10 37 5 38 4 39 41 40 3 41 42 42 43 43 2 44 1 45 44 46 14 48
REMARK SMILES IDX 11 50 40 52
REMARK H PARENT 30 17 32 19 34 21 36 23 38 25 44 47 14 49 11 51 40 53
REMARK Flexibility Score: inf
ROOT
ATOM      1  C   UNL     1      27.753 -13.219 -13.585  1.00  0.00     0.180 C 
ATOM      2  C   UNL     1      27.974 -11.781 -13.067  1.00  0.00     0.177 C 
ATOM      3  C   UNL     1      29.006 -11.795 -11.925  1.00  0.00     0.180 C 
ATOM      4  C   UNL     1      28.604 -12.831 -10.863  1.00  0.00     0.214 C 
ATOM      5  C   UNL     1      28.317 -14.195 -11.521  1.00  0.00     0.339 C 
ATOM      6  O   UNL     1      27.328 -14.069 -12.531  1.00  0.00    -0.332 OA
ENDROOT
BRANCH   1   7
ATOM      7  C   UNL     1      26.683 -13.255 -14.684  1.00  0.00     0.198 C 
BRANCH   7   8
ATOM      8  O   UNL     1      25.572 -12.473 -14.284  1.00  0.00    -0.347 OA
BRANCH   8   9
ATOM      9  C   UNL     1      24.477 -12.631 -15.175  1.00  0.00     0.281 C 
ATOM     10  C   UNL     1      21.750 -12.090 -12.752  1.00  0.00     0.041 C 
ATOM     11  C   UNL     1      22.955 -12.784 -13.393  1.00  0.00     0.150 C 
ATOM     12  C   UNL     1      22.679 -14.293 -13.628  1.00  0.00     0.174 C 
ATOM     13  O   UNL     1      23.277 -12.123 -14.608  1.00  0.00    -0.344 OA
ATOM     14  C   UNL     1      23.879 -14.946 -14.345  1.00  0.00     0.179 C 
ATOM     15  C   UNL     1      24.328 -14.113 -15.561  1.00  0.00     0.202 C 
BRANCH  12  16
ATOM     16  O   UNL     1      21.479 -14.517 -14.332  1.00  0.00    -0.388 OA
ATOM     17  H   UNL     1      20.859 -13.769 -14.139  1.00  0.00     0.211 HD
ENDBRANCH  12  16
BRANCH  14  18
ATOM     18  O   UNL     1      23.565 -16.255 -14.747  1.00  0.00    -0.387 OA
ATOM     19  H   UNL     1      24.022 -16.405 -15.615  1.00  0.00     0.211 HD
ENDBRANCH  14  18
BRANCH  15  20
ATOM     20  O   UNL     1      23.411 -14.230 -16.620  1.00  0.00    -0.385 OA
ATOM     21  H   UNL     1      23.541 -15.130 -17.020  1.00  0.00     0.211 HD
ENDBRANCH  15  20
ENDBRANCH   8   9
ENDBRANCH   7   8
ENDBRANCH   1   7
BRANCH   2  22
ATOM     22  O   UNL     1      28.441 -10.968 -14.115  1.00  0.00    -0.387 OA
ATOM     23  H   UNL     1      27.814 -10.201 -14.186  1.00  0.00     0.211 HD
ENDBRANCH   2  22
BRANCH   3  24
ATOM     24  O   UNL     1      29.075 -10.516 -11.348  1.00  0.00    -0.387 OA
ATOM     25  H   UNL     1      29.005  -9.861 -12.090  1.00  0.00     0.211 HD
ENDBRANCH   3  24
BRANCH   5  26
ATOM     26  O   UNL     1      29.526 -14.769 -12.033  1.00  0.00    -0.454 OA
BRANCH  26  27
ATOM     27  C   UNL     1      30.134 -15.977 -11.635  1.00  0.00     0.214 A 
ATOM     28  C   UNL     1      29.749 -17.159 -12.298  1.00  0.00     0.180 A 
ATOM     29  C   UNL     1      31.120 -16.071 -10.623  1.00  0.00     0.239 A 
ATOM     30  O   UNL     1      30.288 -18.325 -11.963  1.00  0.00    -0.452 OA
ATOM     31  C   UNL     1      31.644 -17.335 -10.277  1.00  0.00     0.111 A 
ATOM     32  O   UNL     1      31.537 -15.036 -10.042  1.00  0.00    -0.285 OA
ATOM     33  C   UNL     1      31.183 -18.462 -10.995  1.00  0.00     0.146 A 
ATOM     34  C   UNL     1      32.587 -17.523  -9.235  1.00  0.00     0.134 A 
ATOM     35  C   UNL     1      31.659 -19.740 -10.686  1.00  0.00     0.094 A 
ATOM     36  C   UNL     1      33.048 -18.813  -8.938  1.00  0.00     0.093 A 
ATOM     37  C   UNL     1      32.587 -19.918  -9.656  1.00  0.00     0.123 A 
BRANCH  28  38
ATOM     38  C   UNL     1      28.759 -17.141 -13.393  1.00  0.00     0.025 A 
ATOM     39  C   UNL     1      29.133 -16.671 -14.662  1.00  0.00     0.062 A 
ATOM     40  C   UNL     1      27.454 -17.617 -13.194  1.00  0.00     0.016 A 
ATOM     41  C   UNL     1      28.201 -16.637 -15.717  1.00  0.00     0.161 A 
ATOM     42  C   UNL     1      26.526 -17.588 -14.237  1.00  0.00     0.051 A 
ATOM     43  C   UNL     1      26.894 -17.096 -15.495  1.00  0.00     0.157 A 
BRANCH  41  44
ATOM     44  O   UNL     1      28.534 -16.154 -16.993  1.00  0.00    -0.493 OA
ATOM     45  C   UNL     1      29.408 -16.814 -17.902  1.00  0.00     0.278 C 
ENDBRANCH  41  44
BRANCH  43  46
ATOM     46  O   UNL     1      25.966 -17.061 -16.535  1.00  0.00    -0.504 OA
ATOM     47  H   UNL     1      25.234 -17.758 -16.615  1.00  0.00     0.293 HD
ENDBRANCH  43  46
ENDBRANCH  28  38
BRANCH  34  48
ATOM     48  O   UNL     1      33.056 -16.442  -8.487  1.00  0.00    -0.507 OA
ATOM     49  H   UNL     1      33.956 -16.014  -8.675  1.00  0.00     0.293 HD
ENDBRANCH  34  48
BRANCH  37  50
ATOM     50  O   UNL     1      33.053 -21.190  -9.333  1.00  0.00    -0.508 OA
ATOM     51  H   UNL     1      34.045 -21.393  -9.277  1.00  0.00     0.293 HD
ENDBRANCH  37  50
ENDBRANCH  26  27
ENDBRANCH   5  26
BRANCH   4  52
ATOM     52  O   UNL     1      29.632 -12.958  -9.915  1.00  0.00    -0.384 OA
ATOM     53  H   UNL     1      29.537 -12.195  -9.286  1.00  0.00     0.211 HD
ENDBRANCH   4  52
TORSDOF 16
ENDMDL
MODEL 5
REMARK VINA RESULT:    -7.389      9.548     12.658
REMARK INTER + INTRA:         -15.212
REMARK INTER:                 -12.714
REMARK INTRA:                  -2.498
REMARK UNBOUND:                -2.855
REMARK SMILES COc1cc(-c2oc3cc(O)cc(O)c3c(=O)c2O[C@@H]2O[C@@H](CO[C@@H]3O[C@@H](C)[C@@H](O)[C@@H](O)[C@H]3O)[C@H](O)[C@@H](O)[C@@H]2O)ccc1O
REMARK SMILES IDX 22 1 35 2 37 3 39 4 20 5 21 6 23 7 24 8 25 9 28 10 27 11
REMARK SMILES IDX 29 12 26 13 31 14 33 15 30 16 32 18 34 20 36 22 38 24 19 26
REMARK SMILES IDX 18 27 6 28 16 29 7 30 15 31 17 32 8 33 13 34 9 35 12 36
REMARK SMILES IDX 10 37 5 38 4 39 41 40 3 41 42 42 43 43 2 44 1 45 44 46 14 48
REMARK SMILES IDX 11 50 40 52
REMARK H PARENT 30 17 32 19 34 21 36 23 38 25 44 47 14 49 11 51 40 53
REMARK Flexibility Score: inf
ROOT
ATOM      1  C   UNL     1      27.329 -16.641 -14.059  1.00  0.00     0.180 C 
ATOM      2  C   UNL     1      27.863 -16.326 -12.645  1.00  0.00     0.177 C 
ATOM      3  C   UNL     1      28.135 -17.639 -11.889  1.00  0.00     0.180 C 
ATOM      4  C   UNL     1      26.893 -18.546 -11.945  1.00  0.00     0.214 C 
ATOM      5  C   UNL     1      26.404 -18.700 -13.399  1.00  0.00     0.339 C 
ATOM      6  O   UNL     1      26.152 -17.431 -13.983  1.00  0.00    -0.332 OA
ENDROOT
BRANCH   1   7
ATOM      7  C   UNL     1      26.988 -15.355 -14.823  1.00  0.00     0.198 C 
BRANCH   7   8
ATOM      8  O   UNL     1      25.883 -14.720 -14.205  1.00  0.00    -0.347 OA
BRANCH   8   9
ATOM      9  C   UNL     1      25.177 -13.897 -15.122  1.00  0.00     0.281 C 
ATOM     10  C   UNL     1      24.799 -10.925 -12.973  1.00  0.00     0.041 C 
ATOM     11  C   UNL     1      24.607 -12.373 -13.428  1.00  0.00     0.150 C 
ATOM     12  C   UNL     1      23.106 -12.766 -13.442  1.00  0.00     0.174 C 
ATOM     13  O   UNL     1      25.195 -12.537 -14.710  1.00  0.00    -0.344 OA
ATOM     14  C   UNL     1      22.939 -14.202 -13.979  1.00  0.00     0.179 C 
ATOM     15  C   UNL     1      23.735 -14.412 -15.282  1.00  0.00     0.202 C 
BRANCH  12  16
ATOM     16  O   UNL     1      22.317 -11.854 -14.171  1.00  0.00    -0.388 OA
ATOM     17  H   UNL     1      21.387 -11.903 -13.831  1.00  0.00     0.211 HD
ENDBRANCH  12  16
BRANCH  14  18
ATOM     18  O   UNL     1      21.582 -14.499 -14.192  1.00  0.00    -0.387 OA
ATOM     19  H   UNL     1      21.500 -15.487 -14.182  1.00  0.00     0.211 HD
ENDBRANCH  14  18
BRANCH  15  20
ATOM     20  O   UNL     1      23.121 -13.752 -16.361  1.00  0.00    -0.385 OA
ATOM     21  H   UNL     1      23.782 -13.731 -17.103  1.00  0.00     0.211 HD
ENDBRANCH  15  20
ENDBRANCH   8   9
ENDBRANCH   7   8
ENDBRANCH   1   7
BRANCH   2  22
ATOM     22  O   UNL     1      29.054 -15.586 -12.745  1.00  0.00    -0.387 OA
ATOM     23  H   UNL     1      28.814 -14.633 -12.598  1.00  0.00     0.211 HD
ENDBRANCH   2  22
BRANCH   3  24
ATOM     24  O   UNL     1      28.457 -17.348 -10.553  1.00  0.00    -0.387 OA
ATOM     25  H   UNL     1      29.091 -16.584 -10.571  1.00  0.00     0.211 HD
ENDBRANCH   3  24
BRANCH   5  26
ATOM     26  O   UNL     1      27.345 -19.460 -14.167  1.00  0.00    -0.454 OA
BRANCH  26  27
ATOM     27  C   UNL     1      27.084 -20.604 -14.948  1.00  0.00     0.214 A 
ATOM     28  C   UNL     1      27.249 -20.503 -16.344  1.00  0.00     0.180 A 
ATOM     29  C   UNL     1      26.685 -21.853 -14.413  1.00  0.00     0.239 A 
ATOM     30  O   UNL     1      27.015 -21.549 -17.127  1.00  0.00    -0.452 OA
ATOM     31  C   UNL     1      26.417 -22.931 -15.284  1.00  0.00     0.111 A 
ATOM     32  O   UNL     1      26.579 -22.008 -13.169  1.00  0.00    -0.285 OA
ATOM     33  C   UNL     1      26.601 -22.722 -16.670  1.00  0.00     0.146 A 
ATOM     34  C   UNL     1      25.955 -24.193 -14.835  1.00  0.00     0.134 A 
ATOM     35  C   UNL     1      26.339 -23.750 -17.580  1.00  0.00     0.094 A 
ATOM     36  C   UNL     1      25.693 -25.210 -15.764  1.00  0.00     0.093 A 
ATOM     37  C   UNL     1      25.881 -24.992 -17.130  1.00  0.00     0.123 A 
BRANCH  28  38
ATOM     38  C   UNL     1      27.703 -19.248 -16.977  1.00  0.00     0.025 A 
ATOM     39  C   UNL     1      29.072 -19.039 -17.200  1.00  0.00     0.062 A 
ATOM     40  C   UNL     1      26.781 -18.273 -17.389  1.00  0.00     0.016 A 
ATOM     41  C   UNL     1      29.527 -17.845 -17.794  1.00  0.00     0.161 A 
ATOM     42  C   UNL     1      27.225 -17.090 -17.981  1.00  0.00     0.051 A 
ATOM     43  C   UNL     1      28.594 -16.871 -18.181  1.00  0.00     0.157 A 
BRANCH  41  44
ATOM     44  O   UNL     1      30.890 -17.590 -18.013  1.00  0.00    -0.493 OA
ATOM     45  C   UNL     1      31.902 -18.592 -18.045  1.00  0.00     0.278 C 
ENDBRANCH  41  44
BRANCH  43  46
ATOM     46  O   UNL     1      29.038 -15.686 -18.765  1.00  0.00    -0.504 OA
ATOM     47  H   UNL     1      28.474 -14.843 -18.749  1.00  0.00     0.293 HD
ENDBRANCH  43  46
ENDBRANCH  28  38
BRANCH  34  48
ATOM     48  O   UNL     1      25.741 -24.438 -13.478  1.00  0.00    -0.507 OA
ATOM     49  H   UNL     1      25.054 -25.114 -13.159  1.00  0.00     0.293 HD
ENDBRANCH  34  48
BRANCH  37  50
ATOM     50  O   UNL     1      25.604 -26.016 -18.033  1.00  0.00    -0.508 OA
ATOM     51  H   UNL     1      24.653 -26.309 -18.227  1.00  0.00     0.293 HD
ENDBRANCH  37  50
ENDBRANCH  26  27
ENDBRANCH   5  26
BRANCH   4  52
ATOM     52  O   UNL     1      27.203 -19.804 -11.403  1.00  0.00    -0.384 OA
ATOM     53  H   UNL     1      26.895 -19.792 -10.459  1.00  0.00     0.211 HD
ENDBRANCH   4  52
TORSDOF 16
ENDMDL
MODEL 6
REMARK VINA RESULT:    -7.309      1.169      2.203
REMARK INTER + INTRA:         -15.077
REMARK INTER:                 -11.979
REMARK INTRA:                  -3.098
REMARK UNBOUND:                -2.855
REMARK SMILES COc1cc(-c2oc3cc(O)cc(O)c3c(=O)c2O[C@@H]2O[C@@H](CO[C@@H]3O[C@@H](C)[C@@H](O)[C@@H](O)[C@H]3O)[C@H](O)[C@@H](O)[C@@H]2O)ccc1O
REMARK SMILES IDX 22 1 35 2 37 3 39 4 20 5 21 6 23 7 24 8 25 9 28 10 27 11
REMARK SMILES IDX 29 12 26 13 31 14 33 15 30 16 32 18 34 20 36 22 38 24 19 26
REMARK SMILES IDX 18 27 6 28 16 29 7 30 15 31 17 32 8 33 13 34 9 35 12 36
REMARK SMILES IDX 10 37 5 38 4 39 41 40 3 41 42 42 43 43 2 44 1 45 44 46 14 48
REMARK SMILES IDX 11 50 40 52
REMARK H PARENT 30 17 32 19 34 21 36 23 38 25 44 47 14 49 11 51 40 53
REMARK Flexibility Score: inf
ROOT
ATOM      1  C   UNL     1      20.614 -25.272 -20.873  1.00  0.00     0.180 C 
ATOM      2  C   UNL     1      21.254 -26.529 -21.501  1.00  0.00     0.177 C 
ATOM      3  C   UNL     1      21.672 -27.508 -20.389  1.00  0.00     0.180 C 
ATOM      4  C   UNL     1      22.527 -26.779 -19.339  1.00  0.00     0.214 C 
ATOM      5  C   UNL     1      21.820 -25.493 -18.867  1.00  0.00     0.339 C 
ATOM      6  O   UNL     1      21.515 -24.652 -19.968  1.00  0.00    -0.332 OA
ENDROOT
BRANCH   1   7
ATOM      7  C   UNL     1      20.240 -24.243 -21.949  1.00  0.00     0.198 C 
BRANCH   7   8
ATOM      8  O   UNL     1      19.095 -24.692 -22.650  1.00  0.00    -0.347 OA
BRANCH   8   9
ATOM      9  C   UNL     1      18.195 -23.625 -22.913  1.00  0.00     0.281 C 
ATOM     10  C   UNL     1      16.164 -25.282 -25.508  1.00  0.00     0.041 C 
ATOM     11  C   UNL     1      17.412 -24.670 -24.866  1.00  0.00     0.150 C 
ATOM     12  C   UNL     1      18.081 -23.634 -25.808  1.00  0.00     0.174 C 
ATOM     13  O   UNL     1      17.051 -24.082 -23.625  1.00  0.00    -0.344 OA
ATOM     14  C   UNL     1      19.287 -22.979 -25.103  1.00  0.00     0.179 C 
ATOM     15  C   UNL     1      18.920 -22.507 -23.682  1.00  0.00     0.202 C 
BRANCH  12  16
ATOM     16  O   UNL     1      17.172 -22.663 -26.273  1.00  0.00    -0.388 OA
ATOM     17  H   UNL     1      16.907 -22.091 -25.508  1.00  0.00     0.211 HD
ENDBRANCH  12  16
BRANCH  14  18
ATOM     18  O   UNL     1      19.777 -21.899 -25.857  1.00  0.00    -0.387 OA
ATOM     19  H   UNL     1      19.325 -21.938 -26.740  1.00  0.00     0.211 HD
ENDBRANCH  14  18
BRANCH  15  20
ATOM     20  O   UNL     1      18.104 -21.363 -23.725  1.00  0.00    -0.385 OA
ATOM     21  H   UNL     1      17.674 -21.347 -24.620  1.00  0.00     0.211 HD
ENDBRANCH  15  20
ENDBRANCH   8   9
ENDBRANCH   7   8
ENDBRANCH   1   7
BRANCH   2  22
ATOM     22  O   UNL     1      20.328 -27.153 -22.355  1.00  0.00    -0.387 OA
ATOM     23  H   UNL     1      19.480 -26.643 -22.282  1.00  0.00     0.211 HD
ENDBRANCH   2  22
BRANCH   3  24
ATOM     24  O   UNL     1      22.403 -28.566 -20.954  1.00  0.00    -0.387 OA
ATOM     25  H   UNL     1      21.777 -29.331 -21.045  1.00  0.00     0.211 HD
ENDBRANCH   3  24
BRANCH   5  26
ATOM     26  O   UNL     1      20.650 -25.815 -18.106  1.00  0.00    -0.454 OA
BRANCH  26  27
ATOM     27  C   UNL     1      20.388 -25.485 -16.760  1.00  0.00     0.214 A 
ATOM     28  C   UNL     1      19.596 -24.349 -16.500  1.00  0.00     0.180 A 
ATOM     29  C   UNL     1      20.858 -26.237 -15.656  1.00  0.00     0.239 A 
ATOM     30  O   UNL     1      19.320 -23.993 -15.251  1.00  0.00    -0.452 OA
ATOM     31  C   UNL     1      20.567 -25.805 -14.344  1.00  0.00     0.111 A 
ATOM     32  O   UNL     1      21.521 -27.291 -15.839  1.00  0.00    -0.285 OA
ATOM     33  C   UNL     1      19.774 -24.645 -14.190  1.00  0.00     0.146 A 
ATOM     34  C   UNL     1      21.050 -26.465 -13.187  1.00  0.00     0.134 A 
ATOM     35  C   UNL     1      19.465 -24.165 -12.915  1.00  0.00     0.094 A 
ATOM     36  C   UNL     1      20.733 -25.965 -11.916  1.00  0.00     0.093 A 
ATOM     37  C   UNL     1      19.946 -24.820 -11.777  1.00  0.00     0.123 A 
BRANCH  28  38
ATOM     38  C   UNL     1      19.033 -23.536 -17.596  1.00  0.00     0.025 A 
ATOM     39  C   UNL     1      17.811 -23.905 -18.178  1.00  0.00     0.062 A 
ATOM     40  C   UNL     1      19.686 -22.377 -18.044  1.00  0.00     0.016 A 
ATOM     41  C   UNL     1      17.261 -23.148 -19.231  1.00  0.00     0.161 A 
ATOM     42  C   UNL     1      19.145 -21.621 -19.084  1.00  0.00     0.051 A 
ATOM     43  C   UNL     1      17.937 -22.004 -19.681  1.00  0.00     0.157 A 
BRANCH  41  44
ATOM     44  O   UNL     1      16.052 -23.499 -19.853  1.00  0.00    -0.493 OA
ATOM     45  C   UNL     1      15.744 -24.802 -20.340  1.00  0.00     0.278 C 
ENDBRANCH  41  44
BRANCH  43  46
ATOM     46  O   UNL     1      17.401 -21.253 -20.725  1.00  0.00    -0.504 OA
ATOM     47  H   UNL     1      17.987 -20.871 -21.460  1.00  0.00     0.293 HD
ENDBRANCH  43  46
ENDBRANCH  28  38
BRANCH  34  48
ATOM     48  O   UNL     1      21.852 -27.603 -13.290  1.00  0.00    -0.507 OA
ATOM     49  H   UNL     1      22.850 -27.570 -13.118  1.00  0.00     0.293 HD
ENDBRANCH  34  48
BRANCH  37  50
ATOM     50  O   UNL     1      19.655 -24.337 -10.504  1.00  0.00    -0.508 OA
ATOM     51  H   UNL     1      19.625 -23.344 -10.307  1.00  0.00     0.293 HD
ENDBRANCH  37  50
ENDBRANCH  26  27
ENDBRANCH   5  26
BRANCH   4  52
ATOM     52  O   UNL     1      22.760 -27.631 -18.247  1.00  0.00    -0.384 OA
ATOM     53  H   UNL     1      22.390 -27.177 -17.445  1.00  0.00     0.211 HD
ENDBRANCH   4  52
TORSDOF 16
ENDMDL
MODEL 7
REMARK VINA RESULT:    -7.289      9.413     12.980
REMARK INTER + INTRA:         -15.045
REMARK INTER:                 -12.450
REMARK INTRA:                  -2.594
REMARK UNBOUND:                -2.855
REMARK SMILES COc1cc(-c2oc3cc(O)cc(O)c3c(=O)c2O[C@@H]2O[C@@H](CO[C@@H]3O[C@@H](C)[C@@H](O)[C@@H](O)[C@H]3O)[C@H](O)[C@@H](O)[C@@H]2O)ccc1O
REMARK SMILES IDX 22 1 35 2 37 3 39 4 20 5 21 6 23 7 24 8 25 9 28 10 27 11
REMARK SMILES IDX 29 12 26 13 31 14 33 15 30 16 32 18 34 20 36 22 38 24 19 26
REMARK SMILES IDX 18 27 6 28 16 29 7 30 15 31 17 32 8 33 13 34 9 35 12 36
REMARK SMILES IDX 10 37 5 38 4 39 41 40 3 41 42 42 43 43 2 44 1 45 44 46 14 48
REMARK SMILES IDX 11 50 40 52
REMARK H PARENT 30 17 32 19 34 21 36 23 38 25 44 47 14 49 11 51 40 53
REMARK Flexibility Score: inf
ROOT
ATOM      1  C   UNL     1      28.077 -20.256 -15.064  1.00  0.00     0.180 C 
ATOM      2  C   UNL     1      28.726 -20.750 -16.375  1.00  0.00     0.177 C 
ATOM      3  C   UNL     1      28.631 -19.649 -17.446  1.00  0.00     0.180 C 
ATOM      4  C   UNL     1      27.179 -19.154 -17.566  1.00  0.00     0.214 C 
ATOM      5  C   UNL     1      26.618 -18.787 -16.179  1.00  0.00     0.339 C 
ATOM      6  O   UNL     1      26.725 -19.885 -15.285  1.00  0.00    -0.332 OA
ENDROOT
BRANCH   1   7
ATOM      7  C   UNL     1      28.097 -21.351 -13.988  1.00  0.00     0.198 C 
BRANCH   7   8
ATOM      8  O   UNL     1      28.123 -22.622 -14.611  1.00  0.00    -0.347 OA
BRANCH   8   9
ATOM      9  C   UNL     1      27.435 -23.595 -13.838  1.00  0.00     0.281 C 
ATOM     10  C   UNL     1      28.276 -26.561 -15.861  1.00  0.00     0.041 C 
ATOM     11  C   UNL     1      27.649 -25.203 -15.537  1.00  0.00     0.150 C 
ATOM     12  C   UNL     1      26.137 -25.181 -15.884  1.00  0.00     0.174 C 
ATOM     13  O   UNL     1      27.867 -24.909 -14.165  1.00  0.00    -0.344 OA
ATOM     14  C   UNL     1      25.518 -23.829 -15.474  1.00  0.00     0.179 C 
ATOM     15  C   UNL     1      25.917 -23.441 -14.037  1.00  0.00     0.202 C 
BRANCH  12  16
ATOM     16  O   UNL     1      25.436 -26.259 -15.308  1.00  0.00    -0.388 OA
ATOM     17  H   UNL     1      24.505 -26.244 -15.648  1.00  0.00     0.211 HD
ENDBRANCH  12  16
BRANCH  14  18
ATOM     18  O   UNL     1      24.118 -23.867 -15.591  1.00  0.00    -0.387 OA
ATOM     19  H   UNL     1      23.874 -24.807 -15.794  1.00  0.00     0.211 HD
ENDBRANCH  14  18
BRANCH  15  20
ATOM     20  O   UNL     1      25.240 -24.234 -13.093  1.00  0.00    -0.385 OA
ATOM     21  H   UNL     1      25.605 -25.154 -13.171  1.00  0.00     0.211 HD
ENDBRANCH  15  20
ENDBRANCH   8   9
ENDBRANCH   7   8
ENDBRANCH   1   7
BRANCH   2  22
ATOM     22  O   UNL     1      30.076 -21.067 -16.143  1.00  0.00    -0.387 OA
ATOM     23  H   UNL     1      30.090 -21.943 -15.676  1.00  0.00     0.211 HD
ENDBRANCH   2  22
BRANCH   3  24
ATOM     24  O   UNL     1      29.068 -20.162 -18.679  1.00  0.00    -0.387 OA
ATOM     25  H   UNL     1      29.289 -21.118 -18.529  1.00  0.00     0.211 HD
ENDBRANCH   3  24
BRANCH   5  26
ATOM     26  O   UNL     1      27.274 -17.621 -15.666  1.00  0.00    -0.454 OA
BRANCH  26  27
ATOM     27  C   UNL     1      26.667 -16.463 -15.136  1.00  0.00     0.214 A 
ATOM     28  C   UNL     1      27.088 -16.018 -13.867  1.00  0.00     0.180 A 
ATOM     29  C   UNL     1      25.676 -15.711 -15.811  1.00  0.00     0.239 A 
ATOM     30  O   UNL     1      26.549 -14.935 -13.321  1.00  0.00    -0.452 OA
ATOM     31  C   UNL     1      25.108 -14.583 -15.181  1.00  0.00     0.111 A 
ATOM     32  O   UNL     1      25.308 -16.036 -16.970  1.00  0.00    -0.285 OA
ATOM     33  C   UNL     1      25.591 -14.227 -13.901  1.00  0.00     0.146 A 
ATOM     34  C   UNL     1      24.068 -13.814 -15.761  1.00  0.00     0.134 A 
ATOM     35  C   UNL     1      25.056 -13.127 -13.225  1.00  0.00     0.094 A 
ATOM     36  C   UNL     1      23.542 -12.717 -15.065  1.00  0.00     0.093 A 
ATOM     37  C   UNL     1      24.029 -12.374 -13.802  1.00  0.00     0.123 A 
BRANCH  28  38
ATOM     38  C   UNL     1      28.147 -16.722 -13.117  1.00  0.00     0.025 A 
ATOM     39  C   UNL     1      27.802 -17.755 -12.231  1.00  0.00     0.062 A 
ATOM     40  C   UNL     1      29.500 -16.395 -13.299  1.00  0.00     0.016 A 
ATOM     41  C   UNL     1      28.797 -18.432 -11.498  1.00  0.00     0.161 A 
ATOM     42  C   UNL     1      30.490 -17.065 -12.579  1.00  0.00     0.051 A 
ATOM     43  C   UNL     1      30.143 -18.079 -11.677  1.00  0.00     0.157 A 
BRANCH  41  44
ATOM     44  O   UNL     1      28.488 -19.455 -10.587  1.00  0.00    -0.493 OA
ATOM     45  C   UNL     1      27.858 -19.249  -9.327  1.00  0.00     0.278 C 
ENDBRANCH  41  44
BRANCH  43  46
ATOM     46  O   UNL     1      31.131 -18.743 -10.952  1.00  0.00    -0.504 OA
ATOM     47  H   UNL     1      32.112 -18.507 -11.054  1.00  0.00     0.293 HD
ENDBRANCH  43  46
ENDBRANCH  28  38
BRANCH  34  48
ATOM     48  O   UNL     1      23.547 -14.139 -17.014  1.00  0.00    -0.507 OA
ATOM     49  H   UNL     1      23.807 -14.993 -17.495  1.00  0.00     0.293 HD
ENDBRANCH  34  48
BRANCH  37  50
ATOM     50  O   UNL     1      23.482 -11.285 -13.127  1.00  0.00    -0.508 OA
ATOM     51  H   UNL     1      23.322 -10.399 -13.591  1.00  0.00     0.293 HD
ENDBRANCH  37  50
ENDBRANCH  26  27
ENDBRANCH   5  26
BRANCH   4  52
ATOM     52  O   UNL     1      27.130 -18.039 -18.419  1.00  0.00    -0.384 OA
ATOM     53  H   UNL     1      27.206 -18.385 -19.347  1.00  0.00     0.211 HD
ENDBRANCH   4  52
TORSDOF 16
ENDMDL
MODEL 8
REMARK VINA RESULT:    -7.255      4.304      7.878
REMARK INTER + INTRA:         -14.987
REMARK INTER:                 -12.582
REMARK INTRA:                  -2.406
REMARK UNBOUND:                -2.855
REMARK SMILES COc1cc(-c2oc3cc(O)cc(O)c3c(=O)c2O[C@@H]2O[C@@H](CO[C@@H]3O[C@@H](C)[C@@H](O)[C@@H](O)[C@H]3O)[C@H](O)[C@@H](O)[C@@H]2O)ccc1O
REMARK SMILES IDX 22 1 35 2 37 3 39 4 20 5 21 6 23 7 24 8 25 9 28 10 27 11
REMARK SMILES IDX 29 12 26 13 31 14 33 15 30 16 32 18 34 20 36 22 38 24 19 26
REMARK SMILES IDX 18 27 6 28 16 29 7 30 15 31 17 32 8 33 13 34 9 35 12 36
REMARK SMILES IDX 10 37 5 38 4 39 41 40 3 41 42 42 43 43 2 44 1 45 44 46 14 48
REMARK SMILES IDX 11 50 40 52
REMARK H PARENT 30 17 32 19 34 21 36 23 38 25 44 47 14 49 11 51 40 53
REMARK Flexibility Score: inf
ROOT
ATOM      1  C   UNL     1      21.257 -26.556 -17.184  1.00  0.00     0.180 C 
ATOM      2  C   UNL     1      20.429 -25.717 -16.187  1.00  0.00     0.177 C 
ATOM      3  C   UNL     1      21.316 -24.620 -15.572  1.00  0.00     0.180 C 
ATOM      4  C   UNL     1      22.607 -25.239 -15.009  1.00  0.00     0.214 C 
ATOM      5  C   UNL     1      23.284 -26.130 -16.070  1.00  0.00     0.339 C 
ATOM      6  O   UNL     1      22.387 -27.125 -16.539  1.00  0.00    -0.332 OA
ENDROOT
BRANCH   1   7
ATOM      7  C   UNL     1      20.423 -27.701 -17.773  1.00  0.00     0.198 C 
BRANCH   7   8
ATOM      8  O   UNL     1      19.600 -27.198 -18.810  1.00  0.00    -0.347 OA
BRANCH   8   9
ATOM      9  C   UNL     1      19.806 -27.903 -20.026  1.00  0.00     0.281 C 
ATOM     10  C   UNL     1      21.260 -25.143 -21.993  1.00  0.00     0.041 C 
ATOM     11  C   UNL     1      20.194 -25.908 -21.203  1.00  0.00     0.150 C 
ATOM     12  C   UNL     1      18.862 -25.999 -21.994  1.00  0.00     0.174 C 
ATOM     13  O   UNL     1      20.694 -27.198 -20.884  1.00  0.00    -0.344 OA
ATOM     14  C   UNL     1      17.836 -26.841 -21.208  1.00  0.00     0.179 C 
ATOM     15  C   UNL     1      18.455 -28.164 -20.714  1.00  0.00     0.202 C 
BRANCH  12  16
ATOM     16  O   UNL     1      19.043 -26.500 -23.298  1.00  0.00    -0.388 OA
ATOM     17  H   UNL     1      19.244 -25.739 -23.900  1.00  0.00     0.211 HD
ENDBRANCH  12  16
BRANCH  14  18
ATOM     18  O   UNL     1      16.703 -27.104 -21.995  1.00  0.00    -0.387 OA
ATOM     19  H   UNL     1      17.030 -27.305 -22.910  1.00  0.00     0.211 HD
ENDBRANCH  14  18
BRANCH  15  20
ATOM     20  O   UNL     1      18.638 -29.064 -21.778  1.00  0.00    -0.385 OA
ATOM     21  H   UNL     1      17.863 -29.686 -21.769  1.00  0.00     0.211 HD
ENDBRANCH  15  20
ENDBRANCH   8   9
ENDBRANCH   7   8
ENDBRANCH   1   7
BRANCH   2  22
ATOM     22  O   UNL     1      19.344 -25.125 -16.857  1.00  0.00    -0.387 OA
ATOM     23  H   UNL     1      19.569 -25.123 -17.824  1.00  0.00     0.211 HD
ENDBRANCH   2  22
BRANCH   3  24
ATOM     24  O   UNL     1      20.607 -23.972 -14.547  1.00  0.00    -0.387 OA
ATOM     25  H   UNL     1      19.865 -23.475 -14.980  1.00  0.00     0.211 HD
ENDBRANCH   3  24
BRANCH   5  26
ATOM     26  O   UNL     1      23.797 -25.330 -17.142  1.00  0.00    -0.454 OA
BRANCH  26  27
ATOM     27  C   UNL     1      24.883 -25.632 -17.989  1.00  0.00     0.214 A 
ATOM     28  C   UNL     1      26.140 -25.078 -17.674  1.00  0.00     0.180 A 
ATOM     29  C   UNL     1      24.791 -26.473 -19.124  1.00  0.00     0.239 A 
ATOM     30  O   UNL     1      27.196 -25.328 -18.438  1.00  0.00    -0.452 OA
ATOM     31  C   UNL     1      25.932 -26.688 -19.926  1.00  0.00     0.111 A 
ATOM     32  O   UNL     1      23.703 -27.036 -19.413  1.00  0.00    -0.285 OA
ATOM     33  C   UNL     1      27.144 -26.076 -19.531  1.00  0.00     0.146 A 
ATOM     34  C   UNL     1      25.910 -27.464 -21.112  1.00  0.00     0.134 A 
ATOM     35  C   UNL     1      28.302 -26.244 -20.294  1.00  0.00     0.094 A 
ATOM     36  C   UNL     1      27.082 -27.617 -21.866  1.00  0.00     0.093 A 
ATOM     37  C   UNL     1      28.273 -27.010 -21.464  1.00  0.00     0.123 A 
BRANCH  28  38
ATOM     38  C   UNL     1      26.329 -24.225 -16.483  1.00  0.00     0.025 A 
ATOM     39  C   UNL     1      26.138 -22.839 -16.584  1.00  0.00     0.062 A 
ATOM     40  C   UNL     1      26.668 -24.785 -15.242  1.00  0.00     0.016 A 
ATOM     41  C   UNL     1      26.322 -22.007 -15.463  1.00  0.00     0.161 A 
ATOM     42  C   UNL     1      26.850 -23.966 -14.126  1.00  0.00     0.051 A 
ATOM     43  C   UNL     1      26.682 -22.580 -14.233  1.00  0.00     0.157 A 
BRANCH  41  44
ATOM     44  O   UNL     1      26.161 -20.614 -15.530  1.00  0.00    -0.493 OA
ATOM     45  C   UNL     1      26.868 -19.762 -16.426  1.00  0.00     0.278 C 
ENDBRANCH  41  44
BRANCH  43  46
ATOM     46  O   UNL     1      26.870 -21.761 -13.121  1.00  0.00    -0.504 OA
ATOM     47  H   UNL     1      27.514 -22.014 -12.380  1.00  0.00     0.293 HD
ENDBRANCH  43  46
ENDBRANCH  28  38
BRANCH  34  48
ATOM     48  O   UNL     1      24.733 -28.072 -21.551  1.00  0.00    -0.507 OA
ATOM     49  H   UNL     1      23.834 -27.606 -21.484  1.00  0.00     0.293 HD
ENDBRANCH  34  48
BRANCH  37  50
ATOM     50  O   UNL     1      29.420 -27.169 -22.237  1.00  0.00    -0.508 OA
ATOM     51  H   UNL     1      29.374 -27.228 -23.248  1.00  0.00     0.293 HD
ENDBRANCH  37  50
ENDBRANCH  26  27
ENDBRANCH   5  26
BRANCH   4  52
ATOM     52  O   UNL     1      23.482 -24.218 -14.604  1.00  0.00    -0.384 OA
ATOM     53  H   UNL     1      23.483 -23.538 -15.329  1.00  0.00     0.211 HD
ENDBRANCH   4  52
TORSDOF 16
ENDMDL
MODEL 9
REMARK VINA RESULT:    -7.168      9.736     12.614
REMARK INTER + INTRA:         -14.843
REMARK INTER:                 -12.676
REMARK INTRA:                  -2.167
REMARK UNBOUND:                -2.855
REMARK SMILES COc1cc(-c2oc3cc(O)cc(O)c3c(=O)c2O[C@@H]2O[C@@H](CO[C@@H]3O[C@@H](C)[C@@H](O)[C@@H](O)[C@H]3O)[C@H](O)[C@@H](O)[C@@H]2O)ccc1O
REMARK SMILES IDX 22 1 35 2 37 3 39 4 20 5 21 6 23 7 24 8 25 9 28 10 27 11
REMARK SMILES IDX 29 12 26 13 31 14 33 15 30 16 32 18 34 20 36 22 38 24 19 26
REMARK SMILES IDX 18 27 6 28 16 29 7 30 15 31 17 32 8 33 13 34 9 35 12 36
REMARK SMILES IDX 10 37 5 38 4 39 41 40 3 41 42 42 43 43 2 44 1 45 44 46 14 48
REMARK SMILES IDX 11 50 40 52
REMARK H PARENT 30 17 32 19 34 21 36 23 38 25 44 47 14 49 11 51 40 53
REMARK Flexibility Score: inf
ROOT
ATOM      1  C   UNL     1      26.980 -18.162 -13.627  1.00  0.00     0.180 C 
ATOM      2  C   UNL     1      27.804 -17.631 -12.434  1.00  0.00     0.177 C 
ATOM      3  C   UNL     1      28.979 -18.584 -12.152  1.00  0.00     0.180 C 
ATOM      4  C   UNL     1      28.467 -20.028 -12.017  1.00  0.00     0.214 C 
ATOM      5  C   UNL     1      27.580 -20.400 -13.221  1.00  0.00     0.339 C 
ATOM      6  O   UNL     1      26.511 -19.476 -13.364  1.00  0.00    -0.332 OA
ENDROOT
BRANCH   1   7
ATOM      7  C   UNL     1      25.761 -17.271 -13.901  1.00  0.00     0.198 C 
BRANCH   7   8
ATOM      8  O   UNL     1      26.181 -15.923 -14.016  1.00  0.00    -0.347 OA
BRANCH   8   9
ATOM      9  C   UNL     1      25.875 -15.390 -15.296  1.00  0.00     0.281 C 
ATOM     10  C   UNL     1      26.343 -11.820 -14.501  1.00  0.00     0.041 C 
ATOM     11  C   UNL     1      25.712 -13.212 -14.431  1.00  0.00     0.150 C 
ATOM     12  C   UNL     1      24.174 -13.145 -14.622  1.00  0.00     0.174 C 
ATOM     13  O   UNL     1      26.317 -14.044 -15.410  1.00  0.00    -0.344 OA
ATOM     14  C   UNL     1      23.577 -14.568 -14.625  1.00  0.00     0.179 C 
ATOM     15  C   UNL     1      24.364 -15.505 -15.562  1.00  0.00     0.202 C 
BRANCH  12  16
ATOM     16  O   UNL     1      23.805 -12.434 -15.781  1.00  0.00    -0.388 OA
ATOM     17  H   UNL     1      22.858 -12.643 -15.988  1.00  0.00     0.211 HD
ENDBRANCH  12  16
BRANCH  14  18
ATOM     18  O   UNL     1      22.223 -14.538 -14.999  1.00  0.00    -0.387 OA
ATOM     19  H   UNL     1      22.197 -14.285 -15.958  1.00  0.00     0.211 HD
ENDBRANCH  14  18
BRANCH  15  20
ATOM     20  O   UNL     1      24.102 -15.206 -16.911  1.00  0.00    -0.385 OA
ATOM     21  H   UNL     1      23.191 -15.545 -17.112  1.00  0.00     0.211 HD
ENDBRANCH  15  20
ENDBRANCH   8   9
ENDBRANCH   7   8
ENDBRANCH   1   7
BRANCH   2  22
ATOM     22  O   UNL     1      28.298 -16.350 -12.735  1.00  0.00    -0.387 OA
ATOM     23  H   UNL     1      28.466 -15.895 -11.869  1.00  0.00     0.211 HD
ENDBRANCH   2  22
BRANCH   3  24
ATOM     24  O   UNL     1      29.621 -18.189 -10.966  1.00  0.00    -0.387 OA
ATOM     25  H   UNL     1      30.594 -18.161 -11.162  1.00  0.00     0.211 HD
ENDBRANCH   3  24
BRANCH   5  26
ATOM     26  O   UNL     1      28.367 -20.488 -14.415  1.00  0.00    -0.454 OA
BRANCH  26  27
ATOM     27  C   UNL     1      28.366 -21.532 -15.363  1.00  0.00     0.214 A 
ATOM     28  C   UNL     1      28.326 -21.184 -16.728  1.00  0.00     0.180 A 
ATOM     29  C   UNL     1      28.423 -22.906 -15.027  1.00  0.00     0.239 A 
ATOM     30  O   UNL     1      28.321 -22.126 -17.663  1.00  0.00    -0.452 OA
ATOM     31  C   UNL     1      28.385 -23.876 -16.052  1.00  0.00     0.111 A 
ATOM     32  O   UNL     1      28.517 -23.265 -13.825  1.00  0.00    -0.285 OA
ATOM     33  C   UNL     1      28.332 -23.423 -17.390  1.00  0.00     0.146 A 
ATOM     34  C   UNL     1      28.375 -25.270 -15.798  1.00  0.00     0.134 A 
ATOM     35  C   UNL     1      28.281 -24.339 -18.444  1.00  0.00     0.094 A 
ATOM     36  C   UNL     1      28.319 -26.173 -16.869  1.00  0.00     0.093 A 
ATOM     37  C   UNL     1      28.269 -25.713 -18.187  1.00  0.00     0.123 A 
BRANCH  28  38
ATOM     38  C   UNL     1      28.308 -19.773 -17.163  1.00  0.00     0.025 A 
ATOM     39  C   UNL     1      29.507 -19.143 -17.530  1.00  0.00     0.062 A 
ATOM     40  C   UNL     1      27.103 -19.059 -17.247  1.00  0.00     0.016 A 
ATOM     41  C   UNL     1      29.514 -17.795 -17.939  1.00  0.00     0.161 A 
ATOM     42  C   UNL     1      27.101 -17.724 -17.655  1.00  0.00     0.051 A 
ATOM     43  C   UNL     1      28.302 -17.089 -17.997  1.00  0.00     0.157 A 
BRANCH  41  44
ATOM     44  O   UNL     1      30.696 -17.126 -18.292  1.00  0.00    -0.493 OA
ATOM     45  C   UNL     1      31.988 -17.726 -18.308  1.00  0.00     0.278 C 
ENDBRANCH  41  44
BRANCH  43  46
ATOM     46  O   UNL     1      28.302 -15.754 -18.397  1.00  0.00    -0.504 OA
ATOM     47  H   UNL     1      28.851 -15.438 -19.189  1.00  0.00     0.293 HD
ENDBRANCH  43  46
ENDBRANCH  28  38
BRANCH  34  48
ATOM     48  O   UNL     1      28.408 -25.763 -14.493  1.00  0.00    -0.507 OA
ATOM     49  H   UNL     1      28.715 -25.191 -13.713  1.00  0.00     0.293 HD
ENDBRANCH  34  48
BRANCH  37  50
ATOM     50  O   UNL     1      28.203 -26.631 -19.232  1.00  0.00    -0.508 OA
ATOM     51  H   UNL     1      28.765 -26.524 -20.069  1.00  0.00     0.293 HD
ENDBRANCH  37  50
ENDBRANCH  26  27
ENDBRANCH   5  26
BRANCH   4  52
ATOM     52  O   UNL     1      29.557 -20.909 -11.929  1.00  0.00    -0.384 OA
ATOM     53  H   UNL     1      29.735 -21.048 -10.961  1.00  0.00     0.211 HD
ENDBRANCH   4  52
TORSDOF 16
ENDMDL
