MODEL 1
REMARK VINA RESULT:    -3.401      0.000      0.000
REMARK INTER + INTRA:         -10.853
REMARK INTER:                  -7.776
REMARK INTRA:                  -3.077
REMARK UNBOUND:                -3.077
REMARK SMILES CCCCCCCCCCCCCCCCCCCCCCCC(=O)[O-]
REMARK SMILES IDX 13 1 14 2 15 3 16 4 17 5 18 6 19 7 20 8 21 9 22 10 23 11
REMARK SMILES IDX 24 12 25 13 26 14 12 15 11 16 10 17 9 18 8 19 7 20 6 21 5 22
REMARK SMILES IDX 4 23 3 24 2 25 1 26
REMARK H PARENT
REMARK Flexibility Score: inf
ROOT
ATOM      1  C   UNL     1     -97.158 -40.035  88.683  1.00  0.00     0.000 C 
ENDROOT
BRANCH   1   2
ATOM      2  C   UNL     1     -98.366 -40.336  89.587  1.00  0.00     0.000 C 
BRANCH   2   3
ATOM      3  C   UNL     1     -98.034 -41.327  90.715  1.00  0.00     0.000 C 
BRANCH   3   4
ATOM      4  C   UNL     1     -96.553 -41.283  91.125  1.00  0.00     0.000 C 
BRANCH   4   5
ATOM      5  C   UNL     1     -96.357 -41.348  92.650  1.00  0.00     0.000 C 
BRANCH   5   6
ATOM      6  C   UNL     1     -97.529 -42.035  93.373  1.00  0.00     0.000 C 
BRANCH   6   7
ATOM      7  C   UNL     1     -98.158 -41.214  94.516  1.00  0.00     0.000 C 
BRANCH   7   8
ATOM      8  C   UNL     1     -99.024 -40.022  94.064  1.00  0.00     0.000 C 
BRANCH   8   9
ATOM      9  C   UNL     1    -100.441 -40.392  93.580  1.00  0.00     0.000 C 
BRANCH   9  10
ATOM     10  C   UNL     1    -100.919 -39.639  92.321  1.00  0.00     0.006 C 
BRANCH  10  11
ATOM     11  C   UNL     1    -100.170 -38.325  92.043  1.00  0.00     0.053 C 
BRANCH  11  12
ATOM     12  C   UNL     1    -100.856 -37.144  92.661  1.00  0.00     0.041 C 
ATOM     13  O   UNL     1    -101.718 -36.497  92.007  1.00  0.00    -0.550 OA
ATOM     14  O   UNL     1    -100.545 -36.760  93.959  1.00  0.00    -0.550 OA
ENDBRANCH  11  12
ENDBRANCH  10  11
ENDBRANCH   9  10
ENDBRANCH   8   9
ENDBRANCH   7   8
ENDBRANCH   6   7
ENDBRANCH   5   6
ENDBRANCH   4   5
ENDBRANCH   3   4
ENDBRANCH   2   3
ENDBRANCH   1   2
BRANCH   1  15
ATOM     15  C   UNL     1     -97.147 -40.851  87.373  1.00  0.00     0.000 C 
BRANCH  15  16
ATOM     16  C   UNL     1     -96.064 -41.945  87.379  1.00  0.00     0.000 C 
BRANCH  16  17
ATOM     17  C   UNL     1     -96.567 -43.266  87.983  1.00  0.00     0.000 C 
BRANCH  17  18
ATOM     18  C   UNL     1     -97.701 -43.897  87.158  1.00  0.00    -0.000 C 
BRANCH  18  19
ATOM     19  C   UNL     1     -99.037 -43.927  87.913  1.00  0.00    -0.000 C 
BRANCH  19  20
ATOM     20  C   UNL     1    -100.110 -43.044  87.253  1.00  0.00    -0.000 C 
BRANCH  20  21
ATOM     21  C   UNL     1    -100.504 -43.538  85.849  1.00  0.00    -0.000 C 
BRANCH  21  22
ATOM     22  C   UNL     1    -100.172 -42.529  84.726  1.00  0.00    -0.000 C 
BRANCH  22  23
ATOM     23  C   UNL     1    -100.262 -43.138  83.314  1.00  0.00    -0.000 C 
BRANCH  23  24
ATOM     24  C   UNL     1    -100.948 -42.189  82.317  1.00  0.00    -0.000 C 
BRANCH  24  25
ATOM     25  C   UNL     1    -101.141 -40.775  82.889  1.00  0.00    -0.003 C 
ATOM     26  C   UNL     1    -100.454 -39.701  82.044  1.00  0.00     0.004 C 
ENDBRANCH  24  25
ENDBRANCH  23  24
ENDBRANCH  22  23
ENDBRANCH  21  22
ENDBRANCH  20  21
ENDBRANCH  19  20
ENDBRANCH  18  19
ENDBRANCH  17  18
ENDBRANCH  16  17
ENDBRANCH  15  16
ENDBRANCH   1  15
TORSDOF 22
ENDMDL
MODEL 2
REMARK VINA RESULT:    -3.367     13.005     15.773
REMARK INTER + INTRA:         -10.776
REMARK INTER:                  -6.301
REMARK INTRA:                  -4.475
REMARK UNBOUND:                -3.077
REMARK SMILES CCCCCCCCCCCCCCCCCCCCCCCC(=O)[O-]
REMARK SMILES IDX 13 1 14 2 15 3 16 4 17 5 18 6 19 7 20 8 21 9 22 10 23 11
REMARK SMILES IDX 24 12 25 13 26 14 12 15 11 16 10 17 9 18 8 19 7 20 6 21 5 22
REMARK SMILES IDX 4 23 3 24 2 25 1 26
REMARK H PARENT
REMARK Flexibility Score: inf
ROOT
ATOM      1  C   UNL     1     -97.423 -28.070  84.126  1.00  0.00     0.000 C 
ENDROOT
BRANCH   1   2
ATOM      2  C   UNL     1     -97.573 -26.724  84.856  1.00  0.00     0.000 C 
BRANCH   2   3
ATOM      3  C   UNL     1     -99.012 -26.183  84.818  1.00  0.00     0.000 C 
BRANCH   3   4
ATOM      4  C   UNL     1     -99.079 -24.703  84.410  1.00  0.00     0.000 C 
BRANCH   4   5
ATOM      5  C   UNL     1     -98.903 -24.496  82.895  1.00  0.00     0.000 C 
BRANCH   5   6
ATOM      6  C   UNL     1    -100.210 -24.709  82.110  1.00  0.00     0.000 C 
BRANCH   6   7
ATOM      7  C   UNL     1    -100.148 -25.812  81.034  1.00  0.00     0.000 C 
BRANCH   7   8
ATOM      8  C   UNL     1     -99.951 -27.242  81.575  1.00  0.00     0.000 C 
BRANCH   8   9
ATOM      9  C   UNL     1    -101.248 -28.054  81.759  1.00  0.00     0.000 C 
BRANCH   9  10
ATOM     10  C   UNL     1    -101.051 -29.577  81.908  1.00  0.00     0.006 C 
BRANCH  10  11
ATOM     11  C   UNL     1    -101.978 -30.240  82.942  1.00  0.00     0.053 C 
BRANCH  11  12
ATOM     12  C   UNL     1    -101.508 -30.011  84.347  1.00  0.00     0.041 C 
ATOM     13  O   UNL     1    -102.338 -29.755  85.260  1.00  0.00    -0.550 OA
ATOM     14  O   UNL     1    -100.153 -30.084  84.648  1.00  0.00    -0.550 OA
ENDBRANCH  11  12
ENDBRANCH  10  11
ENDBRANCH   9  10
ENDBRANCH   8   9
ENDBRANCH   7   8
ENDBRANCH   6   7
ENDBRANCH   5   6
ENDBRANCH   4   5
ENDBRANCH   3   4
ENDBRANCH   2   3
ENDBRANCH   1   2
BRANCH   1  15
ATOM     15  C   UNL     1     -96.521 -27.999  82.875  1.00  0.00     0.000 C 
BRANCH  15  16
ATOM     16  C   UNL     1     -96.015 -26.571  82.603  1.00  0.00     0.000 C 
BRANCH  16  17
ATOM     17  C   UNL     1     -95.528 -26.386  81.157  1.00  0.00     0.000 C 
BRANCH  17  18
ATOM     18  C   UNL     1     -96.580 -26.815  80.121  1.00  0.00    -0.000 C 
BRANCH  18  19
ATOM     19  C   UNL     1     -95.986 -27.674  78.995  1.00  0.00    -0.000 C 
BRANCH  19  20
ATOM     20  C   UNL     1     -96.406 -29.150  79.094  1.00  0.00    -0.000 C 
BRANCH  20  21
ATOM     21  C   UNL     1     -97.783 -29.333  79.757  1.00  0.00    -0.000 C 
BRANCH  21  22
ATOM     22  C   UNL     1     -98.533 -30.598  79.280  1.00  0.00    -0.000 C 
BRANCH  22  23
ATOM     23  C   UNL     1     -99.626 -30.300  78.237  1.00  0.00    -0.000 C 
BRANCH  23  24
ATOM     24  C   UNL     1    -100.136 -28.851  78.330  1.00  0.00    -0.000 C 
BRANCH  24  25
ATOM     25  C   UNL     1     -99.782 -28.023  77.084  1.00  0.00    -0.003 C 
ATOM     26  C   UNL     1     -99.234 -26.639  77.435  1.00  0.00     0.004 C 
ENDBRANCH  24  25
ENDBRANCH  23  24
ENDBRANCH  22  23
ENDBRANCH  21  22
ENDBRANCH  20  21
ENDBRANCH  19  20
ENDBRANCH  18  19
ENDBRANCH  17  18
ENDBRANCH  16  17
ENDBRANCH  15  16
ENDBRANCH   1  15
TORSDOF 22
ENDMDL
MODEL 3
REMARK VINA RESULT:    -3.353      3.098      6.320
REMARK INTER + INTRA:         -10.743
REMARK INTER:                  -7.191
REMARK INTRA:                  -3.552
REMARK UNBOUND:                -3.077
REMARK SMILES CCCCCCCCCCCCCCCCCCCCCCCC(=O)[O-]
REMARK SMILES IDX 13 1 14 2 15 3 16 4 17 5 18 6 19 7 20 8 21 9 22 10 23 11
REMARK SMILES IDX 24 12 25 13 26 14 12 15 11 16 10 17 9 18 8 19 7 20 6 21 5 22
REMARK SMILES IDX 4 23 3 24 2 25 1 26
REMARK H PARENT
REMARK Flexibility Score: inf
ROOT
ATOM      1  C   UNL     1    -100.767 -38.153  91.484  1.00  0.00     0.000 C 
ENDROOT
BRANCH   1   2
ATOM      2  C   UNL     1    -100.603 -36.998  92.488  1.00  0.00     0.000 C 
BRANCH   2   3
ATOM      3  C   UNL     1    -100.555 -37.480  93.947  1.00  0.00     0.000 C 
BRANCH   3   4
ATOM      4  C   UNL     1    -101.954 -37.646  94.562  1.00  0.00     0.000 C 
BRANCH   4   5
ATOM      5  C   UNL     1    -102.158 -36.776  95.816  1.00  0.00     0.000 C 
BRANCH   5   6
ATOM      6  C   UNL     1    -101.311 -35.492  95.794  1.00  0.00     0.000 C 
BRANCH   6   7
ATOM      7  C   UNL     1    -102.046 -34.239  95.277  1.00  0.00     0.000 C 
BRANCH   7   8
ATOM      8  C   UNL     1    -101.719 -33.842  93.823  1.00  0.00     0.000 C 
BRANCH   8   9
ATOM      9  C   UNL     1    -102.738 -32.893  93.162  1.00  0.00     0.000 C 
BRANCH   9  10
ATOM     10  C   UNL     1    -103.937 -33.590  92.485  1.00  0.00     0.006 C 
BRANCH  10  11
ATOM     11  C   UNL     1    -103.591 -34.919  91.792  1.00  0.00     0.053 C 
BRANCH  11  12
ATOM     12  C   UNL     1    -104.324 -36.077  92.398  1.00  0.00     0.041 C 
ATOM     13  O   UNL     1    -105.023 -35.914  93.434  1.00  0.00    -0.550 OA
ATOM     14  O   UNL     1    -104.236 -37.336  91.817  1.00  0.00    -0.550 OA
ENDBRANCH  11  12
ENDBRANCH  10  11
ENDBRANCH   9  10
ENDBRANCH   8   9
ENDBRANCH   7   8
ENDBRANCH   6   7
ENDBRANCH   5   6
ENDBRANCH   4   5
ENDBRANCH   3   4
ENDBRANCH   2   3
ENDBRANCH   1   2
BRANCH   1  15
ATOM     15  C   UNL     1     -99.707 -39.264  91.639  1.00  0.00     0.000 C 
BRANCH  15  16
ATOM     16  C   UNL     1    -100.325 -40.599  92.091  1.00  0.00     0.000 C 
BRANCH  16  17
ATOM     17  C   UNL     1     -99.616 -41.189  93.320  1.00  0.00     0.000 C 
BRANCH  17  18
ATOM     18  C   UNL     1     -98.193 -40.634  93.502  1.00  0.00    -0.000 C 
BRANCH  18  19
ATOM     19  C   UNL     1     -97.108 -41.654  93.127  1.00  0.00    -0.000 C 
BRANCH  19  20
ATOM     20  C   UNL     1     -96.395 -41.300  91.811  1.00  0.00    -0.000 C 
BRANCH  20  21
ATOM     21  C   UNL     1     -96.427 -42.451  90.790  1.00  0.00    -0.000 C 
BRANCH  21  22
ATOM     22  C   UNL     1     -97.858 -42.861  90.369  1.00  0.00    -0.000 C 
BRANCH  22  23
ATOM     23  C   UNL     1     -98.438 -41.979  89.248  1.00  0.00    -0.000 C 
BRANCH  23  24
ATOM     24  C   UNL     1     -97.572 -42.014  87.976  1.00  0.00    -0.000 C 
BRANCH  24  25
ATOM     25  C   UNL     1     -97.087 -40.617  87.557  1.00  0.00    -0.003 C 
ATOM     26  C   UNL     1     -97.358 -39.556  88.625  1.00  0.00     0.004 C 
ENDBRANCH  24  25
ENDBRANCH  23  24
ENDBRANCH  22  23
ENDBRANCH  21  22
ENDBRANCH  20  21
ENDBRANCH  19  20
ENDBRANCH  18  19
ENDBRANCH  17  18
ENDBRANCH  16  17
ENDBRANCH  15  16
ENDBRANCH   1  15
TORSDOF 22
ENDMDL
MODEL 4
REMARK VINA RESULT:    -3.350     13.018     16.126
REMARK INTER + INTRA:         -10.736
REMARK INTER:                  -5.952
REMARK INTRA:                  -4.785
REMARK UNBOUND:                -3.077
REMARK SMILES CCCCCCCCCCCCCCCCCCCCCCCC(=O)[O-]
REMARK SMILES IDX 13 1 14 2 15 3 16 4 17 5 18 6 19 7 20 8 21 9 22 10 23 11
REMARK SMILES IDX 24 12 25 13 26 14 12 15 11 16 10 17 9 18 8 19 7 20 6 21 5 22
REMARK SMILES IDX 4 23 3 24 2 25 1 26
REMARK H PARENT
REMARK Flexibility Score: inf
ROOT
ATOM      1  C   UNL     1     -96.966 -28.666  80.417  1.00  0.00     0.000 C 
ENDROOT
BRANCH   1   2
ATOM      2  C   UNL     1     -96.450 -28.592  78.969  1.00  0.00     0.000 C 
BRANCH   2   3
ATOM      3  C   UNL     1     -95.745 -27.262  78.656  1.00  0.00     0.000 C 
BRANCH   3   4
ATOM      4  C   UNL     1     -95.636 -26.345  79.885  1.00  0.00     0.000 C 
BRANCH   4   5
ATOM      5  C   UNL     1     -96.424 -25.033  79.718  1.00  0.00     0.000 C 
BRANCH   5   6
ATOM      6  C   UNL     1     -97.849 -25.116  80.294  1.00  0.00     0.000 C 
BRANCH   6   7
ATOM      7  C   UNL     1     -98.132 -24.155  81.466  1.00  0.00     0.000 C 
BRANCH   7   8
ATOM      8  C   UNL     1     -98.346 -24.837  82.833  1.00  0.00     0.000 C 
BRANCH   8   9
ATOM      9  C   UNL     1     -97.497 -26.101  83.070  1.00  0.00     0.000 C 
BRANCH   9  10
ATOM     10  C   UNL     1     -97.974 -27.002  84.228  1.00  0.00     0.006 C 
BRANCH  10  11
ATOM     11  C   UNL     1     -97.384 -28.422  84.213  1.00  0.00     0.053 C 
BRANCH  11  12
ATOM     12  C   UNL     1     -96.286 -28.586  85.219  1.00  0.00     0.041 C 
ATOM     13  O   UNL     1     -95.835 -27.584  85.837  1.00  0.00    -0.550 OA
ATOM     14  O   UNL     1     -95.760 -29.846  85.477  1.00  0.00    -0.550 OA
ENDBRANCH  11  12
ENDBRANCH  10  11
ENDBRANCH   9  10
ENDBRANCH   8   9
ENDBRANCH   7   8
ENDBRANCH   6   7
ENDBRANCH   5   6
ENDBRANCH   4   5
ENDBRANCH   3   4
ENDBRANCH   2   3
ENDBRANCH   1   2
BRANCH   1  15
ATOM     15  C   UNL     1     -98.467 -29.010  80.523  1.00  0.00     0.000 C 
BRANCH  15  16
ATOM     16  C   UNL     1     -99.285 -28.405  79.368  1.00  0.00     0.000 C 
BRANCH  16  17
ATOM     17  C   UNL     1    -100.584 -27.741  79.851  1.00  0.00     0.000 C 
BRANCH  17  18
ATOM     18  C   UNL     1    -100.520 -27.331  81.332  1.00  0.00    -0.000 C 
BRANCH  18  19
ATOM     19  C   UNL     1    -101.585 -26.289  81.705  1.00  0.00    -0.000 C 
BRANCH  19  20
ATOM     20  C   UNL     1    -101.858 -26.238  83.217  1.00  0.00    -0.000 C 
BRANCH  20  21
ATOM     21  C   UNL     1    -101.301 -27.463  83.963  1.00  0.00    -0.000 C 
BRANCH  21  22
ATOM     22  C   UNL     1    -102.400 -28.364  84.576  1.00  0.00    -0.000 C 
BRANCH  22  23
ATOM     23  C   UNL     1    -102.177 -29.863  84.307  1.00  0.00    -0.000 C 
BRANCH  23  24
ATOM     24  C   UNL     1    -100.958 -30.115  83.403  1.00  0.00    -0.000 C 
BRANCH  24  25
ATOM     25  C   UNL     1    -101.335 -30.819  82.090  1.00  0.00    -0.003 C 
ATOM     26  C   UNL     1    -102.701 -30.380  81.559  1.00  0.00     0.004 C 
ENDBRANCH  24  25
ENDBRANCH  23  24
ENDBRANCH  22  23
ENDBRANCH  21  22
ENDBRANCH  20  21
ENDBRANCH  19  20
ENDBRANCH  18  19
ENDBRANCH  17  18
ENDBRANCH  16  17
ENDBRANCH  15  16
ENDBRANCH   1  15
TORSDOF 22
ENDMDL
MODEL 5
REMARK VINA RESULT:    -3.287      3.464      7.631
REMARK INTER + INTRA:         -10.592
REMARK INTER:                  -6.812
REMARK INTRA:                  -3.780
REMARK UNBOUND:                -3.077
REMARK SMILES CCCCCCCCCCCCCCCCCCCCCCCC(=O)[O-]
REMARK SMILES IDX 13 1 14 2 15 3 16 4 17 5 18 6 19 7 20 8 21 9 22 10 23 11
REMARK SMILES IDX 24 12 25 13 26 14 12 15 11 16 10 17 9 18 8 19 7 20 6 21 5 22
REMARK SMILES IDX 4 23 3 24 2 25 1 26
REMARK H PARENT
REMARK Flexibility Score: inf
ROOT
ATOM      1  C   UNL     1    -100.362 -41.637  91.531  1.00  0.00     0.000 C 
ENDROOT
BRANCH   1   2
ATOM      2  C   UNL     1     -99.738 -42.947  91.021  1.00  0.00     0.000 C 
BRANCH   2   3
ATOM      3  C   UNL     1    -100.222 -43.329  89.613  1.00  0.00     0.000 C 
BRANCH   3   4
ATOM      4  C   UNL     1     -99.308 -42.783  88.504  1.00  0.00     0.000 C 
BRANCH   4   5
ATOM      5  C   UNL     1     -98.157 -43.744  88.157  1.00  0.00     0.000 C 
BRANCH   5   6
ATOM      6  C   UNL     1     -96.771 -43.089  88.298  1.00  0.00     0.000 C 
BRANCH   6   7
ATOM      7  C   UNL     1     -96.796 -41.601  88.701  1.00  0.00     0.000 C 
BRANCH   7   8
ATOM      8  C   UNL     1     -96.341 -41.309  90.145  1.00  0.00     0.000 C 
BRANCH   8   9
ATOM      9  C   UNL     1     -96.081 -42.557  91.012  1.00  0.00     0.000 C 
BRANCH   9  10
ATOM     10  C   UNL     1     -96.420 -42.396  92.509  1.00  0.00     0.006 C 
BRANCH  10  11
ATOM     11  C   UNL     1     -95.936 -41.076  93.132  1.00  0.00     0.053 C 
BRANCH  11  12
ATOM     12  C   UNL     1     -95.549 -41.241  94.570  1.00  0.00     0.041 C 
ATOM     13  O   UNL     1     -94.569 -41.968  94.885  1.00  0.00    -0.550 OA
ATOM     14  O   UNL     1     -96.270 -40.590  95.563  1.00  0.00    -0.550 OA
ENDBRANCH  11  12
ENDBRANCH  10  11
ENDBRANCH   9  10
ENDBRANCH   8   9
ENDBRANCH   7   8
ENDBRANCH   6   7
ENDBRANCH   5   6
ENDBRANCH   4   5
ENDBRANCH   3   4
ENDBRANCH   2   3
ENDBRANCH   1   2
BRANCH   1  15
ATOM     15  C   UNL     1     -99.431 -40.413  91.398  1.00  0.00     0.000 C 
BRANCH  15  16
ATOM     16  C   UNL     1     -99.512 -39.485  92.623  1.00  0.00     0.000 C 
BRANCH  16  17
ATOM     17  C   UNL     1     -99.372 -40.248  93.949  1.00  0.00     0.000 C 
BRANCH  17  18
ATOM     18  C   UNL     1     -99.923 -39.453  95.146  1.00  0.00    -0.000 C 
BRANCH  18  19
ATOM     19  C   UNL     1    -100.856 -38.310  94.718  1.00  0.00    -0.000 C 
BRANCH  19  20
ATOM     20  C   UNL     1    -100.476 -36.966  95.362  1.00  0.00    -0.000 C 
BRANCH  20  21
ATOM     21  C   UNL     1    -100.503 -35.799  94.359  1.00  0.00    -0.000 C 
BRANCH  21  22
ATOM     22  C   UNL     1    -100.976 -36.212  92.946  1.00  0.00    -0.000 C 
BRANCH  22  23
ATOM     23  C   UNL     1    -102.303 -35.549  92.531  1.00  0.00    -0.000 C 
BRANCH  23  24
ATOM     24  C   UNL     1    -103.054 -36.372  91.470  1.00  0.00    -0.000 C 
BRANCH  24  25
ATOM     25  C   UNL     1    -102.336 -37.688  91.131  1.00  0.00    -0.003 C 
ATOM     26  C   UNL     1    -103.051 -38.913  91.704  1.00  0.00     0.004 C 
ENDBRANCH  24  25
ENDBRANCH  23  24
ENDBRANCH  22  23
ENDBRANCH  21  22
ENDBRANCH  20  21
ENDBRANCH  19  20
ENDBRANCH  18  19
ENDBRANCH  17  18
ENDBRANCH  16  17
ENDBRANCH  15  16
ENDBRANCH   1  15
TORSDOF 22
ENDMDL
MODEL 6
REMARK VINA RESULT:    -3.285      1.486      2.755
REMARK INTER + INTRA:         -10.587
REMARK INTER:                  -8.895
REMARK INTRA:                  -1.692
REMARK UNBOUND:                -3.077
REMARK SMILES CCCCCCCCCCCCCCCCCCCCCCCC(=O)[O-]
REMARK SMILES IDX 13 1 14 2 15 3 16 4 17 5 18 6 19 7 20 8 21 9 22 10 23 11
REMARK SMILES IDX 24 12 25 13 26 14 12 15 11 16 10 17 9 18 8 19 7 20 6 21 5 22
REMARK SMILES IDX 4 23 3 24 2 25 1 26
REMARK H PARENT
REMARK Flexibility Score: inf
ROOT
ATOM      1  C   UNL     1     -97.113 -40.518  87.705  1.00  0.00     0.000 C 
ENDROOT
BRANCH   1   2
ATOM      2  C   UNL     1     -97.232 -40.064  89.171  1.00  0.00     0.000 C 
BRANCH   2   3
ATOM      3  C   UNL     1     -96.492 -40.996  90.144  1.00  0.00     0.000 C 
BRANCH   3   4
ATOM      4  C   UNL     1     -97.356 -41.403  91.348  1.00  0.00     0.000 C 
BRANCH   4   5
ATOM      5  C   UNL     1     -98.781 -40.824  91.279  1.00  0.00     0.000 C 
BRANCH   5   6
ATOM      6  C   UNL     1     -99.162 -40.030  92.541  1.00  0.00     0.000 C 
BRANCH   6   7
ATOM      7  C   UNL     1    -100.550 -39.360  92.491  1.00  0.00     0.000 C 
BRANCH   7   8
ATOM      8  C   UNL     1    -100.595 -38.008  91.750  1.00  0.00     0.000 C 
BRANCH   8   9
ATOM      9  C   UNL     1    -101.863 -37.169  92.004  1.00  0.00     0.000 C 
BRANCH   9  10
ATOM     10  C   UNL     1    -101.621 -35.810  92.693  1.00  0.00     0.006 C 
BRANCH  10  11
ATOM     11  C   UNL     1    -100.565 -35.843  93.812  1.00  0.00     0.053 C 
BRANCH  11  12
ATOM     12  C   UNL     1    -101.177 -36.104  95.155  1.00  0.00     0.041 C 
ATOM     13  O   UNL     1    -101.219 -35.190  96.022  1.00  0.00    -0.550 OA
ATOM     14  O   UNL     1    -101.703 -37.356  95.448  1.00  0.00    -0.550 OA
ENDBRANCH  11  12
ENDBRANCH  10  11
ENDBRANCH   9  10
ENDBRANCH   8   9
ENDBRANCH   7   8
ENDBRANCH   6   7
ENDBRANCH   5   6
ENDBRANCH   4   5
ENDBRANCH   3   4
ENDBRANCH   2   3
ENDBRANCH   1   2
BRANCH   1  15
ATOM     15  C   UNL     1     -96.402 -41.878  87.533  1.00  0.00     0.000 C 
BRANCH  15  16
ATOM     16  C   UNL     1     -97.396 -43.026  87.287  1.00  0.00     0.000 C 
BRANCH  16  17
ATOM     17  C   UNL     1     -98.763 -42.526  86.793  1.00  0.00     0.000 C 
BRANCH  17  18
ATOM     18  C   UNL     1     -99.507 -43.579  85.955  1.00  0.00    -0.000 C 
BRANCH  18  19
ATOM     19  C   UNL     1    -101.032 -43.398  85.995  1.00  0.00    -0.000 C 
BRANCH  19  20
ATOM     20  C   UNL     1    -101.561 -42.579  84.805  1.00  0.00    -0.000 C 
BRANCH  20  21
ATOM     21  C   UNL     1    -100.699 -42.742  83.541  1.00  0.00    -0.000 C 
BRANCH  21  22
ATOM     22  C   UNL     1    -101.236 -41.955  82.323  1.00  0.00    -0.000 C 
BRANCH  22  23
ATOM     23  C   UNL     1    -100.918 -40.450  82.383  1.00  0.00    -0.000 C 
BRANCH  23  24
ATOM     24  C   UNL     1    -100.086 -39.986  81.174  1.00  0.00    -0.000 C 
BRANCH  24  25
ATOM     25  C   UNL     1     -99.669 -41.153  80.266  1.00  0.00    -0.003 C 
ATOM     26  C   UNL     1     -98.154 -41.365  80.240  1.00  0.00     0.004 C 
ENDBRANCH  24  25
ENDBRANCH  23  24
ENDBRANCH  22  23
ENDBRANCH  21  22
ENDBRANCH  20  21
ENDBRANCH  19  20
ENDBRANCH  18  19
ENDBRANCH  17  18
ENDBRANCH  16  17
ENDBRANCH  15  16
ENDBRANCH   1  15
TORSDOF 22
ENDMDL
MODEL 7
REMARK VINA RESULT:    -3.269     12.447     15.636
REMARK INTER + INTRA:         -10.551
REMARK INTER:                  -6.422
REMARK INTRA:                  -4.129
REMARK UNBOUND:                -3.077
REMARK SMILES CCCCCCCCCCCCCCCCCCCCCCCC(=O)[O-]
REMARK SMILES IDX 13 1 14 2 15 3 16 4 17 5 18 6 19 7 20 8 21 9 22 10 23 11
REMARK SMILES IDX 24 12 25 13 26 14 12 15 11 16 10 17 9 18 8 19 7 20 6 21 5 22
REMARK SMILES IDX 4 23 3 24 2 25 1 26
REMARK H PARENT
REMARK Flexibility Score: inf
ROOT
ATOM      1  C   UNL     1    -100.377 -27.734  79.758  1.00  0.00     0.000 C 
ENDROOT
BRANCH   1   2
ATOM      2  C   UNL     1     -99.723 -26.613  80.584  1.00  0.00     0.000 C 
BRANCH   2   3
ATOM      3  C   UNL     1    -100.699 -25.474  80.919  1.00  0.00     0.000 C 
BRANCH   3   4
ATOM      4  C   UNL     1    -101.310 -25.610  82.323  1.00  0.00     0.000 C 
BRANCH   4   5
ATOM      5  C   UNL     1    -100.256 -25.922  83.401  1.00  0.00     0.000 C 
BRANCH   5   6
ATOM      6  C   UNL     1    -100.589 -27.188  84.210  1.00  0.00     0.000 C 
BRANCH   6   7
ATOM      7  C   UNL     1     -99.863 -28.466  83.742  1.00  0.00     0.000 C 
BRANCH   7   8
ATOM      8  C   UNL     1    -100.615 -29.783  84.022  1.00  0.00     0.000 C 
BRANCH   8   9
ATOM      9  C   UNL     1    -101.876 -30.008  83.165  1.00  0.00     0.000 C 
BRANCH   9  10
ATOM     10  C   UNL     1    -103.144 -30.394  83.956  1.00  0.00     0.006 C 
BRANCH  10  11
ATOM     11  C   UNL     1    -102.920 -30.572  85.467  1.00  0.00     0.053 C 
BRANCH  11  12
ATOM     12  C   UNL     1    -103.615 -29.511  86.267  1.00  0.00     0.041 C 
ATOM     13  O   UNL     1    -103.374 -28.293  86.051  1.00  0.00    -0.550 OA
ATOM     14  O   UNL     1    -104.529 -29.869  87.250  1.00  0.00    -0.550 OA
ENDBRANCH  11  12
ENDBRANCH  10  11
ENDBRANCH   9  10
ENDBRANCH   8   9
ENDBRANCH   7   8
ENDBRANCH   6   7
ENDBRANCH   5   6
ENDBRANCH   4   5
ENDBRANCH   3   4
ENDBRANCH   2   3
ENDBRANCH   1   2
BRANCH   1  15
ATOM     15  C   UNL     1     -99.831 -29.141  80.079  1.00  0.00     0.000 C 
BRANCH  15  16
ATOM     16  C   UNL     1     -98.332 -29.117  80.429  1.00  0.00     0.000 C 
BRANCH  16  17
ATOM     17  C   UNL     1     -97.451 -29.625  79.276  1.00  0.00     0.000 C 
BRANCH  17  18
ATOM     18  C   UNL     1     -96.290 -28.667  78.957  1.00  0.00    -0.000 C 
BRANCH  18  19
ATOM     19  C   UNL     1     -96.772 -27.287  78.488  1.00  0.00    -0.000 C 
BRANCH  19  20
ATOM     20  C   UNL     1     -96.268 -26.147  79.388  1.00  0.00    -0.000 C 
BRANCH  20  21
ATOM     21  C   UNL     1     -95.403 -26.651  80.557  1.00  0.00    -0.000 C 
BRANCH  21  22
ATOM     22  C   UNL     1     -95.674 -25.911  81.888  1.00  0.00    -0.000 C 
BRANCH  22  23
ATOM     23  C   UNL     1     -96.757 -26.585  82.750  1.00  0.00    -0.000 C 
BRANCH  23  24
ATOM     24  C   UNL     1     -96.309 -27.961  83.271  1.00  0.00    -0.000 C 
BRANCH  24  25
ATOM     25  C   UNL     1     -96.383 -28.061  84.804  1.00  0.00    -0.003 C 
ATOM     26  C   UNL     1     -95.996 -29.447  85.321  1.00  0.00     0.004 C 
ENDBRANCH  24  25
ENDBRANCH  23  24
ENDBRANCH  22  23
ENDBRANCH  21  22
ENDBRANCH  20  21
ENDBRANCH  19  20
ENDBRANCH  18  19
ENDBRANCH  17  18
ENDBRANCH  16  17
ENDBRANCH  15  16
ENDBRANCH   1  15
TORSDOF 22
ENDMDL
MODEL 8
REMARK VINA RESULT:    -3.251     13.636     17.111
REMARK INTER + INTRA:         -10.510
REMARK INTER:                  -5.875
REMARK INTRA:                  -4.635
REMARK UNBOUND:                -3.077
REMARK SMILES CCCCCCCCCCCCCCCCCCCCCCCC(=O)[O-]
REMARK SMILES IDX 13 1 14 2 15 3 16 4 17 5 18 6 19 7 20 8 21 9 22 10 23 11
REMARK SMILES IDX 24 12 25 13 26 14 12 15 11 16 10 17 9 18 8 19 7 20 6 21 5 22
REMARK SMILES IDX 4 23 3 24 2 25 1 26
REMARK H PARENT
REMARK Flexibility Score: inf
ROOT
ATOM      1  C   UNL     1     -99.153 -24.630  84.174  1.00  0.00     0.000 C 
ENDROOT
BRANCH   1   2
ATOM      2  C   UNL     1     -99.225 -25.056  82.697  1.00  0.00     0.000 C 
BRANCH   2   3
ATOM      3  C   UNL     1     -98.522 -24.064  81.757  1.00  0.00     0.000 C 
BRANCH   3   4
ATOM      4  C   UNL     1     -98.628 -24.471  80.279  1.00  0.00     0.000 C 
BRANCH   4   5
ATOM      5  C   UNL     1     -99.317 -25.835  80.087  1.00  0.00     0.000 C 
BRANCH   5   6
ATOM      6  C   UNL     1     -98.935 -26.513  78.760  1.00  0.00     0.000 C 
BRANCH   6   7
ATOM      7  C   UNL     1     -99.578 -27.896  78.529  1.00  0.00     0.000 C 
BRANCH   7   8
ATOM      8  C   UNL     1     -98.614 -29.093  78.654  1.00  0.00     0.000 C 
BRANCH   8   9
ATOM      9  C   UNL     1     -98.837 -29.982  79.894  1.00  0.00     0.000 C 
BRANCH   9  10
ATOM     10  C   UNL     1    -100.249 -29.901  80.511  1.00  0.00     0.006 C 
BRANCH  10  11
ATOM     11  C   UNL     1    -100.319 -29.124  81.837  1.00  0.00     0.053 C 
BRANCH  11  12
ATOM     12  C   UNL     1    -101.050 -29.888  82.899  1.00  0.00     0.041 C 
ATOM     13  O   UNL     1    -100.578 -29.964  84.065  1.00  0.00    -0.550 OA
ATOM     14  O   UNL     1    -102.253 -30.516  82.601  1.00  0.00    -0.550 OA
ENDBRANCH  11  12
ENDBRANCH  10  11
ENDBRANCH   9  10
ENDBRANCH   8   9
ENDBRANCH   7   8
ENDBRANCH   6   7
ENDBRANCH   5   6
ENDBRANCH   4   5
ENDBRANCH   3   4
ENDBRANCH   2   3
ENDBRANCH   1   2
BRANCH   1  15
ATOM     15  C   UNL     1     -98.751 -25.773  85.130  1.00  0.00     0.000 C 
BRANCH  15  16
ATOM     16  C   UNL     1     -98.397 -27.066  84.374  1.00  0.00     0.000 C 
BRANCH  16  17
ATOM     17  C   UNL     1     -97.020 -27.621  84.770  1.00  0.00     0.000 C 
BRANCH  17  18
ATOM     18  C   UNL     1     -96.259 -28.217  83.574  1.00  0.00    -0.000 C 
BRANCH  18  19
ATOM     19  C   UNL     1     -96.981 -27.986  82.239  1.00  0.00    -0.000 C 
BRANCH  19  20
ATOM     20  C   UNL     1     -96.139 -27.167  81.246  1.00  0.00    -0.000 C 
BRANCH  20  21
ATOM     21  C   UNL     1     -95.368 -26.021  81.925  1.00  0.00    -0.000 C 
BRANCH  21  22
ATOM     22  C   UNL     1     -94.982 -24.879  80.956  1.00  0.00    -0.000 C 
BRANCH  22  23
ATOM     23  C   UNL     1     -94.563 -25.381  79.561  1.00  0.00    -0.000 C 
BRANCH  23  24
ATOM     24  C   UNL     1     -95.424 -24.768  78.443  1.00  0.00    -0.000 C 
BRANCH  24  25
ATOM     25  C   UNL     1     -95.603 -25.722  77.251  1.00  0.00    -0.003 C 
ATOM     26  C   UNL     1     -95.487 -27.193  77.653  1.00  0.00     0.004 C 
ENDBRANCH  24  25
ENDBRANCH  23  24
ENDBRANCH  22  23
ENDBRANCH  21  22
ENDBRANCH  20  21
ENDBRANCH  19  20
ENDBRANCH  18  19
ENDBRANCH  17  18
ENDBRANCH  16  17
ENDBRANCH  15  16
ENDBRANCH   1  15
TORSDOF 22
ENDMDL
MODEL 9
REMARK VINA RESULT:    -3.238      3.790      8.085
REMARK INTER + INTRA:         -10.481
REMARK INTER:                  -6.226
REMARK INTRA:                  -4.255
REMARK UNBOUND:                -3.077
REMARK SMILES CCCCCCCCCCCCCCCCCCCCCCCC(=O)[O-]
REMARK SMILES IDX 13 1 14 2 15 3 16 4 17 5 18 6 19 7 20 8 21 9 22 10 23 11
REMARK SMILES IDX 24 12 25 13 26 14 12 15 11 16 10 17 9 18 8 19 7 20 6 21 5 22
REMARK SMILES IDX 4 23 3 24 2 25 1 26
REMARK H PARENT
REMARK Flexibility Score: inf
ROOT
ATOM      1  C   UNL     1    -100.405 -41.826  93.342  1.00  0.00     0.000 C 
ENDROOT
BRANCH   1   2
ATOM      2  C   UNL     1     -99.361 -42.599  94.167  1.00  0.00     0.000 C 
BRANCH   2   3
ATOM      3  C   UNL     1     -99.282 -42.119  95.626  1.00  0.00     0.000 C 
BRANCH   3   4
ATOM      4  C   UNL     1     -97.880 -41.621  96.011  1.00  0.00     0.000 C 
BRANCH   4   5
ATOM      5  C   UNL     1     -97.353 -40.534  95.057  1.00  0.00     0.000 C 
BRANCH   5   6
ATOM      6  C   UNL     1     -95.979 -40.882  94.458  1.00  0.00     0.000 C 
BRANCH   6   7
ATOM      7  C   UNL     1     -95.993 -41.210  92.951  1.00  0.00     0.000 C 
BRANCH   7   8
ATOM      8  C   UNL     1     -96.011 -42.713  92.610  1.00  0.00     0.000 C 
BRANCH   8   9
ATOM      9  C   UNL     1     -96.422 -43.047  91.162  1.00  0.00     0.000 C 
BRANCH   9  10
ATOM     10  C   UNL     1     -96.405 -41.853  90.185  1.00  0.00     0.006 C 
BRANCH  10  11
ATOM     11  C   UNL     1     -96.277 -42.245  88.703  1.00  0.00     0.053 C 
BRANCH  11  12
ATOM     12  C   UNL     1     -97.124 -41.383  87.818  1.00  0.00     0.041 C 
ATOM     13  O   UNL     1     -97.887 -41.908  86.962  1.00  0.00    -0.550 OA
ATOM     14  O   UNL     1     -97.073 -40.000  87.938  1.00  0.00    -0.550 OA
ENDBRANCH  11  12
ENDBRANCH  10  11
ENDBRANCH   9  10
ENDBRANCH   8   9
ENDBRANCH   7   8
ENDBRANCH   6   7
ENDBRANCH   5   6
ENDBRANCH   4   5
ENDBRANCH   3   4
ENDBRANCH   2   3
ENDBRANCH   1   2
BRANCH   1  15
ATOM     15  C   UNL     1    -100.023 -41.662  91.856  1.00  0.00     0.000 C 
BRANCH  15  16
ATOM     16  C   UNL     1     -99.238 -40.364  91.597  1.00  0.00     0.000 C 
BRANCH  16  17
ATOM     17  C   UNL     1     -99.678 -39.216  92.519  1.00  0.00     0.000 C 
BRANCH  17  18
ATOM     18  C   UNL     1    -100.584 -38.200  91.803  1.00  0.00    -0.000 C 
BRANCH  18  19
ATOM     19  C   UNL     1    -100.554 -36.813  92.463  1.00  0.00    -0.000 C 
BRANCH  19  20
ATOM     20  C   UNL     1    -101.945 -36.350  92.928  1.00  0.00    -0.000 C 
BRANCH  20  21
ATOM     21  C   UNL     1    -103.003 -37.465  92.839  1.00  0.00    -0.000 C 
BRANCH  21  22
ATOM     22  C   UNL     1    -103.471 -37.981  94.220  1.00  0.00    -0.000 C 
BRANCH  22  23
ATOM     23  C   UNL     1    -102.714 -39.237  94.690  1.00  0.00    -0.000 C 
BRANCH  23  24
ATOM     24  C   UNL     1    -101.992 -39.010  96.029  1.00  0.00    -0.000 C 
BRANCH  24  25
ATOM     25  C   UNL     1    -100.509 -38.652  95.844  1.00  0.00    -0.003 C 
ATOM     26  C   UNL     1    -100.224 -37.173  96.113  1.00  0.00     0.004 C 
ENDBRANCH  24  25
ENDBRANCH  23  24
ENDBRANCH  22  23
ENDBRANCH  21  22
ENDBRANCH  20  21
ENDBRANCH  19  20
ENDBRANCH  18  19
ENDBRANCH  17  18
ENDBRANCH  16  17
ENDBRANCH  15  16
ENDBRANCH   1  15
TORSDOF 22
ENDMDL
