MODEL 1
REMARK VINA RESULT:    -3.282      0.000      0.000
REMARK INTER + INTRA:          -3.705
REMARK INTER:                  -3.666
REMARK INTRA:                  -0.039
REMARK UNBOUND:                -0.039
REMARK SMILES CCCC(=O)[O-]
REMARK SMILES IDX 3 1 4 2 5 3 6 4 2 5 1 6
REMARK H PARENT
REMARK Flexibility Score: inf
ROOT
ATOM      1  C   UNL     1      39.055  81.718  25.615  1.00  0.00     0.052 C 
ENDROOT
BRANCH   1   2
ATOM      2  C   UNL     1      38.633  82.195  24.261  1.00  0.00     0.041 C 
ATOM      3  O   UNL     1      39.387  82.950  23.591  1.00  0.00    -0.550 OA
ATOM      4  O   UNL     1      37.430  81.765  23.717  1.00  0.00    -0.550 OA
ENDBRANCH   1   2
BRANCH   1   5
ATOM      5  C   UNL     1      39.894  80.443  25.496  1.00  0.00     0.003 C 
ATOM      6  C   UNL     1      41.384  80.752  25.601  1.00  0.00     0.004 C 
ENDBRANCH   1   5
TORSDOF 2
ENDMDL
MODEL 2
REMARK VINA RESULT:    -3.197      2.002      3.284
REMARK INTER + INTRA:          -3.610
REMARK INTER:                  -3.569
REMARK INTRA:                  -0.041
REMARK UNBOUND:                -0.039
REMARK SMILES CCCC(=O)[O-]
REMARK SMILES IDX 3 1 4 2 5 3 6 4 2 5 1 6
REMARK H PARENT
REMARK Flexibility Score: inf
ROOT
ATOM      1  C   UNL     1      39.179  82.217  25.339  1.00  0.00     0.052 C 
ENDROOT
BRANCH   1   2
ATOM      2  C   UNL     1      40.151  81.089  25.190  1.00  0.00     0.041 C 
ATOM      3  O   UNL     1      39.890  79.958  25.679  1.00  0.00    -0.550 OA
ATOM      4  O   UNL     1      41.322  81.272  24.466  1.00  0.00    -0.550 OA
ENDBRANCH   1   2
BRANCH   1   5
ATOM      5  C   UNL     1      38.518  82.536  23.996  1.00  0.00     0.003 C 
ATOM      6  C   UNL     1      37.169  81.833  23.866  1.00  0.00     0.004 C 
ENDBRANCH   1   5
TORSDOF 2
ENDMDL
MODEL 3
REMARK VINA RESULT:    -2.912      1.908      3.481
REMARK INTER + INTRA:          -3.291
REMARK INTER:                  -3.279
REMARK INTRA:                  -0.012
REMARK UNBOUND:                -0.039
REMARK SMILES CCCC(=O)[O-]
REMARK SMILES IDX 3 1 4 2 5 3 6 4 2 5 1 6
REMARK H PARENT
REMARK Flexibility Score: inf
ROOT
ATOM      1  C   UNL     1      37.712  81.652  24.304  1.00  0.00     0.052 C 
ENDROOT
BRANCH   1   2
ATOM      2  C   UNL     1      39.100  82.190  24.443  1.00  0.00     0.041 C 
ATOM      3  O   UNL     1      39.549  83.013  23.601  1.00  0.00    -0.550 OA
ATOM      4  O   UNL     1      39.883  81.823  25.530  1.00  0.00    -0.550 OA
ENDBRANCH   1   2
BRANCH   1   5
ATOM      5  C   UNL     1      36.941  82.428  23.233  1.00  0.00     0.003 C 
ATOM      6  C   UNL     1      35.563  81.815  22.994  1.00  0.00     0.004 C 
ENDBRANCH   1   5
TORSDOF 2
ENDMDL
MODEL 4
REMARK VINA RESULT:    -2.755     15.470     16.158
REMARK INTER + INTRA:          -3.116
REMARK INTER:                  -3.107
REMARK INTRA:                  -0.009
REMARK UNBOUND:                -0.039
REMARK SMILES CCCC(=O)[O-]
REMARK SMILES IDX 3 1 4 2 5 3 6 4 2 5 1 6
REMARK H PARENT
REMARK Flexibility Score: inf
ROOT
ATOM      1  C   UNL     1      36.171  75.895  10.101  1.00  0.00     0.052 C 
ENDROOT
BRANCH   1   2
ATOM      2  C   UNL     1      35.863  77.144  10.864  1.00  0.00     0.041 C 
ATOM      3  O   UNL     1      36.694  77.603  11.691  1.00  0.00    -0.550 OA
ATOM      4  O   UNL     1      34.679  77.830  10.624  1.00  0.00    -0.550 OA
ENDBRANCH   1   2
BRANCH   1   5
ATOM      5  C   UNL     1      35.465  75.908   8.743  1.00  0.00     0.003 C 
ATOM      6  C   UNL     1      36.272  75.147   7.695  1.00  0.00     0.004 C 
ENDBRANCH   1   5
TORSDOF 2
ENDMDL
MODEL 5
REMARK VINA RESULT:    -2.744     14.692     15.543
REMARK INTER + INTRA:          -3.104
REMARK INTER:                  -3.066
REMARK INTRA:                  -0.038
REMARK UNBOUND:                -0.039
REMARK SMILES CCCC(=O)[O-]
REMARK SMILES IDX 3 1 4 2 5 3 6 4 2 5 1 6
REMARK H PARENT
REMARK Flexibility Score: inf
ROOT
ATOM      1  C   UNL     1      34.624  77.202  11.226  1.00  0.00     0.052 C 
ENDROOT
BRANCH   1   2
ATOM      2  C   UNL     1      36.117  77.114  11.180  1.00  0.00     0.041 C 
ATOM      3  O   UNL     1      36.818  77.827  11.946  1.00  0.00    -0.550 OA
ATOM      4  O   UNL     1      36.733  76.208  10.328  1.00  0.00    -0.550 OA
ENDBRANCH   1   2
BRANCH   1   5
ATOM      5  C   UNL     1      34.116  78.217  10.199  1.00  0.00     0.003 C 
ATOM      6  C   UNL     1      33.801  77.543   8.867  1.00  0.00     0.004 C 
ENDBRANCH   1   5
TORSDOF 2
ENDMDL
MODEL 6
REMARK VINA RESULT:    -2.692     15.991     16.681
REMARK INTER + INTRA:          -3.046
REMARK INTER:                  -3.026
REMARK INTRA:                  -0.020
REMARK UNBOUND:                -0.039
REMARK SMILES CCCC(=O)[O-]
REMARK SMILES IDX 3 1 4 2 5 3 6 4 2 5 1 6
REMARK H PARENT
REMARK Flexibility Score: inf
ROOT
ATOM      1  C   UNL     1      35.863  75.855   9.970  1.00  0.00     0.052 C 
ENDROOT
BRANCH   1   2
ATOM      2  C   UNL     1      35.474  75.949   8.529  1.00  0.00     0.041 C 
ATOM      3  O   UNL     1      34.581  76.760   8.165  1.00  0.00    -0.550 OA
ATOM      4  O   UNL     1      36.131  75.179   7.580  1.00  0.00    -0.550 OA
ENDBRANCH   1   2
BRANCH   1   5
ATOM      5  C   UNL     1      35.435  77.116  10.725  1.00  0.00     0.003 C 
ATOM      6  C   UNL     1      36.585  77.677  11.557  1.00  0.00     0.004 C 
ENDBRANCH   1   5
TORSDOF 2
ENDMDL
MODEL 7
REMARK VINA RESULT:    -2.690      9.388     10.215
REMARK INTER + INTRA:          -3.043
REMARK INTER:                  -3.032
REMARK INTRA:                  -0.011
REMARK UNBOUND:                -0.039
REMARK SMILES CCCC(=O)[O-]
REMARK SMILES IDX 3 1 4 2 5 3 6 4 2 5 1 6
REMARK H PARENT
REMARK Flexibility Score: inf
ROOT
ATOM      1  C   UNL     1      31.695  81.778  17.857  1.00  0.00     0.052 C 
ENDROOT
BRANCH   1   2
ATOM      2  C   UNL     1      32.488  81.788  16.589  1.00  0.00     0.041 C 
ATOM      3  O   UNL     1      32.713  80.712  15.974  1.00  0.00    -0.550 OA
ATOM      4  O   UNL     1      32.934  82.991  16.058  1.00  0.00    -0.550 OA
ENDBRANCH   1   2
BRANCH   1   5
ATOM      5  C   UNL     1      31.962  80.495  18.647  1.00  0.00     0.003 C 
ATOM      6  C   UNL     1      32.038  80.775  20.145  1.00  0.00     0.004 C 
ENDBRANCH   1   5
TORSDOF 2
ENDMDL
MODEL 8
REMARK VINA RESULT:    -2.649     14.412     15.056
REMARK INTER + INTRA:          -2.998
REMARK INTER:                  -2.993
REMARK INTRA:                  -0.006
REMARK UNBOUND:                -0.039
REMARK SMILES CCCC(=O)[O-]
REMARK SMILES IDX 3 1 4 2 5 3 6 4 2 5 1 6
REMARK H PARENT
REMARK Flexibility Score: inf
ROOT
ATOM      1  C   UNL     1      34.618  77.959  10.680  1.00  0.00     0.052 C 
ENDROOT
BRANCH   1   2
ATOM      2  C   UNL     1      35.825  77.172  11.081  1.00  0.00     0.041 C 
ATOM      3  O   UNL     1      36.005  76.011  10.627  1.00  0.00    -0.550 OA
ATOM      4  O   UNL     1      36.778  77.739  11.916  1.00  0.00    -0.550 OA
ENDBRANCH   1   2
BRANCH   1   5
ATOM      5  C   UNL     1      33.590  77.978  11.814  1.00  0.00     0.003 C 
ATOM      6  C   UNL     1      32.488  78.999  11.542  1.00  0.00     0.004 C 
ENDBRANCH   1   5
TORSDOF 2
ENDMDL
MODEL 9
REMARK VINA RESULT:    -2.592     13.477     13.812
REMARK INTER + INTRA:          -2.934
REMARK INTER:                  -2.928
REMARK INTRA:                  -0.006
REMARK UNBOUND:                -0.039
REMARK SMILES CCCC(=O)[O-]
REMARK SMILES IDX 3 1 4 2 5 3 6 4 2 5 1 6
REMARK H PARENT
REMARK Flexibility Score: inf
ROOT
ATOM      1  C   UNL     1      44.833  75.032  14.481  1.00  0.00     0.052 C 
ENDROOT
BRANCH   1   2
ATOM      2  C   UNL     1      43.584  75.085  13.659  1.00  0.00     0.041 C 
ATOM      3  O   UNL     1      42.507  75.493  14.169  1.00  0.00    -0.550 OA
ATOM      4  O   UNL     1      43.620  74.732  12.317  1.00  0.00    -0.550 OA
ENDBRANCH   1   2
BRANCH   1   5
ATOM      5  C   UNL     1      45.507  73.665  14.343  1.00  0.00     0.003 C 
ATOM      6  C   UNL     1      46.440  73.390  15.519  1.00  0.00     0.004 C 
ENDBRANCH   1   5
TORSDOF 2
ENDMDL
