MODEL 1
REMARK VINA RESULT:    -4.071      0.000      0.000
REMARK INTER + INTRA:          -4.320
REMARK INTER:                  -4.309
REMARK INTRA:                  -0.011
REMARK UNBOUND:                -0.011
REMARK SMILES O=Cc1ccco1
REMARK SMILES IDX 5 1 6 2 7 3 3 4 4 5 2 6 1 7
REMARK H PARENT
REMARK Flexibility Score: inf
ROOT
ATOM      1  C   UNL     1     -32.213 -20.859  29.173  1.00  0.00     0.043 A 
ATOM      2  C   UNL     1     -31.284 -21.864  28.988  1.00  0.00     0.196 A 
ATOM      3  O   UNL     1     -31.747 -22.742  28.128  1.00  0.00    -0.462 OA
ATOM      4  C   UNL     1     -32.941 -22.355  27.741  1.00  0.00     0.166 A 
ATOM      5  C   UNL     1     -33.285 -21.175  28.367  1.00  0.00     0.054 A 
ENDROOT
BRANCH   4   6
ATOM      6  C   UNL     1     -33.772 -23.083  26.782  1.00  0.00     0.298 C 
ATOM      7  O   UNL     1     -33.840 -22.703  25.583  1.00  0.00    -0.294 OA
ENDBRANCH   4   6
TORSDOF 1
ENDMDL
MODEL 2
REMARK VINA RESULT:    -3.442      1.901      3.250
REMARK INTER + INTRA:          -3.654
REMARK INTER:                  -3.641
REMARK INTRA:                  -0.012
REMARK UNBOUND:                -0.011
REMARK SMILES O=Cc1ccco1
REMARK SMILES IDX 5 1 6 2 7 3 3 4 4 5 2 6 1 7
REMARK H PARENT
REMARK Flexibility Score: inf
ROOT
ATOM      1  C   UNL     1     -32.635 -23.213  27.503  1.00  0.00     0.043 A 
ATOM      2  C   UNL     1     -33.943 -22.781  27.612  1.00  0.00     0.196 A 
ATOM      3  O   UNL     1     -33.986 -21.672  28.314  1.00  0.00    -0.462 OA
ATOM      4  C   UNL     1     -32.762 -21.358  28.672  1.00  0.00     0.166 A 
ATOM      5  C   UNL     1     -31.870 -22.294  28.190  1.00  0.00     0.054 A 
ENDROOT
BRANCH   4   6
ATOM      6  C   UNL     1     -32.413 -20.181  29.469  1.00  0.00     0.298 C 
ATOM      7  O   UNL     1     -32.577 -19.025  28.998  1.00  0.00    -0.294 OA
ENDBRANCH   4   6
TORSDOF 1
ENDMDL
MODEL 3
REMARK VINA RESULT:    -3.419      1.967      3.171
REMARK INTER + INTRA:          -3.630
REMARK INTER:                  -3.619
REMARK INTRA:                  -0.011
REMARK UNBOUND:                -0.011
REMARK SMILES O=Cc1ccco1
REMARK SMILES IDX 5 1 6 2 7 3 3 4 4 5 2 6 1 7
REMARK H PARENT
REMARK Flexibility Score: inf
ROOT
ATOM      1  C   UNL     1     -33.118 -22.379  27.757  1.00  0.00     0.043 A 
ATOM      2  C   UNL     1     -31.825 -22.572  28.206  1.00  0.00     0.196 A 
ATOM      3  O   UNL     1     -31.445 -21.539  28.921  1.00  0.00    -0.462 OA
ATOM      4  C   UNL     1     -32.434 -20.675  28.961  1.00  0.00     0.166 A 
ATOM      5  C   UNL     1     -33.513 -21.151  28.245  1.00  0.00     0.054 A 
ENDROOT
BRANCH   4   6
ATOM      6  C   UNL     1     -32.381 -19.395  29.669  1.00  0.00     0.298 C 
ATOM      7  O   UNL     1     -32.416 -18.313  29.026  1.00  0.00    -0.294 OA
ENDBRANCH   4   6
TORSDOF 1
ENDMDL
MODEL 4
REMARK VINA RESULT:    -3.366      1.309      3.005
REMARK INTER + INTRA:          -3.573
REMARK INTER:                  -3.562
REMARK INTRA:                  -0.011
REMARK UNBOUND:                -0.011
REMARK SMILES O=Cc1ccco1
REMARK SMILES IDX 5 1 6 2 7 3 3 4 4 5 2 6 1 7
REMARK H PARENT
REMARK Flexibility Score: inf
ROOT
ATOM      1  C   UNL     1     -34.313 -22.001  27.844  1.00  0.00     0.043 A 
ATOM      2  C   UNL     1     -33.990 -23.287  27.459  1.00  0.00     0.196 A 
ATOM      3  O   UNL     1     -32.713 -23.506  27.676  1.00  0.00    -0.462 OA
ATOM      4  C   UNL     1     -32.185 -22.418  28.187  1.00  0.00     0.166 A 
ATOM      5  C   UNL     1     -33.147 -21.437  28.315  1.00  0.00     0.054 A 
ENDROOT
BRANCH   4   6
ATOM      6  C   UNL     1     -30.777 -22.283  28.562  1.00  0.00     0.298 C 
ATOM      7  O   UNL     1     -30.454 -21.634  29.591  1.00  0.00    -0.294 OA
ENDBRANCH   4   6
TORSDOF 1
ENDMDL
MODEL 5
REMARK VINA RESULT:    -3.353      2.499      3.078
REMARK INTER + INTRA:          -3.559
REMARK INTER:                  -3.546
REMARK INTRA:                  -0.014
REMARK UNBOUND:                -0.011
REMARK SMILES O=Cc1ccco1
REMARK SMILES IDX 5 1 6 2 7 3 3 4 4 5 2 6 1 7
REMARK H PARENT
REMARK Flexibility Score: inf
ROOT
ATOM      1  C   UNL     1     -32.284 -17.982  29.017  1.00  0.00     0.043 A 
ATOM      2  C   UNL     1     -32.957 -17.894  27.814  1.00  0.00     0.196 A 
ATOM      3  O   UNL     1     -33.427 -19.074  27.482  1.00  0.00    -0.462 OA
ATOM      4  C   UNL     1     -33.092 -19.933  28.417  1.00  0.00     0.166 A 
ATOM      5  C   UNL     1     -32.370 -19.302  29.408  1.00  0.00     0.054 A 
ENDROOT
BRANCH   4   6
ATOM      6  C   UNL     1     -33.441 -21.355  28.393  1.00  0.00     0.298 C 
ATOM      7  O   UNL     1     -33.258 -22.035  27.350  1.00  0.00    -0.294 OA
ENDBRANCH   4   6
TORSDOF 1
ENDMDL
MODEL 6
REMARK VINA RESULT:    -2.458     10.919     11.579
REMARK INTER + INTRA:          -2.613
REMARK INTER:                  -2.598
REMARK INTRA:                  -0.015
REMARK UNBOUND:                -0.011
REMARK SMILES O=Cc1ccco1
REMARK SMILES IDX 5 1 6 2 7 3 3 4 4 5 2 6 1 7
REMARK H PARENT
REMARK Flexibility Score: inf
ROOT
ATOM      1  C   UNL     1     -23.020 -29.161  26.198  1.00  0.00     0.043 A 
ATOM      2  C   UNL     1     -23.431 -29.007  27.508  1.00  0.00     0.196 A 
ATOM      3  O   UNL     1     -23.331 -27.745  27.858  1.00  0.00    -0.462 OA
ATOM      4  C   UNL     1     -22.872 -27.064  26.834  1.00  0.00     0.166 A 
ATOM      5  C   UNL     1     -22.657 -27.905  25.761  1.00  0.00     0.054 A 
ENDROOT
BRANCH   4   6
ATOM      6  C   UNL     1     -22.627 -25.621  26.846  1.00  0.00     0.298 C 
ATOM      7  O   UNL     1     -22.242 -25.052  27.901  1.00  0.00    -0.294 OA
ENDBRANCH   4   6
TORSDOF 1
ENDMDL
MODEL 7
REMARK VINA RESULT:    -2.348     11.556     12.107
REMARK INTER + INTRA:          -2.496
REMARK INTER:                  -2.485
REMARK INTRA:                  -0.012
REMARK UNBOUND:                -0.011
REMARK SMILES O=Cc1ccco1
REMARK SMILES IDX 5 1 6 2 7 3 3 4 4 5 2 6 1 7
REMARK H PARENT
REMARK Flexibility Score: inf
ROOT
ATOM      1  C   UNL     1     -23.018 -27.957  27.527  1.00  0.00     0.043 A 
ATOM      2  C   UNL     1     -22.672 -27.306  26.359  1.00  0.00     0.196 A 
ATOM      3  O   UNL     1     -22.811 -28.122  25.340  1.00  0.00    -0.462 OA
ATOM      4  C   UNL     1     -23.235 -29.281  25.789  1.00  0.00     0.166 A 
ATOM      5  C   UNL     1     -23.383 -29.235  27.161  1.00  0.00     0.054 A 
ENDROOT
BRANCH   4   6
ATOM      6  C   UNL     1     -23.506 -30.444  24.943  1.00  0.00     0.298 C 
ATOM      7  O   UNL     1     -23.427 -31.607  25.420  1.00  0.00    -0.294 OA
ENDBRANCH   4   6
TORSDOF 1
ENDMDL
MODEL 8
REMARK VINA RESULT:    -1.911     10.855     11.407
REMARK INTER + INTRA:          -2.034
REMARK INTER:                  -2.022
REMARK INTRA:                  -0.012
REMARK UNBOUND:                -0.011
REMARK SMILES O=Cc1ccco1
REMARK SMILES IDX 5 1 6 2 7 3 3 4 4 5 2 6 1 7
REMARK H PARENT
REMARK Flexibility Score: inf
ROOT
ATOM      1  C   UNL     1     -23.023 -25.514  25.864  1.00  0.00     0.043 A 
ATOM      2  C   UNL     1     -23.047 -26.331  24.750  1.00  0.00     0.196 A 
ATOM      3  O   UNL     1     -22.966 -27.588  25.121  1.00  0.00    -0.462 OA
ATOM      4  C   UNL     1     -22.889 -27.630  26.432  1.00  0.00     0.166 A 
ATOM      5  C   UNL     1     -22.919 -26.353  26.952  1.00  0.00     0.054 A 
ENDROOT
BRANCH   4   6
ATOM      6  C   UNL     1     -22.785 -28.865  27.212  1.00  0.00     0.298 C 
ATOM      7  O   UNL     1     -23.327 -28.946  28.345  1.00  0.00    -0.294 OA
ENDBRANCH   4   6
TORSDOF 1
ENDMDL
MODEL 9
REMARK VINA RESULT:    -1.683      1.870      2.546
REMARK INTER + INTRA:          -1.792
REMARK INTER:                  -1.776
REMARK INTRA:                  -0.016
REMARK UNBOUND:                -0.011
REMARK SMILES O=Cc1ccco1
REMARK SMILES IDX 5 1 6 2 7 3 3 4 4 5 2 6 1 7
REMARK H PARENT
REMARK Flexibility Score: inf
ROOT
ATOM      1  C   UNL     1     -32.207 -22.712  26.614  1.00  0.00     0.043 A 
ATOM      2  C   UNL     1     -32.447 -22.752  27.974  1.00  0.00     0.196 A 
ATOM      3  O   UNL     1     -33.733 -22.908  28.192  1.00  0.00    -0.462 OA
ATOM      4  C   UNL     1     -34.346 -22.972  27.032  1.00  0.00     0.166 A 
ATOM      5  C   UNL     1     -33.435 -22.853  26.003  1.00  0.00     0.054 A 
ENDROOT
BRANCH   4   6
ATOM      6  C   UNL     1     -35.791 -23.143  26.873  1.00  0.00     0.298 C 
ATOM      7  O   UNL     1     -36.503 -23.475  27.857  1.00  0.00    -0.294 OA
ENDBRANCH   4   6
TORSDOF 1
ENDMDL
