MODEL 1
REMARK VINA RESULT:    -4.059      0.000      0.000
REMARK INTER + INTRA:          -7.368
REMARK INTER:                  -6.432
REMARK INTRA:                  -0.936
REMARK UNBOUND:                -0.936
REMARK SMILES CCCCCCCCCCCC(=O)[O-]
REMARK SMILES IDX 7 1 8 2 9 3 10 4 11 5 12 6 13 7 14 8 6 9 5 10 4 11 3 12 2 13
REMARK SMILES IDX 1 14
REMARK H PARENT
REMARK Flexibility Score: inf
ROOT
ATOM      1  C   UNL     1    -115.772  11.190  22.354  1.00  0.00     0.000 C 
ENDROOT
BRANCH   1   2
ATOM      2  C   UNL     1    -116.216  11.688  23.737  1.00  0.00     0.000 C 
BRANCH   2   3
ATOM      3  C   UNL     1    -115.126  12.509  24.448  1.00  0.00     0.000 C 
BRANCH   3   4
ATOM      4  C   UNL     1    -114.167  11.633  25.268  1.00  0.00     0.006 C 
BRANCH   4   5
ATOM      5  C   UNL     1    -112.695  11.887  24.921  1.00  0.00     0.053 C 
BRANCH   5   6
ATOM      6  C   UNL     1    -112.107  10.695  24.234  1.00  0.00     0.041 C 
ATOM      7  O   UNL     1    -111.257  10.846  23.318  1.00  0.00    -0.550 OA
ATOM      8  O   UNL     1    -112.536   9.417  24.571  1.00  0.00    -0.550 OA
ENDBRANCH   5   6
ENDBRANCH   4   5
ENDBRANCH   3   4
ENDBRANCH   2   3
ENDBRANCH   1   2
BRANCH   1   9
ATOM      9  C   UNL     1    -116.590  11.813  21.209  1.00  0.00     0.000 C 
BRANCH   9  10
ATOM     10  C   UNL     1    -117.889  12.477  21.714  1.00  0.00    -0.000 C 
BRANCH  10  11
ATOM     11  C   UNL     1    -118.018  13.957  21.315  1.00  0.00    -0.000 C 
BRANCH  11  12
ATOM     12  C   UNL     1    -118.965  14.743  22.235  1.00  0.00    -0.000 C 
BRANCH  12  13
ATOM     13  C   UNL     1    -118.787  14.376  23.716  1.00  0.00    -0.003 C 
ATOM     14  C   UNL     1    -117.596  15.086  24.361  1.00  0.00     0.004 C 
ENDBRANCH  12  13
ENDBRANCH  11  12
ENDBRANCH  10  11
ENDBRANCH   9  10
ENDBRANCH   1   9
TORSDOF 10
ENDMDL
MODEL 2
REMARK VINA RESULT:    -3.918      1.281      2.113
REMARK INTER + INTRA:          -7.145
REMARK INTER:                  -5.766
REMARK INTRA:                  -1.379
REMARK UNBOUND:                -0.936
REMARK SMILES CCCCCCCCCCCC(=O)[O-]
REMARK SMILES IDX 7 1 8 2 9 3 10 4 11 5 12 6 13 7 14 8 6 9 5 10 4 11 3 12 2 13
REMARK SMILES IDX 1 14
REMARK H PARENT
REMARK Flexibility Score: inf
ROOT
ATOM      1  C   UNL     1    -117.134  11.848  20.827  1.00  0.00     0.000 C 
ENDROOT
BRANCH   1   2
ATOM      2  C   UNL     1    -116.380  12.077  22.145  1.00  0.00     0.000 C 
BRANCH   2   3
ATOM      3  C   UNL     1    -116.646  10.969  23.179  1.00  0.00     0.000 C 
BRANCH   3   4
ATOM      4  C   UNL     1    -116.070  11.302  24.565  1.00  0.00     0.006 C 
BRANCH   4   5
ATOM      5  C   UNL     1    -114.978  12.377  24.504  1.00  0.00     0.053 C 
BRANCH   5   6
ATOM      6  C   UNL     1    -113.710  11.867  25.112  1.00  0.00     0.041 C 
ATOM      7  O   UNL     1    -113.739  10.914  25.935  1.00  0.00    -0.550 OA
ATOM      8  O   UNL     1    -112.498  12.477  24.808  1.00  0.00    -0.550 OA
ENDBRANCH   5   6
ENDBRANCH   4   5
ENDBRANCH   3   4
ENDBRANCH   2   3
ENDBRANCH   1   2
BRANCH   1   9
ATOM      9  C   UNL     1    -118.450  12.642  20.751  1.00  0.00     0.000 C 
BRANCH   9  10
ATOM     10  C   UNL     1    -118.208  14.165  20.669  1.00  0.00    -0.000 C 
BRANCH  10  11
ATOM     11  C   UNL     1    -118.788  14.943  21.863  1.00  0.00    -0.000 C 
BRANCH  11  12
ATOM     12  C   UNL     1    -119.450  14.030  22.907  1.00  0.00    -0.000 C 
BRANCH  12  13
ATOM     13  C   UNL     1    -118.738  14.079  24.268  1.00  0.00    -0.003 C 
ATOM     14  C   UNL     1    -117.524  15.007  24.265  1.00  0.00     0.004 C 
ENDBRANCH  12  13
ENDBRANCH  11  12
ENDBRANCH  10  11
ENDBRANCH   9  10
ENDBRANCH   1   9
TORSDOF 10
ENDMDL
MODEL 3
REMARK VINA RESULT:    -3.847      2.907      5.916
REMARK INTER + INTRA:          -7.031
REMARK INTER:                  -5.766
REMARK INTRA:                  -1.265
REMARK UNBOUND:                -0.936
REMARK SMILES CCCCCCCCCCCC(=O)[O-]
REMARK SMILES IDX 7 1 8 2 9 3 10 4 11 5 12 6 13 7 14 8 6 9 5 10 4 11 3 12 2 13
REMARK SMILES IDX 1 14
REMARK H PARENT
REMARK Flexibility Score: inf
ROOT
ATOM      1  C   UNL     1    -116.563  10.558  23.393  1.00  0.00     0.000 C 
ENDROOT
BRANCH   1   2
ATOM      2  C   UNL     1    -115.828  11.191  22.202  1.00  0.00     0.000 C 
BRANCH   2   3
ATOM      3  C   UNL     1    -116.765  12.014  21.300  1.00  0.00     0.000 C 
BRANCH   3   4
ATOM      4  C   UNL     1    -118.059  12.431  22.015  1.00  0.00     0.006 C 
BRANCH   4   5
ATOM      5  C   UNL     1    -118.105  13.933  22.321  1.00  0.00     0.053 C 
BRANCH   5   6
ATOM      6  C   UNL     1    -118.069  14.167  23.798  1.00  0.00     0.041 C 
ATOM      7  O   UNL     1    -117.292  15.030  24.285  1.00  0.00    -0.550 OA
ATOM      8  O   UNL     1    -118.857  13.395  24.643  1.00  0.00    -0.550 OA
ENDBRANCH   5   6
ENDBRANCH   4   5
ENDBRANCH   3   4
ENDBRANCH   2   3
ENDBRANCH   1   2
BRANCH   1   9
ATOM      9  C   UNL     1    -116.078  11.104  24.747  1.00  0.00     0.000 C 
BRANCH   9  10
ATOM     10  C   UNL     1    -114.946  12.142  24.586  1.00  0.00    -0.000 C 
BRANCH  10  11
ATOM     11  C   UNL     1    -113.687  11.811  25.406  1.00  0.00    -0.000 C 
BRANCH  11  12
ATOM     12  C   UNL     1    -112.416  11.739  24.545  1.00  0.00    -0.000 C 
BRANCH  12  13
ATOM     13  C   UNL     1    -111.970  10.294  24.273  1.00  0.00    -0.003 C 
ATOM     14  C   UNL     1    -112.536   9.738  22.967  1.00  0.00     0.004 C 
ENDBRANCH  12  13
ENDBRANCH  11  12
ENDBRANCH  10  11
ENDBRANCH   9  10
ENDBRANCH   1   9
TORSDOF 10
ENDMDL
MODEL 4
REMARK VINA RESULT:    -3.831      1.227      2.838
REMARK INTER + INTRA:          -7.007
REMARK INTER:                  -5.901
REMARK INTRA:                  -1.106
REMARK UNBOUND:                -0.936
REMARK SMILES CCCCCCCCCCCC(=O)[O-]
REMARK SMILES IDX 7 1 8 2 9 3 10 4 11 5 12 6 13 7 14 8 6 9 5 10 4 11 3 12 2 13
REMARK SMILES IDX 1 14
REMARK H PARENT
REMARK Flexibility Score: inf
ROOT
ATOM      1  C   UNL     1    -117.527  14.473  24.091  1.00  0.00     0.000 C 
ENDROOT
BRANCH   1   2
ATOM      2  C   UNL     1    -116.217  13.671  24.078  1.00  0.00     0.000 C 
BRANCH   2   3
ATOM      3  C   UNL     1    -116.444  12.172  23.813  1.00  0.00     0.000 C 
BRANCH   3   4
ATOM      4  C   UNL     1    -115.151  11.349  23.923  1.00  0.00     0.006 C 
BRANCH   4   5
ATOM      5  C   UNL     1    -114.411  11.592  25.245  1.00  0.00     0.053 C 
BRANCH   5   6
ATOM      6  C   UNL     1    -112.931  11.565  25.026  1.00  0.00     0.041 C 
ATOM      7  O   UNL     1    -112.286  10.496  25.186  1.00  0.00    -0.550 OA
ATOM      8  O   UNL     1    -112.256  12.733  24.693  1.00  0.00    -0.550 OA
ENDBRANCH   5   6
ENDBRANCH   4   5
ENDBRANCH   3   4
ENDBRANCH   2   3
ENDBRANCH   1   2
BRANCH   1   9
ATOM      9  C   UNL     1    -118.774  13.572  24.091  1.00  0.00     0.000 C 
BRANCH   9  10
ATOM     10  C   UNL     1    -119.981  14.246  23.404  1.00  0.00    -0.000 C 
BRANCH  10  11
ATOM     11  C   UNL     1    -119.585  15.194  22.259  1.00  0.00    -0.000 C 
BRANCH  11  12
ATOM     12  C   UNL     1    -119.555  14.497  20.890  1.00  0.00    -0.000 C 
BRANCH  12  13
ATOM     13  C   UNL     1    -118.127  14.318  20.351  1.00  0.00    -0.003 C 
ATOM     14  C   UNL     1    -117.643  12.871  20.431  1.00  0.00     0.004 C 
ENDBRANCH  12  13
ENDBRANCH  11  12
ENDBRANCH  10  11
ENDBRANCH   9  10
ENDBRANCH   1   9
TORSDOF 10
ENDMDL
MODEL 5
REMARK VINA RESULT:    -3.596     12.883     14.409
REMARK INTER + INTRA:          -6.634
REMARK INTER:                  -5.447
REMARK INTRA:                  -1.187
REMARK UNBOUND:                -0.936
REMARK SMILES CCCCCCCCCCCC(=O)[O-]
REMARK SMILES IDX 7 1 8 2 9 3 10 4 11 5 12 6 13 7 14 8 6 9 5 10 4 11 3 12 2 13
REMARK SMILES IDX 1 14
REMARK H PARENT
REMARK Flexibility Score: inf
ROOT
ATOM      1  C   UNL     1    -100.512  10.692  22.886  1.00  0.00     0.000 C 
ENDROOT
BRANCH   1   2
ATOM      2  C   UNL     1    -101.011   9.309  22.443  1.00  0.00     0.000 C 
BRANCH   2   3
ATOM      3  C   UNL     1    -100.697   9.012  20.966  1.00  0.00     0.000 C 
BRANCH   3   4
ATOM      4  C   UNL     1    -101.934   9.136  20.063  1.00  0.00     0.006 C 
BRANCH   4   5
ATOM      5  C   UNL     1    -101.931  10.427  19.234  1.00  0.00     0.053 C 
BRANCH   5   6
ATOM      6  C   UNL     1    -103.260  11.108  19.324  1.00  0.00     0.041 C 
ATOM      7  O   UNL     1    -104.066  10.807  20.244  1.00  0.00    -0.550 OA
ATOM      8  O   UNL     1    -103.630  12.040  18.363  1.00  0.00    -0.550 OA
ENDBRANCH   5   6
ENDBRANCH   4   5
ENDBRANCH   3   4
ENDBRANCH   2   3
ENDBRANCH   1   2
BRANCH   1   9
ATOM      9  C   UNL     1    -101.602  11.774  22.790  1.00  0.00     0.000 C 
BRANCH   9  10
ATOM     10  C   UNL     1    -102.842  11.430  23.641  1.00  0.00    -0.000 C 
BRANCH  10  11
ATOM     11  C   UNL     1    -102.999  12.319  24.887  1.00  0.00    -0.000 C 
BRANCH  11  12
ATOM     12  C   UNL     1    -103.083  11.511  26.191  1.00  0.00    -0.000 C 
BRANCH  12  13
ATOM     13  C   UNL     1    -102.289  10.198  26.122  1.00  0.00    -0.003 C 
ATOM     14  C   UNL     1    -100.906  10.310  26.762  1.00  0.00     0.004 C 
ENDBRANCH  12  13
ENDBRANCH  11  12
ENDBRANCH  10  11
ENDBRANCH   9  10
ENDBRANCH   1   9
TORSDOF 10
ENDMDL
MODEL 6
REMARK VINA RESULT:    -3.546      4.282      7.038
REMARK INTER + INTRA:          -6.555
REMARK INTER:                  -6.001
REMARK INTRA:                  -0.553
REMARK UNBOUND:                -0.936
REMARK SMILES CCCCCCCCCCCC(=O)[O-]
REMARK SMILES IDX 7 1 8 2 9 3 10 4 11 5 12 6 13 7 14 8 6 9 5 10 4 11 3 12 2 13
REMARK SMILES IDX 1 14
REMARK H PARENT
REMARK Flexibility Score: inf
ROOT
ATOM      1  C   UNL     1    -116.629  12.079  21.962  1.00  0.00     0.000 C 
ENDROOT
BRANCH   1   2
ATOM      2  C   UNL     1    -117.616  12.685  20.954  1.00  0.00     0.000 C 
BRANCH   2   3
ATOM      3  C   UNL     1    -118.251  13.992  21.461  1.00  0.00     0.000 C 
BRANCH   3   4
ATOM      4  C   UNL     1    -118.654  14.935  20.317  1.00  0.00     0.006 C 
BRANCH   4   5
ATOM      5  C   UNL     1    -117.967  14.581  18.992  1.00  0.00     0.053 C 
BRANCH   5   6
ATOM      6  C   UNL     1    -118.980  14.444  17.899  1.00  0.00     0.041 C 
ATOM      7  O   UNL     1    -119.834  13.520  17.939  1.00  0.00    -0.550 OA
ATOM      8  O   UNL     1    -118.949  15.306  16.810  1.00  0.00    -0.550 OA
ENDBRANCH   5   6
ENDBRANCH   4   5
ENDBRANCH   3   4
ENDBRANCH   2   3
ENDBRANCH   1   2
BRANCH   1   9
ATOM      9  C   UNL     1    -116.828  12.624  23.388  1.00  0.00     0.000 C 
BRANCH   9  10
ATOM     10  C   UNL     1    -115.502  12.696  24.175  1.00  0.00    -0.000 C 
BRANCH  10  11
ATOM     11  C   UNL     1    -115.103  11.362  24.829  1.00  0.00    -0.000 C 
BRANCH  11  12
ATOM     12  C   UNL     1    -113.798  11.459  25.637  1.00  0.00    -0.000 C 
BRANCH  12  13
ATOM     13  C   UNL     1    -112.634  12.022  24.808  1.00  0.00    -0.003 C 
ATOM     14  C   UNL     1    -111.963  10.961  23.936  1.00  0.00     0.004 C 
ENDBRANCH  12  13
ENDBRANCH  11  12
ENDBRANCH  10  11
ENDBRANCH   9  10
ENDBRANCH   1   9
TORSDOF 10
ENDMDL
MODEL 7
REMARK VINA RESULT:    -3.528      3.298      6.384
REMARK INTER + INTRA:          -6.526
REMARK INTER:                  -5.777
REMARK INTRA:                  -0.749
REMARK UNBOUND:                -0.936
REMARK SMILES CCCCCCCCCCCC(=O)[O-]
REMARK SMILES IDX 7 1 8 2 9 3 10 4 11 5 12 6 13 7 14 8 6 9 5 10 4 11 3 12 2 13
REMARK SMILES IDX 1 14
REMARK H PARENT
REMARK Flexibility Score: inf
ROOT
ATOM      1  C   UNL     1    -117.506  14.530  23.724  1.00  0.00     0.000 C 
ENDROOT
BRANCH   1   2
ATOM      2  C   UNL     1    -118.902  14.057  24.155  1.00  0.00     0.000 C 
BRANCH   2   3
ATOM      3  C   UNL     1    -119.939  14.168  23.023  1.00  0.00     0.000 C 
BRANCH   3   4
ATOM      4  C   UNL     1    -119.548  15.210  21.963  1.00  0.00     0.006 C 
BRANCH   4   5
ATOM      5  C   UNL     1    -119.722  14.687  20.532  1.00  0.00     0.053 C 
BRANCH   5   6
ATOM      6  C   UNL     1    -118.393  14.342  19.937  1.00  0.00     0.041 C 
ATOM      7  O   UNL     1    -117.736  13.363  20.379  1.00  0.00    -0.550 OA
ATOM      8  O   UNL     1    -117.856  15.133  18.929  1.00  0.00    -0.550 OA
ENDBRANCH   5   6
ENDBRANCH   4   5
ENDBRANCH   3   4
ENDBRANCH   2   3
ENDBRANCH   1   2
BRANCH   1   9
ATOM      9  C   UNL     1    -116.385  13.601  24.223  1.00  0.00     0.000 C 
BRANCH   9  10
ATOM     10  C   UNL     1    -116.262  12.322  23.367  1.00  0.00    -0.000 C 
BRANCH  10  11
ATOM     11  C   UNL     1    -115.119  11.394  23.810  1.00  0.00    -0.000 C 
BRANCH  11  12
ATOM     12  C   UNL     1    -114.416  11.880  25.088  1.00  0.00    -0.000 C 
BRANCH  12  13
ATOM     13  C   UNL     1    -112.898  12.030  24.904  1.00  0.00    -0.003 C 
ATOM     14  C   UNL     1    -112.287  10.888  24.093  1.00  0.00     0.004 C 
ENDBRANCH  12  13
ENDBRANCH  11  12
ENDBRANCH  10  11
ENDBRANCH   9  10
ENDBRANCH   1   9
TORSDOF 10
ENDMDL
MODEL 8
REMARK VINA RESULT:    -3.470     11.954     13.534
REMARK INTER + INTRA:          -6.435
REMARK INTER:                  -5.624
REMARK INTRA:                  -0.811
REMARK UNBOUND:                -0.936
REMARK SMILES CCCCCCCCCCCC(=O)[O-]
REMARK SMILES IDX 7 1 8 2 9 3 10 4 11 5 12 6 13 7 14 8 6 9 5 10 4 11 3 12 2 13
REMARK SMILES IDX 1 14
REMARK H PARENT
REMARK Flexibility Score: inf
ROOT
ATOM      1  C   UNL     1    -101.820  11.464  22.621  1.00  0.00     0.000 C 
ENDROOT
BRANCH   1   2
ATOM      2  C   UNL     1    -100.656  10.773  23.347  1.00  0.00     0.000 C 
BRANCH   2   3
ATOM      3  C   UNL     1    -101.132   9.822  24.459  1.00  0.00     0.000 C 
BRANCH   3   4
ATOM      4  C   UNL     1    -101.536  10.568  25.740  1.00  0.00     0.006 C 
BRANCH   4   5
ATOM      5  C   UNL     1    -102.883  10.092  26.299  1.00  0.00     0.053 C 
BRANCH   5   6
ATOM      6  C   UNL     1    -103.976  11.033  25.898  1.00  0.00     0.041 C 
ATOM      7  O   UNL     1    -105.182  10.694  26.023  1.00  0.00    -0.550 OA
ATOM      8  O   UNL     1    -103.661  12.266  25.340  1.00  0.00    -0.550 OA
ENDBRANCH   5   6
ENDBRANCH   4   5
ENDBRANCH   3   4
ENDBRANCH   2   3
ENDBRANCH   1   2
BRANCH   1   9
ATOM      9  C   UNL     1    -102.950  10.487  22.250  1.00  0.00     0.000 C 
BRANCH   9  10
ATOM     10  C   UNL     1    -103.341  10.587  20.760  1.00  0.00    -0.000 C 
BRANCH  10  11
ATOM     11  C   UNL     1    -102.142  10.481  19.802  1.00  0.00    -0.000 C 
BRANCH  11  12
ATOM     12  C   UNL     1    -102.413  11.126  18.433  1.00  0.00    -0.000 C 
BRANCH  12  13
ATOM     13  C   UNL     1    -103.753  11.875  18.390  1.00  0.00    -0.003 C 
ATOM     14  C   UNL     1    -104.777  11.198  17.479  1.00  0.00     0.004 C 
ENDBRANCH  12  13
ENDBRANCH  11  12
ENDBRANCH  10  11
ENDBRANCH   9  10
ENDBRANCH   1   9
TORSDOF 10
ENDMDL
MODEL 9
REMARK VINA RESULT:    -3.422     12.571     14.656
REMARK INTER + INTRA:          -6.358
REMARK INTER:                  -5.189
REMARK INTRA:                  -1.169
REMARK UNBOUND:                -0.936
REMARK SMILES CCCCCCCCCCCC(=O)[O-]
REMARK SMILES IDX 7 1 8 2 9 3 10 4 11 5 12 6 13 7 14 8 6 9 5 10 4 11 3 12 2 13
REMARK SMILES IDX 1 14
REMARK H PARENT
REMARK Flexibility Score: inf
ROOT
ATOM      1  C   UNL     1    -100.891  11.465  22.708  1.00  0.00     0.000 C 
ENDROOT
BRANCH   1   2
ATOM      2  C   UNL     1    -102.384  11.484  22.350  1.00  0.00     0.000 C 
BRANCH   2   3
ATOM      3  C   UNL     1    -102.889  10.120  21.847  1.00  0.00     0.000 C 
BRANCH   3   4
ATOM      4  C   UNL     1    -103.188  10.119  20.340  1.00  0.00     0.006 C 
BRANCH   4   5
ATOM      5  C   UNL     1    -101.920   9.979  19.489  1.00  0.00     0.053 C 
BRANCH   5   6
ATOM      6  C   UNL     1    -102.023  10.821  18.256  1.00  0.00     0.041 C 
ATOM      7  O   UNL     1    -102.794  11.817  18.232  1.00  0.00    -0.550 OA
ATOM      8  O   UNL     1    -101.306  10.477  17.117  1.00  0.00    -0.550 OA
ENDBRANCH   5   6
ENDBRANCH   4   5
ENDBRANCH   3   4
ENDBRANCH   2   3
ENDBRANCH   1   2
BRANCH   1   9
ATOM      9  C   UNL     1    -100.403  10.072  23.141  1.00  0.00     0.000 C 
BRANCH   9  10
ATOM     10  C   UNL     1    -100.236   9.962  24.672  1.00  0.00    -0.000 C 
BRANCH  10  11
ATOM     11  C   UNL     1    -101.444   9.321  25.377  1.00  0.00    -0.000 C 
BRANCH  11  12
ATOM     12  C   UNL     1    -101.986  10.180  26.531  1.00  0.00    -0.000 C 
BRANCH  12  13
ATOM     13  C   UNL     1    -102.479  11.556  26.059  1.00  0.00    -0.003 C 
ATOM     14  C   UNL     1    -103.972  11.567  25.731  1.00  0.00     0.004 C 
ENDBRANCH  12  13
ENDBRANCH  11  12
ENDBRANCH  10  11
ENDBRANCH   9  10
ENDBRANCH   1   9
TORSDOF 10
ENDMDL
