MODEL 1
REMARK VINA RESULT:    16.533      0.000      0.000
REMARK INTER + INTRA:          19.811
REMARK INTER:                  19.915
REMARK INTRA:                  -0.104
REMARK UNBOUND:                -0.104
REMARK SMILES COC(=O)c1cc(O)c(O)c(O)c1
REMARK SMILES IDX 5 1 13 2 11 3 9 4 7 5 6 6 3 7 4 8 2 9 1 10 12 11 8 13 10 15
REMARK H PARENT 12 12 8 14 10 16
REMARK Flexibility Score: inf
ROOT
ATOM      1  C   UNL     1      30.876  10.157  -0.373  1.00  0.00     0.067 A 
ATOM      2  C   UNL     1      31.561  10.390   0.832  1.00  0.00     0.066 A 
ATOM      3  C   UNL     1      32.430  11.479   0.960  1.00  0.00     0.162 A 
ATOM      4  C   UNL     1      32.625  12.354  -0.122  1.00  0.00     0.200 A 
ATOM      5  C   UNL     1      31.944  12.130  -1.331  1.00  0.00     0.162 A 
ATOM      6  C   UNL     1      31.075  11.036  -1.451  1.00  0.00     0.066 A 
ENDROOT
BRANCH   1   7
ATOM      7  C   UNL     1      29.959   9.003  -0.499  1.00  0.00     0.338 C 
ATOM      8  O   UNL     1      29.775   8.459  -1.623  1.00  0.00    -0.246 OA
BRANCH   7   9
ATOM      9  O   UNL     1      29.293   8.514   0.632  1.00  0.00    -0.465 OA
ATOM     10  C   UNL     1      27.875   8.505   0.745  1.00  0.00     0.282 C 
ENDBRANCH   7   9
ENDBRANCH   1   7
BRANCH   3  11
ATOM     11  O   UNL     1      33.091  11.674   2.173  1.00  0.00    -0.504 OA
ATOM     12  H   UNL     1      33.218  10.926   2.844  1.00  0.00     0.293 HD
ENDBRANCH   3  11
BRANCH   5  13
ATOM     13  O   UNL     1      32.133  12.993  -2.408  1.00  0.00    -0.504 OA
ATOM     14  H   UNL     1      33.060  13.243  -2.733  1.00  0.00     0.293 HD
ENDBRANCH   5  13
BRANCH   4  15
ATOM     15  O   UNL     1      33.494  13.437   0.015  1.00  0.00    -0.502 OA
ATOM     16  H   UNL     1      33.221  14.382  -0.227  1.00  0.00     0.293 HD
ENDBRANCH   4  15
TORSDOF 5
ENDMDL
MODEL 2
REMARK VINA RESULT:    16.591      0.038      2.334
REMARK INTER + INTRA:          19.882
REMARK INTER:                  19.989
REMARK INTRA:                  -0.108
REMARK UNBOUND:                -0.104
REMARK SMILES COC(=O)c1cc(O)c(O)c(O)c1
REMARK SMILES IDX 5 1 13 2 11 3 9 4 7 5 6 6 3 7 4 8 2 9 1 10 12 11 8 13 10 15
REMARK H PARENT 12 12 8 14 10 16
REMARK Flexibility Score: inf
ROOT
ATOM      1  C   UNL     1      30.881  10.149  -0.373  1.00  0.00     0.067 A 
ATOM      2  C   UNL     1      31.081  11.040  -1.441  1.00  0.00     0.066 A 
ATOM      3  C   UNL     1      31.950  12.129  -1.308  1.00  0.00     0.162 A 
ATOM      4  C   UNL     1      32.633  12.340  -0.099  1.00  0.00     0.200 A 
ATOM      5  C   UNL     1      32.440  11.454   0.974  1.00  0.00     0.162 A 
ATOM      6  C   UNL     1      31.568  10.365   0.834  1.00  0.00     0.066 A 
ENDROOT
BRANCH   1   7
ATOM      7  C   UNL     1      29.961   9.000  -0.523  1.00  0.00     0.338 C 
ATOM      8  O   UNL     1      29.784   8.473  -1.656  1.00  0.00    -0.246 OA
BRANCH   7   9
ATOM      9  O   UNL     1      29.285   8.497   0.595  1.00  0.00    -0.465 OA
ATOM     10  C   UNL     1      27.875   8.606   0.754  1.00  0.00     0.282 C 
ENDBRANCH   7   9
ENDBRANCH   1   7
BRANCH   3  11
ATOM     11  O   UNL     1      32.121  12.991  -2.392  1.00  0.00    -0.504 OA
ATOM     12  H   UNL     1      31.746  13.932  -2.395  1.00  0.00     0.293 HD
ENDBRANCH   3  11
BRANCH   5  13
ATOM     13  O   UNL     1      33.113  11.658   2.177  1.00  0.00    -0.504 OA
ATOM     14  H   UNL     1      33.952  12.225   2.228  1.00  0.00     0.293 HD
ENDBRANCH   5  13
BRANCH   4  15
ATOM     15  O   UNL     1      33.497  13.429   0.025  1.00  0.00    -0.502 OA
ATOM     16  H   UNL     1      33.642  13.907   0.905  1.00  0.00     0.293 HD
ENDBRANCH   4  15
TORSDOF 5
ENDMDL
MODEL 3
REMARK VINA RESULT:    16.600      2.061      5.026
REMARK INTER + INTRA:          19.892
REMARK INTER:                  19.992
REMARK INTRA:                  -0.100
REMARK UNBOUND:                -0.104
REMARK SMILES COC(=O)c1cc(O)c(O)c(O)c1
REMARK SMILES IDX 5 1 13 2 11 3 9 4 7 5 6 6 3 7 4 8 2 9 1 10 12 11 8 13 10 15
REMARK H PARENT 12 12 8 14 10 16
REMARK Flexibility Score: inf
ROOT
ATOM      1  C   UNL     1      31.593  11.829  -1.641  1.00  0.00     0.067 A 
ATOM      2  C   UNL     1      30.320  12.211  -1.185  1.00  0.00     0.066 A 
ATOM      3  C   UNL     1      29.484  11.287  -0.548  1.00  0.00     0.162 A 
ATOM      4  C   UNL     1      29.914   9.963  -0.360  1.00  0.00     0.200 A 
ATOM      5  C   UNL     1      31.187   9.572  -0.812  1.00  0.00     0.162 A 
ATOM      6  C   UNL     1      32.018  10.504  -1.448  1.00  0.00     0.066 A 
ENDROOT
BRANCH   1   7
ATOM      7  C   UNL     1      32.471  12.814  -2.313  1.00  0.00     0.338 C 
ATOM      8  O   UNL     1      33.713  12.813  -2.089  1.00  0.00    -0.246 OA
BRANCH   7   9
ATOM      9  O   UNL     1      31.921  13.749  -3.198  1.00  0.00    -0.465 OA
ATOM     10  C   UNL     1      32.440  15.065  -3.345  1.00  0.00     0.282 C 
ENDBRANCH   7   9
ENDBRANCH   1   7
BRANCH   3  11
ATOM     11  O   UNL     1      28.227  11.705  -0.110  1.00  0.00    -0.504 OA
ATOM     12  H   UNL     1      27.385  11.528  -0.644  1.00  0.00     0.293 HD
ENDBRANCH   3  11
BRANCH   5  13
ATOM     13  O   UNL     1      31.619   8.260  -0.629  1.00  0.00    -0.504 OA
ATOM     14  H   UNL     1      31.618   7.589  -1.388  1.00  0.00     0.293 HD
ENDBRANCH   5  13
BRANCH   4  15
ATOM     15  O   UNL     1      29.074   9.048   0.276  1.00  0.00    -0.502 OA
ATOM     16  H   UNL     1      28.748   8.205  -0.181  1.00  0.00     0.293 HD
ENDBRANCH   4  15
TORSDOF 5
ENDMDL
MODEL 4
REMARK VINA RESULT:    16.602      2.088      2.960
REMARK INTER + INTRA:          19.895
REMARK INTER:                  19.881
REMARK INTRA:                   0.014
REMARK UNBOUND:                -0.104
REMARK SMILES COC(=O)c1cc(O)c(O)c(O)c1
REMARK SMILES IDX 5 1 13 2 11 3 9 4 7 5 6 6 3 7 4 8 2 9 1 10 12 11 8 13 10 15
REMARK H PARENT 12 12 8 14 10 16
REMARK Flexibility Score: inf
ROOT
ATOM      1  C   UNL     1      29.037   9.132   0.121  1.00  0.00     0.067 A 
ATOM      2  C   UNL     1      28.476  10.419   0.064  1.00  0.00     0.066 A 
ATOM      3  C   UNL     1      29.226  11.504  -0.403  1.00  0.00     0.162 A 
ATOM      4  C   UNL     1      30.553  11.313  -0.822  1.00  0.00     0.200 A 
ATOM      5  C   UNL     1      31.123  10.030  -0.769  1.00  0.00     0.162 A 
ATOM      6  C   UNL     1      30.365   8.947  -0.300  1.00  0.00     0.066 A 
ENDROOT
BRANCH   1   7
ATOM      7  C   UNL     1      28.236   7.990   0.616  1.00  0.00     0.338 C 
ATOM      8  O   UNL     1      27.878   7.076  -0.177  1.00  0.00    -0.246 OA
BRANCH   7   9
ATOM      9  O   UNL     1      27.875   7.925   1.967  1.00  0.00    -0.465 OA
ATOM     10  C   UNL     1      28.538   8.677   2.976  1.00  0.00     0.282 C 
ENDBRANCH   7   9
ENDBRANCH   1   7
BRANCH   3  11
ATOM     11  O   UNL     1      28.632  12.766  -0.444  1.00  0.00    -0.504 OA
ATOM     12  H   UNL     1      28.254  13.156  -1.299  1.00  0.00     0.293 HD
ENDBRANCH   3  11
BRANCH   5  13
ATOM     13  O   UNL     1      32.439   9.833  -1.182  1.00  0.00    -0.504 OA
ATOM     14  H   UNL     1      32.879  10.440  -1.865  1.00  0.00     0.293 HD
ENDBRANCH   5  13
BRANCH   4  15
ATOM     15  O   UNL     1      31.293  12.401  -1.286  1.00  0.00    -0.502 OA
ATOM     16  H   UNL     1      32.247  12.571  -0.992  1.00  0.00     0.293 HD
ENDBRANCH   4  15
TORSDOF 5
ENDMDL
MODEL 5
REMARK VINA RESULT:    16.631      2.068      4.901
REMARK INTER + INTRA:          19.930
REMARK INTER:                  20.032
REMARK INTRA:                  -0.102
REMARK UNBOUND:                -0.104
REMARK SMILES COC(=O)c1cc(O)c(O)c(O)c1
REMARK SMILES IDX 5 1 13 2 11 3 9 4 7 5 6 6 3 7 4 8 2 9 1 10 12 11 8 13 10 15
REMARK H PARENT 12 12 8 14 10 16
REMARK Flexibility Score: inf
ROOT
ATOM      1  C   UNL     1      31.562  11.846  -1.655  1.00  0.00     0.067 A 
ATOM      2  C   UNL     1      31.999  10.525  -1.465  1.00  0.00     0.066 A 
ATOM      3  C   UNL     1      31.182   9.589  -0.822  1.00  0.00     0.162 A 
ATOM      4  C   UNL     1      29.910   9.966  -0.359  1.00  0.00     0.200 A 
ATOM      5  C   UNL     1      29.464  11.286  -0.546  1.00  0.00     0.162 A 
ATOM      6  C   UNL     1      30.289  12.218  -1.191  1.00  0.00     0.066 A 
ENDROOT
BRANCH   1   7
ATOM      7  C   UNL     1      32.434  12.829  -2.337  1.00  0.00     0.338 C 
ATOM      8  O   UNL     1      33.674  12.845  -2.104  1.00  0.00    -0.246 OA
BRANCH   7   9
ATOM      9  O   UNL     1      31.881  13.743  -3.242  1.00  0.00    -0.465 OA
ATOM     10  C   UNL     1      32.338  15.085  -3.355  1.00  0.00     0.282 C 
ENDBRANCH   7   9
ENDBRANCH   1   7
BRANCH   3  11
ATOM     11  O   UNL     1      31.653   8.287  -0.652  1.00  0.00    -0.504 OA
ATOM     12  H   UNL     1      32.639   8.059  -0.707  1.00  0.00     0.293 HD
ENDBRANCH   3  11
BRANCH   5  13
ATOM     13  O   UNL     1      28.204  11.667  -0.089  1.00  0.00    -0.504 OA
ATOM     14  H   UNL     1      27.820  12.583  -0.292  1.00  0.00     0.293 HD
ENDBRANCH   5  13
BRANCH   4  15
ATOM     15  O   UNL     1      29.102   9.026   0.281  1.00  0.00    -0.502 OA
ATOM     16  H   UNL     1      29.466   8.148   0.629  1.00  0.00     0.293 HD
ENDBRANCH   4  15
TORSDOF 5
ENDMDL
