MODEL 1
REMARK VINA RESULT:    -6.286      0.000      0.000
REMARK INTER + INTRA:          -7.462
REMARK INTER:                  -7.388
REMARK INTRA:                  -0.074
REMARK UNBOUND:                -0.074
REMARK SMILES O=c1c(O)c(-c2ccc(O)cc2)oc2cc(O)cc(O)c12
REMARK SMILES IDX 5 1 3 2 2 3 1 4 21 5 19 6 18 7 16 8 15 9 14 10 13 11 6 12
REMARK SMILES IDX 7 13 8 14 9 15 12 16 11 17 10 18 4 20 20 22 17 24
REMARK H PARENT 10 19 4 21 20 23 17 25
REMARK Flexibility Score: inf
ROOT
ATOM      1  C   UNL     1      69.428  48.258   8.095  1.00  0.00     0.180 A 
ATOM      2  C   UNL     1      69.741  48.523   6.750  1.00  0.00     0.208 A 
ATOM      3  C   UNL     1      71.073  48.403   6.325  1.00  0.00     0.238 A 
ATOM      4  O   UNL     1      71.338  48.588   5.108  1.00  0.00    -0.285 OA
ATOM      5  C   UNL     1      72.078  48.035   7.252  1.00  0.00     0.111 A 
ATOM      6  C   UNL     1      73.467  47.922   6.939  1.00  0.00     0.134 A 
ATOM      7  C   UNL     1      74.353  47.425   7.903  1.00  0.00     0.093 A 
ATOM      8  C   UNL     1      73.914  47.099   9.186  1.00  0.00     0.123 A 
ATOM      9  C   UNL     1      72.569  47.261   9.520  1.00  0.00     0.094 A 
ATOM     10  C   UNL     1      71.654  47.721   8.569  1.00  0.00     0.146 A 
ATOM     11  O   UNL     1      70.381  47.852   8.924  1.00  0.00    -0.452 OA
ENDROOT
BRANCH   1  12
ATOM     12  C   UNL     1      68.051  48.388   8.623  1.00  0.00     0.021 A 
ATOM     13  C   UNL     1      67.782  49.334   9.626  1.00  0.00     0.016 A 
ATOM     14  C   UNL     1      66.485  49.490  10.125  1.00  0.00     0.047 A 
ATOM     15  C   UNL     1      65.437  48.716   9.616  1.00  0.00     0.115 A 
ATOM     16  C   UNL     1      66.989  47.625   8.101  1.00  0.00     0.016 A 
ATOM     17  C   UNL     1      65.692  47.785   8.601  1.00  0.00     0.047 A 
BRANCH  15  18
ATOM     18  O   UNL     1      64.151  48.881  10.121  1.00  0.00    -0.508 OA
ATOM     19  H   UNL     1      63.367  49.097   9.515  1.00  0.00     0.293 HD
ENDBRANCH  15  18
ENDBRANCH   1  12
BRANCH   2  20
ATOM     20  O   UNL     1      68.730  48.863   5.847  1.00  0.00    -0.502 OA
ATOM     21  H   UNL     1      68.779  48.630   4.863  1.00  0.00     0.293 HD
ENDBRANCH   2  20
BRANCH   6  22
ATOM     22  O   UNL     1      74.026  48.308   5.717  1.00  0.00    -0.507 OA
ATOM     23  H   UNL     1      75.004  48.506   5.569  1.00  0.00     0.293 HD
ENDBRANCH   6  22
BRANCH   8  24
ATOM     24  O   UNL     1      74.827  46.621  10.124  1.00  0.00    -0.508 OA
ATOM     25  H   UNL     1      75.277  47.240  10.787  1.00  0.00     0.293 HD
ENDBRANCH   8  24
TORSDOF 5
ENDMDL
MODEL 2
REMARK VINA RESULT:    -6.285      3.843      7.462
REMARK INTER + INTRA:          -7.461
REMARK INTER:                  -7.164
REMARK INTRA:                  -0.297
REMARK UNBOUND:                -0.074
REMARK SMILES O=c1c(O)c(-c2ccc(O)cc2)oc2cc(O)cc(O)c12
REMARK SMILES IDX 5 1 3 2 2 3 1 4 21 5 19 6 18 7 16 8 15 9 14 10 13 11 6 12
REMARK SMILES IDX 7 13 8 14 9 15 12 16 11 17 10 18 4 20 20 22 17 24
REMARK H PARENT 10 19 4 21 20 23 17 25
REMARK Flexibility Score: inf
ROOT
ATOM      1  C   UNL     1      72.262  46.379   5.310  1.00  0.00     0.180 A 
ATOM      2  C   UNL     1      71.762  47.056   6.437  1.00  0.00     0.208 A 
ATOM      3  C   UNL     1      71.069  48.263   6.254  1.00  0.00     0.238 A 
ATOM      4  O   UNL     1      70.576  48.836   7.261  1.00  0.00    -0.285 OA
ATOM      5  C   UNL     1      70.899  48.787   4.950  1.00  0.00     0.111 A 
ATOM      6  C   UNL     1      70.249  50.023   4.652  1.00  0.00     0.134 A 
ATOM      7  C   UNL     1      70.023  50.379   3.317  1.00  0.00     0.093 A 
ATOM      8  C   UNL     1      70.481  49.579   2.270  1.00  0.00     0.123 A 
ATOM      9  C   UNL     1      71.170  48.399   2.551  1.00  0.00     0.094 A 
ATOM     10  C   UNL     1      71.379  47.998   3.873  1.00  0.00     0.146 A 
ATOM     11  O   UNL     1      72.030  46.863   4.096  1.00  0.00    -0.452 OA
ENDROOT
BRANCH   1  12
ATOM     12  C   UNL     1      73.024  45.116   5.425  1.00  0.00     0.021 A 
ATOM     13  C   UNL     1      72.346  43.889   5.337  1.00  0.00     0.016 A 
ATOM     14  C   UNL     1      73.048  42.682   5.420  1.00  0.00     0.047 A 
ATOM     15  C   UNL     1      74.438  42.686   5.576  1.00  0.00     0.115 A 
ATOM     16  C   UNL     1      74.425  45.113   5.562  1.00  0.00     0.016 A 
ATOM     17  C   UNL     1      75.125  43.905   5.644  1.00  0.00     0.047 A 
BRANCH  15  18
ATOM     18  O   UNL     1      75.124  41.477   5.658  1.00  0.00    -0.508 OA
ATOM     19  H   UNL     1      74.645  40.609   5.863  1.00  0.00     0.293 HD
ENDBRANCH  15  18
ENDBRANCH   1  12
BRANCH   2  20
ATOM     20  O   UNL     1      71.921  46.509   7.713  1.00  0.00    -0.502 OA
ATOM     21  H   UNL     1      72.031  47.082   8.541  1.00  0.00     0.293 HD
ENDBRANCH   2  20
BRANCH   6  22
ATOM     22  O   UNL     1      69.833  50.940   5.621  1.00  0.00    -0.507 OA
ATOM     23  H   UNL     1      70.101  51.913   5.645  1.00  0.00     0.293 HD
ENDBRANCH   6  22
BRANCH   8  24
ATOM     24  O   UNL     1      70.251  49.973   0.953  1.00  0.00    -0.508 OA
ATOM     25  H   UNL     1      70.964  50.445   0.410  1.00  0.00     0.293 HD
ENDBRANCH   8  24
TORSDOF 5
ENDMDL
MODEL 3
REMARK VINA RESULT:    -6.259      2.438      7.010
REMARK INTER + INTRA:          -7.430
REMARK INTER:                  -7.132
REMARK INTRA:                  -0.299
REMARK UNBOUND:                -0.074
REMARK SMILES O=c1c(O)c(-c2ccc(O)cc2)oc2cc(O)cc(O)c12
REMARK SMILES IDX 5 1 3 2 2 3 1 4 21 5 19 6 18 7 16 8 15 9 14 10 13 11 6 12
REMARK SMILES IDX 7 13 8 14 9 15 12 16 11 17 10 18 4 20 20 22 17 24
REMARK H PARENT 10 19 4 21 20 23 17 25
REMARK Flexibility Score: inf
ROOT
ATOM      1  C   UNL     1      68.144  48.112   9.033  1.00  0.00     0.180 A 
ATOM      2  C   UNL     1      67.119  48.927   9.546  1.00  0.00     0.208 A 
ATOM      3  C   UNL     1      65.795  48.465   9.501  1.00  0.00     0.238 A 
ATOM      4  O   UNL     1      64.889  49.176  10.010  1.00  0.00    -0.285 OA
ATOM      5  C   UNL     1      65.508  47.202   8.930  1.00  0.00     0.111 A 
ATOM      6  C   UNL     1      64.198  46.651   8.795  1.00  0.00     0.134 A 
ATOM      7  C   UNL     1      64.045  45.338   8.335  1.00  0.00     0.093 A 
ATOM      8  C   UNL     1      65.147  44.579   7.941  1.00  0.00     0.123 A 
ATOM      9  C   UNL     1      66.428  45.129   8.013  1.00  0.00     0.094 A 
ATOM     10  C   UNL     1      66.616  46.424   8.502  1.00  0.00     0.146 A 
ATOM     11  O   UNL     1      67.851  46.906   8.564  1.00  0.00    -0.452 OA
ENDROOT
BRANCH   1  12
ATOM     12  C   UNL     1      69.560  48.542   9.022  1.00  0.00     0.021 A 
ATOM     13  C   UNL     1      70.401  48.177  10.087  1.00  0.00     0.016 A 
ATOM     14  C   UNL     1      71.748  48.553  10.088  1.00  0.00     0.047 A 
ATOM     15  C   UNL     1      72.276  49.282   9.017  1.00  0.00     0.115 A 
ATOM     16  C   UNL     1      70.102  49.259   7.939  1.00  0.00     0.016 A 
ATOM     17  C   UNL     1      71.450  49.632   7.942  1.00  0.00     0.047 A 
BRANCH  15  18
ATOM     18  O   UNL     1      73.619  49.650   9.031  1.00  0.00    -0.508 OA
ATOM     19  H   UNL     1      74.188  49.546   9.863  1.00  0.00     0.293 HD
ENDBRANCH  15  18
ENDBRANCH   1  12
BRANCH   2  20
ATOM     20  O   UNL     1      67.426  50.162  10.125  1.00  0.00    -0.502 OA
ATOM     21  H   UNL     1      68.379  50.473  10.271  1.00  0.00     0.293 HD
ENDBRANCH   2  20
BRANCH   6  22
ATOM     22  O   UNL     1      63.023  47.356   9.073  1.00  0.00    -0.507 OA
ATOM     23  H   UNL     1      62.404  47.161   9.846  1.00  0.00     0.293 HD
ENDBRANCH   6  22
BRANCH   8  24
ATOM     24  O   UNL     1      64.955  43.281   7.473  1.00  0.00    -0.508 OA
ATOM     25  H   UNL     1      64.783  43.092   6.493  1.00  0.00     0.293 HD
ENDBRANCH   8  24
TORSDOF 5
ENDMDL
MODEL 4
REMARK VINA RESULT:    -5.912      1.971      6.927
REMARK INTER + INTRA:          -7.023
REMARK INTER:                  -6.975
REMARK INTRA:                  -0.048
REMARK UNBOUND:                -0.074
REMARK SMILES O=c1c(O)c(-c2ccc(O)cc2)oc2cc(O)cc(O)c12
REMARK SMILES IDX 5 1 3 2 2 3 1 4 21 5 19 6 18 7 16 8 15 9 14 10 13 11 6 12
REMARK SMILES IDX 7 13 8 14 9 15 12 16 11 17 10 18 4 20 20 22 17 24
REMARK H PARENT 10 19 4 21 20 23 17 25
REMARK Flexibility Score: inf
ROOT
ATOM      1  C   UNL     1      69.884  48.131   7.367  1.00  0.00     0.180 A 
ATOM      2  C   UNL     1      69.571  49.075   8.361  1.00  0.00     0.208 A 
ATOM      3  C   UNL     1      68.309  49.023   8.974  1.00  0.00     0.238 A 
ATOM      4  O   UNL     1      68.055  49.836   9.902  1.00  0.00    -0.285 OA
ATOM      5  C   UNL     1      67.371  48.041   8.576  1.00  0.00     0.111 A 
ATOM      6  C   UNL     1      66.049  47.922   9.102  1.00  0.00     0.134 A 
ATOM      7  C   UNL     1      65.253  46.833   8.728  1.00  0.00     0.093 A 
ATOM      8  C   UNL     1      65.704  45.895   7.800  1.00  0.00     0.123 A 
ATOM      9  C   UNL     1      66.973  46.035   7.235  1.00  0.00     0.094 A 
ATOM     10  C   UNL     1      67.804  47.092   7.615  1.00  0.00     0.146 A 
ATOM     11  O   UNL     1      69.008  47.182   7.061  1.00  0.00    -0.452 OA
ENDROOT
BRANCH   1  12
ATOM     12  C   UNL     1      71.183  48.137   6.657  1.00  0.00     0.021 A 
ATOM     13  C   UNL     1      71.208  48.307   5.263  1.00  0.00     0.016 A 
ATOM     14  C   UNL     1      72.425  48.338   4.574  1.00  0.00     0.047 A 
ATOM     15  C   UNL     1      73.631  48.218   5.270  1.00  0.00     0.115 A 
ATOM     16  C   UNL     1      72.401  48.036   7.354  1.00  0.00     0.016 A 
ATOM     17  C   UNL     1      73.617  48.069   6.663  1.00  0.00     0.047 A 
BRANCH  15  18
ATOM     18  O   UNL     1      74.836  48.251   4.572  1.00  0.00    -0.508 OA
ATOM     19  H   UNL     1      74.915  48.713   3.674  1.00  0.00     0.293 HD
ENDBRANCH  15  18
ENDBRANCH   1  12
BRANCH   2  20
ATOM     20  O   UNL     1      70.520  50.022   8.755  1.00  0.00    -0.502 OA
ATOM     21  H   UNL     1      70.380  51.017   8.630  1.00  0.00     0.293 HD
ENDBRANCH   2  20
BRANCH   6  22
ATOM     22  O   UNL     1      65.466  48.854   9.966  1.00  0.00    -0.507 OA
ATOM     23  H   UNL     1      64.494  49.127   9.947  1.00  0.00     0.293 HD
ENDBRANCH   6  22
BRANCH   8  24
ATOM     24  O   UNL     1      64.878  44.832   7.440  1.00  0.00    -0.508 OA
ATOM     25  H   UNL     1      63.886  44.962   7.282  1.00  0.00     0.293 HD
ENDBRANCH   8  24
TORSDOF 5
ENDMDL
MODEL 5
REMARK VINA RESULT:    -5.905      3.856      5.580
REMARK INTER + INTRA:          -7.015
REMARK INTER:                  -6.804
REMARK INTRA:                  -0.212
REMARK UNBOUND:                -0.074
REMARK SMILES O=c1c(O)c(-c2ccc(O)cc2)oc2cc(O)cc(O)c12
REMARK SMILES IDX 5 1 3 2 2 3 1 4 21 5 19 6 18 7 16 8 15 9 14 10 13 11 6 12
REMARK SMILES IDX 7 13 8 14 9 15 12 16 11 17 10 18 4 20 20 22 17 24
REMARK H PARENT 10 19 4 21 20 23 17 25
REMARK Flexibility Score: inf
ROOT
ATOM      1  C   UNL     1      72.438  46.992   6.383  1.00  0.00     0.180 A 
ATOM      2  C   UNL     1      73.345  47.415   7.372  1.00  0.00     0.208 A 
ATOM      3  C   UNL     1      73.969  46.451   8.179  1.00  0.00     0.238 A 
ATOM      4  O   UNL     1      74.820  46.832   9.026  1.00  0.00    -0.285 OA
ATOM      5  C   UNL     1      73.668  45.080   8.001  1.00  0.00     0.111 A 
ATOM      6  C   UNL     1      74.211  44.021   8.790  1.00  0.00     0.134 A 
ATOM      7  C   UNL     1      73.944  42.692   8.440  1.00  0.00     0.093 A 
ATOM      8  C   UNL     1      73.101  42.384   7.373  1.00  0.00     0.123 A 
ATOM      9  C   UNL     1      72.517  43.412   6.631  1.00  0.00     0.094 A 
ATOM     10  C   UNL     1      72.794  44.747   6.934  1.00  0.00     0.146 A 
ATOM     11  O   UNL     1      72.226  45.695   6.197  1.00  0.00    -0.452 OA
ENDROOT
BRANCH   1  12
ATOM     12  C   UNL     1      71.722  47.950   5.511  1.00  0.00     0.021 A 
ATOM     13  C   UNL     1      72.013  47.984   4.137  1.00  0.00     0.016 A 
ATOM     14  C   UNL     1      71.333  48.864   3.289  1.00  0.00     0.047 A 
ATOM     15  C   UNL     1      70.344  49.710   3.801  1.00  0.00     0.115 A 
ATOM     16  C   UNL     1      70.711  48.789   6.016  1.00  0.00     0.016 A 
ATOM     17  C   UNL     1      70.032  49.668   5.166  1.00  0.00     0.047 A 
BRANCH  15  18
ATOM     18  O   UNL     1      69.675  50.582   2.946  1.00  0.00    -0.508 OA
ATOM     19  H   UNL     1      68.736  50.906   3.148  1.00  0.00     0.293 HD
ENDBRANCH  15  18
ENDBRANCH   1  12
BRANCH   2  20
ATOM     20  O   UNL     1      73.645  48.772   7.516  1.00  0.00    -0.502 OA
ATOM     21  H   UNL     1      73.739  49.396   6.725  1.00  0.00     0.293 HD
ENDBRANCH   2  20
BRANCH   6  22
ATOM     22  O   UNL     1      74.991  44.221   9.933  1.00  0.00    -0.507 OA
ATOM     23  H   UNL     1      75.389  43.482  10.494  1.00  0.00     0.293 HD
ENDBRANCH   6  22
BRANCH   8  24
ATOM     24  O   UNL     1      72.845  41.049   7.062  1.00  0.00    -0.508 OA
ATOM     25  H   UNL     1      72.706  40.355   7.787  1.00  0.00     0.293 HD
ENDBRANCH   8  24
TORSDOF 5
ENDMDL
MODEL 6
REMARK VINA RESULT:    -5.873      3.007      7.059
REMARK INTER + INTRA:          -6.977
REMARK INTER:                  -6.688
REMARK INTRA:                  -0.289
REMARK UNBOUND:                -0.074
REMARK SMILES O=c1c(O)c(-c2ccc(O)cc2)oc2cc(O)cc(O)c12
REMARK SMILES IDX 5 1 3 2 2 3 1 4 21 5 19 6 18 7 16 8 15 9 14 10 13 11 6 12
REMARK SMILES IDX 7 13 8 14 9 15 12 16 11 17 10 18 4 20 20 22 17 24
REMARK H PARENT 10 19 4 21 20 23 17 25
REMARK Flexibility Score: inf
ROOT
ATOM      1  C   UNL     1      68.144  47.076   7.908  1.00  0.00     0.180 A 
ATOM      2  C   UNL     1      68.476  45.710   7.930  1.00  0.00     0.208 A 
ATOM      3  C   UNL     1      67.444  44.758   7.926  1.00  0.00     0.238 A 
ATOM      4  O   UNL     1      67.749  43.537   7.891  1.00  0.00    -0.285 OA
ATOM      5  C   UNL     1      66.094  45.183   7.916  1.00  0.00     0.111 A 
ATOM      6  C   UNL     1      64.968  44.306   7.952  1.00  0.00     0.134 A 
ATOM      7  C   UNL     1      63.678  44.832   7.807  1.00  0.00     0.093 A 
ATOM      8  C   UNL     1      63.469  46.206   7.694  1.00  0.00     0.123 A 
ATOM      9  C   UNL     1      64.559  47.077   7.718  1.00  0.00     0.094 A 
ATOM     10  C   UNL     1      65.860  46.580   7.825  1.00  0.00     0.146 A 
ATOM     11  O   UNL     1      66.870  47.442   7.833  1.00  0.00    -0.452 OA
ENDROOT
BRANCH   1  12
ATOM     12  C   UNL     1      69.175  48.138   7.936  1.00  0.00     0.021 A 
ATOM     13  C   UNL     1      69.653  48.604   9.172  1.00  0.00     0.016 A 
ATOM     14  C   UNL     1      70.643  49.591   9.223  1.00  0.00     0.047 A 
ATOM     15  C   UNL     1      71.180  50.111   8.041  1.00  0.00     0.115 A 
ATOM     16  C   UNL     1      69.733  48.651   6.750  1.00  0.00     0.016 A 
ATOM     17  C   UNL     1      70.724  49.636   6.804  1.00  0.00     0.047 A 
BRANCH  15  18
ATOM     18  O   UNL     1      72.165  51.092   8.106  1.00  0.00    -0.508 OA
ATOM     19  H   UNL     1      72.935  51.027   8.761  1.00  0.00     0.293 HD
ENDBRANCH  15  18
ENDBRANCH   1  12
BRANCH   2  20
ATOM     20  O   UNL     1      69.816  45.312   7.916  1.00  0.00    -0.502 OA
ATOM     21  H   UNL     1      70.163  44.549   8.484  1.00  0.00     0.293 HD
ENDBRANCH   2  20
BRANCH   6  22
ATOM     22  O   UNL     1      65.060  42.926   8.153  1.00  0.00    -0.507 OA
ATOM     23  H   UNL     1      64.944  42.465   9.044  1.00  0.00     0.293 HD
ENDBRANCH   6  22
BRANCH   8  24
ATOM     24  O   UNL     1      62.170  46.695   7.567  1.00  0.00    -0.508 OA
ATOM     25  H   UNL     1      61.482  46.225   6.990  1.00  0.00     0.293 HD
ENDBRANCH   8  24
TORSDOF 5
ENDMDL
MODEL 7
REMARK VINA RESULT:    -5.809      3.398      5.634
REMARK INTER + INTRA:          -6.902
REMARK INTER:                  -6.758
REMARK INTRA:                  -0.144
REMARK UNBOUND:                -0.074
REMARK SMILES O=c1c(O)c(-c2ccc(O)cc2)oc2cc(O)cc(O)c12
REMARK SMILES IDX 5 1 3 2 2 3 1 4 21 5 19 6 18 7 16 8 15 9 14 10 13 11 6 12
REMARK SMILES IDX 7 13 8 14 9 15 12 16 11 17 10 18 4 20 20 22 17 24
REMARK H PARENT 10 19 4 21 20 23 17 25
REMARK Flexibility Score: inf
ROOT
ATOM      1  C   UNL     1      71.628  47.532   6.011  1.00  0.00     0.180 A 
ATOM      2  C   UNL     1      72.950  47.452   6.485  1.00  0.00     0.208 A 
ATOM      3  C   UNL     1      73.227  46.638   7.595  1.00  0.00     0.238 A 
ATOM      4  O   UNL     1      74.421  46.528   7.980  1.00  0.00    -0.285 OA
ATOM      5  C   UNL     1      72.179  45.927   8.227  1.00  0.00     0.111 A 
ATOM      6  C   UNL     1      72.339  45.105   9.383  1.00  0.00     0.134 A 
ATOM      7  C   UNL     1      71.257  44.346   9.845  1.00  0.00     0.093 A 
ATOM      8  C   UNL     1      70.006  44.429   9.236  1.00  0.00     0.123 A 
ATOM      9  C   UNL     1      69.823  45.276   8.141  1.00  0.00     0.094 A 
ATOM     10  C   UNL     1      70.893  46.018   7.635  1.00  0.00     0.146 A 
ATOM     11  O   UNL     1      70.679  46.803   6.585  1.00  0.00    -0.452 OA
ENDROOT
BRANCH   1  12
ATOM     12  C   UNL     1      71.254  48.388   4.863  1.00  0.00     0.021 A 
ATOM     13  C   UNL     1      71.707  48.054   3.576  1.00  0.00     0.016 A 
ATOM     14  C   UNL     1      71.348  48.836   2.473  1.00  0.00     0.047 A 
ATOM     15  C   UNL     1      70.519  49.949   2.639  1.00  0.00     0.115 A 
ATOM     16  C   UNL     1      70.404  49.499   5.021  1.00  0.00     0.016 A 
ATOM     17  C   UNL     1      70.046  50.277   3.916  1.00  0.00     0.047 A 
BRANCH  15  18
ATOM     18  O   UNL     1      70.169  50.719   1.533  1.00  0.00    -0.508 OA
ATOM     19  H   UNL     1      70.869  51.199   0.979  1.00  0.00     0.293 HD
ENDBRANCH  15  18
ENDBRANCH   1  12
BRANCH   2  20
ATOM     20  O   UNL     1      73.974  48.144   5.832  1.00  0.00    -0.502 OA
ATOM     21  H   UNL     1      74.952  48.002   6.050  1.00  0.00     0.293 HD
ENDBRANCH   2  20
BRANCH   6  22
ATOM     22  O   UNL     1      73.522  45.020  10.122  1.00  0.00    -0.507 OA
ATOM     23  H   UNL     1      74.079  44.185  10.223  1.00  0.00     0.293 HD
ENDBRANCH   6  22
BRANCH   8  24
ATOM     24  O   UNL     1      68.947  43.671   9.733  1.00  0.00    -0.508 OA
ATOM     25  H   UNL     1      67.987  43.872   9.480  1.00  0.00     0.293 HD
ENDBRANCH   8  24
TORSDOF 5
ENDMDL
MODEL 8
REMARK VINA RESULT:    -5.752      3.802      5.709
REMARK INTER + INTRA:          -6.835
REMARK INTER:                  -6.550
REMARK INTRA:                  -0.285
REMARK UNBOUND:                -0.074
REMARK SMILES O=c1c(O)c(-c2ccc(O)cc2)oc2cc(O)cc(O)c12
REMARK SMILES IDX 5 1 3 2 2 3 1 4 21 5 19 6 18 7 16 8 15 9 14 10 13 11 6 12
REMARK SMILES IDX 7 13 8 14 9 15 12 16 11 17 10 18 4 20 20 22 17 24
REMARK H PARENT 10 19 4 21 20 23 17 25
REMARK Flexibility Score: inf
ROOT
ATOM      1  C   UNL     1      65.990  45.175   8.519  1.00  0.00     0.180 A 
ATOM      2  C   UNL     1      67.187  44.704   7.952  1.00  0.00     0.208 A 
ATOM      3  C   UNL     1      68.291  45.568   7.876  1.00  0.00     0.238 A 
ATOM      4  O   UNL     1      69.376  45.124   7.418  1.00  0.00    -0.285 OA
ATOM      5  C   UNL     1      68.179  46.896   8.353  1.00  0.00     0.111 A 
ATOM      6  C   UNL     1      69.221  47.871   8.289  1.00  0.00     0.134 A 
ATOM      7  C   UNL     1      69.043  49.113   8.908  1.00  0.00     0.093 A 
ATOM      8  C   UNL     1      67.839  49.442   9.531  1.00  0.00     0.123 A 
ATOM      9  C   UNL     1      66.793  48.519   9.548  1.00  0.00     0.094 A 
ATOM     10  C   UNL     1      66.953  47.257   8.969  1.00  0.00     0.146 A 
ATOM     11  O   UNL     1      65.937  46.404   9.016  1.00  0.00    -0.452 OA
ENDROOT
BRANCH   1  12
ATOM     12  C   UNL     1      64.777  44.331   8.610  1.00  0.00     0.021 A 
ATOM     13  C   UNL     1      63.840  44.353   7.564  1.00  0.00     0.016 A 
ATOM     14  C   UNL     1      62.698  43.547   7.619  1.00  0.00     0.047 A 
ATOM     15  C   UNL     1      62.486  42.698   8.710  1.00  0.00     0.115 A 
ATOM     16  C   UNL     1      64.569  43.460   9.696  1.00  0.00     0.016 A 
ATOM     17  C   UNL     1      63.426  42.655   9.747  1.00  0.00     0.047 A 
BRANCH  15  18
ATOM     18  O   UNL     1      61.345  41.902   8.751  1.00  0.00    -0.508 OA
ATOM     19  H   UNL     1      61.218  41.124   8.114  1.00  0.00     0.293 HD
ENDBRANCH  15  18
ENDBRANCH   1  12
BRANCH   2  20
ATOM     20  O   UNL     1      67.283  43.382   7.508  1.00  0.00    -0.502 OA
ATOM     21  H   UNL     1      67.696  42.647   8.070  1.00  0.00     0.293 HD
ENDBRANCH   2  20
BRANCH   6  22
ATOM     22  O   UNL     1      70.429  47.678   7.611  1.00  0.00    -0.507 OA
ATOM     23  H   UNL     1      70.993  46.843   7.668  1.00  0.00     0.293 HD
ENDBRANCH   6  22
BRANCH   8  24
ATOM     24  O   UNL     1      67.692  50.695  10.124  1.00  0.00    -0.508 OA
ATOM     25  H   UNL     1      66.913  50.901  10.738  1.00  0.00     0.293 HD
ENDBRANCH   8  24
TORSDOF 5
ENDMDL
MODEL 9
REMARK VINA RESULT:    -5.626      2.685      4.669
REMARK INTER + INTRA:          -6.687
REMARK INTER:                  -6.398
REMARK INTRA:                  -0.289
REMARK UNBOUND:                -0.074
REMARK SMILES O=c1c(O)c(-c2ccc(O)cc2)oc2cc(O)cc(O)c12
REMARK SMILES IDX 5 1 3 2 2 3 1 4 21 5 19 6 18 7 16 8 15 9 14 10 13 11 6 12
REMARK SMILES IDX 7 13 8 14 9 15 12 16 11 17 10 18 4 20 20 22 17 24
REMARK H PARENT 10 19 4 21 20 23 17 25
REMARK Flexibility Score: inf
ROOT
ATOM      1  C   UNL     1      65.977  47.157   9.008  1.00  0.00     0.180 A 
ATOM      2  C   UNL     1      66.020  48.432   9.600  1.00  0.00     0.208 A 
ATOM      3  C   UNL     1      67.236  49.133   9.619  1.00  0.00     0.238 A 
ATOM      4  O   UNL     1      67.256  50.296  10.101  1.00  0.00    -0.285 OA
ATOM      5  C   UNL     1      68.397  48.545   9.061  1.00  0.00     0.111 A 
ATOM      6  C   UNL     1      69.691  49.149   9.061  1.00  0.00     0.134 A 
ATOM      7  C   UNL     1      70.739  48.534   8.366  1.00  0.00     0.093 A 
ATOM      8  C   UNL     1      70.559  47.307   7.727  1.00  0.00     0.123 A 
ATOM      9  C   UNL     1      69.313  46.680   7.771  1.00  0.00     0.094 A 
ATOM     10  C   UNL     1      68.238  47.286   8.427  1.00  0.00     0.146 A 
ATOM     11  O   UNL     1      67.067  46.661   8.436  1.00  0.00    -0.452 OA
ENDROOT
BRANCH   1  12
ATOM     12  C   UNL     1      64.739  46.347   8.973  1.00  0.00     0.021 A 
ATOM     13  C   UNL     1      64.452  45.475  10.037  1.00  0.00     0.016 A 
ATOM     14  C   UNL     1      63.277  44.717  10.037  1.00  0.00     0.047 A 
ATOM     15  C   UNL     1      62.366  44.832   8.982  1.00  0.00     0.115 A 
ATOM     16  C   UNL     1      63.808  46.472   7.924  1.00  0.00     0.016 A 
ATOM     17  C   UNL     1      62.634  45.714   7.927  1.00  0.00     0.047 A 
BRANCH  15  18
ATOM     18  O   UNL     1      61.201  44.071   8.993  1.00  0.00    -0.508 OA
ATOM     19  H   UNL     1      60.587  44.054   9.799  1.00  0.00     0.293 HD
ENDBRANCH  15  18
ENDBRANCH   1  12
BRANCH   2  20
ATOM     20  O   UNL     1      64.858  49.003  10.125  1.00  0.00    -0.502 OA
ATOM     21  H   UNL     1      64.726  49.155  11.117  1.00  0.00     0.293 HD
ENDBRANCH   2  20
BRANCH   6  22
ATOM     22  O   UNL     1      70.002  50.327   9.745  1.00  0.00    -0.507 OA
ATOM     23  H   UNL     1      70.246  51.202   9.304  1.00  0.00     0.293 HD
ENDBRANCH   6  22
BRANCH   8  24
ATOM     24  O   UNL     1      71.629  46.717   7.058  1.00  0.00    -0.508 OA
ATOM     25  H   UNL     1      72.205  47.245   6.412  1.00  0.00     0.293 HD
ENDBRANCH   8  24
TORSDOF 5
ENDMDL
