MODEL 1
REMARK VINA RESULT:    -6.923      0.000      0.000
REMARK INTER + INTRA:          -8.402
REMARK INTER:                  -8.137
REMARK INTRA:                  -0.265
REMARK UNBOUND:                -0.265
REMARK SMILES O=c1c(O)c(-c2ccc(O)cc2)oc2cc(O)cc(O)c12
REMARK SMILES IDX 5 1 3 2 2 3 1 4 21 5 19 6 18 7 16 8 15 9 14 10 13 11 6 12
REMARK SMILES IDX 7 13 8 14 9 15 12 16 11 17 10 18 4 20 20 22 17 24
REMARK H PARENT 10 19 4 21 20 23 17 25
REMARK Flexibility Score: inf
ROOT
ATOM      1  C   UNL     1       5.140  15.798  18.767  1.00  0.00     0.180 A 
ATOM      2  C   UNL     1       4.355  16.931  18.489  1.00  0.00     0.208 A 
ATOM      3  C   UNL     1       3.829  17.092  17.197  1.00  0.00     0.238 A 
ATOM      4  O   UNL     1       3.082  18.079  16.968  1.00  0.00    -0.285 OA
ATOM      5  C   UNL     1       4.108  16.131  16.197  1.00  0.00     0.111 A 
ATOM      6  C   UNL     1       3.661  16.215  14.844  1.00  0.00     0.134 A 
ATOM      7  C   UNL     1       3.885  15.140  13.973  1.00  0.00     0.093 A 
ATOM      8  C   UNL     1       4.598  14.014  14.390  1.00  0.00     0.123 A 
ATOM      9  C   UNL     1       5.091  13.948  15.690  1.00  0.00     0.094 A 
ATOM     10  C   UNL     1       4.851  14.988  16.593  1.00  0.00     0.146 A 
ATOM     11  O   UNL     1       5.330  14.881  17.827  1.00  0.00    -0.452 OA
ENDROOT
BRANCH   1  12
ATOM     12  C   UNL     1       5.750  15.570  20.098  1.00  0.00     0.021 A 
ATOM     13  C   UNL     1       4.978  15.000  21.124  1.00  0.00     0.016 A 
ATOM     14  C   UNL     1       5.540  14.757  22.381  1.00  0.00     0.047 A 
ATOM     15  C   UNL     1       6.882  15.063  22.623  1.00  0.00     0.115 A 
ATOM     16  C   UNL     1       7.106  15.858  20.341  1.00  0.00     0.016 A 
ATOM     17  C   UNL     1       7.665  15.611  21.599  1.00  0.00     0.047 A 
BRANCH  15  18
ATOM     18  O   UNL     1       7.428  14.814  23.881  1.00  0.00    -0.508 OA
ATOM     19  H   UNL     1       7.917  15.537  24.397  1.00  0.00     0.293 HD
ENDBRANCH  15  18
ENDBRANCH   1  12
BRANCH   2  20
ATOM     20  O   UNL     1       4.075  17.856  19.496  1.00  0.00    -0.502 OA
ATOM     21  H   UNL     1       3.890  18.833  19.302  1.00  0.00     0.293 HD
ENDBRANCH   2  20
BRANCH   6  22
ATOM     22  O   UNL     1       3.020  17.333  14.302  1.00  0.00    -0.507 OA
ATOM     23  H   UNL     1       3.381  18.274  14.335  1.00  0.00     0.293 HD
ENDBRANCH   6  22
BRANCH   8  24
ATOM     24  O   UNL     1       4.832  12.956  13.513  1.00  0.00    -0.508 OA
ATOM     25  H   UNL     1       4.608  12.000  13.764  1.00  0.00     0.293 HD
ENDBRANCH   8  24
TORSDOF 5
ENDMDL
MODEL 2
REMARK VINA RESULT:    -6.759      1.328      3.260
REMARK INTER + INTRA:          -8.209
REMARK INTER:                  -7.913
REMARK INTRA:                  -0.296
REMARK UNBOUND:                -0.265
REMARK SMILES O=c1c(O)c(-c2ccc(O)cc2)oc2cc(O)cc(O)c12
REMARK SMILES IDX 5 1 3 2 2 3 1 4 21 5 19 6 18 7 16 8 15 9 14 10 13 11 6 12
REMARK SMILES IDX 7 13 8 14 9 15 12 16 11 17 10 18 4 20 20 22 17 24
REMARK H PARENT 10 19 4 21 20 23 17 25
REMARK Flexibility Score: inf
ROOT
ATOM      1  C   UNL     1       5.493  15.776  18.616  1.00  0.00     0.180 A 
ATOM      2  C   UNL     1       5.510  14.804  17.600  1.00  0.00     0.208 A 
ATOM      3  C   UNL     1       5.013  15.139  16.330  1.00  0.00     0.238 A 
ATOM      4  O   UNL     1       5.081  14.283  15.410  1.00  0.00    -0.285 OA
ATOM      5  C   UNL     1       4.492  16.434  16.096  1.00  0.00     0.111 A 
ATOM      6  C   UNL     1       3.926  16.869  14.860  1.00  0.00     0.134 A 
ATOM      7  C   UNL     1       3.561  18.212  14.702  1.00  0.00     0.093 A 
ATOM      8  C   UNL     1       3.680  19.119  15.757  1.00  0.00     0.123 A 
ATOM      9  C   UNL     1       4.175  18.691  16.986  1.00  0.00     0.094 A 
ATOM     10  C   UNL     1       4.582  17.366  17.163  1.00  0.00     0.146 A 
ATOM     11  O   UNL     1       5.058  17.001  18.347  1.00  0.00    -0.452 OA
ENDROOT
BRANCH   1  12
ATOM     12  C   UNL     1       5.977  15.490  19.987  1.00  0.00     0.021 A 
ATOM     13  C   UNL     1       7.317  15.754  20.316  1.00  0.00     0.016 A 
ATOM     14  C   UNL     1       7.788  15.512  21.610  1.00  0.00     0.047 A 
ATOM     15  C   UNL     1       6.924  15.022  22.593  1.00  0.00     0.115 A 
ATOM     16  C   UNL     1       5.107  15.016  20.986  1.00  0.00     0.016 A 
ATOM     17  C   UNL     1       5.582  14.777  22.279  1.00  0.00     0.047 A 
BRANCH  15  18
ATOM     18  O   UNL     1       7.408  14.787  23.879  1.00  0.00    -0.508 OA
ATOM     19  H   UNL     1       7.698  15.548  24.482  1.00  0.00     0.293 HD
ENDBRANCH  15  18
ENDBRANCH   1  12
BRANCH   2  20
ATOM     20  O   UNL     1       6.049  13.539  17.846  1.00  0.00    -0.502 OA
ATOM     21  H   UNL     1       6.403  12.945  17.106  1.00  0.00     0.293 HD
ENDBRANCH   2  20
BRANCH   6  22
ATOM     22  O   UNL     1       3.678  16.023  13.775  1.00  0.00    -0.507 OA
ATOM     23  H   UNL     1       3.904  15.041  13.749  1.00  0.00     0.293 HD
ENDBRANCH   6  22
BRANCH   8  24
ATOM     24  O   UNL     1       3.299  20.451  15.597  1.00  0.00    -0.508 OA
ATOM     25  H   UNL     1       2.998  21.014  16.384  1.00  0.00     0.293 HD
ENDBRANCH   8  24
TORSDOF 5
ENDMDL
MODEL 3
REMARK VINA RESULT:    -6.679      1.414      3.161
REMARK INTER + INTRA:          -8.115
REMARK INTER:                  -8.042
REMARK INTRA:                  -0.073
REMARK UNBOUND:                -0.265
REMARK SMILES O=c1c(O)c(-c2ccc(O)cc2)oc2cc(O)cc(O)c12
REMARK SMILES IDX 5 1 3 2 2 3 1 4 21 5 19 6 18 7 16 8 15 9 14 10 13 11 6 12
REMARK SMILES IDX 7 13 8 14 9 15 12 16 11 17 10 18 4 20 20 22 17 24
REMARK H PARENT 10 19 4 21 20 23 17 25
REMARK Flexibility Score: inf
ROOT
ATOM      1  C   UNL     1       5.802  14.943  18.190  1.00  0.00     0.180 A 
ATOM      2  C   UNL     1       5.927  13.652  17.649  1.00  0.00     0.208 A 
ATOM      3  C   UNL     1       5.422  13.401  16.363  1.00  0.00     0.238 A 
ATOM      4  O   UNL     1       5.585  12.259  15.861  1.00  0.00    -0.285 OA
ATOM      5  C   UNL     1       4.783  14.439  15.642  1.00  0.00     0.111 A 
ATOM      6  C   UNL     1       4.199  14.287  14.349  1.00  0.00     0.134 A 
ATOM      7  C   UNL     1       3.711  15.413  13.674  1.00  0.00     0.093 A 
ATOM      8  C   UNL     1       3.726  16.674  14.275  1.00  0.00     0.123 A 
ATOM      9  C   UNL     1       4.239  16.823  15.560  1.00  0.00     0.094 A 
ATOM     10  C   UNL     1       4.768  15.724  16.244  1.00  0.00     0.146 A 
ATOM     11  O   UNL     1       5.257  15.911  17.464  1.00  0.00    -0.452 OA
ENDROOT
BRANCH   1  12
ATOM     12  C   UNL     1       6.287  15.278  19.549  1.00  0.00     0.021 A 
ATOM     13  C   UNL     1       7.170  16.357  19.722  1.00  0.00     0.016 A 
ATOM     14  C   UNL     1       7.623  16.704  20.998  1.00  0.00     0.047 A 
ATOM     15  C   UNL     1       7.188  15.989  22.117  1.00  0.00     0.115 A 
ATOM     16  C   UNL     1       5.838  14.574  20.681  1.00  0.00     0.016 A 
ATOM     17  C   UNL     1       6.292  14.925  21.957  1.00  0.00     0.047 A 
BRANCH  15  18
ATOM     18  O   UNL     1       7.648  16.347  23.383  1.00  0.00    -0.508 OA
ATOM     19  H   UNL     1       8.517  15.979  23.753  1.00  0.00     0.293 HD
ENDBRANCH  15  18
ENDBRANCH   1  12
BRANCH   2  20
ATOM     20  O   UNL     1       6.580  12.648  18.368  1.00  0.00    -0.502 OA
ATOM     21  H   UNL     1       7.208  11.984  17.930  1.00  0.00     0.293 HD
ENDBRANCH   2  20
BRANCH   6  22
ATOM     22  O   UNL     1       4.051  13.058  13.699  1.00  0.00    -0.507 OA
ATOM     23  H   UNL     1       3.510  12.283  14.052  1.00  0.00     0.293 HD
ENDBRANCH   6  22
BRANCH   8  24
ATOM     24  O   UNL     1       3.223  17.787  13.603  1.00  0.00    -0.508 OA
ATOM     25  H   UNL     1       3.798  18.603  13.424  1.00  0.00     0.293 HD
ENDBRANCH   8  24
TORSDOF 5
ENDMDL
MODEL 4
REMARK VINA RESULT:    -6.504      2.097      6.752
REMARK INTER + INTRA:          -7.910
REMARK INTER:                  -7.635
REMARK INTRA:                  -0.275
REMARK UNBOUND:                -0.265
REMARK SMILES O=c1c(O)c(-c2ccc(O)cc2)oc2cc(O)cc(O)c12
REMARK SMILES IDX 5 1 3 2 2 3 1 4 21 5 19 6 18 7 16 8 15 9 14 10 13 11 6 12
REMARK SMILES IDX 7 13 8 14 9 15 12 16 11 17 10 18 4 20 20 22 17 24
REMARK H PARENT 10 19 4 21 20 23 17 25
REMARK Flexibility Score: inf
ROOT
ATOM      1  C   UNL     1       4.462  16.738  18.290  1.00  0.00     0.180 A 
ATOM      2  C   UNL     1       3.390  16.140  18.976  1.00  0.00     0.208 A 
ATOM      3  C   UNL     1       3.626  15.559  20.232  1.00  0.00     0.238 A 
ATOM      4  O   UNL     1       2.653  15.074  20.866  1.00  0.00    -0.285 OA
ATOM      5  C   UNL     1       4.932  15.567  20.779  1.00  0.00     0.111 A 
ATOM      6  C   UNL     1       5.293  14.972  22.024  1.00  0.00     0.134 A 
ATOM      7  C   UNL     1       6.587  15.155  22.529  1.00  0.00     0.093 A 
ATOM      8  C   UNL     1       7.551  15.856  21.799  1.00  0.00     0.123 A 
ATOM      9  C   UNL     1       7.225  16.389  20.555  1.00  0.00     0.094 A 
ATOM     10  C   UNL     1       5.932  16.255  20.043  1.00  0.00     0.146 A 
ATOM     11  O   UNL     1       5.661  16.787  18.857  1.00  0.00    -0.452 OA
ENDROOT
BRANCH   1  12
ATOM     12  C   UNL     1       4.296  17.349  16.950  1.00  0.00     0.021 A 
ATOM     13  C   UNL     1       4.310  16.529  15.810  1.00  0.00     0.016 A 
ATOM     14  C   UNL     1       4.134  17.082  14.538  1.00  0.00     0.047 A 
ATOM     15  C   UNL     1       3.926  18.456  14.391  1.00  0.00     0.115 A 
ATOM     16  C   UNL     1       4.067  18.729  16.798  1.00  0.00     0.016 A 
ATOM     17  C   UNL     1       3.890  19.278  15.524  1.00  0.00     0.047 A 
BRANCH  15  18
ATOM     18  O   UNL     1       3.752  18.993  13.117  1.00  0.00    -0.508 OA
ATOM     19  H   UNL     1       4.202  19.858  12.842  1.00  0.00     0.293 HD
ENDBRANCH  15  18
ENDBRANCH   1  12
BRANCH   2  20
ATOM     20  O   UNL     1       2.105  16.162  18.428  1.00  0.00    -0.502 OA
ATOM     21  H   UNL     1       1.359  15.565  18.766  1.00  0.00     0.293 HD
ENDBRANCH   2  20
BRANCH   6  22
ATOM     22  O   UNL     1       4.433  14.176  22.787  1.00  0.00    -0.507 OA
ATOM     23  H   UNL     1       4.564  13.190  22.958  1.00  0.00     0.293 HD
ENDBRANCH   6  22
BRANCH   8  24
ATOM     24  O   UNL     1       8.841  16.019  22.300  1.00  0.00    -0.508 OA
ATOM     25  H   UNL     1       9.062  15.823  23.270  1.00  0.00     0.293 HD
ENDBRANCH   8  24
TORSDOF 5
ENDMDL
MODEL 5
REMARK VINA RESULT:    -6.381      2.216      6.653
REMARK INTER + INTRA:          -7.765
REMARK INTER:                  -7.511
REMARK INTRA:                  -0.254
REMARK UNBOUND:                -0.265
REMARK SMILES O=c1c(O)c(-c2ccc(O)cc2)oc2cc(O)cc(O)c12
REMARK SMILES IDX 5 1 3 2 2 3 1 4 21 5 19 6 18 7 16 8 15 9 14 10 13 11 6 12
REMARK SMILES IDX 7 13 8 14 9 15 12 16 11 17 10 18 4 20 20 22 17 24
REMARK H PARENT 10 19 4 21 20 23 17 25
REMARK Flexibility Score: inf
ROOT
ATOM      1  C   UNL     1       4.917  16.662  18.180  1.00  0.00     0.180 A 
ATOM      2  C   UNL     1       6.146  16.786  18.851  1.00  0.00     0.208 A 
ATOM      3  C   UNL     1       6.285  16.217  20.127  1.00  0.00     0.238 A 
ATOM      4  O   UNL     1       7.404  16.283  20.699  1.00  0.00    -0.285 OA
ATOM      5  C   UNL     1       5.191  15.546  20.723  1.00  0.00     0.111 A 
ATOM      6  C   UNL     1       5.207  14.968  22.027  1.00  0.00     0.134 A 
ATOM      7  C   UNL     1       4.109  14.214  22.464  1.00  0.00     0.093 A 
ATOM      8  C   UNL     1       2.970  14.076  21.667  1.00  0.00     0.123 A 
ATOM      9  C   UNL     1       2.920  14.687  20.417  1.00  0.00     0.094 A 
ATOM     10  C   UNL     1       4.014  15.413  19.939  1.00  0.00     0.146 A 
ATOM     11  O   UNL     1       3.930  15.971  18.738  1.00  0.00    -0.452 OA
ENDROOT
BRANCH   1  12
ATOM     12  C   UNL     1       4.685  17.257  16.843  1.00  0.00     0.021 A 
ATOM     13  C   UNL     1       4.624  16.421  15.716  1.00  0.00     0.016 A 
ATOM     14  C   UNL     1       4.385  16.958  14.448  1.00  0.00     0.047 A 
ATOM     15  C   UNL     1       4.187  18.333  14.293  1.00  0.00     0.115 A 
ATOM     16  C   UNL     1       4.466  18.637  16.684  1.00  0.00     0.016 A 
ATOM     17  C   UNL     1       4.225  19.171  15.414  1.00  0.00     0.047 A 
BRANCH  15  18
ATOM     18  O   UNL     1       3.950  18.855  13.022  1.00  0.00    -0.508 OA
ATOM     19  H   UNL     1       4.034  19.847  12.834  1.00  0.00     0.293 HD
ENDBRANCH  15  18
ENDBRANCH   1  12
BRANCH   2  20
ATOM     20  O   UNL     1       7.220  17.433  18.235  1.00  0.00    -0.502 OA
ATOM     21  H   UNL     1       7.429  18.412  18.393  1.00  0.00     0.293 HD
ENDBRANCH   2  20
BRANCH   6  22
ATOM     22  O   UNL     1       6.257  15.124  22.937  1.00  0.00    -0.507 OA
ATOM     23  H   UNL     1       6.628  16.012  23.240  1.00  0.00     0.293 HD
ENDBRANCH   6  22
BRANCH   8  24
ATOM     24  O   UNL     1       1.875  13.339  22.115  1.00  0.00    -0.508 OA
ATOM     25  H   UNL     1       1.885  12.325  22.119  1.00  0.00     0.293 HD
ENDBRANCH   8  24
TORSDOF 5
ENDMDL
MODEL 6
REMARK VINA RESULT:    -6.370      2.855      5.567
REMARK INTER + INTRA:          -7.751
REMARK INTER:                  -7.476
REMARK INTRA:                  -0.276
REMARK UNBOUND:                -0.265
REMARK SMILES O=c1c(O)c(-c2ccc(O)cc2)oc2cc(O)cc(O)c12
REMARK SMILES IDX 5 1 3 2 2 3 1 4 21 5 19 6 18 7 16 8 15 9 14 10 13 11 6 12
REMARK SMILES IDX 7 13 8 14 9 15 12 16 11 17 10 18 4 20 20 22 17 24
REMARK H PARENT 10 19 4 21 20 23 17 25
REMARK Flexibility Score: inf
ROOT
ATOM      1  C   UNL     1       3.796  17.525  16.028  1.00  0.00     0.180 A 
ATOM      2  C   UNL     1       3.675  17.097  14.694  1.00  0.00     0.208 A 
ATOM      3  C   UNL     1       4.036  15.781  14.366  1.00  0.00     0.238 A 
ATOM      4  O   UNL     1       3.875  15.386  13.182  1.00  0.00    -0.285 OA
ATOM      5  C   UNL     1       4.528  14.913  15.371  1.00  0.00     0.111 A 
ATOM      6  C   UNL     1       4.961  13.573  15.144  1.00  0.00     0.134 A 
ATOM      7  C   UNL     1       5.305  12.763  16.235  1.00  0.00     0.093 A 
ATOM      8  C   UNL     1       5.295  13.269  17.537  1.00  0.00     0.123 A 
ATOM      9  C   UNL     1       4.932  14.594  17.763  1.00  0.00     0.094 A 
ATOM     10  C   UNL     1       4.547  15.414  16.699  1.00  0.00     0.146 A 
ATOM     11  O   UNL     1       4.198  16.669  16.959  1.00  0.00    -0.452 OA
ENDROOT
BRANCH   1  12
ATOM     12  C   UNL     1       3.459  18.905  16.446  1.00  0.00     0.021 A 
ATOM     13  C   UNL     1       2.248  19.149  17.116  1.00  0.00     0.016 A 
ATOM     14  C   UNL     1       1.921  20.440  17.539  1.00  0.00     0.047 A 
ATOM     15  C   UNL     1       2.804  21.500  17.313  1.00  0.00     0.115 A 
ATOM     16  C   UNL     1       4.353  19.972  16.239  1.00  0.00     0.016 A 
ATOM     17  C   UNL     1       4.022  21.262  16.665  1.00  0.00     0.047 A 
BRANCH  15  18
ATOM     18  O   UNL     1       2.464  22.782  17.741  1.00  0.00    -0.508 OA
ATOM     19  H   UNL     1       2.853  23.607  17.299  1.00  0.00     0.293 HD
ENDBRANCH  15  18
ENDBRANCH   1  12
BRANCH   2  20
ATOM     20  O   UNL     1       3.167  17.962  13.722  1.00  0.00    -0.502 OA
ATOM     21  H   UNL     1       3.024  18.951  13.894  1.00  0.00     0.293 HD
ENDBRANCH   2  20
BRANCH   6  22
ATOM     22  O   UNL     1       5.095  13.000  13.876  1.00  0.00    -0.507 OA
ATOM     23  H   UNL     1       4.756  12.086  13.620  1.00  0.00     0.293 HD
ENDBRANCH   6  22
BRANCH   8  24
ATOM     24  O   UNL     1       5.655  12.462  18.616  1.00  0.00    -0.508 OA
ATOM     25  H   UNL     1       6.010  12.859  19.478  1.00  0.00     0.293 HD
ENDBRANCH   8  24
TORSDOF 5
ENDMDL
MODEL 7
REMARK VINA RESULT:    -6.295      2.290      7.078
REMARK INTER + INTRA:          -7.664
REMARK INTER:                  -8.123
REMARK INTRA:                   0.459
REMARK UNBOUND:                -0.265
REMARK SMILES O=c1c(O)c(-c2ccc(O)cc2)oc2cc(O)cc(O)c12
REMARK SMILES IDX 5 1 3 2 2 3 1 4 21 5 19 6 18 7 16 8 15 9 14 10 13 11 6 12
REMARK SMILES IDX 7 13 8 14 9 15 12 16 11 17 10 18 4 20 20 22 17 24
REMARK H PARENT 10 19 4 21 20 23 17 25
REMARK Flexibility Score: inf
ROOT
ATOM      1  C   UNL     1       4.295  15.646  15.481  1.00  0.00     0.180 A 
ATOM      2  C   UNL     1       4.697  14.347  15.124  1.00  0.00     0.208 A 
ATOM      3  C   UNL     1       4.956  13.412  16.139  1.00  0.00     0.238 A 
ATOM      4  O   UNL     1       5.263  12.236  15.813  1.00  0.00    -0.285 OA
ATOM      5  C   UNL     1       4.826  13.790  17.496  1.00  0.00     0.111 A 
ATOM      6  C   UNL     1       5.101  12.937  18.606  1.00  0.00     0.134 A 
ATOM      7  C   UNL     1       4.811  13.375  19.905  1.00  0.00     0.093 A 
ATOM      8  C   UNL     1       4.318  14.662  20.136  1.00  0.00     0.123 A 
ATOM      9  C   UNL     1       4.103  15.524  19.064  1.00  0.00     0.094 A 
ATOM     10  C   UNL     1       4.347  15.101  17.755  1.00  0.00     0.146 A 
ATOM     11  O   UNL     1       4.118  15.951  16.761  1.00  0.00    -0.452 OA
ENDROOT
BRANCH   1  12
ATOM     12  C   UNL     1       4.028  16.694  14.469  1.00  0.00     0.021 A 
ATOM     13  C   UNL     1       4.007  18.043  14.860  1.00  0.00     0.016 A 
ATOM     14  C   UNL     1       3.779  19.050  13.918  1.00  0.00     0.047 A 
ATOM     15  C   UNL     1       3.587  18.724  12.572  1.00  0.00     0.115 A 
ATOM     16  C   UNL     1       3.854  16.373  13.110  1.00  0.00     0.016 A 
ATOM     17  C   UNL     1       3.628  17.384  12.170  1.00  0.00     0.047 A 
BRANCH  15  18
ATOM     18  O   UNL     1       3.361  19.739  11.644  1.00  0.00    -0.508 OA
ATOM     19  H   UNL     1       3.019  20.650  11.930  1.00  0.00     0.293 HD
ENDBRANCH  15  18
ENDBRANCH   1  12
BRANCH   2  20
ATOM     20  O   UNL     1       4.799  13.988  13.778  1.00  0.00    -0.502 OA
ATOM     21  H   UNL     1       4.071  13.475  13.295  1.00  0.00     0.293 HD
ENDBRANCH   2  20
BRANCH   6  22
ATOM     22  O   UNL     1       5.680  11.669  18.491  1.00  0.00    -0.507 OA
ATOM     23  H   UNL     1       5.936  11.232  17.619  1.00  0.00     0.293 HD
ENDBRANCH   6  22
BRANCH   8  24
ATOM     24  O   UNL     1       4.048  15.097  21.433  1.00  0.00    -0.508 OA
ATOM     25  H   UNL     1       3.677  16.023  21.614  1.00  0.00     0.293 HD
ENDBRANCH   8  24
TORSDOF 5
ENDMDL
MODEL 8
REMARK VINA RESULT:    -6.143      2.084      6.864
REMARK INTER + INTRA:          -7.485
REMARK INTER:                  -7.404
REMARK INTRA:                  -0.082
REMARK UNBOUND:                -0.265
REMARK SMILES O=c1c(O)c(-c2ccc(O)cc2)oc2cc(O)cc(O)c12
REMARK SMILES IDX 5 1 3 2 2 3 1 4 21 5 19 6 18 7 16 8 15 9 14 10 13 11 6 12
REMARK SMILES IDX 7 13 8 14 9 15 12 16 11 17 10 18 4 20 20 22 17 24
REMARK H PARENT 10 19 4 21 20 23 17 25
REMARK Flexibility Score: inf
ROOT
ATOM      1  C   UNL     1       4.228  16.294  16.892  1.00  0.00     0.180 A 
ATOM      2  C   UNL     1       3.410  15.239  17.332  1.00  0.00     0.208 A 
ATOM      3  C   UNL     1       3.672  14.649  18.579  1.00  0.00     0.238 A 
ATOM      4  O   UNL     1       2.903  13.742  18.992  1.00  0.00    -0.285 OA
ATOM      5  C   UNL     1       4.758  15.109  19.362  1.00  0.00     0.111 A 
ATOM      6  C   UNL     1       5.140  14.558  20.621  1.00  0.00     0.134 A 
ATOM      7  C   UNL     1       6.149  15.177  21.370  1.00  0.00     0.093 A 
ATOM      8  C   UNL     1       6.834  16.288  20.873  1.00  0.00     0.123 A 
ATOM      9  C   UNL     1       6.510  16.797  19.618  1.00  0.00     0.094 A 
ATOM     10  C   UNL     1       5.482  16.224  18.864  1.00  0.00     0.146 A 
ATOM     11  O   UNL     1       5.198  16.746  17.678  1.00  0.00    -0.452 OA
ENDROOT
BRANCH   1  12
ATOM     12  C   UNL     1       4.030  16.950  15.578  1.00  0.00     0.021 A 
ATOM     13  C   UNL     1       3.869  18.344  15.519  1.00  0.00     0.016 A 
ATOM     14  C   UNL     1       3.703  18.986  14.288  1.00  0.00     0.047 A 
ATOM     15  C   UNL     1       3.711  18.246  13.102  1.00  0.00     0.115 A 
ATOM     16  C   UNL     1       4.057  16.213  14.380  1.00  0.00     0.016 A 
ATOM     17  C   UNL     1       3.892  16.858  13.151  1.00  0.00     0.047 A 
BRANCH  15  18
ATOM     18  O   UNL     1       3.544  18.900  11.883  1.00  0.00    -0.508 OA
ATOM     19  H   UNL     1       4.042  19.757  11.670  1.00  0.00     0.293 HD
ENDBRANCH  15  18
ENDBRANCH   1  12
BRANCH   2  20
ATOM     20  O   UNL     1       2.330  14.815  16.553  1.00  0.00    -0.502 OA
ATOM     21  H   UNL     1       2.297  14.951  15.550  1.00  0.00     0.293 HD
ENDBRANCH   2  20
BRANCH   6  22
ATOM     22  O   UNL     1       4.583  13.397  21.167  1.00  0.00    -0.507 OA
ATOM     23  H   UNL     1       3.598  13.178  21.166  1.00  0.00     0.293 HD
ENDBRANCH   6  22
BRANCH   8  24
ATOM     24  O   UNL     1       7.849  16.889  21.616  1.00  0.00    -0.508 OA
ATOM     25  H   UNL     1       7.848  16.866  22.630  1.00  0.00     0.293 HD
ENDBRANCH   8  24
TORSDOF 5
ENDMDL
MODEL 9
REMARK VINA RESULT:    -6.014      3.136      4.614
REMARK INTER + INTRA:          -7.333
REMARK INTER:                  -7.202
REMARK INTRA:                  -0.131
REMARK UNBOUND:                -0.265
REMARK SMILES O=c1c(O)c(-c2ccc(O)cc2)oc2cc(O)cc(O)c12
REMARK SMILES IDX 5 1 3 2 2 3 1 4 21 5 19 6 18 7 16 8 15 9 14 10 13 11 6 12
REMARK SMILES IDX 7 13 8 14 9 15 12 16 11 17 10 18 4 20 20 22 17 24
REMARK H PARENT 10 19 4 21 20 23 17 25
REMARK Flexibility Score: inf
ROOT
ATOM      1  C   UNL     1       3.715  12.530  18.677  1.00  0.00     0.180 A 
ATOM      2  C   UNL     1       4.610  11.752  17.920  1.00  0.00     0.208 A 
ATOM      3  C   UNL     1       4.920  12.153  16.611  1.00  0.00     0.238 A 
ATOM      4  O   UNL     1       5.763  11.484  15.958  1.00  0.00    -0.285 OA
ATOM      5  C   UNL     1       4.320  13.314  16.068  1.00  0.00     0.111 A 
ATOM      6  C   UNL     1       4.531  13.790  14.739  1.00  0.00     0.134 A 
ATOM      7  C   UNL     1       3.989  15.023  14.352  1.00  0.00     0.093 A 
ATOM      8  C   UNL     1       3.189  15.763  15.226  1.00  0.00     0.123 A 
ATOM      9  C   UNL     1       2.928  15.278  16.505  1.00  0.00     0.094 A 
ATOM     10  C   UNL     1       3.485  14.070  16.932  1.00  0.00     0.146 A 
ATOM     11  O   UNL     1       3.220  13.649  18.163  1.00  0.00    -0.452 OA
ENDROOT
BRANCH   1  12
ATOM     12  C   UNL     1       3.320  12.158  20.055  1.00  0.00     0.021 A 
ATOM     13  C   UNL     1       2.609  10.966  20.273  1.00  0.00     0.016 A 
ATOM     14  C   UNL     1       2.245  10.586  21.568  1.00  0.00     0.047 A 
ATOM     15  C   UNL     1       2.601  11.381  22.661  1.00  0.00     0.115 A 
ATOM     16  C   UNL     1       3.692  12.945  21.161  1.00  0.00     0.016 A 
ATOM     17  C   UNL     1       3.328  12.560  22.455  1.00  0.00     0.047 A 
BRANCH  15  18
ATOM     18  O   UNL     1       2.231  10.989  23.947  1.00  0.00    -0.508 OA
ATOM     19  H   UNL     1       1.272  11.059  24.265  1.00  0.00     0.293 HD
ENDBRANCH  15  18
ENDBRANCH   1  12
BRANCH   2  20
ATOM     20  O   UNL     1       5.207  10.622  18.483  1.00  0.00    -0.502 OA
ATOM     21  H   UNL     1       6.020  10.678  19.085  1.00  0.00     0.293 HD
ENDBRANCH   2  20
BRANCH   6  22
ATOM     22  O   UNL     1       5.236  13.084  13.761  1.00  0.00    -0.507 OA
ATOM     23  H   UNL     1       6.221  13.192  13.573  1.00  0.00     0.293 HD
ENDBRANCH   6  22
BRANCH   8  24
ATOM     24  O   UNL     1       2.639  16.980  14.827  1.00  0.00    -0.508 OA
ATOM     25  H   UNL     1       1.872  17.024  14.165  1.00  0.00     0.293 HD
ENDBRANCH   8  24
TORSDOF 5
ENDMDL
