MODEL 1
REMARK VINA RESULT:    -2.443      0.000      0.000
REMARK INTER + INTRA:          -6.430
REMARK INTER:                  -4.729
REMARK INTRA:                  -1.701
REMARK UNBOUND:                -1.701
REMARK SMILES CCCCCCCCCCCCCCCCCC(=O)[O-]
REMARK SMILES IDX 10 1 11 2 12 3 13 4 14 5 15 6 16 7 17 8 18 9 19 10 20 11
REMARK SMILES IDX 9 12 8 13 7 14 6 15 5 16 4 17 3 18 2 19 1 20
REMARK H PARENT
REMARK Flexibility Score: inf
ROOT
ATOM      1  C   UNL     1      15.560  40.184   7.007  1.00  0.00     0.000 C 
ENDROOT
BRANCH   1   2
ATOM      2  C   UNL     1      14.839  38.847   6.759  1.00  0.00     0.000 C 
BRANCH   2   3
ATOM      3  C   UNL     1      13.817  38.437   7.838  1.00  0.00     0.000 C 
BRANCH   3   4
ATOM      4  C   UNL     1      14.102  38.969   9.255  1.00  0.00     0.000 C 
BRANCH   4   5
ATOM      5  C   UNL     1      14.949  38.003  10.098  1.00  0.00     0.000 C 
BRANCH   5   6
ATOM      6  C   UNL     1      15.686  38.706  11.250  1.00  0.00     0.000 C 
BRANCH   6   7
ATOM      7  C   UNL     1      15.708  37.891  12.561  1.00  0.00     0.006 C 
BRANCH   7   8
ATOM      8  C   UNL     1      17.033  37.140  12.752  1.00  0.00     0.053 C 
BRANCH   8   9
ATOM      9  C   UNL     1      16.828  35.668  12.593  1.00  0.00     0.041 C 
ATOM     10  O   UNL     1      16.797  35.151  11.444  1.00  0.00    -0.550 OA
ATOM     11  O   UNL     1      16.722  34.856  13.715  1.00  0.00    -0.550 OA
ENDBRANCH   8   9
ENDBRANCH   7   8
ENDBRANCH   6   7
ENDBRANCH   5   6
ENDBRANCH   4   5
ENDBRANCH   3   4
ENDBRANCH   2   3
ENDBRANCH   1   2
BRANCH   1  12
ATOM     12  C   UNL     1      16.916  40.010   7.714  1.00  0.00     0.000 C 
BRANCH  12  13
ATOM     13  C   UNL     1      17.115  40.999   8.876  1.00  0.00    -0.000 C 
BRANCH  13  14
ATOM     14  C   UNL     1      16.154  42.205   8.888  1.00  0.00    -0.000 C 
BRANCH  14  15
ATOM     15  C   UNL     1      16.005  42.910  10.248  1.00  0.00    -0.000 C 
BRANCH  15  16
ATOM     16  C   UNL     1      16.437  42.025  11.428  1.00  0.00    -0.000 C 
BRANCH  16  17
ATOM     17  C   UNL     1      17.124  42.859  12.516  1.00  0.00    -0.000 C 
BRANCH  17  18
ATOM     18  C   UNL     1      17.117  42.118  13.861  1.00  0.00    -0.000 C 
BRANCH  18  19
ATOM     19  C   UNL     1      15.842  41.286  14.070  1.00  0.00    -0.003 C 
ATOM     20  C   UNL     1      14.578  42.145  14.125  1.00  0.00     0.004 C 
ENDBRANCH  18  19
ENDBRANCH  17  18
ENDBRANCH  16  17
ENDBRANCH  15  16
ENDBRANCH  14  15
ENDBRANCH  13  14
ENDBRANCH  12  13
ENDBRANCH   1  12
TORSDOF 16
ENDMDL
MODEL 2
REMARK VINA RESULT:    -1.815      5.561      8.333
REMARK INTER + INTRA:          -5.215
REMARK INTER:                  -4.417
REMARK INTRA:                  -0.798
REMARK UNBOUND:                -1.701
REMARK SMILES CCCCCCCCCCCCCCCCCC(=O)[O-]
REMARK SMILES IDX 10 1 11 2 12 3 13 4 14 5 15 6 16 7 17 8 18 9 19 10 20 11
REMARK SMILES IDX 9 12 8 13 7 14 6 15 5 16 4 17 3 18 2 19 1 20
REMARK H PARENT
REMARK Flexibility Score: inf
ROOT
ATOM      1  C   UNL     1      14.091  41.749   5.774  1.00  0.00     0.000 C 
ENDROOT
BRANCH   1   2
ATOM      2  C   UNL     1      15.492  41.424   6.322  1.00  0.00     0.000 C 
BRANCH   2   3
ATOM      3  C   UNL     1      15.625  40.061   7.030  1.00  0.00     0.000 C 
BRANCH   3   4
ATOM      4  C   UNL     1      14.580  39.004   6.631  1.00  0.00     0.000 C 
BRANCH   4   5
ATOM      5  C   UNL     1      13.871  38.376   7.842  1.00  0.00     0.000 C 
BRANCH   5   6
ATOM      6  C   UNL     1      14.493  38.800   9.182  1.00  0.00     0.000 C 
BRANCH   6   7
ATOM      7  C   UNL     1      14.028  37.944  10.380  1.00  0.00     0.006 C 
BRANCH   7   8
ATOM      8  C   UNL     1      15.183  37.612  11.336  1.00  0.00     0.053 C 
BRANCH   8   9
ATOM      9  C   UNL     1      14.842  38.024  12.732  1.00  0.00     0.041 C 
ATOM     10  O   UNL     1      13.678  38.414  13.013  1.00  0.00    -0.550 OA
ATOM     11  O   UNL     1      15.797  37.931  13.736  1.00  0.00    -0.550 OA
ENDBRANCH   8   9
ENDBRANCH   7   8
ENDBRANCH   6   7
ENDBRANCH   5   6
ENDBRANCH   4   5
ENDBRANCH   3   4
ENDBRANCH   2   3
ENDBRANCH   1   2
BRANCH   1  12
ATOM     12  C   UNL     1      14.129  42.367   4.365  1.00  0.00     0.000 C 
BRANCH  12  13
ATOM     13  C   UNL     1      12.820  42.155   3.584  1.00  0.00    -0.000 C 
BRANCH  13  14
ATOM     14  C   UNL     1      12.983  41.977   2.061  1.00  0.00    -0.000 C 
BRANCH  14  15
ATOM     15  C   UNL     1      13.277  43.270   1.279  1.00  0.00    -0.000 C 
BRANCH  15  16
ATOM     16  C   UNL     1      12.594  43.302  -0.097  1.00  0.00    -0.000 C 
BRANCH  16  17
ATOM     17  C   UNL     1      12.463  44.741  -0.611  1.00  0.00    -0.000 C 
BRANCH  17  18
ATOM     18  C   UNL     1      13.554  45.640  -0.009  1.00  0.00    -0.000 C 
BRANCH  18  19
ATOM     19  C   UNL     1      14.132  46.631  -1.031  1.00  0.00    -0.003 C 
ATOM     20  C   UNL     1      15.659  46.578  -1.106  1.00  0.00     0.004 C 
ENDBRANCH  18  19
ENDBRANCH  17  18
ENDBRANCH  16  17
ENDBRANCH  15  16
ENDBRANCH  14  15
ENDBRANCH  13  14
ENDBRANCH  12  13
ENDBRANCH   1  12
TORSDOF 16
ENDMDL
MODEL 3
REMARK VINA RESULT:    -1.753      2.833      4.844
REMARK INTER + INTRA:          -5.095
REMARK INTER:                  -3.662
REMARK INTRA:                  -1.433
REMARK UNBOUND:                -1.701
REMARK SMILES CCCCCCCCCCCCCCCCCC(=O)[O-]
REMARK SMILES IDX 10 1 11 2 12 3 13 4 14 5 15 6 16 7 17 8 18 9 19 10 20 11
REMARK SMILES IDX 9 12 8 13 7 14 6 15 5 16 4 17 3 18 2 19 1 20
REMARK H PARENT
REMARK Flexibility Score: inf
ROOT
ATOM      1  C   UNL     1      13.926  38.696   8.009  1.00  0.00     0.000 C 
ENDROOT
BRANCH   1   2
ATOM      2  C   UNL     1      14.810  39.151   6.834  1.00  0.00     0.000 C 
BRANCH   2   3
ATOM      3  C   UNL     1      14.774  40.661   6.526  1.00  0.00     0.000 C 
BRANCH   3   4
ATOM      4  C   UNL     1      15.780  41.520   7.315  1.00  0.00     0.000 C 
BRANCH   4   5
ATOM      5  C   UNL     1      15.105  42.426   8.358  1.00  0.00     0.000 C 
BRANCH   5   6
ATOM      6  C   UNL     1      16.058  43.486   8.932  1.00  0.00     0.000 C 
BRANCH   6   7
ATOM      7  C   UNL     1      17.075  42.921   9.947  1.00  0.00     0.006 C 
BRANCH   7   8
ATOM      8  C   UNL     1      17.125  43.749  11.238  1.00  0.00     0.053 C 
BRANCH   8   9
ATOM      9  C   UNL     1      16.382  43.056  12.335  1.00  0.00     0.041 C 
ATOM     10  O   UNL     1      16.973  42.224  13.074  1.00  0.00    -0.550 OA
ATOM     11  O   UNL     1      15.049  43.363  12.574  1.00  0.00    -0.550 OA
ENDBRANCH   8   9
ENDBRANCH   7   8
ENDBRANCH   6   7
ENDBRANCH   5   6
ENDBRANCH   4   5
ENDBRANCH   3   4
ENDBRANCH   2   3
ENDBRANCH   1   2
BRANCH   1  12
ATOM     12  C   UNL     1      14.678  38.678   9.351  1.00  0.00     0.000 C 
BRANCH  12  13
ATOM     13  C   UNL     1      16.207  38.698   9.179  1.00  0.00    -0.000 C 
BRANCH  13  14
ATOM     14  C   UNL     1      16.974  39.564  10.199  1.00  0.00    -0.000 C 
BRANCH  14  15
ATOM     15  C   UNL     1      16.315  39.681  11.585  1.00  0.00    -0.000 C 
BRANCH  15  16
ATOM     16  C   UNL     1      16.928  38.721  12.618  1.00  0.00    -0.000 C 
BRANCH  16  17
ATOM     17  C   UNL     1      15.930  37.624  13.006  1.00  0.00    -0.000 C 
BRANCH  17  18
ATOM     18  C   UNL     1      14.529  37.939  12.461  1.00  0.00    -0.000 C 
BRANCH  18  19
ATOM     19  C   UNL     1      13.507  38.205  13.579  1.00  0.00    -0.003 C 
ATOM     20  C   UNL     1      13.587  39.630  14.125  1.00  0.00     0.004 C 
ENDBRANCH  18  19
ENDBRANCH  17  18
ENDBRANCH  16  17
ENDBRANCH  15  16
ENDBRANCH  14  15
ENDBRANCH  13  14
ENDBRANCH  12  13
ENDBRANCH   1  12
TORSDOF 16
ENDMDL
MODEL 4
REMARK VINA RESULT:    -1.745      2.614      5.156
REMARK INTER + INTRA:          -5.079
REMARK INTER:                  -4.693
REMARK INTRA:                  -0.386
REMARK UNBOUND:                -1.701
REMARK SMILES CCCCCCCCCCCCCCCCCC(=O)[O-]
REMARK SMILES IDX 10 1 11 2 12 3 13 4 14 5 15 6 16 7 17 8 18 9 19 10 20 11
REMARK SMILES IDX 9 12 8 13 7 14 6 15 5 16 4 17 3 18 2 19 1 20
REMARK H PARENT
REMARK Flexibility Score: inf
ROOT
ATOM      1  C   UNL     1      13.500  38.626   7.328  1.00  0.00     0.000 C 
ENDROOT
BRANCH   1   2
ATOM      2  C   UNL     1      14.812  39.178   6.744  1.00  0.00     0.000 C 
BRANCH   2   3
ATOM      3  C   UNL     1      15.700  39.958   7.734  1.00  0.00     0.000 C 
BRANCH   3   4
ATOM      4  C   UNL     1      16.625  41.014   7.102  1.00  0.00     0.000 C 
BRANCH   4   5
ATOM      5  C   UNL     1      16.980  42.155   8.070  1.00  0.00     0.000 C 
BRANCH   5   6
ATOM      6  C   UNL     1      16.087  42.174   9.321  1.00  0.00     0.000 C 
BRANCH   6   7
ATOM      7  C   UNL     1      16.765  42.804  10.557  1.00  0.00     0.006 C 
BRANCH   7   8
ATOM      8  C   UNL     1      16.995  41.779  11.675  1.00  0.00     0.053 C 
BRANCH   8   9
ATOM      9  C   UNL     1      16.386  42.254  12.956  1.00  0.00     0.041 C 
ATOM     10  O   UNL     1      15.556  41.534  13.570  1.00  0.00    -0.550 OA
ATOM     11  O   UNL     1      16.773  43.473  13.498  1.00  0.00    -0.550 OA
ENDBRANCH   8   9
ENDBRANCH   7   8
ENDBRANCH   6   7
ENDBRANCH   5   6
ENDBRANCH   4   5
ENDBRANCH   3   4
ENDBRANCH   2   3
ENDBRANCH   1   2
BRANCH   1  12
ATOM     12  C   UNL     1      13.712  37.835   8.631  1.00  0.00     0.000 C 
BRANCH  12  13
ATOM     13  C   UNL     1      14.531  38.614   9.676  1.00  0.00    -0.000 C 
BRANCH  13  14
ATOM     14  C   UNL     1      14.759  37.883  11.014  1.00  0.00    -0.000 C 
BRANCH  14  15
ATOM     15  C   UNL     1      14.580  38.750  12.273  1.00  0.00    -0.000 C 
BRANCH  15  16
ATOM     16  C   UNL     1      14.738  37.949  13.575  1.00  0.00    -0.000 C 
BRANCH  16  17
ATOM     17  C   UNL     1      16.164  38.072  14.125  1.00  0.00    -0.000 C 
BRANCH  17  18
ATOM     18  C   UNL     1      17.125  37.141  13.370  1.00  0.00    -0.000 C 
BRANCH  18  19
ATOM     19  C   UNL     1      16.568  35.717  13.218  1.00  0.00    -0.003 C 
ATOM     20  C   UNL     1      16.928  35.083  11.873  1.00  0.00     0.004 C 
ENDBRANCH  18  19
ENDBRANCH  17  18
ENDBRANCH  16  17
ENDBRANCH  15  16
ENDBRANCH  14  15
ENDBRANCH  13  14
ENDBRANCH  12  13
ENDBRANCH   1  12
TORSDOF 16
ENDMDL
MODEL 5
REMARK VINA RESULT:    -1.543      6.095      8.751
REMARK INTER + INTRA:          -4.688
REMARK INTER:                  -3.839
REMARK INTRA:                  -0.849
REMARK UNBOUND:                -1.701
REMARK SMILES CCCCCCCCCCCCCCCCCC(=O)[O-]
REMARK SMILES IDX 10 1 11 2 12 3 13 4 14 5 15 6 16 7 17 8 18 9 19 10 20 11
REMARK SMILES IDX 9 12 8 13 7 14 6 15 5 16 4 17 3 18 2 19 1 20
REMARK H PARENT
REMARK Flexibility Score: inf
ROOT
ATOM      1  C   UNL     1      13.342  41.992   4.292  1.00  0.00     0.000 C 
ENDROOT
BRANCH   1   2
ATOM      2  C   UNL     1      14.322  42.101   5.473  1.00  0.00     0.000 C 
BRANCH   2   3
ATOM      3  C   UNL     1      14.511  40.811   6.297  1.00  0.00     0.000 C 
BRANCH   3   4
ATOM      4  C   UNL     1      15.560  40.892   7.420  1.00  0.00     0.000 C 
BRANCH   4   5
ATOM      5  C   UNL     1      15.661  39.594   8.239  1.00  0.00     0.000 C 
BRANCH   5   6
ATOM      6  C   UNL     1      14.303  38.898   8.423  1.00  0.00     0.000 C 
BRANCH   6   7
ATOM      7  C   UNL     1      14.194  38.087   9.732  1.00  0.00     0.006 C 
BRANCH   7   8
ATOM      8  C   UNL     1      15.149  38.608  10.816  1.00  0.00     0.053 C 
BRANCH   8   9
ATOM      9  C   UNL     1      14.759  38.076  12.158  1.00  0.00     0.041 C 
ATOM     10  O   UNL     1      15.510  37.265  12.762  1.00  0.00    -0.550 OA
ATOM     11  O   UNL     1      13.588  38.513  12.765  1.00  0.00    -0.550 OA
ENDBRANCH   8   9
ENDBRANCH   7   8
ENDBRANCH   6   7
ENDBRANCH   5   6
ENDBRANCH   4   5
ENDBRANCH   3   4
ENDBRANCH   2   3
ENDBRANCH   1   2
BRANCH   1  12
ATOM     12  C   UNL     1      13.790  42.808   3.067  1.00  0.00     0.000 C 
BRANCH  12  13
ATOM     13  C   UNL     1      12.970  42.489   1.804  1.00  0.00    -0.000 C 
BRANCH  13  14
ATOM     14  C   UNL     1      13.381  43.267   0.537  1.00  0.00    -0.000 C 
BRANCH  14  15
ATOM     15  C   UNL     1      12.220  43.669  -0.389  1.00  0.00    -0.000 C 
BRANCH  15  16
ATOM     16  C   UNL     1      12.293  45.138  -0.834  1.00  0.00    -0.000 C 
BRANCH  16  17
ATOM     17  C   UNL     1      13.504  45.840  -0.209  1.00  0.00    -0.000 C 
BRANCH  17  18
ATOM     18  C   UNL     1      14.261  46.667  -1.259  1.00  0.00    -0.000 C 
BRANCH  18  19
ATOM     19  C   UNL     1      15.785  46.485  -1.167  1.00  0.00    -0.003 C 
ATOM     20  C   UNL     1      16.201  45.562  -0.021  1.00  0.00     0.004 C 
ENDBRANCH  18  19
ENDBRANCH  17  18
ENDBRANCH  16  17
ENDBRANCH  15  16
ENDBRANCH  14  15
ENDBRANCH  13  14
ENDBRANCH  12  13
ENDBRANCH   1  12
TORSDOF 16
ENDMDL
MODEL 6
REMARK VINA RESULT:    -1.459      7.426     10.159
REMARK INTER + INTRA:          -4.525
REMARK INTER:                  -3.235
REMARK INTRA:                  -1.291
REMARK UNBOUND:                -1.701
REMARK SMILES CCCCCCCCCCCCCCCCCC(=O)[O-]
REMARK SMILES IDX 10 1 11 2 12 3 13 4 14 5 15 6 16 7 17 8 18 9 19 10 20 11
REMARK SMILES IDX 9 12 8 13 7 14 6 15 5 16 4 17 3 18 2 19 1 20
REMARK H PARENT
REMARK Flexibility Score: inf
ROOT
ATOM      1  C   UNL     1      13.778  42.531   4.327  1.00  0.00     0.000 C 
ENDROOT
BRANCH   1   2
ATOM      2  C   UNL     1      12.719  42.108   3.293  1.00  0.00     0.000 C 
BRANCH   2   3
ATOM      3  C   UNL     1      13.195  42.094   1.827  1.00  0.00     0.000 C 
BRANCH   3   4
ATOM      4  C   UNL     1      13.209  43.464   1.123  1.00  0.00     0.000 C 
BRANCH   4   5
ATOM      5  C   UNL     1      12.306  43.506  -0.121  1.00  0.00     0.000 C 
BRANCH   5   6
ATOM      6  C   UNL     1      12.419  44.830  -0.894  1.00  0.00     0.000 C 
BRANCH   6   7
ATOM      7  C   UNL     1      13.363  45.856  -0.231  1.00  0.00     0.006 C 
BRANCH   7   8
ATOM      8  C   UNL     1      14.565  46.197  -1.123  1.00  0.00     0.053 C 
BRANCH   8   9
ATOM      9  C   UNL     1      15.837  46.126  -0.339  1.00  0.00     0.041 C 
ATOM     10  O   UNL     1      16.243  45.024   0.114  1.00  0.00    -0.550 OA
ATOM     11  O   UNL     1      16.600  47.271  -0.150  1.00  0.00    -0.550 OA
ENDBRANCH   8   9
ENDBRANCH   7   8
ENDBRANCH   6   7
ENDBRANCH   5   6
ENDBRANCH   4   5
ENDBRANCH   3   4
ENDBRANCH   2   3
ENDBRANCH   1   2
BRANCH   1  12
ATOM     12  C   UNL     1      14.010  41.467   5.414  1.00  0.00     0.000 C 
BRANCH  12  13
ATOM     13  C   UNL     1      14.893  41.975   6.568  1.00  0.00    -0.000 C 
BRANCH  13  14
ATOM     14  C   UNL     1      16.303  41.356   6.642  1.00  0.00    -0.000 C 
BRANCH  14  15
ATOM     15  C   UNL     1      17.024  41.529   7.990  1.00  0.00    -0.000 C 
BRANCH  15  16
ATOM     16  C   UNL     1      16.125  41.202   9.193  1.00  0.00    -0.000 C 
BRANCH  16  17
ATOM     17  C   UNL     1      16.598  39.926   9.901  1.00  0.00    -0.000 C 
BRANCH  17  18
ATOM     18  C   UNL     1      15.687  38.739   9.556  1.00  0.00    -0.000 C 
BRANCH  18  19
ATOM     19  C   UNL     1      14.349  39.180   8.941  1.00  0.00    -0.003 C 
ATOM     20  C   UNL     1      14.045  38.472   7.620  1.00  0.00     0.004 C 
ENDBRANCH  18  19
ENDBRANCH  17  18
ENDBRANCH  16  17
ENDBRANCH  15  16
ENDBRANCH  14  15
ENDBRANCH  13  14
ENDBRANCH  12  13
ENDBRANCH   1  12
TORSDOF 16
ENDMDL
MODEL 7
REMARK VINA RESULT:    -1.339      2.376      3.344
REMARK INTER + INTRA:          -4.294
REMARK INTER:                  -3.610
REMARK INTRA:                  -0.684
REMARK UNBOUND:                -1.701
REMARK SMILES CCCCCCCCCCCCCCCCCC(=O)[O-]
REMARK SMILES IDX 10 1 11 2 12 3 13 4 14 5 15 6 16 7 17 8 18 9 19 10 20 11
REMARK SMILES IDX 9 12 8 13 7 14 6 15 5 16 4 17 3 18 2 19 1 20
REMARK H PARENT
REMARK Flexibility Score: inf
ROOT
ATOM      1  C   UNL     1      16.541  42.557   8.109  1.00  0.00     0.000 C 
ENDROOT
BRANCH   1   2
ATOM      2  C   UNL     1      15.990  41.212   8.614  1.00  0.00     0.000 C 
BRANCH   2   3
ATOM      3  C   UNL     1      15.595  40.205   7.515  1.00  0.00     0.000 C 
BRANCH   3   4
ATOM      4  C   UNL     1      14.780  38.990   7.994  1.00  0.00     0.000 C 
BRANCH   4   5
ATOM      5  C   UNL     1      14.328  39.112   9.459  1.00  0.00     0.000 C 
BRANCH   5   6
ATOM      6  C   UNL     1      15.406  38.654  10.455  1.00  0.00     0.000 C 
BRANCH   6   7
ATOM      7  C   UNL     1      15.138  37.260  11.061  1.00  0.00     0.006 C 
BRANCH   7   8
ATOM      8  C   UNL     1      15.205  37.274  12.595  1.00  0.00     0.053 C 
BRANCH   8   9
ATOM      9  C   UNL     1      14.350  38.369  13.147  1.00  0.00     0.041 C 
ATOM     10  O   UNL     1      13.095  38.294  13.073  1.00  0.00    -0.550 OA
ATOM     11  O   UNL     1      14.938  39.452  13.789  1.00  0.00    -0.550 OA
ENDBRANCH   8   9
ENDBRANCH   7   8
ENDBRANCH   6   7
ENDBRANCH   5   6
ENDBRANCH   4   5
ENDBRANCH   3   4
ENDBRANCH   2   3
ENDBRANCH   1   2
BRANCH   1  12
ATOM     12  C   UNL     1      16.551  43.645   9.198  1.00  0.00     0.000 C 
BRANCH  12  13
ATOM     13  C   UNL     1      15.862  43.196  10.498  1.00  0.00    -0.000 C 
BRANCH  13  14
ATOM     14  C   UNL     1      16.695  42.260  11.397  1.00  0.00    -0.000 C 
BRANCH  14  15
ATOM     15  C   UNL     1      16.425  42.392  12.907  1.00  0.00    -0.000 C 
BRANCH  15  16
ATOM     16  C   UNL     1      16.098  43.833  13.330  1.00  0.00    -0.000 C 
BRANCH  16  17
ATOM     17  C   UNL     1      14.788  43.886  14.125  1.00  0.00    -0.000 C 
BRANCH  17  18
ATOM     18  C   UNL     1      13.660  44.502  13.283  1.00  0.00    -0.000 C 
BRANCH  18  19
ATOM     19  C   UNL     1      12.799  45.492  14.083  1.00  0.00    -0.003 C 
ATOM     20  C   UNL     1      13.401  46.897  14.125  1.00  0.00     0.004 C 
ENDBRANCH  18  19
ENDBRANCH  17  18
ENDBRANCH  16  17
ENDBRANCH  15  16
ENDBRANCH  14  15
ENDBRANCH  13  14
ENDBRANCH  12  13
ENDBRANCH   1  12
TORSDOF 16
ENDMDL
MODEL 8
REMARK VINA RESULT:    -0.765      7.544     10.243
REMARK INTER + INTRA:          -3.182
REMARK INTER:                  -2.475
REMARK INTRA:                  -0.707
REMARK UNBOUND:                -1.701
REMARK SMILES CCCCCCCCCCCCCCCCCC(=O)[O-]
REMARK SMILES IDX 10 1 11 2 12 3 13 4 14 5 15 6 16 7 17 8 18 9 19 10 20 11
REMARK SMILES IDX 9 12 8 13 7 14 6 15 5 16 4 17 3 18 2 19 1 20
REMARK H PARENT
REMARK Flexibility Score: inf
ROOT
ATOM      1  C   UNL     1      14.083  42.414   4.586  1.00  0.00     0.000 C 
ENDROOT
BRANCH   1   2
ATOM      2  C   UNL     1      12.851  42.125   3.709  1.00  0.00     0.000 C 
BRANCH   2   3
ATOM      3  C   UNL     1      13.138  41.941   2.205  1.00  0.00     0.000 C 
BRANCH   3   4
ATOM      4  C   UNL     1      13.386  43.239   1.416  1.00  0.00     0.000 C 
BRANCH   4   5
ATOM      5  C   UNL     1      12.530  43.337   0.142  1.00  0.00     0.000 C 
BRANCH   5   6
ATOM      6  C   UNL     1      12.645  44.706  -0.549  1.00  0.00     0.000 C 
BRANCH   6   7
ATOM      7  C   UNL     1      13.708  45.631   0.082  1.00  0.00     0.006 C 
BRANCH   7   8
ATOM      8  C   UNL     1      14.270  46.640  -0.930  1.00  0.00     0.053 C 
BRANCH   8   9
ATOM      9  C   UNL     1      15.679  47.001  -0.582  1.00  0.00     0.041 C 
ATOM     10  O   UNL     1      16.145  48.125  -0.909  1.00  0.00    -0.550 OA
ATOM     11  O   UNL     1      16.463  46.117   0.147  1.00  0.00    -0.550 OA
ENDBRANCH   8   9
ENDBRANCH   7   8
ENDBRANCH   6   7
ENDBRANCH   5   6
ENDBRANCH   4   5
ENDBRANCH   3   4
ENDBRANCH   2   3
ENDBRANCH   1   2
BRANCH   1  12
ATOM     12  C   UNL     1      14.120  41.558   5.864  1.00  0.00     0.000 C 
BRANCH  12  13
ATOM     13  C   UNL     1      15.461  41.659   6.612  1.00  0.00    -0.000 C 
BRANCH  13  14
ATOM     14  C   UNL     1      15.930  40.363   7.304  1.00  0.00    -0.000 C 
BRANCH  14  15
ATOM     15  C   UNL     1      15.104  39.108   6.969  1.00  0.00    -0.000 C 
BRANCH  15  16
ATOM     16  C   UNL     1      14.132  38.717   8.093  1.00  0.00    -0.000 C 
BRANCH  16  17
ATOM     17  C   UNL     1      14.740  39.008   9.470  1.00  0.00    -0.000 C 
BRANCH  17  18
ATOM     18  C   UNL     1      14.517  37.828  10.428  1.00  0.00    -0.000 C 
BRANCH  18  19
ATOM     19  C   UNL     1      14.208  38.283  11.864  1.00  0.00    -0.003 C 
ATOM     20  C   UNL     1      15.425  38.885  12.567  1.00  0.00     0.004 C 
ENDBRANCH  18  19
ENDBRANCH  17  18
ENDBRANCH  16  17
ENDBRANCH  15  16
ENDBRANCH  14  15
ENDBRANCH  13  14
ENDBRANCH  12  13
ENDBRANCH   1  12
TORSDOF 16
ENDMDL
