MODEL 1
REMARK VINA RESULT:    -3.594      0.000      0.000
REMARK INTER + INTRA:          -5.718
REMARK INTER:                  -5.170
REMARK INTRA:                  -0.547
REMARK UNBOUND:                -0.547
REMARK SMILES O=C(CO)[C@@H](O)[C@@H](O)[C@H](O)CO
REMARK SMILES IDX 7 1 9 2 11 3 12 4 10 6 5 8 2 9 1 10 3 11 4 12 6 14 8 16
REMARK H PARENT 12 5 10 7 4 13 6 15 8 17
REMARK Flexibility Score: inf
ROOT
ATOM      1  C   UNL     1      -4.379  -0.898   1.559  1.00  0.00     0.181 C 
ENDROOT
BRANCH   1   2
ATOM      2  C   UNL     1      -5.281  -2.165   1.459  1.00  0.00     0.171 C 
BRANCH   2   3
ATOM      3  C   UNL     1      -4.915  -3.121   0.309  1.00  0.00     0.190 C 
BRANCH   3   4
ATOM      4  O   UNL     1      -5.057  -2.485  -0.932  1.00  0.00    -0.394 OA
ATOM      5  H   UNL     1      -4.147  -2.185  -1.194  1.00  0.00     0.210 HD
ENDBRANCH   3   4
ENDBRANCH   2   3
BRANCH   2   6
ATOM      6  O   UNL     1      -5.271  -2.869   2.676  1.00  0.00    -0.388 OA
ATOM      7  H   UNL     1      -6.185  -2.820   3.059  1.00  0.00     0.211 HD
ENDBRANCH   2   6
ENDBRANCH   1   2
BRANCH   1   8
ATOM      8  C   UNL     1      -3.683  -0.699   2.934  1.00  0.00     0.214 C 
BRANCH   8   9
ATOM      9  C   UNL     1      -2.488   0.239   2.863  1.00  0.00     0.189 C 
ATOM     10  O   UNL     1      -2.374   0.999   1.913  1.00  0.00    -0.294 OA
BRANCH   9  11
ATOM     11  C   UNL     1      -1.432   0.280   3.940  1.00  0.00     0.234 C 
BRANCH  11  12
ATOM     12  O   UNL     1      -0.136   0.218   3.408  1.00  0.00    -0.388 OA
ATOM     13  H   UNL     1       0.470   0.618   4.085  1.00  0.00     0.211 HD
ENDBRANCH  11  12
ENDBRANCH   9  11
ENDBRANCH   8   9
BRANCH   8  14
ATOM     14  O   UNL     1      -4.615  -0.255   3.890  1.00  0.00    -0.382 OA
ATOM     15  H   UNL     1      -4.833  -1.033   4.467  1.00  0.00     0.211 HD
ENDBRANCH   8  14
ENDBRANCH   1   8
BRANCH   1  16
ATOM     16  O   UNL     1      -3.371  -0.988   0.582  1.00  0.00    -0.387 OA
ATOM     17  H   UNL     1      -2.946  -1.880   0.675  1.00  0.00     0.211 HD
ENDBRANCH   1  16
TORSDOF 10
ENDMDL
MODEL 2
REMARK VINA RESULT:    -3.094      1.034      4.776
REMARK INTER + INTRA:          -4.998
REMARK INTER:                  -5.160
REMARK INTRA:                   0.161
REMARK UNBOUND:                -0.547
REMARK SMILES O=C(CO)[C@@H](O)[C@@H](O)[C@H](O)CO
REMARK SMILES IDX 7 1 9 2 11 3 12 4 10 6 5 8 2 9 1 10 3 11 4 12 6 14 8 16
REMARK H PARENT 12 5 10 7 4 13 6 15 8 17
REMARK Flexibility Score: inf
ROOT
ATOM      1  C   UNL     1      -3.670  -0.157   2.650  1.00  0.00     0.181 C 
ENDROOT
BRANCH   1   2
ATOM      2  C   UNL     1      -2.333  -0.143   3.450  1.00  0.00     0.171 C 
BRANCH   2   3
ATOM      3  C   UNL     1      -1.124   0.399   2.667  1.00  0.00     0.190 C 
BRANCH   3   4
ATOM      4  O   UNL     1       0.053   0.276   3.419  1.00  0.00    -0.394 OA
ATOM      5  H   UNL     1       0.773   0.062   2.770  1.00  0.00     0.210 HD
ENDBRANCH   3   4
ENDBRANCH   2   3
BRANCH   2   6
ATOM      6  O   UNL     1      -2.485   0.587   4.643  1.00  0.00    -0.388 OA
ATOM      7  H   UNL     1      -3.189   0.140   5.182  1.00  0.00     0.211 HD
ENDBRANCH   2   6
ENDBRANCH   1   2
BRANCH   1   8
ATOM      8  C   UNL     1      -3.754  -1.238   1.537  1.00  0.00     0.214 C 
BRANCH   8   9
ATOM      9  C   UNL     1      -4.822  -2.286   1.811  1.00  0.00     0.189 C 
ATOM     10  O   UNL     1      -5.151  -2.526   2.963  1.00  0.00    -0.294 OA
BRANCH   9  11
ATOM     11  C   UNL     1      -5.510  -3.042   0.700  1.00  0.00     0.234 C 
BRANCH  11  12
ATOM     12  O   UNL     1      -4.716  -3.121  -0.453  1.00  0.00    -0.388 OA
ATOM     13  H   UNL     1      -4.297  -2.229  -0.572  1.00  0.00     0.211 HD
ENDBRANCH  11  12
ENDBRANCH   9  11
ENDBRANCH   8   9
BRANCH   8  14
ATOM     14  O   UNL     1      -3.954  -0.631   0.284  1.00  0.00    -0.382 OA
ATOM     15  H   UNL     1      -3.443   0.220   0.288  1.00  0.00     0.211 HD
ENDBRANCH   8  14
ENDBRANCH   1   8
BRANCH   1  16
ATOM     16  O   UNL     1      -4.727  -0.388   3.549  1.00  0.00    -0.387 OA
ATOM     17  H   UNL     1      -4.745  -1.362   3.742  1.00  0.00     0.211 HD
ENDBRANCH   1  16
TORSDOF 10
ENDMDL
MODEL 3
REMARK VINA RESULT:    -2.684      1.253      4.474
REMARK INTER + INTRA:          -4.408
REMARK INTER:                  -3.909
REMARK INTRA:                  -0.498
REMARK UNBOUND:                -0.547
REMARK SMILES O=C(CO)[C@@H](O)[C@@H](O)[C@H](O)CO
REMARK SMILES IDX 7 1 9 2 11 3 12 4 10 6 5 8 2 9 1 10 3 11 4 12 6 14 8 16
REMARK H PARENT 12 5 10 7 4 13 6 15 8 17
REMARK Flexibility Score: inf
ROOT
ATOM      1  C   UNL     1      -3.547  -0.518   2.219  1.00  0.00     0.181 C 
ENDROOT
BRANCH   1   2
ATOM      2  C   UNL     1      -2.861  -0.383   3.612  1.00  0.00     0.171 C 
BRANCH   2   3
ATOM      3  C   UNL     1      -1.512   0.358   3.592  1.00  0.00     0.190 C 
BRANCH   3   4
ATOM      4  O   UNL     1      -1.103   0.613   2.276  1.00  0.00    -0.394 OA
ATOM      5  H   UNL     1      -1.868   0.361   1.696  1.00  0.00     0.210 HD
ENDBRANCH   3   4
ENDBRANCH   2   3
BRANCH   2   6
ATOM      6  O   UNL     1      -3.729   0.245   4.524  1.00  0.00    -0.388 OA
ATOM      7  H   UNL     1      -3.265   0.287   5.401  1.00  0.00     0.211 HD
ENDBRANCH   2   6
ENDBRANCH   1   2
BRANCH   1   8
ATOM      8  C   UNL     1      -4.897  -1.287   2.227  1.00  0.00     0.214 C 
BRANCH   8   9
ATOM      9  C   UNL     1      -5.135  -2.077   0.949  1.00  0.00     0.189 C 
ATOM     10  O   UNL     1      -5.764  -3.124   0.996  1.00  0.00    -0.294 OA
BRANCH   9  11
ATOM     11  C   UNL     1      -4.631  -1.608  -0.393  1.00  0.00     0.234 C 
BRANCH  11  12
ATOM     12  O   UNL     1      -5.591  -0.850  -1.080  1.00  0.00    -0.388 OA
ATOM     13  H   UNL     1      -5.093  -0.241  -1.685  1.00  0.00     0.211 HD
ENDBRANCH  11  12
ENDBRANCH   9  11
ENDBRANCH   8   9
BRANCH   8  14
ATOM     14  O   UNL     1      -4.974  -2.122   3.356  1.00  0.00    -0.382 OA
ATOM     15  H   UNL     1      -4.042  -2.314   3.640  1.00  0.00     0.211 HD
ENDBRANCH   8  14
ENDBRANCH   1   8
BRANCH   1  16
ATOM     16  O   UNL     1      -3.795   0.773   1.716  1.00  0.00    -0.387 OA
ATOM     17  H   UNL     1      -4.640   0.731   1.197  1.00  0.00     0.211 HD
ENDBRANCH   1  16
TORSDOF 10
ENDMDL
MODEL 4
REMARK VINA RESULT:    -2.483      1.272      4.783
REMARK INTER + INTRA:          -4.119
REMARK INTER:                  -3.607
REMARK INTRA:                  -0.513
REMARK UNBOUND:                -0.547
REMARK SMILES O=C(CO)[C@@H](O)[C@@H](O)[C@H](O)CO
REMARK SMILES IDX 7 1 9 2 11 3 12 4 10 6 5 8 2 9 1 10 3 11 4 12 6 14 8 16
REMARK H PARENT 12 5 10 7 4 13 6 15 8 17
REMARK Flexibility Score: inf
ROOT
ATOM      1  C   UNL     1      -4.586  -0.933   2.601  1.00  0.00     0.181 C 
ENDROOT
BRANCH   1   2
ATOM      2  C   UNL     1      -3.619   0.124   3.217  1.00  0.00     0.171 C 
BRANCH   2   3
ATOM      3  C   UNL     1      -2.335  -0.465   3.829  1.00  0.00     0.190 C 
BRANCH   3   4
ATOM      4  O   UNL     1      -1.249   0.400   3.634  1.00  0.00    -0.394 OA
ATOM      5  H   UNL     1      -0.688   0.326   4.449  1.00  0.00     0.210 HD
ENDBRANCH   3   4
ENDBRANCH   2   3
BRANCH   2   6
ATOM      6  O   UNL     1      -3.280   1.094   2.256  1.00  0.00    -0.388 OA
ATOM      7  H   UNL     1      -4.113   1.351   1.781  1.00  0.00     0.211 HD
ENDBRANCH   2   6
ENDBRANCH   1   2
BRANCH   1   8
ATOM      8  C   UNL     1      -4.026  -1.686   1.363  1.00  0.00     0.214 C 
BRANCH   8   9
ATOM      9  C   UNL     1      -5.119  -2.298   0.499  1.00  0.00     0.189 C 
ATOM     10  O   UNL     1      -5.887  -3.113   0.987  1.00  0.00    -0.294 OA
BRANCH   9  11
ATOM     11  C   UNL     1      -5.303  -1.923  -0.951  1.00  0.00     0.234 C 
BRANCH  11  12
ATOM     12  O   UNL     1      -5.619  -0.565  -1.107  1.00  0.00    -0.388 OA
ATOM     13  H   UNL     1      -4.904  -0.170  -1.671  1.00  0.00     0.211 HD
ENDBRANCH  11  12
ENDBRANCH   9  11
ENDBRANCH   8   9
BRANCH   8  14
ATOM     14  O   UNL     1      -3.205  -0.832   0.604  1.00  0.00    -0.382 OA
ATOM     15  H   UNL     1      -3.184   0.042   1.073  1.00  0.00     0.211 HD
ENDBRANCH   8  14
ENDBRANCH   1   8
BRANCH   1  16
ATOM     16  O   UNL     1      -4.884  -1.893   3.585  1.00  0.00    -0.387 OA
ATOM     17  H   UNL     1      -4.490  -1.575   4.439  1.00  0.00     0.211 HD
ENDBRANCH   1  16
TORSDOF 10
ENDMDL
MODEL 5
REMARK VINA RESULT:    -2.051      1.270      4.578
REMARK INTER + INTRA:          -3.497
REMARK INTER:                  -3.159
REMARK INTRA:                  -0.338
REMARK UNBOUND:                -0.547
REMARK SMILES O=C(CO)[C@@H](O)[C@@H](O)[C@H](O)CO
REMARK SMILES IDX 7 1 9 2 11 3 12 4 10 6 5 8 2 9 1 10 3 11 4 12 6 14 8 16
REMARK H PARENT 12 5 10 7 4 13 6 15 8 17
REMARK Flexibility Score: inf
ROOT
ATOM      1  C   UNL     1      -3.617  -0.098   2.471  1.00  0.00     0.181 C 
ENDROOT
BRANCH   1   2
ATOM      2  C   UNL     1      -2.325  -0.153   3.340  1.00  0.00     0.171 C 
BRANCH   2   3
ATOM      3  C   UNL     1      -1.051   0.330   2.624  1.00  0.00     0.190 C 
BRANCH   3   4
ATOM      4  O   UNL     1       0.064   0.228   3.468  1.00  0.00    -0.394 OA
ATOM      5  H   UNL     1      -0.039   0.944   4.147  1.00  0.00     0.210 HD
ENDBRANCH   3   4
ENDBRANCH   2   3
BRANCH   2   6
ATOM      6  O   UNL     1      -2.504   0.582   4.527  1.00  0.00    -0.388 OA
ATOM      7  H   UNL     1      -2.313  -0.025   5.288  1.00  0.00     0.211 HD
ENDBRANCH   2   6
ENDBRANCH   1   2
BRANCH   1   8
ATOM      8  C   UNL     1      -3.753  -1.244   1.431  1.00  0.00     0.214 C 
BRANCH   8   9
ATOM      9  C   UNL     1      -5.104  -1.940   1.490  1.00  0.00     0.189 C 
ATOM     10  O   UNL     1      -6.018  -1.544   0.781  1.00  0.00    -0.294 OA
BRANCH   9  11
ATOM     11  C   UNL     1      -5.362  -3.124   2.390  1.00  0.00     0.234 C 
BRANCH  11  12
ATOM     12  O   UNL     1      -4.940  -2.885   3.706  1.00  0.00    -0.388 OA
ATOM     13  H   UNL     1      -5.553  -3.392   4.298  1.00  0.00     0.211 HD
ENDBRANCH  11  12
ENDBRANCH   9  11
ENDBRANCH   8   9
BRANCH   8  14
ATOM     14  O   UNL     1      -3.494  -0.759   0.136  1.00  0.00    -0.382 OA
ATOM     15  H   UNL     1      -2.761  -0.093   0.216  1.00  0.00     0.211 HD
ENDBRANCH   8  14
ENDBRANCH   1   8
BRANCH   1  16
ATOM     16  O   UNL     1      -4.734  -0.164   3.324  1.00  0.00    -0.387 OA
ATOM     17  H   UNL     1      -4.854  -1.115   3.583  1.00  0.00     0.211 HD
ENDBRANCH   1  16
TORSDOF 10
ENDMDL
MODEL 6
REMARK VINA RESULT:    -1.651      1.167      1.936
REMARK INTER + INTRA:          -2.923
REMARK INTER:                  -2.247
REMARK INTRA:                  -0.676
REMARK UNBOUND:                -0.547
REMARK SMILES O=C(CO)[C@@H](O)[C@@H](O)[C@H](O)CO
REMARK SMILES IDX 7 1 9 2 11 3 12 4 10 6 5 8 2 9 1 10 3 11 4 12 6 14 8 16
REMARK H PARENT 12 5 10 7 4 13 6 15 8 17
REMARK Flexibility Score: inf
ROOT
ATOM      1  C   UNL     1      -4.555  -0.874   1.561  1.00  0.00     0.181 C 
ENDROOT
BRANCH   1   2
ATOM      2  C   UNL     1      -4.242  -1.830   0.370  1.00  0.00     0.171 C 
BRANCH   2   3
ATOM      3  C   UNL     1      -5.075  -3.125   0.354  1.00  0.00     0.190 C 
BRANCH   3   4
ATOM      4  O   UNL     1      -6.142  -3.042   1.259  1.00  0.00    -0.394 OA
ATOM      5  H   UNL     1      -6.873  -3.590   0.874  1.00  0.00     0.210 HD
ENDBRANCH   3   4
ENDBRANCH   2   3
BRANCH   2   6
ATOM      6  O   UNL     1      -4.401  -1.155  -0.853  1.00  0.00    -0.388 OA
ATOM      7  H   UNL     1      -3.654  -1.428  -1.448  1.00  0.00     0.211 HD
ENDBRANCH   2   6
ENDBRANCH   1   2
BRANCH   1   8
ATOM      8  C   UNL     1      -3.910  -1.284   2.913  1.00  0.00     0.214 C 
BRANCH   8   9
ATOM      9  C   UNL     1      -3.348  -0.099   3.684  1.00  0.00     0.189 C 
ATOM     10  O   UNL     1      -4.101   0.607   4.338  1.00  0.00    -0.294 OA
BRANCH   9  11
ATOM     11  C   UNL     1      -1.876   0.235   3.685  1.00  0.00     0.234 C 
BRANCH  11  12
ATOM     12  O   UNL     1      -1.434   0.665   2.426  1.00  0.00    -0.388 OA
ATOM     13  H   UNL     1      -1.328  -0.148   1.868  1.00  0.00     0.211 HD
ENDBRANCH  11  12
ENDBRANCH   9  11
ENDBRANCH   8   9
BRANCH   8  14
ATOM     14  O   UNL     1      -4.835  -1.999   3.696  1.00  0.00    -0.382 OA
ATOM     15  H   UNL     1      -5.174  -2.745   3.136  1.00  0.00     0.211 HD
ENDBRANCH   8  14
ENDBRANCH   1   8
BRANCH   1  16
ATOM     16  O   UNL     1      -4.083   0.412   1.237  1.00  0.00    -0.387 OA
ATOM     17  H   UNL     1      -4.111   0.955   2.067  1.00  0.00     0.211 HD
ENDBRANCH   1  16
TORSDOF 10
ENDMDL
MODEL 7
REMARK VINA RESULT:    -1.150      1.232      4.714
REMARK INTER + INTRA:          -2.201
REMARK INTER:                  -1.620
REMARK INTRA:                  -0.581
REMARK UNBOUND:                -0.547
REMARK SMILES O=C(CO)[C@@H](O)[C@@H](O)[C@H](O)CO
REMARK SMILES IDX 7 1 9 2 11 3 12 4 10 6 5 8 2 9 1 10 3 11 4 12 6 14 8 16
REMARK H PARENT 12 5 10 7 4 13 6 15 8 17
REMARK Flexibility Score: inf
ROOT
ATOM      1  C   UNL     1      -1.769   0.008   2.427  1.00  0.00     0.181 C 
ENDROOT
BRANCH   1   2
ATOM      2  C   UNL     1      -1.021  -0.018   3.794  1.00  0.00     0.171 C 
BRANCH   2   3
ATOM      3  C   UNL     1       0.457  -0.441   3.706  1.00  0.00     0.190 C 
BRANCH   3   4
ATOM      4  O   UNL     1       0.977  -0.172   2.433  1.00  0.00    -0.394 OA
ATOM      5  H   UNL     1       0.645   0.730   2.184  1.00  0.00     0.210 HD
ENDBRANCH   3   4
ENDBRANCH   2   3
BRANCH   2   6
ATOM      6  O   UNL     1      -1.114   1.235   4.426  1.00  0.00    -0.388 OA
ATOM      7  H   UNL     1      -1.325   1.909   3.728  1.00  0.00     0.211 HD
ENDBRANCH   2   6
ENDBRANCH   1   2
BRANCH   1   8
ATOM      8  C   UNL     1      -3.319  -0.021   2.531  1.00  0.00     0.214 C 
BRANCH   8   9
ATOM      9  C   UNL     1      -3.961  -0.974   1.534  1.00  0.00     0.189 C 
ATOM     10  O   UNL     1      -3.574  -0.986   0.375  1.00  0.00    -0.294 OA
BRANCH   9  11
ATOM     11  C   UNL     1      -5.062  -1.929   1.928  1.00  0.00     0.234 C 
BRANCH  11  12
ATOM     12  O   UNL     1      -5.797  -2.371   0.819  1.00  0.00    -0.388 OA
ATOM     13  H   UNL     1      -5.364  -1.979   0.016  1.00  0.00     0.211 HD
ENDBRANCH  11  12
ENDBRANCH   9  11
ENDBRANCH   8   9
BRANCH   8  14
ATOM     14  O   UNL     1      -3.713  -0.329   3.846  1.00  0.00    -0.382 OA
ATOM     15  H   UNL     1      -2.899  -0.281   4.411  1.00  0.00     0.211 HD
ENDBRANCH   8  14
ENDBRANCH   1   8
BRANCH   1  16
ATOM     16  O   UNL     1      -1.410   1.184   1.743  1.00  0.00    -0.387 OA
ATOM     17  H   UNL     1      -1.915   1.196   0.889  1.00  0.00     0.211 HD
ENDBRANCH   1  16
TORSDOF 10
ENDMDL
