MODEL 1
REMARK VINA RESULT:    -3.210      0.000      0.000
REMARK INTER + INTRA:         -13.137
REMARK INTER:                  -8.088
REMARK INTRA:                  -5.048
REMARK UNBOUND:                -5.048
REMARK SMILES CCCCCCCCCCCCCCCCCCCCCCCCCCCC(=O)[O-]
REMARK SMILES IDX 15 1 16 2 17 3 18 4 19 5 20 6 21 7 22 8 23 9 24 10 25 11
REMARK SMILES IDX 26 12 27 13 28 14 29 15 30 16 14 17 13 18 12 19 11 20 10 21
REMARK SMILES IDX 9 22 8 23 7 24 6 25 5 26 4 27 3 28 2 29 1 30
REMARK H PARENT
REMARK Flexibility Score: inf
ROOT
ATOM      1  C   UNL     1      29.295  43.076   6.379  1.00  0.00     0.000 C 
ENDROOT
BRANCH   1   2
ATOM      2  C   UNL     1      29.719  43.501   4.968  1.00  0.00     0.000 C 
BRANCH   2   3
ATOM      3  C   UNL     1      28.744  42.955   3.912  1.00  0.00     0.000 C 
BRANCH   3   4
ATOM      4  C   UNL     1      27.881  41.802   4.447  1.00  0.00     0.000 C 
BRANCH   4   5
ATOM      5  C   UNL     1      26.974  41.193   3.364  1.00  0.00     0.000 C 
BRANCH   5   6
ATOM      6  C   UNL     1      25.682  42.001   3.162  1.00  0.00     0.000 C 
BRANCH   6   7
ATOM      7  C   UNL     1      24.453  41.097   2.964  1.00  0.00     0.000 C 
BRANCH   7   8
ATOM      8  C   UNL     1      24.797  39.602   3.069  1.00  0.00     0.000 C 
BRANCH   8   9
ATOM      9  C   UNL     1      24.373  38.811   1.822  1.00  0.00     0.000 C 
BRANCH   9  10
ATOM     10  C   UNL     1      24.178  39.749   0.621  1.00  0.00     0.000 C 
BRANCH  10  11
ATOM     11  C   UNL     1      25.250  39.564  -0.468  1.00  0.00     0.000 C 
BRANCH  11  12
ATOM     12  C   UNL     1      26.417  38.637  -0.083  1.00  0.00     0.006 C 
BRANCH  12  13
ATOM     13  C   UNL     1      27.719  39.397   0.200  1.00  0.00     0.053 C 
BRANCH  13  14
ATOM     14  C   UNL     1      28.615  38.600   1.095  1.00  0.00     0.041 C 
ATOM     15  O   UNL     1      29.849  38.527   0.854  1.00  0.00    -0.550 OA
ATOM     16  O   UNL     1      28.089  37.933   2.194  1.00  0.00    -0.550 OA
ENDBRANCH  13  14
ENDBRANCH  12  13
ENDBRANCH  11  12
ENDBRANCH  10  11
ENDBRANCH   9  10
ENDBRANCH   8   9
ENDBRANCH   7   8
ENDBRANCH   6   7
ENDBRANCH   5   6
ENDBRANCH   4   5
ENDBRANCH   3   4
ENDBRANCH   2   3
ENDBRANCH   1   2
BRANCH   1  17
ATOM     17  C   UNL     1      28.995  44.302   7.255  1.00  0.00     0.000 C 
BRANCH  17  18
ATOM     18  C   UNL     1      27.487  44.568   7.399  1.00  0.00     0.000 C 
BRANCH  18  19
ATOM     19  C   UNL     1      26.924  45.402   6.239  1.00  0.00     0.000 C 
BRANCH  19  20
ATOM     20  C   UNL     1      25.684  44.728   5.632  1.00  0.00     0.000 C 
BRANCH  20  21
ATOM     21  C   UNL     1      24.804  44.047   6.692  1.00  0.00     0.000 C 
BRANCH  21  22
ATOM     22  C   UNL     1      23.875  42.979   6.089  1.00  0.00    -0.000 C 
BRANCH  22  23
ATOM     23  C   UNL     1      23.934  41.647   6.854  1.00  0.00    -0.000 C 
BRANCH  23  24
ATOM     24  C   UNL     1      25.245  40.884   6.609  1.00  0.00    -0.000 C 
BRANCH  24  25
ATOM     25  C   UNL     1      26.140  40.919   7.857  1.00  0.00    -0.000 C 
BRANCH  25  26
ATOM     26  C   UNL     1      25.358  41.242   9.141  1.00  0.00    -0.000 C 
BRANCH  26  27
ATOM     27  C   UNL     1      25.969  42.410   9.930  1.00  0.00    -0.000 C 
BRANCH  27  28
ATOM     28  C   UNL     1      27.425  42.109  10.316  1.00  0.00    -0.000 C 
BRANCH  28  29
ATOM     29  C   UNL     1      28.066  43.236  11.139  1.00  0.00    -0.003 C 
ATOM     30  C   UNL     1      28.520  42.776  12.525  1.00  0.00     0.004 C 
ENDBRANCH  28  29
ENDBRANCH  27  28
ENDBRANCH  26  27
ENDBRANCH  25  26
ENDBRANCH  24  25
ENDBRANCH  23  24
ENDBRANCH  22  23
ENDBRANCH  21  22
ENDBRANCH  20  21
ENDBRANCH  19  20
ENDBRANCH  18  19
ENDBRANCH  17  18
ENDBRANCH   1  17
TORSDOF 26
ENDMDL
MODEL 2
REMARK VINA RESULT:    -3.195      3.002      7.743
REMARK INTER + INTRA:         -13.100
REMARK INTER:                  -7.965
REMARK INTRA:                  -5.134
REMARK UNBOUND:                -5.048
REMARK SMILES CCCCCCCCCCCCCCCCCCCCCCCCCCCC(=O)[O-]
REMARK SMILES IDX 15 1 16 2 17 3 18 4 19 5 20 6 21 7 22 8 23 9 24 10 25 11
REMARK SMILES IDX 26 12 27 13 28 14 29 15 30 16 14 17 13 18 12 19 11 20 10 21
REMARK SMILES IDX 9 22 8 23 7 24 6 25 5 26 4 27 3 28 2 29 1 30
REMARK H PARENT
REMARK Flexibility Score: inf
ROOT
ATOM      1  C   UNL     1      24.801  39.666   1.981  1.00  0.00     0.000 C 
ENDROOT
BRANCH   1   2
ATOM      2  C   UNL     1      24.240  40.912   2.677  1.00  0.00     0.000 C 
BRANCH   2   3
ATOM      3  C   UNL     1      24.130  40.695   4.194  1.00  0.00     0.000 C 
BRANCH   3   4
ATOM      4  C   UNL     1      24.020  42.015   4.973  1.00  0.00     0.000 C 
BRANCH   4   5
ATOM      5  C   UNL     1      24.885  42.022   6.245  1.00  0.00     0.000 C 
BRANCH   5   6
ATOM      6  C   UNL     1      24.807  43.362   6.996  1.00  0.00     0.000 C 
BRANCH   6   7
ATOM      7  C   UNL     1      24.610  44.554   6.044  1.00  0.00     0.000 C 
BRANCH   7   8
ATOM      8  C   UNL     1      25.931  45.036   5.422  1.00  0.00     0.000 C 
BRANCH   8   9
ATOM      9  C   UNL     1      26.393  46.385   5.993  1.00  0.00     0.000 C 
BRANCH   9  10
ATOM     10  C   UNL     1      27.751  46.245   6.696  1.00  0.00     0.000 C 
BRANCH  10  11
ATOM     11  C   UNL     1      27.644  46.305   8.231  1.00  0.00     0.000 C 
BRANCH  11  12
ATOM     12  C   UNL     1      27.443  44.945   8.924  1.00  0.00     0.006 C 
BRANCH  12  13
ATOM     13  C   UNL     1      26.217  44.917   9.847  1.00  0.00     0.053 C 
BRANCH  13  14
ATOM     14  C   UNL     1      26.240  43.703  10.721  1.00  0.00     0.041 C 
ATOM     15  O   UNL     1      26.447  43.818  11.959  1.00  0.00    -0.550 OA
ATOM     16  O   UNL     1      26.037  42.443  10.173  1.00  0.00    -0.550 OA
ENDBRANCH  13  14
ENDBRANCH  12  13
ENDBRANCH  11  12
ENDBRANCH  10  11
ENDBRANCH   9  10
ENDBRANCH   8   9
ENDBRANCH   7   8
ENDBRANCH   6   7
ENDBRANCH   5   6
ENDBRANCH   4   5
ENDBRANCH   3   4
ENDBRANCH   2   3
ENDBRANCH   1   2
BRANCH   1  17
ATOM     17  C   UNL     1      25.444  40.031   0.635  1.00  0.00     0.000 C 
BRANCH  17  18
ATOM     18  C   UNL     1      26.086  38.820  -0.060  1.00  0.00     0.000 C 
BRANCH  18  19
ATOM     19  C   UNL     1      27.621  38.879  -0.045  1.00  0.00     0.000 C 
BRANCH  19  20
ATOM     20  C   UNL     1      28.202  37.807   0.890  1.00  0.00     0.000 C 
BRANCH  20  21
ATOM     21  C   UNL     1      28.825  38.407   2.160  1.00  0.00     0.000 C 
BRANCH  21  22
ATOM     22  C   UNL     1      27.923  38.237   3.395  1.00  0.00    -0.000 C 
BRANCH  22  23
ATOM     23  C   UNL     1      27.709  39.556   4.156  1.00  0.00    -0.000 C 
BRANCH  23  24
ATOM     24  C   UNL     1      28.413  40.745   3.483  1.00  0.00    -0.000 C 
BRANCH  24  25
ATOM     25  C   UNL     1      27.614  42.041   3.690  1.00  0.00    -0.000 C 
BRANCH  25  26
ATOM     26  C   UNL     1      28.514  43.264   3.925  1.00  0.00    -0.000 C 
BRANCH  26  27
ATOM     27  C   UNL     1      29.677  42.969   4.885  1.00  0.00    -0.000 C 
BRANCH  27  28
ATOM     28  C   UNL     1      29.198  42.974   6.345  1.00  0.00    -0.000 C 
BRANCH  28  29
ATOM     29  C   UNL     1      29.380  41.613   7.033  1.00  0.00    -0.003 C 
ATOM     30  C   UNL     1      28.077  41.061   7.613  1.00  0.00     0.004 C 
ENDBRANCH  28  29
ENDBRANCH  27  28
ENDBRANCH  26  27
ENDBRANCH  25  26
ENDBRANCH  24  25
ENDBRANCH  23  24
ENDBRANCH  22  23
ENDBRANCH  21  22
ENDBRANCH  20  21
ENDBRANCH  19  20
ENDBRANCH  18  19
ENDBRANCH  17  18
ENDBRANCH   1  17
TORSDOF 26
ENDMDL
MODEL 3
REMARK VINA RESULT:    -3.155      2.112      4.371
REMARK INTER + INTRA:         -12.999
REMARK INTER:                  -7.448
REMARK INTRA:                  -5.552
REMARK UNBOUND:                -5.048
REMARK SMILES CCCCCCCCCCCCCCCCCCCCCCCCCCCC(=O)[O-]
REMARK SMILES IDX 15 1 16 2 17 3 18 4 19 5 20 6 21 7 22 8 23 9 24 10 25 11
REMARK SMILES IDX 26 12 27 13 28 14 29 15 30 16 14 17 13 18 12 19 11 20 10 21
REMARK SMILES IDX 9 22 8 23 7 24 6 25 5 26 4 27 3 28 2 29 1 30
REMARK H PARENT
REMARK Flexibility Score: inf
ROOT
ATOM      1  C   UNL     1      27.345  42.347   3.783  1.00  0.00     0.000 C 
ENDROOT
BRANCH   1   2
ATOM      2  C   UNL     1      26.486  41.254   3.137  1.00  0.00     0.000 C 
BRANCH   2   3
ATOM      3  C   UNL     1      24.993  41.486   3.422  1.00  0.00     0.000 C 
BRANCH   3   4
ATOM      4  C   UNL     1      24.087  40.901   2.328  1.00  0.00     0.000 C 
BRANCH   4   5
ATOM      5  C   UNL     1      24.526  39.493   1.889  1.00  0.00     0.000 C 
BRANCH   5   6
ATOM      6  C   UNL     1      24.287  39.247   0.390  1.00  0.00     0.000 C 
BRANCH   6   7
ATOM      7  C   UNL     1      25.405  39.840  -0.484  1.00  0.00     0.000 C 
BRANCH   7   8
ATOM      8  C   UNL     1      26.534  38.834  -0.761  1.00  0.00     0.000 C 
BRANCH   8   9
ATOM      9  C   UNL     1      27.816  39.159   0.020  1.00  0.00     0.000 C 
BRANCH   9  10
ATOM     10  C   UNL     1      28.278  37.945   0.842  1.00  0.00     0.000 C 
BRANCH  10  11
ATOM     11  C   UNL     1      28.420  38.253   2.343  1.00  0.00     0.000 C 
BRANCH  11  12
ATOM     12  C   UNL     1      27.433  37.505   3.258  1.00  0.00     0.006 C 
BRANCH  12  13
ATOM     13  C   UNL     1      26.465  36.601   2.484  1.00  0.00     0.053 C 
BRANCH  13  14
ATOM     14  C   UNL     1      26.684  35.164   2.837  1.00  0.00     0.041 C 
ATOM     15  O   UNL     1      25.701  34.414   3.077  1.00  0.00    -0.550 OA
ATOM     16  O   UNL     1      27.974  34.651   2.907  1.00  0.00    -0.550 OA
ENDBRANCH  13  14
ENDBRANCH  12  13
ENDBRANCH  11  12
ENDBRANCH  10  11
ENDBRANCH   9  10
ENDBRANCH   8   9
ENDBRANCH   7   8
ENDBRANCH   6   7
ENDBRANCH   5   6
ENDBRANCH   4   5
ENDBRANCH   3   4
ENDBRANCH   2   3
ENDBRANCH   1   2
BRANCH   1  17
ATOM     17  C   UNL     1      26.506  43.597   4.088  1.00  0.00     0.000 C 
BRANCH  17  18
ATOM     18  C   UNL     1      27.028  44.375   5.306  1.00  0.00     0.000 C 
BRANCH  18  19
ATOM     19  C   UNL     1      25.893  44.967   6.156  1.00  0.00     0.000 C 
BRANCH  19  20
ATOM     20  C   UNL     1      24.632  44.094   6.070  1.00  0.00     0.000 C 
BRANCH  20  21
ATOM     21  C   UNL     1      24.050  43.762   7.454  1.00  0.00     0.000 C 
BRANCH  21  22
ATOM     22  C   UNL     1      25.124  43.745   8.555  1.00  0.00    -0.000 C 
BRANCH  22  23
ATOM     23  C   UNL     1      25.628  42.326   8.866  1.00  0.00    -0.000 C 
BRANCH  23  24
ATOM     24  C   UNL     1      27.069  42.094   8.386  1.00  0.00    -0.000 C 
BRANCH  24  25
ATOM     25  C   UNL     1      27.096  41.156   7.170  1.00  0.00    -0.000 C 
BRANCH  25  26
ATOM     26  C   UNL     1      25.751  40.449   6.933  1.00  0.00    -0.000 C 
BRANCH  26  27
ATOM     27  C   UNL     1      25.911  39.082   6.253  1.00  0.00    -0.000 C 
BRANCH  27  28
ATOM     28  C   UNL     1      24.615  38.670   5.537  1.00  0.00    -0.000 C 
BRANCH  28  29
ATOM     29  C   UNL     1      24.263  37.190   5.751  1.00  0.00    -0.003 C 
ATOM     30  C   UNL     1      25.461  36.354   6.202  1.00  0.00     0.004 C 
ENDBRANCH  28  29
ENDBRANCH  27  28
ENDBRANCH  26  27
ENDBRANCH  25  26
ENDBRANCH  24  25
ENDBRANCH  23  24
ENDBRANCH  22  23
ENDBRANCH  21  22
ENDBRANCH  20  21
ENDBRANCH  19  20
ENDBRANCH  18  19
ENDBRANCH  17  18
ENDBRANCH   1  17
TORSDOF 26
ENDMDL
MODEL 4
REMARK VINA RESULT:    -3.130      2.769      4.557
REMARK INTER + INTRA:         -12.937
REMARK INTER:                  -7.264
REMARK INTRA:                  -5.673
REMARK UNBOUND:                -5.048
REMARK SMILES CCCCCCCCCCCCCCCCCCCCCCCCCCCC(=O)[O-]
REMARK SMILES IDX 15 1 16 2 17 3 18 4 19 5 20 6 21 7 22 8 23 9 24 10 25 11
REMARK SMILES IDX 26 12 27 13 28 14 29 15 30 16 14 17 13 18 12 19 11 20 10 21
REMARK SMILES IDX 9 22 8 23 7 24 6 25 5 26 4 27 3 28 2 29 1 30
REMARK H PARENT
REMARK Flexibility Score: inf
ROOT
ATOM      1  C   UNL     1      27.629  44.653   7.225  1.00  0.00     0.000 C 
ENDROOT
BRANCH   1   2
ATOM      2  C   UNL     1      27.083  45.642   6.188  1.00  0.00     0.000 C 
BRANCH   2   3
ATOM      3  C   UNL     1      25.680  45.229   5.716  1.00  0.00     0.000 C 
BRANCH   3   4
ATOM      4  C   UNL     1      25.104  44.062   6.534  1.00  0.00     0.000 C 
BRANCH   4   5
ATOM      5  C   UNL     1      23.920  43.376   5.828  1.00  0.00     0.000 C 
BRANCH   5   6
ATOM      6  C   UNL     1      24.040  41.844   5.844  1.00  0.00     0.000 C 
BRANCH   6   7
ATOM      7  C   UNL     1      24.275  41.262   4.439  1.00  0.00     0.000 C 
BRANCH   7   8
ATOM      8  C   UNL     1      25.270  42.094   3.615  1.00  0.00     0.000 C 
BRANCH   8   9
ATOM      9  C   UNL     1      26.588  41.348   3.355  1.00  0.00     0.000 C 
BRANCH   9  10
ATOM     10  C   UNL     1      27.668  41.781   4.358  1.00  0.00     0.000 C 
BRANCH  10  11
ATOM     11  C   UNL     1      28.419  43.053   3.923  1.00  0.00     0.000 C 
BRANCH  11  12
ATOM     12  C   UNL     1      29.928  43.054   4.224  1.00  0.00     0.006 C 
BRANCH  12  13
ATOM     13  C   UNL     1      30.439  44.410   4.730  1.00  0.00     0.053 C 
BRANCH  13  14
ATOM     14  C   UNL     1      31.367  45.031   3.734  1.00  0.00     0.041 C 
ATOM     15  O   UNL     1      31.422  44.588   2.556  1.00  0.00    -0.550 OA
ATOM     16  O   UNL     1      32.176  46.098   4.105  1.00  0.00    -0.550 OA
ENDBRANCH  13  14
ENDBRANCH  12  13
ENDBRANCH  11  12
ENDBRANCH  10  11
ENDBRANCH   9  10
ENDBRANCH   8   9
ENDBRANCH   7   8
ENDBRANCH   6   7
ENDBRANCH   5   6
ENDBRANCH   4   5
ENDBRANCH   3   4
ENDBRANCH   2   3
ENDBRANCH   1   2
BRANCH   1  17
ATOM     17  C   UNL     1      28.461  45.379   8.292  1.00  0.00     0.000 C 
BRANCH  17  18
ATOM     18  C   UNL     1      28.015  45.036   9.723  1.00  0.00     0.000 C 
BRANCH  18  19
ATOM     19  C   UNL     1      26.488  45.071   9.887  1.00  0.00     0.000 C 
BRANCH  19  20
ATOM     20  C   UNL     1      26.020  44.001  10.885  1.00  0.00     0.000 C 
BRANCH  20  21
ATOM     21  C   UNL     1      26.487  42.589  10.497  1.00  0.00     0.000 C 
BRANCH  21  22
ATOM     22  C   UNL     1      25.706  42.019   9.299  1.00  0.00    -0.000 C 
BRANCH  22  23
ATOM     23  C   UNL     1      25.435  40.512   9.435  1.00  0.00    -0.000 C 
BRANCH  23  24
ATOM     24  C   UNL     1      26.132  39.687   8.341  1.00  0.00    -0.000 C 
BRANCH  24  25
ATOM     25  C   UNL     1      27.035  40.579   7.476  1.00  0.00    -0.000 C 
BRANCH  25  26
ATOM     26  C   UNL     1      28.530  40.373   7.766  1.00  0.00    -0.000 C 
BRANCH  26  27
ATOM     27  C   UNL     1      29.273  41.692   8.025  1.00  0.00    -0.000 C 
BRANCH  27  28
ATOM     28  C   UNL     1      30.065  41.627   9.340  1.00  0.00    -0.000 C 
BRANCH  28  29
ATOM     29  C   UNL     1      29.830  40.318  10.110  1.00  0.00    -0.003 C 
ATOM     30  C   UNL     1      29.205  40.544  11.487  1.00  0.00     0.004 C 
ENDBRANCH  28  29
ENDBRANCH  27  28
ENDBRANCH  26  27
ENDBRANCH  25  26
ENDBRANCH  24  25
ENDBRANCH  23  24
ENDBRANCH  22  23
ENDBRANCH  21  22
ENDBRANCH  20  21
ENDBRANCH  19  20
ENDBRANCH  18  19
ENDBRANCH  17  18
ENDBRANCH   1  17
TORSDOF 26
ENDMDL
MODEL 5
REMARK VINA RESULT:    -3.125      3.740      8.451
REMARK INTER + INTRA:         -12.924
REMARK INTER:                  -8.426
REMARK INTRA:                  -4.498
REMARK UNBOUND:                -5.048
REMARK SMILES CCCCCCCCCCCCCCCCCCCCCCCCCCCC(=O)[O-]
REMARK SMILES IDX 15 1 16 2 17 3 18 4 19 5 20 6 21 7 22 8 23 9 24 10 25 11
REMARK SMILES IDX 26 12 27 13 28 14 29 15 30 16 14 17 13 18 12 19 11 20 10 21
REMARK SMILES IDX 9 22 8 23 7 24 6 25 5 26 4 27 3 28 2 29 1 30
REMARK H PARENT
REMARK Flexibility Score: inf
ROOT
ATOM      1  C   UNL     1      27.451  41.498   3.545  1.00  0.00     0.000 C 
ENDROOT
BRANCH   1   2
ATOM      2  C   UNL     1      27.644  42.935   4.044  1.00  0.00     0.000 C 
BRANCH   2   3
ATOM      3  C   UNL     1      26.312  43.700   4.051  1.00  0.00     0.000 C 
BRANCH   3   4
ATOM      4  C   UNL     1      26.169  44.624   5.271  1.00  0.00     0.000 C 
BRANCH   4   5
ATOM      5  C   UNL     1      24.864  44.377   6.048  1.00  0.00     0.000 C 
BRANCH   5   6
ATOM      6  C   UNL     1      24.228  43.020   5.705  1.00  0.00     0.000 C 
BRANCH   6   7
ATOM      7  C   UNL     1      24.361  42.005   6.853  1.00  0.00     0.000 C 
BRANCH   7   8
ATOM      8  C   UNL     1      25.763  41.379   6.928  1.00  0.00     0.000 C 
BRANCH   8   9
ATOM      9  C   UNL     1      26.542  41.829   8.173  1.00  0.00     0.000 C 
BRANCH   9  10
ATOM     10  C   UNL     1      25.585  42.330   9.265  1.00  0.00     0.000 C 
BRANCH  10  11
ATOM     11  C   UNL     1      25.860  43.786   9.686  1.00  0.00     0.000 C 
BRANCH  11  12
ATOM     12  C   UNL     1      25.975  44.015  11.204  1.00  0.00     0.006 C 
BRANCH  12  13
ATOM     13  C   UNL     1      27.376  44.465  11.639  1.00  0.00     0.053 C 
BRANCH  13  14
ATOM     14  C   UNL     1      27.571  44.246  13.106  1.00  0.00     0.041 C 
ATOM     15  O   UNL     1      27.611  45.228  13.893  1.00  0.00    -0.550 OA
ATOM     16  O   UNL     1      27.713  42.957  13.607  1.00  0.00    -0.550 OA
ENDBRANCH  13  14
ENDBRANCH  12  13
ENDBRANCH  11  12
ENDBRANCH  10  11
ENDBRANCH   9  10
ENDBRANCH   8   9
ENDBRANCH   7   8
ENDBRANCH   6   7
ENDBRANCH   5   6
ENDBRANCH   4   5
ENDBRANCH   3   4
ENDBRANCH   2   3
ENDBRANCH   1   2
BRANCH   1  17
ATOM     17  C   UNL     1      26.017  41.282   3.038  1.00  0.00     0.000 C 
BRANCH  17  18
ATOM     18  C   UNL     1      25.337  40.066   3.690  1.00  0.00     0.000 C 
BRANCH  18  19
ATOM     19  C   UNL     1      24.463  39.281   2.702  1.00  0.00     0.000 C 
BRANCH  19  20
ATOM     20  C   UNL     1      24.154  40.123   1.455  1.00  0.00     0.000 C 
BRANCH  20  21
ATOM     21  C   UNL     1      24.441  39.367   0.147  1.00  0.00     0.000 C 
BRANCH  21  22
ATOM     22  C   UNL     1      25.657  39.934  -0.606  1.00  0.00    -0.000 C 
BRANCH  22  23
ATOM     23  C   UNL     1      26.460  38.845  -1.335  1.00  0.00    -0.000 C 
BRANCH  23  24
ATOM     24  C   UNL     1      27.908  38.742  -0.832  1.00  0.00    -0.000 C 
BRANCH  24  25
ATOM     25  C   UNL     1      28.035  39.314   0.589  1.00  0.00    -0.000 C 
BRANCH  25  26
ATOM     26  C   UNL     1      28.585  38.292   1.595  1.00  0.00    -0.000 C 
BRANCH  26  27
ATOM     27  C   UNL     1      27.678  37.061   1.746  1.00  0.00    -0.000 C 
BRANCH  27  28
ATOM     28  C   UNL     1      27.246  36.875   3.209  1.00  0.00    -0.000 C 
BRANCH  28  29
ATOM     29  C   UNL     1      28.036  37.765   4.179  1.00  0.00    -0.003 C 
ATOM     30  C   UNL     1      28.369  37.061   5.495  1.00  0.00     0.004 C 
ENDBRANCH  28  29
ENDBRANCH  27  28
ENDBRANCH  26  27
ENDBRANCH  25  26
ENDBRANCH  24  25
ENDBRANCH  23  24
ENDBRANCH  22  23
ENDBRANCH  21  22
ENDBRANCH  20  21
ENDBRANCH  19  20
ENDBRANCH  18  19
ENDBRANCH  17  18
ENDBRANCH   1  17
TORSDOF 26
ENDMDL
MODEL 6
REMARK VINA RESULT:    -3.099     17.052     20.534
REMARK INTER + INTRA:         -12.859
REMARK INTER:                  -8.738
REMARK INTRA:                  -4.121
REMARK UNBOUND:                -5.048
REMARK SMILES CCCCCCCCCCCCCCCCCCCCCCCCCCCC(=O)[O-]
REMARK SMILES IDX 15 1 16 2 17 3 18 4 19 5 20 6 21 7 22 8 23 9 24 10 25 11
REMARK SMILES IDX 26 12 27 13 28 14 29 15 30 16 14 17 13 18 12 19 11 20 10 21
REMARK SMILES IDX 9 22 8 23 7 24 6 25 5 26 4 27 3 28 2 29 1 30
REMARK H PARENT
REMARK Flexibility Score: inf
ROOT
ATOM      1  C   UNL     1      41.380  27.947   8.066  1.00  0.00     0.000 C 
ENDROOT
BRANCH   1   2
ATOM      2  C   UNL     1      41.512  27.136   6.771  1.00  0.00     0.000 C 
BRANCH   2   3
ATOM      3  C   UNL     1      42.509  27.797   5.806  1.00  0.00     0.000 C 
BRANCH   3   4
ATOM      4  C   UNL     1      43.444  28.790   6.513  1.00  0.00     0.000 C 
BRANCH   4   5
ATOM      5  C   UNL     1      43.834  29.976   5.613  1.00  0.00     0.000 C 
BRANCH   5   6
ATOM      6  C   UNL     1      43.580  31.332   6.291  1.00  0.00     0.000 C 
BRANCH   6   7
ATOM      7  C   UNL     1      42.905  31.181   7.665  1.00  0.00     0.000 C 
BRANCH   7   8
ATOM      8  C   UNL     1      42.943  32.480   8.487  1.00  0.00     0.000 C 
BRANCH   8   9
ATOM      9  C   UNL     1      42.429  32.284   9.921  1.00  0.00     0.000 C 
BRANCH   9  10
ATOM     10  C   UNL     1      42.024  30.822  10.161  1.00  0.00     0.000 C 
BRANCH  10  11
ATOM     11  C   UNL     1      42.583  30.250  11.477  1.00  0.00     0.000 C 
BRANCH  11  12
ATOM     12  C   UNL     1      41.519  29.780  12.487  1.00  0.00     0.006 C 
BRANCH  12  13
ATOM     13  C   UNL     1      42.071  29.627  13.911  1.00  0.00     0.053 C 
BRANCH  13  14
ATOM     14  C   UNL     1      41.558  30.718  14.797  1.00  0.00     0.041 C 
ATOM     15  O   UNL     1      40.883  31.664  14.312  1.00  0.00    -0.550 OA
ATOM     16  O   UNL     1      41.827  30.694  16.161  1.00  0.00    -0.550 OA
ENDBRANCH  13  14
ENDBRANCH  12  13
ENDBRANCH  11  12
ENDBRANCH  10  11
ENDBRANCH   9  10
ENDBRANCH   8   9
ENDBRANCH   7   8
ENDBRANCH   6   7
ENDBRANCH   5   6
ENDBRANCH   4   5
ENDBRANCH   3   4
ENDBRANCH   2   3
ENDBRANCH   1   2
BRANCH   1  17
ATOM     17  C   UNL     1      39.947  28.472   8.241  1.00  0.00     0.000 C 
BRANCH  17  18
ATOM     18  C   UNL     1      39.246  28.731   6.898  1.00  0.00     0.000 C 
BRANCH  18  19
ATOM     19  C   UNL     1      38.836  30.201   6.722  1.00  0.00     0.000 C 
BRANCH  19  20
ATOM     20  C   UNL     1      39.837  30.945   5.824  1.00  0.00     0.000 C 
BRANCH  20  21
ATOM     21  C   UNL     1      40.162  30.170   4.537  1.00  0.00     0.000 C 
BRANCH  21  22
ATOM     22  C   UNL     1      41.056  30.974   3.576  1.00  0.00    -0.000 C 
BRANCH  22  23
ATOM     23  C   UNL     1      40.494  32.374   3.280  1.00  0.00    -0.000 C 
BRANCH  23  24
ATOM     24  C   UNL     1      41.532  33.299   2.625  1.00  0.00    -0.000 C 
BRANCH  24  25
ATOM     25  C   UNL     1      42.913  32.626   2.580  1.00  0.00    -0.000 C 
BRANCH  25  26
ATOM     26  C   UNL     1      43.444  32.455   1.148  1.00  0.00    -0.000 C 
BRANCH  26  27
ATOM     27  C   UNL     1      42.653  33.276   0.119  1.00  0.00    -0.000 C 
BRANCH  27  28
ATOM     28  C   UNL     1      42.177  32.389  -1.042  1.00  0.00    -0.000 C 
BRANCH  28  29
ATOM     29  C   UNL     1      40.842  32.860  -1.639  1.00  0.00    -0.003 C 
ATOM     30  C   UNL     1      39.925  33.511  -0.603  1.00  0.00     0.004 C 
ENDBRANCH  28  29
ENDBRANCH  27  28
ENDBRANCH  26  27
ENDBRANCH  25  26
ENDBRANCH  24  25
ENDBRANCH  23  24
ENDBRANCH  22  23
ENDBRANCH  21  22
ENDBRANCH  20  21
ENDBRANCH  19  20
ENDBRANCH  18  19
ENDBRANCH  17  18
ENDBRANCH   1  17
TORSDOF 26
ENDMDL
MODEL 7
REMARK VINA RESULT:    -3.084     16.221     19.804
REMARK INTER + INTRA:         -12.820
REMARK INTER:                  -7.501
REMARK INTRA:                  -5.319
REMARK UNBOUND:                -5.048
REMARK SMILES CCCCCCCCCCCCCCCCCCCCCCCCCCCC(=O)[O-]
REMARK SMILES IDX 15 1 16 2 17 3 18 4 19 5 20 6 21 7 22 8 23 9 24 10 25 11
REMARK SMILES IDX 26 12 27 13 28 14 29 15 30 16 14 17 13 18 12 19 11 20 10 21
REMARK SMILES IDX 9 22 8 23 7 24 6 25 5 26 4 27 3 28 2 29 1 30
REMARK H PARENT
REMARK Flexibility Score: inf
ROOT
ATOM      1  C   UNL     1      40.184  31.765   6.589  1.00  0.00     0.000 C 
ENDROOT
BRANCH   1   2
ATOM      2  C   UNL     1      39.649  30.345   6.366  1.00  0.00     0.000 C 
BRANCH   2   3
ATOM      3  C   UNL     1      39.828  29.484   7.627  1.00  0.00     0.000 C 
BRANCH   3   4
ATOM      4  C   UNL     1      40.644  28.210   7.360  1.00  0.00     0.000 C 
BRANCH   4   5
ATOM      5  C   UNL     1      41.492  28.312   6.079  1.00  0.00     0.000 C 
BRANCH   5   6
ATOM      6  C   UNL     1      42.992  28.120   6.355  1.00  0.00     0.000 C 
BRANCH   6   7
ATOM      7  C   UNL     1      43.759  29.454   6.364  1.00  0.00     0.000 C 
BRANCH   7   8
ATOM      8  C   UNL     1      44.125  29.915   7.784  1.00  0.00     0.000 C 
BRANCH   8   9
ATOM      9  C   UNL     1      43.346  31.167   8.216  1.00  0.00     0.000 C 
BRANCH   9  10
ATOM     10  C   UNL     1      42.659  30.942   9.571  1.00  0.00     0.000 C 
BRANCH  10  11
ATOM     11  C   UNL     1      42.833  29.508  10.105  1.00  0.00     0.000 C 
BRANCH  11  12
ATOM     12  C   UNL     1      41.643  28.967  10.918  1.00  0.00     0.006 C 
BRANCH  12  13
ATOM     13  C   UNL     1      40.579  30.034  11.207  1.00  0.00     0.053 C 
BRANCH  13  14
ATOM     14  C   UNL     1      40.540  30.360  12.667  1.00  0.00     0.041 C 
ATOM     15  O   UNL     1      40.281  29.461  13.511  1.00  0.00    -0.550 OA
ATOM     16  O   UNL     1      40.785  31.658  13.100  1.00  0.00    -0.550 OA
ENDBRANCH  13  14
ENDBRANCH  12  13
ENDBRANCH  11  12
ENDBRANCH  10  11
ENDBRANCH   9  10
ENDBRANCH   8   9
ENDBRANCH   7   8
ENDBRANCH   6   7
ENDBRANCH   5   6
ENDBRANCH   4   5
ENDBRANCH   3   4
ENDBRANCH   2   3
ENDBRANCH   1   2
BRANCH   1  17
ATOM     17  C   UNL     1      41.105  32.191   5.436  1.00  0.00     0.000 C 
BRANCH  17  18
ATOM     18  C   UNL     1      40.924  31.319   4.183  1.00  0.00     0.000 C 
BRANCH  18  19
ATOM     19  C   UNL     1      42.240  31.105   3.421  1.00  0.00     0.000 C 
BRANCH  19  20
ATOM     20  C   UNL     1      43.304  32.119   3.869  1.00  0.00     0.000 C 
BRANCH  20  21
ATOM     21  C   UNL     1      43.702  33.090   2.746  1.00  0.00     0.000 C 
BRANCH  21  22
ATOM     22  C   UNL     1      43.958  32.371   1.409  1.00  0.00    -0.000 C 
BRANCH  22  23
ATOM     23  C   UNL     1      43.454  33.176   0.201  1.00  0.00    -0.000 C 
BRANCH  23  24
ATOM     24  C   UNL     1      42.309  32.469  -0.542  1.00  0.00    -0.000 C 
BRANCH  24  25
ATOM     25  C   UNL     1      41.073  33.377  -0.632  1.00  0.00    -0.000 C 
BRANCH  25  26
ATOM     26  C   UNL     1      40.229  33.363   0.653  1.00  0.00    -0.000 C 
BRANCH  26  27
ATOM     27  C   UNL     1      40.153  34.741   1.328  1.00  0.00    -0.000 C 
BRANCH  27  28
ATOM     28  C   UNL     1      40.548  34.648   2.810  1.00  0.00    -0.000 C 
BRANCH  28  29
ATOM     29  C   UNL     1      40.164  35.905   3.605  1.00  0.00    -0.003 C 
ATOM     30  C   UNL     1      40.773  35.929   5.008  1.00  0.00     0.004 C 
ENDBRANCH  28  29
ENDBRANCH  27  28
ENDBRANCH  26  27
ENDBRANCH  25  26
ENDBRANCH  24  25
ENDBRANCH  23  24
ENDBRANCH  22  23
ENDBRANCH  21  22
ENDBRANCH  20  21
ENDBRANCH  19  20
ENDBRANCH  18  19
ENDBRANCH  17  18
ENDBRANCH   1  17
TORSDOF 26
ENDMDL
MODEL 8
REMARK VINA RESULT:    -3.075      2.931      5.390
REMARK INTER + INTRA:         -12.797
REMARK INTER:                  -7.630
REMARK INTRA:                  -5.167
REMARK UNBOUND:                -5.048
REMARK SMILES CCCCCCCCCCCCCCCCCCCCCCCCCCCC(=O)[O-]
REMARK SMILES IDX 15 1 16 2 17 3 18 4 19 5 20 6 21 7 22 8 23 9 24 10 25 11
REMARK SMILES IDX 26 12 27 13 28 14 29 15 30 16 14 17 13 18 12 19 11 20 10 21
REMARK SMILES IDX 9 22 8 23 7 24 6 25 5 26 4 27 3 28 2 29 1 30
REMARK H PARENT
REMARK Flexibility Score: inf
ROOT
ATOM      1  C   UNL     1      24.637  43.363   7.157  1.00  0.00     0.000 C 
ENDROOT
BRANCH   1   2
ATOM      2  C   UNL     1      23.908  42.147   6.572  1.00  0.00     0.000 C 
BRANCH   2   3
ATOM      3  C   UNL     1      23.875  42.209   5.037  1.00  0.00     0.000 C 
BRANCH   3   4
ATOM      4  C   UNL     1      24.200  40.857   4.385  1.00  0.00     0.000 C 
BRANCH   4   5
ATOM      5  C   UNL     1      25.474  40.908   3.524  1.00  0.00     0.000 C 
BRANCH   5   6
ATOM      6  C   UNL     1      26.101  42.311   3.492  1.00  0.00     0.000 C 
BRANCH   6   7
ATOM      7  C   UNL     1      27.629  42.273   3.666  1.00  0.00     0.000 C 
BRANCH   7   8
ATOM      8  C   UNL     1      28.072  41.309   4.778  1.00  0.00     0.000 C 
BRANCH   8   9
ATOM      9  C   UNL     1      27.780  41.856   6.183  1.00  0.00     0.000 C 
BRANCH   9  10
ATOM     10  C   UNL     1      28.952  42.709   6.692  1.00  0.00     0.000 C 
BRANCH  10  11
ATOM     11  C   UNL     1      30.173  42.676   5.754  1.00  0.00     0.000 C 
BRANCH  11  12
ATOM     12  C   UNL     1      30.496  44.011   5.059  1.00  0.00     0.006 C 
BRANCH  12  13
ATOM     13  C   UNL     1      31.103  43.828   3.661  1.00  0.00     0.053 C 
BRANCH  13  14
ATOM     14  C   UNL     1      31.863  45.049   3.250  1.00  0.00     0.041 C 
ATOM     15  O   UNL     1      32.093  45.964   4.085  1.00  0.00    -0.550 OA
ATOM     16  O   UNL     1      32.318  45.181   1.943  1.00  0.00    -0.550 OA
ENDBRANCH  13  14
ENDBRANCH  12  13
ENDBRANCH  11  12
ENDBRANCH  10  11
ENDBRANCH   9  10
ENDBRANCH   8   9
ENDBRANCH   7   8
ENDBRANCH   6   7
ENDBRANCH   5   6
ENDBRANCH   4   5
ENDBRANCH   3   4
ENDBRANCH   2   3
ENDBRANCH   1   2
BRANCH   1  17
ATOM     17  C   UNL     1      24.694  44.511   6.137  1.00  0.00     0.000 C 
BRANCH  17  18
ATOM     18  C   UNL     1      26.129  44.996   5.876  1.00  0.00     0.000 C 
BRANCH  18  19
ATOM     19  C   UNL     1      26.217  46.523   5.738  1.00  0.00     0.000 C 
BRANCH  19  20
ATOM     20  C   UNL     1      27.218  47.107   6.748  1.00  0.00     0.000 C 
BRANCH  20  21
ATOM     21  C   UNL     1      27.780  46.042   7.703  1.00  0.00     0.000 C 
BRANCH  21  22
ATOM     22  C   UNL     1      27.431  46.329   9.174  1.00  0.00    -0.000 C 
BRANCH  22  23
ATOM     23  C   UNL     1      26.559  45.227   9.799  1.00  0.00    -0.000 C 
BRANCH  23  24
ATOM     24  C   UNL     1      27.187  43.831   9.665  1.00  0.00    -0.000 C 
BRANCH  24  25
ATOM     25  C   UNL     1      26.502  42.831  10.609  1.00  0.00    -0.000 C 
BRANCH  25  26
ATOM     26  C   UNL     1      26.085  41.533   9.899  1.00  0.00    -0.000 C 
BRANCH  26  27
ATOM     27  C   UNL     1      27.272  40.597   9.629  1.00  0.00    -0.000 C 
BRANCH  27  28
ATOM     28  C   UNL     1      26.789  39.166   9.346  1.00  0.00    -0.000 C 
BRANCH  28  29
ATOM     29  C   UNL     1      27.006  38.744   7.885  1.00  0.00    -0.003 C 
ATOM     30  C   UNL     1      25.731  38.830   7.046  1.00  0.00     0.004 C 
ENDBRANCH  28  29
ENDBRANCH  27  28
ENDBRANCH  26  27
ENDBRANCH  25  26
ENDBRANCH  24  25
ENDBRANCH  23  24
ENDBRANCH  22  23
ENDBRANCH  21  22
ENDBRANCH  20  21
ENDBRANCH  19  20
ENDBRANCH  18  19
ENDBRANCH  17  18
ENDBRANCH   1  17
TORSDOF 26
ENDMDL
MODEL 9
REMARK VINA RESULT:    -3.052     16.626     19.527
REMARK INTER + INTRA:         -12.738
REMARK INTER:                  -7.764
REMARK INTRA:                  -4.975
REMARK UNBOUND:                -5.048
REMARK SMILES CCCCCCCCCCCCCCCCCCCCCCCCCCCC(=O)[O-]
REMARK SMILES IDX 15 1 16 2 17 3 18 4 19 5 20 6 21 7 22 8 23 9 24 10 25 11
REMARK SMILES IDX 26 12 27 13 28 14 29 15 30 16 14 17 13 18 12 19 11 20 10 21
REMARK SMILES IDX 9 22 8 23 7 24 6 25 5 26 4 27 3 28 2 29 1 30
REMARK H PARENT
REMARK Flexibility Score: inf
ROOT
ATOM      1  C   UNL     1      43.099  31.379   7.567  1.00  0.00     0.000 C 
ENDROOT
BRANCH   1   2
ATOM      2  C   UNL     1      43.310  30.576   8.857  1.00  0.00     0.000 C 
BRANCH   2   3
ATOM      3  C   UNL     1      42.651  31.275  10.056  1.00  0.00     0.000 C 
BRANCH   3   4
ATOM      4  C   UNL     1      42.321  30.301  11.198  1.00  0.00     0.000 C 
BRANCH   4   5
ATOM      5  C   UNL     1      41.176  30.807  12.092  1.00  0.00     0.000 C 
BRANCH   5   6
ATOM      6  C   UNL     1      40.253  31.793  11.358  1.00  0.00     0.000 C 
BRANCH   6   7
ATOM      7  C   UNL     1      38.797  31.299  11.303  1.00  0.00     0.000 C 
BRANCH   7   8
ATOM      8  C   UNL     1      38.286  31.128   9.863  1.00  0.00     0.000 C 
BRANCH   8   9
ATOM      9  C   UNL     1      39.340  31.515   8.815  1.00  0.00     0.000 C 
BRANCH   9  10
ATOM     10  C   UNL     1      39.613  30.345   7.858  1.00  0.00     0.000 C 
BRANCH  10  11
ATOM     11  C   UNL     1      40.003  29.047   8.589  1.00  0.00     0.000 C 
BRANCH  11  12
ATOM     12  C   UNL     1      39.337  27.769   8.047  1.00  0.00     0.006 C 
BRANCH  12  13
ATOM     13  C   UNL     1      37.898  27.584   8.546  1.00  0.00     0.053 C 
BRANCH  13  14
ATOM     14  C   UNL     1      36.929  27.655   7.408  1.00  0.00     0.041 C 
ATOM     15  O   UNL     1      35.717  27.361   7.589  1.00  0.00    -0.550 OA
ATOM     16  O   UNL     1      37.361  28.043   6.146  1.00  0.00    -0.550 OA
ENDBRANCH  13  14
ENDBRANCH  12  13
ENDBRANCH  11  12
ENDBRANCH  10  11
ENDBRANCH   9  10
ENDBRANCH   8   9
ENDBRANCH   7   8
ENDBRANCH   6   7
ENDBRANCH   5   6
ENDBRANCH   4   5
ENDBRANCH   3   4
ENDBRANCH   2   3
ENDBRANCH   1   2
BRANCH   1  17
ATOM     17  C   UNL     1      43.413  30.524   6.330  1.00  0.00     0.000 C 
BRANCH  17  18
ATOM     18  C   UNL     1      43.113  29.032   6.553  1.00  0.00     0.000 C 
BRANCH  18  19
ATOM     19  C   UNL     1      41.985  28.518   5.646  1.00  0.00     0.000 C 
BRANCH  19  20
ATOM     20  C   UNL     1      41.805  29.432   4.424  1.00  0.00     0.000 C 
BRANCH  20  21
ATOM     21  C   UNL     1      40.342  29.852   4.212  1.00  0.00     0.000 C 
BRANCH  21  22
ATOM     22  C   UNL     1      40.157  31.379   4.244  1.00  0.00    -0.000 C 
BRANCH  22  23
ATOM     23  C   UNL     1      41.099  32.108   3.272  1.00  0.00    -0.000 C 
BRANCH  23  24
ATOM     24  C   UNL     1      41.995  33.136   3.979  1.00  0.00    -0.000 C 
BRANCH  24  25
ATOM     25  C   UNL     1      43.352  33.259   3.268  1.00  0.00    -0.000 C 
BRANCH  25  26
ATOM     26  C   UNL     1      43.672  32.044   2.383  1.00  0.00    -0.000 C 
BRANCH  26  27
ATOM     27  C   UNL     1      44.124  32.442   0.970  1.00  0.00    -0.000 C 
BRANCH  27  28
ATOM     28  C   UNL     1      43.051  33.289   0.269  1.00  0.00    -0.000 C 
BRANCH  28  29
ATOM     29  C   UNL     1      42.078  32.441  -0.566  1.00  0.00    -0.003 C 
ATOM     30  C   UNL     1      40.782  33.180  -0.899  1.00  0.00     0.004 C 
ENDBRANCH  28  29
ENDBRANCH  27  28
ENDBRANCH  26  27
ENDBRANCH  25  26
ENDBRANCH  24  25
ENDBRANCH  23  24
ENDBRANCH  22  23
ENDBRANCH  21  22
ENDBRANCH  20  21
ENDBRANCH  19  20
ENDBRANCH  18  19
ENDBRANCH  17  18
ENDBRANCH   1  17
TORSDOF 26
ENDMDL
