MODEL 1
REMARK VINA RESULT:    -3.300      0.000      0.000
REMARK INTER + INTRA:          -4.865
REMARK INTER:                  -4.457
REMARK INTRA:                  -0.408
REMARK UNBOUND:                -0.408
REMARK SMILES O=C[C@@H](O)[C@@H](O)[C@H](O)CO
REMARK SMILES IDX 7 1 9 2 10 3 5 5 3 6 2 7 1 8 4 9 6 11 8 13
REMARK H PARENT 10 4 4 10 6 12 8 14
REMARK Flexibility Score: inf
ROOT
ATOM      1  C   UNL     1       0.613  25.382  26.880  1.00  0.00     0.171 C 
ENDROOT
BRANCH   1   2
ATOM      2  C   UNL     1       0.163  25.041  28.315  1.00  0.00     0.190 C 
BRANCH   2   3
ATOM      3  O   UNL     1       0.343  26.125  29.187  1.00  0.00    -0.394 OA
ATOM      4  H   UNL     1       0.335  25.758  30.109  1.00  0.00     0.210 HD
ENDBRANCH   2   3
ENDBRANCH   1   2
BRANCH   1   5
ATOM      5  C   UNL     1      -0.493  26.015  25.983  1.00  0.00     0.181 C 
BRANCH   5   6
ATOM      6  C   UNL     1      -0.710  25.313  24.616  1.00  0.00     0.209 C 
BRANCH   6   7
ATOM      7  C   UNL     1      -1.826  25.976  23.851  1.00  0.00     0.258 C 
ATOM      8  O   UNL     1      -1.788  26.042  22.632  1.00  0.00    -0.300 OA
ENDBRANCH   6   7
BRANCH   6   9
ATOM      9  O   UNL     1       0.469  25.380  23.855  1.00  0.00    -0.383 OA
ATOM     10  H   UNL     1       0.194  25.489  22.907  1.00  0.00     0.211 HD
ENDBRANCH   6   9
ENDBRANCH   5   6
BRANCH   5  11
ATOM     11  O   UNL     1      -1.698  26.125  26.703  1.00  0.00    -0.387 OA
ATOM     12  H   UNL     1      -1.740  27.036  27.094  1.00  0.00     0.211 HD
ENDBRANCH   5  11
ENDBRANCH   1   5
BRANCH   1  13
ATOM     13  O   UNL     1       1.148  24.234  26.273  1.00  0.00    -0.388 OA
ATOM     14  H   UNL     1       1.716  24.541  25.519  1.00  0.00     0.211 HD
ENDBRANCH   1  13
TORSDOF 8
ENDMDL
MODEL 2
REMARK VINA RESULT:    -3.015      1.011      4.202
REMARK INTER + INTRA:          -4.480
REMARK INTER:                  -4.337
REMARK INTRA:                  -0.143
REMARK UNBOUND:                -0.408
REMARK SMILES O=C[C@@H](O)[C@@H](O)[C@H](O)CO
REMARK SMILES IDX 7 1 9 2 10 3 5 5 3 6 2 7 1 8 4 9 6 11 8 13
REMARK H PARENT 10 4 4 10 6 12 8 14
REMARK Flexibility Score: inf
ROOT
ATOM      1  C   UNL     1      -0.682  25.691  24.518  1.00  0.00     0.171 C 
ENDROOT
BRANCH   1   2
ATOM      2  C   UNL     1       0.453  24.992  23.742  1.00  0.00     0.190 C 
BRANCH   2   3
ATOM      3  O   UNL     1      -0.040  24.255  22.655  1.00  0.00    -0.394 OA
ATOM      4  H   UNL     1      -0.922  24.644  22.418  1.00  0.00     0.210 HD
ENDBRANCH   2   3
ENDBRANCH   1   2
BRANCH   1   5
ATOM      5  C   UNL     1      -0.727  25.365  26.041  1.00  0.00     0.181 C 
BRANCH   5   6
ATOM      6  C   UNL     1       0.631  25.493  26.781  1.00  0.00     0.209 C 
BRANCH   6   7
ATOM      7  C   UNL     1       0.416  25.882  28.220  1.00  0.00     0.258 C 
ATOM      8  O   UNL     1      -0.116  25.106  28.999  1.00  0.00    -0.300 OA
ENDBRANCH   6   7
BRANCH   6   9
ATOM      9  O   UNL     1       1.313  24.266  26.736  1.00  0.00    -0.383 OA
ATOM     10  H   UNL     1       1.411  24.025  25.777  1.00  0.00     0.211 HD
ENDBRANCH   6   9
ENDBRANCH   5   6
BRANCH   5  11
ATOM     11  O   UNL     1      -1.731  26.125  26.670  1.00  0.00    -0.387 OA
ATOM     12  H   UNL     1      -2.606  25.855  26.289  1.00  0.00     0.211 HD
ENDBRANCH   5  11
ENDBRANCH   1   5
BRANCH   1  13
ATOM     13  O   UNL     1      -1.913  25.398  23.909  1.00  0.00    -0.388 OA
ATOM     14  H   UNL     1      -2.505  25.025  24.615  1.00  0.00     0.211 HD
ENDBRANCH   1  13
TORSDOF 8
ENDMDL
MODEL 3
REMARK VINA RESULT:    -2.760      1.447      4.227
REMARK INTER + INTRA:          -4.135
REMARK INTER:                  -3.860
REMARK INTRA:                  -0.275
REMARK UNBOUND:                -0.408
REMARK SMILES O=C[C@@H](O)[C@@H](O)[C@H](O)CO
REMARK SMILES IDX 7 1 9 2 10 3 5 5 3 6 2 7 1 8 4 9 6 11 8 13
REMARK H PARENT 10 4 4 10 6 12 8 14
REMARK Flexibility Score: inf
ROOT
ATOM      1  C   UNL     1      -0.748  25.351  24.885  1.00  0.00     0.171 C 
ENDROOT
BRANCH   1   2
ATOM      2  C   UNL     1      -0.600  25.800  23.417  1.00  0.00     0.190 C 
BRANCH   2   3
ATOM      3  O   UNL     1      -0.009  24.803  22.626  1.00  0.00    -0.394 OA
ATOM      4  H   UNL     1       0.807  25.200  22.225  1.00  0.00     0.210 HD
ENDBRANCH   2   3
ENDBRANCH   1   2
BRANCH   1   5
ATOM      5  C   UNL     1       0.596  25.195  25.658  1.00  0.00     0.181 C 
BRANCH   5   6
ATOM      6  C   UNL     1       0.505  25.440  27.188  1.00  0.00     0.209 C 
BRANCH   6   7
ATOM      7  C   UNL     1      -0.790  26.125  27.540  1.00  0.00     0.258 C 
ATOM      8  O   UNL     1      -1.213  26.100  28.685  1.00  0.00    -0.300 OA
ENDBRANCH   6   7
BRANCH   6   9
ATOM      9  O   UNL     1       0.574  24.214  27.870  1.00  0.00    -0.383 OA
ATOM     10  H   UNL     1      -0.303  23.764  27.742  1.00  0.00     0.211 HD
ENDBRANCH   6   9
ENDBRANCH   5   6
BRANCH   5  11
ATOM     11  O   UNL     1       1.180  23.947  25.370  1.00  0.00    -0.387 OA
ATOM     12  H   UNL     1       1.294  23.456  26.225  1.00  0.00     0.211 HD
ENDBRANCH   5  11
ENDBRANCH   1   5
BRANCH   1  13
ATOM     13  O   UNL     1      -1.491  24.160  24.936  1.00  0.00    -0.388 OA
ATOM     14  H   UNL     1      -2.263  24.272  24.320  1.00  0.00     0.211 HD
ENDBRANCH   1  13
TORSDOF 8
ENDMDL
MODEL 4
REMARK VINA RESULT:    -2.539      6.623      7.676
REMARK INTER + INTRA:          -3.837
REMARK INTER:                  -3.465
REMARK INTRA:                  -0.372
REMARK UNBOUND:                -0.408
REMARK SMILES O=C[C@@H](O)[C@@H](O)[C@H](O)CO
REMARK SMILES IDX 7 1 9 2 10 3 5 5 3 6 2 7 1 8 4 9 6 11 8 13
REMARK H PARENT 10 4 4 10 6 12 8 14
REMARK Flexibility Score: inf
ROOT
ATOM      1  C   UNL     1      -6.706  22.014  24.991  1.00  0.00     0.171 C 
ENDROOT
BRANCH   1   2
ATOM      2  C   UNL     1      -5.650  22.577  24.018  1.00  0.00     0.190 C 
BRANCH   2   3
ATOM      3  O   UNL     1      -5.688  21.926  22.776  1.00  0.00    -0.394 OA
ATOM      4  H   UNL     1      -6.289  21.143  22.879  1.00  0.00     0.210 HD
ENDBRANCH   2   3
ENDBRANCH   1   2
BRANCH   1   5
ATOM      5  C   UNL     1      -7.525  23.092  25.761  1.00  0.00     0.181 C 
BRANCH   5   6
ATOM      6  C   UNL     1      -6.957  24.534  25.674  1.00  0.00     0.209 C 
BRANCH   6   7
ATOM      7  C   UNL     1      -7.976  25.470  25.078  1.00  0.00     0.258 C 
ATOM      8  O   UNL     1      -8.266  25.399  23.895  1.00  0.00    -0.300 OA
ENDBRANCH   6   7
BRANCH   6   9
ATOM      9  O   UNL     1      -6.615  24.987  26.958  1.00  0.00    -0.383 OA
ATOM     10  H   UNL     1      -6.789  25.965  26.974  1.00  0.00     0.211 HD
ENDBRANCH   6   9
ENDBRANCH   5   6
BRANCH   5  11
ATOM     11  O   UNL     1      -8.876  23.046  25.369  1.00  0.00    -0.387 OA
ATOM     12  H   UNL     1      -8.913  22.737  24.427  1.00  0.00     0.211 HD
ENDBRANCH   5  11
ENDBRANCH   1   5
BRANCH   1  13
ATOM     13  O   UNL     1      -6.087  21.126  25.887  1.00  0.00    -0.388 OA
ATOM     14  H   UNL     1      -5.236  21.550  26.175  1.00  0.00     0.211 HD
ENDBRANCH   1  13
TORSDOF 8
ENDMDL
MODEL 5
REMARK VINA RESULT:    -2.531      6.593      7.322
REMARK INTER + INTRA:          -3.827
REMARK INTER:                  -3.154
REMARK INTRA:                  -0.673
REMARK UNBOUND:                -0.408
REMARK SMILES O=C[C@@H](O)[C@@H](O)[C@H](O)CO
REMARK SMILES IDX 7 1 9 2 10 3 5 5 3 6 2 7 1 8 4 9 6 11 8 13
REMARK H PARENT 10 4 4 10 6 12 8 14
REMARK Flexibility Score: inf
ROOT
ATOM      1  C   UNL     1      -7.145  23.923  26.751  1.00  0.00     0.171 C 
ENDROOT
BRANCH   1   2
ATOM      2  C   UNL     1      -7.041  25.442  26.992  1.00  0.00     0.190 C 
BRANCH   2   3
ATOM      3  O   UNL     1      -6.245  26.069  26.022  1.00  0.00    -0.394 OA
ATOM      4  H   UNL     1      -5.467  25.474  25.859  1.00  0.00     0.210 HD
ENDBRANCH   2   3
ENDBRANCH   1   2
BRANCH   1   5
ATOM      5  C   UNL     1      -6.838  23.471  25.293  1.00  0.00     0.181 C 
BRANCH   5   6
ATOM      6  C   UNL     1      -6.818  21.934  25.072  1.00  0.00     0.209 C 
BRANCH   6   7
ATOM      7  C   UNL     1      -5.911  21.575  23.923  1.00  0.00     0.258 C 
ATOM      8  O   UNL     1      -5.494  22.440  23.169  1.00  0.00    -0.300 OA
ENDBRANCH   6   7
BRANCH   6   9
ATOM      9  O   UNL     1      -6.358  21.294  26.235  1.00  0.00    -0.383 OA
ATOM     10  H   UNL     1      -6.362  21.973  26.959  1.00  0.00     0.211 HD
ENDBRANCH   6   9
ENDBRANCH   5   6
BRANCH   5  11
ATOM     11  O   UNL     1      -7.712  24.109  24.392  1.00  0.00    -0.387 OA
ATOM     12  H   UNL     1      -8.559  24.303  24.871  1.00  0.00     0.211 HD
ENDBRANCH   5  11
ENDBRANCH   1   5
BRANCH   1  13
ATOM     13  O   UNL     1      -8.414  23.473  27.155  1.00  0.00    -0.388 OA
ATOM     14  H   UNL     1      -8.979  24.279  27.289  1.00  0.00     0.211 HD
ENDBRANCH   1  13
TORSDOF 8
ENDMDL
MODEL 6
REMARK VINA RESULT:    -2.491      6.927      8.274
REMARK INTER + INTRA:          -3.773
REMARK INTER:                  -3.068
REMARK INTRA:                  -0.704
REMARK UNBOUND:                -0.408
REMARK SMILES O=C[C@@H](O)[C@@H](O)[C@H](O)CO
REMARK SMILES IDX 7 1 9 2 10 3 5 5 3 6 2 7 1 8 4 9 6 11 8 13
REMARK H PARENT 10 4 4 10 6 12 8 14
REMARK Flexibility Score: inf
ROOT
ATOM      1  C   UNL     1      -6.929  21.784  25.069  1.00  0.00     0.171 C 
ENDROOT
BRANCH   1   2
ATOM      2  C   UNL     1      -5.937  21.460  23.933  1.00  0.00     0.190 C 
BRANCH   2   3
ATOM      3  O   UNL     1      -5.284  22.611  23.469  1.00  0.00    -0.394 OA
ATOM      4  H   UNL     1      -5.965  23.332  23.429  1.00  0.00     0.210 HD
ENDBRANCH   2   3
ENDBRANCH   1   2
BRANCH   1   5
ATOM      5  C   UNL     1      -7.441  23.255  25.087  1.00  0.00     0.181 C 
BRANCH   5   6
ATOM      6  C   UNL     1      -8.898  23.437  25.588  1.00  0.00     0.209 C 
BRANCH   6   7
ATOM      7  C   UNL     1      -8.912  23.950  27.004  1.00  0.00     0.258 C 
ATOM      8  O   UNL     1      -8.335  23.340  27.890  1.00  0.00    -0.300 OA
ENDBRANCH   6   7
BRANCH   6   9
ATOM      9  O   UNL     1      -9.573  24.353  24.763  1.00  0.00    -0.383 OA
ATOM     10  H   UNL     1     -10.478  24.477  25.151  1.00  0.00     0.211 HD
ENDBRANCH   6   9
ENDBRANCH   5   6
BRANCH   5  11
ATOM     11  O   UNL     1      -6.545  24.072  25.802  1.00  0.00    -0.387 OA
ATOM     12  H   UNL     1      -6.641  23.862  26.767  1.00  0.00     0.211 HD
ENDBRANCH   5  11
ENDBRANCH   1   5
BRANCH   1  13
ATOM     13  O   UNL     1      -6.352  21.443  26.303  1.00  0.00    -0.388 OA
ATOM     14  H   UNL     1      -6.423  20.456  26.394  1.00  0.00     0.211 HD
ENDBRANCH   1  13
TORSDOF 8
ENDMDL
MODEL 7
REMARK VINA RESULT:    -2.412      7.075      8.247
REMARK INTER + INTRA:          -3.666
REMARK INTER:                  -2.995
REMARK INTRA:                  -0.671
REMARK UNBOUND:                -0.408
REMARK SMILES O=C[C@@H](O)[C@@H](O)[C@H](O)CO
REMARK SMILES IDX 7 1 9 2 10 3 5 5 3 6 2 7 1 8 4 9 6 11 8 13
REMARK H PARENT 10 4 4 10 6 12 8 14
REMARK Flexibility Score: inf
ROOT
ATOM      1  C   UNL     1      -8.215  23.894  26.383  1.00  0.00     0.171 C 
ENDROOT
BRANCH   1   2
ATOM      2  C   UNL     1      -9.634  23.774  25.790  1.00  0.00     0.190 C 
BRANCH   2   3
ATOM      3  O   UNL     1      -9.826  24.660  24.720  1.00  0.00    -0.394 OA
ATOM      4  H   UNL     1     -10.752  24.517  24.391  1.00  0.00     0.210 HD
ENDBRANCH   2   3
ENDBRANCH   1   2
BRANCH   1   5
ATOM      5  C   UNL     1      -7.074  23.389  25.451  1.00  0.00     0.181 C 
BRANCH   5   6
ATOM      6  C   UNL     1      -7.005  21.849  25.273  1.00  0.00     0.209 C 
BRANCH   6   7
ATOM      7  C   UNL     1      -6.281  21.493  24.001  1.00  0.00     0.258 C 
ATOM      8  O   UNL     1      -5.312  22.141  23.637  1.00  0.00    -0.300 OA
ENDBRANCH   6   7
BRANCH   6   9
ATOM      9  O   UNL     1      -6.326  21.275  26.361  1.00  0.00    -0.383 OA
ATOM     10  H   UNL     1      -6.641  20.336  26.435  1.00  0.00     0.211 HD
ENDBRANCH   6   9
ENDBRANCH   5   6
BRANCH   5  11
ATOM     11  O   UNL     1      -7.133  24.049  24.209  1.00  0.00    -0.387 OA
ATOM     12  H   UNL     1      -6.310  23.825  23.702  1.00  0.00     0.211 HD
ENDBRANCH   5  11
ENDBRANCH   1   5
BRANCH   1  13
ATOM     13  O   UNL     1      -8.171  23.238  27.624  1.00  0.00    -0.388 OA
ATOM     14  H   UNL     1      -8.454  23.897  28.311  1.00  0.00     0.211 HD
ENDBRANCH   1  13
TORSDOF 8
ENDMDL
MODEL 8
REMARK VINA RESULT:    -2.327      6.984      8.210
REMARK INTER + INTRA:          -3.551
REMARK INTER:                  -3.280
REMARK INTRA:                  -0.271
REMARK UNBOUND:                -0.408
REMARK SMILES O=C[C@@H](O)[C@@H](O)[C@H](O)CO
REMARK SMILES IDX 7 1 9 2 10 3 5 5 3 6 2 7 1 8 4 9 6 11 8 13
REMARK H PARENT 10 4 4 10 6 12 8 14
REMARK Flexibility Score: inf
ROOT
ATOM      1  C   UNL     1      -9.017  23.555  25.642  1.00  0.00     0.171 C 
ENDROOT
BRANCH   1   2
ATOM      2  C   UNL     1      -9.962  24.039  26.761  1.00  0.00     0.190 C 
BRANCH   2   3
ATOM      3  O   UNL     1      -9.356  23.957  28.024  1.00  0.00    -0.394 OA
ATOM      4  H   UNL     1      -9.138  23.002  28.177  1.00  0.00     0.210 HD
ENDBRANCH   2   3
ENDBRANCH   1   2
BRANCH   1   5
ATOM      5  C   UNL     1      -7.613  23.090  26.130  1.00  0.00     0.181 C 
BRANCH   5   6
ATOM      6  C   UNL     1      -6.942  21.999  25.253  1.00  0.00     0.209 C 
BRANCH   6   7
ATOM      7  C   UNL     1      -6.043  22.627  24.220  1.00  0.00     0.258 C 
ATOM      8  O   UNL     1      -5.594  21.961  23.301  1.00  0.00    -0.300 OA
ENDBRANCH   6   7
BRANCH   6   9
ATOM      9  O   UNL     1      -6.178  21.143  26.063  1.00  0.00    -0.383 OA
ATOM     10  H   UNL     1      -6.248  21.486  26.992  1.00  0.00     0.211 HD
ENDBRANCH   6   9
ENDBRANCH   5   6
BRANCH   5  11
ATOM     11  O   UNL     1      -6.767  24.202  26.305  1.00  0.00    -0.387 OA
ATOM     12  H   UNL     1      -7.044  24.904  25.661  1.00  0.00     0.211 HD
ENDBRANCH   5  11
ENDBRANCH   1   5
BRANCH   1  13
ATOM     13  O   UNL     1      -8.898  24.559  24.666  1.00  0.00    -0.388 OA
ATOM     14  H   UNL     1      -9.639  25.202  24.819  1.00  0.00     0.211 HD
ENDBRANCH   1  13
TORSDOF 8
ENDMDL
MODEL 9
REMARK VINA RESULT:    -2.209      6.915      8.251
REMARK INTER + INTRA:          -3.392
REMARK INTER:                  -2.959
REMARK INTRA:                  -0.433
REMARK UNBOUND:                -0.408
REMARK SMILES O=C[C@@H](O)[C@@H](O)[C@H](O)CO
REMARK SMILES IDX 7 1 9 2 10 3 5 5 3 6 2 7 1 8 4 9 6 11 8 13
REMARK H PARENT 10 4 4 10 6 12 8 14
REMARK Flexibility Score: inf
ROOT
ATOM      1  C   UNL     1      -7.028  23.413  25.673  1.00  0.00     0.171 C 
ENDROOT
BRANCH   1   2
ATOM      2  C   UNL     1      -7.134  21.934  25.249  1.00  0.00     0.190 C 
BRANCH   2   3
ATOM      3  O   UNL     1      -6.100  21.160  25.798  1.00  0.00    -0.394 OA
ATOM      4  H   UNL     1      -6.088  21.345  26.772  1.00  0.00     0.210 HD
ENDBRANCH   2   3
ENDBRANCH   1   2
BRANCH   1   5
ATOM      5  C   UNL     1      -7.865  23.792  26.931  1.00  0.00     0.181 C 
BRANCH   5   6
ATOM      6  C   UNL     1      -7.598  25.215  27.492  1.00  0.00     0.209 C 
BRANCH   6   7
ATOM      7  C   UNL     1      -7.807  25.245  28.984  1.00  0.00     0.258 C 
ATOM      8  O   UNL     1      -8.267  24.274  29.565  1.00  0.00    -0.300 OA
ENDBRANCH   6   7
BRANCH   6   9
ATOM      9  O   UNL     1      -6.276  25.596  27.209  1.00  0.00    -0.383 OA
ATOM     10  H   UNL     1      -5.740  25.405  28.022  1.00  0.00     0.211 HD
ENDBRANCH   6   9
ENDBRANCH   5   6
BRANCH   5  11
ATOM     11  O   UNL     1      -9.235  23.585  26.684  1.00  0.00    -0.387 OA
ATOM     12  H   UNL     1      -9.636  23.180  27.495  1.00  0.00     0.211 HD
ENDBRANCH   5  11
ENDBRANCH   1   5
BRANCH   1  13
ATOM     13  O   UNL     1      -7.365  24.235  24.585  1.00  0.00    -0.388 OA
ATOM     14  H   UNL     1      -7.868  23.671  23.940  1.00  0.00     0.211 HD
ENDBRANCH   1  13
TORSDOF 8
ENDMDL
