MODEL 1
REMARK VINA RESULT:    -6.313      0.000      0.000
REMARK INTER + INTRA:         -11.015
REMARK INTER:                  -9.635
REMARK INTRA:                  -1.381
REMARK UNBOUND:                -1.381
REMARK SMILES CC(=O)CCC=C(C)CCC=C(C)CCC=C(C)C
REMARK SMILES IDX 10 1 11 2 12 3 13 4 14 5 15 6 16 7 18 8 17 9 19 10 9 11 7 12
REMARK SMILES IDX 6 13 8 14 5 15 4 16 2 17 3 18 1 19
REMARK H PARENT
REMARK Flexibility Score: inf
ROOT
ATOM      1  C   UNL     1       1.494 -25.415 -12.482  1.00  0.00     0.032 C 
ENDROOT
BRANCH   1   2
ATOM      2  C   UNL     1       1.290 -26.764 -13.130  1.00  0.00    -0.028 C 
ATOM      3  C   UNL     1       1.465 -27.954 -12.513  1.00  0.00    -0.077 C 
ATOM      4  C   UNL     1       1.137 -29.209 -13.281  1.00  0.00     0.039 C 
BRANCH   3   5
ATOM      5  C   UNL     1       2.008 -28.082 -11.100  1.00  0.00     0.034 C 
BRANCH   5   6
ATOM      6  C   UNL     1       3.485 -28.504 -11.091  1.00  0.00     0.032 C 
BRANCH   6   7
ATOM      7  C   UNL     1       4.385 -27.387 -10.621  1.00  0.00    -0.028 C 
ATOM      8  C   UNL     1       6.490 -28.594 -11.246  1.00  0.00     0.039 C 
ATOM      9  C   UNL     1       5.734 -27.400 -10.712  1.00  0.00    -0.080 C 
ATOM     10  C   UNL     1       6.496 -26.186 -10.246  1.00  0.00     0.039 C 
ENDBRANCH   6   7
ENDBRANCH   5   6
ENDBRANCH   3   5
ENDBRANCH   1   2
BRANCH   1  11
ATOM     11  C   UNL     1       0.163 -24.787 -12.045  1.00  0.00     0.034 C 
BRANCH  11  12
ATOM     12  C   UNL     1       0.226 -24.267 -10.619  1.00  0.00    -0.077 C 
ATOM     13  C   UNL     1      -0.428 -23.156 -10.211  1.00  0.00    -0.028 C 
ATOM     14  C   UNL     1       1.022 -25.041  -9.599  1.00  0.00     0.039 C 
BRANCH  13  15
ATOM     15  C   UNL     1      -1.207 -22.229 -11.114  1.00  0.00     0.035 C 
BRANCH  15  16
ATOM     16  C   UNL     1      -2.645 -22.032 -10.614  1.00  0.00     0.079 C 
BRANCH  16  17
ATOM     17  C   UNL     1      -3.352 -23.350 -10.427  1.00  0.00     0.130 C 
ATOM     18  O   UNL     1      -3.814 -23.635  -9.332  1.00  0.00    -0.300 OA
ATOM     19  C   UNL     1      -3.499 -24.323 -11.558  1.00  0.00     0.087 C 
ENDBRANCH  16  17
ENDBRANCH  15  16
ENDBRANCH  13  15
ENDBRANCH  11  12
ENDBRANCH   1  11
TORSDOF 9
ENDMDL
MODEL 2
REMARK VINA RESULT:    -6.284      0.870      1.078
REMARK INTER + INTRA:         -10.971
REMARK INTER:                  -9.131
REMARK INTRA:                  -1.840
REMARK UNBOUND:                -1.381
REMARK SMILES CC(=O)CCC=C(C)CCC=C(C)CCC=C(C)C
REMARK SMILES IDX 10 1 11 2 12 3 13 4 14 5 15 6 16 7 18 8 17 9 19 10 9 11 7 12
REMARK SMILES IDX 6 13 8 14 5 15 4 16 2 17 3 18 1 19
REMARK H PARENT
REMARK Flexibility Score: inf
ROOT
ATOM      1  C   UNL     1       0.343 -25.234 -12.598  1.00  0.00     0.032 C 
ENDROOT
BRANCH   1   2
ATOM      2  C   UNL     1       1.194 -26.110 -13.487  1.00  0.00    -0.028 C 
ATOM      3  C   UNL     1       1.419 -27.428 -13.290  1.00  0.00    -0.077 C 
ATOM      4  C   UNL     1       2.227 -28.175 -14.320  1.00  0.00     0.039 C 
BRANCH   3   5
ATOM      5  C   UNL     1       0.926 -28.177 -12.064  1.00  0.00     0.034 C 
BRANCH   5   6
ATOM      6  C   UNL     1       2.079 -28.841 -11.296  1.00  0.00     0.032 C 
BRANCH   6   7
ATOM      7  C   UNL     1       3.030 -27.820 -10.718  1.00  0.00    -0.028 C 
ATOM      8  C   UNL     1       5.044 -28.821 -11.821  1.00  0.00     0.039 C 
ATOM      9  C   UNL     1       4.357 -27.780 -10.969  1.00  0.00    -0.080 C 
ATOM     10  C   UNL     1       5.169 -26.668 -10.357  1.00  0.00     0.039 C 
ENDBRANCH   6   7
ENDBRANCH   5   6
ENDBRANCH   3   5
ENDBRANCH   1   2
BRANCH   1  11
ATOM     11  C   UNL     1       1.181 -24.540 -11.514  1.00  0.00     0.034 C 
BRANCH  11  12
ATOM     12  C   UNL     1       0.472 -24.532 -10.171  1.00  0.00    -0.077 C 
ATOM     13  C   UNL     1      -0.483 -23.630  -9.848  1.00  0.00    -0.028 C 
ATOM     14  C   UNL     1       0.816 -25.597  -9.162  1.00  0.00     0.039 C 
BRANCH  13  15
ATOM     15  C   UNL     1      -0.895 -22.459 -10.709  1.00  0.00     0.035 C 
BRANCH  15  16
ATOM     16  C   UNL     1      -2.378 -22.114 -10.518  1.00  0.00     0.079 C 
BRANCH  16  17
ATOM     17  C   UNL     1      -3.222 -23.355 -10.373  1.00  0.00     0.130 C 
ATOM     18  O   UNL     1      -3.775 -23.585  -9.308  1.00  0.00    -0.300 OA
ATOM     19  C   UNL     1      -3.395 -24.317 -11.510  1.00  0.00     0.087 C 
ENDBRANCH  16  17
ENDBRANCH  15  16
ENDBRANCH  13  15
ENDBRANCH  11  12
ENDBRANCH   1  11
TORSDOF 9
ENDMDL
MODEL 3
REMARK VINA RESULT:    -6.052      2.535      7.526
REMARK INTER + INTRA:         -10.616
REMARK INTER:                  -9.239
REMARK INTRA:                  -1.377
REMARK UNBOUND:                -1.381
REMARK SMILES CC(=O)CCC=C(C)CCC=C(C)CCC=C(C)C
REMARK SMILES IDX 10 1 11 2 12 3 13 4 14 5 15 6 16 7 18 8 17 9 19 10 9 11 7 12
REMARK SMILES IDX 6 13 8 14 5 15 4 16 2 17 3 18 1 19
REMARK H PARENT
REMARK Flexibility Score: inf
ROOT
ATOM      1  C   UNL     1       0.220 -24.992 -10.749  1.00  0.00     0.032 C 
ENDROOT
BRANCH   1   2
ATOM      2  C   UNL     1       0.003 -23.498 -10.737  1.00  0.00    -0.028 C 
ATOM      3  C   UNL     1      -1.083 -22.877 -10.224  1.00  0.00    -0.077 C 
ATOM      4  C   UNL     1      -1.105 -21.370 -10.217  1.00  0.00     0.039 C 
BRANCH   3   5
ATOM      5  C   UNL     1      -2.290 -23.628  -9.688  1.00  0.00     0.034 C 
BRANCH   5   6
ATOM      6  C   UNL     1      -3.570 -23.282 -10.464  1.00  0.00     0.032 C 
BRANCH   6   7
ATOM      7  C   UNL     1      -3.364 -23.375 -11.957  1.00  0.00    -0.028 C 
ATOM      8  C   UNL     1      -4.019 -20.992 -12.366  1.00  0.00     0.039 C 
ATOM      9  C   UNL     1      -3.532 -22.348 -12.820  1.00  0.00    -0.080 C 
ATOM     10  C   UNL     1      -3.239 -22.582 -14.279  1.00  0.00     0.039 C 
ENDBRANCH   6   7
ENDBRANCH   5   6
ENDBRANCH   3   5
ENDBRANCH   1   2
BRANCH   1  11
ATOM     11  C   UNL     1       1.197 -25.434  -9.650  1.00  0.00     0.034 C 
BRANCH  11  12
ATOM     12  C   UNL     1       2.631 -25.469 -10.151  1.00  0.00    -0.077 C 
ATOM     13  C   UNL     1       3.200 -26.577 -10.677  1.00  0.00    -0.028 C 
ATOM     14  C   UNL     1       3.450 -24.205 -10.095  1.00  0.00     0.039 C 
BRANCH  13  15
ATOM     15  C   UNL     1       2.548 -27.938 -10.740  1.00  0.00     0.035 C 
BRANCH  15  16
ATOM     16  C   UNL     1       2.819 -28.630 -12.083  1.00  0.00     0.079 C 
BRANCH  16  17
ATOM     17  C   UNL     1       1.697 -28.399 -13.063  1.00  0.00     0.130 C 
ATOM     18  O   UNL     1       0.993 -29.337 -13.403  1.00  0.00    -0.300 OA
ATOM     19  C   UNL     1       1.428 -27.038 -13.632  1.00  0.00     0.087 C 
ENDBRANCH  16  17
ENDBRANCH  15  16
ENDBRANCH  13  15
ENDBRANCH  11  12
ENDBRANCH   1  11
TORSDOF 9
ENDMDL
MODEL 4
REMARK VINA RESULT:    -6.050      2.561      7.272
REMARK INTER + INTRA:         -10.614
REMARK INTER:                  -8.648
REMARK INTRA:                  -1.965
REMARK UNBOUND:                -1.381
REMARK SMILES CC(=O)CCC=C(C)CCC=C(C)CCC=C(C)C
REMARK SMILES IDX 10 1 11 2 12 3 13 4 14 5 15 6 16 7 18 8 17 9 19 10 9 11 7 12
REMARK SMILES IDX 6 13 8 14 5 15 4 16 2 17 3 18 1 19
REMARK H PARENT
REMARK Flexibility Score: inf
ROOT
ATOM      1  C   UNL     1       0.538 -24.961  -8.751  1.00  0.00     0.032 C 
ENDROOT
BRANCH   1   2
ATOM      2  C   UNL     1      -0.944 -24.778  -8.971  1.00  0.00    -0.028 C 
ATOM      3  C   UNL     1      -1.503 -23.784  -9.696  1.00  0.00    -0.077 C 
ATOM      4  C   UNL     1      -2.999 -23.794  -9.886  1.00  0.00     0.039 C 
BRANCH   3   5
ATOM      5  C   UNL     1      -0.698 -22.644 -10.296  1.00  0.00     0.034 C 
BRANCH   5   6
ATOM      6  C   UNL     1      -1.031 -22.426 -11.780  1.00  0.00     0.032 C 
BRANCH   6   7
ATOM      7  C   UNL     1      -1.767 -21.127 -12.006  1.00  0.00    -0.028 C 
ATOM      8  C   UNL     1      -3.648 -22.214 -13.252  1.00  0.00     0.039 C 
ATOM      9  C   UNL     1      -2.957 -21.020 -12.638  1.00  0.00    -0.080 C 
ATOM     10  C   UNL     1      -3.593 -19.658 -12.742  1.00  0.00     0.039 C 
ENDBRANCH   6   7
ENDBRANCH   5   6
ENDBRANCH   3   5
ENDBRANCH   1   2
BRANCH   1  11
ATOM     11  C   UNL     1       1.159 -25.887  -9.806  1.00  0.00     0.034 C 
BRANCH  11  12
ATOM     12  C   UNL     1       2.091 -25.134 -10.741  1.00  0.00    -0.077 C 
ATOM     13  C   UNL     1       1.932 -25.119 -12.083  1.00  0.00    -0.028 C 
ATOM     14  C   UNL     1       3.224 -24.336 -10.148  1.00  0.00     0.039 C 
BRANCH  13  15
ATOM     15  C   UNL     1       0.899 -25.917 -12.843  1.00  0.00     0.035 C 
BRANCH  15  16
ATOM     16  C   UNL     1       1.536 -27.094 -13.593  1.00  0.00     0.079 C 
BRANCH  16  17
ATOM     17  C   UNL     1       1.678 -28.305 -12.708  1.00  0.00     0.130 C 
ATOM     18  O   UNL     1       0.735 -29.072 -12.580  1.00  0.00    -0.300 OA
ATOM     19  C   UNL     1       2.956 -28.590 -11.975  1.00  0.00     0.087 C 
ENDBRANCH  16  17
ENDBRANCH  15  16
ENDBRANCH  13  15
ENDBRANCH  11  12
ENDBRANCH   1  11
TORSDOF 9
ENDMDL
MODEL 5
REMARK VINA RESULT:    -5.938      3.315      5.598
REMARK INTER + INTRA:         -10.443
REMARK INTER:                  -9.339
REMARK INTRA:                  -1.104
REMARK UNBOUND:                -1.381
REMARK SMILES CC(=O)CCC=C(C)CCC=C(C)CCC=C(C)C
REMARK SMILES IDX 10 1 11 2 12 3 13 4 14 5 15 6 16 7 18 8 17 9 19 10 9 11 7 12
REMARK SMILES IDX 6 13 8 14 5 15 4 16 2 17 3 18 1 19
REMARK H PARENT
REMARK Flexibility Score: inf
ROOT
ATOM      1  C   UNL     1      -1.868 -21.724 -10.442  1.00  0.00     0.032 C 
ENDROOT
BRANCH   1   2
ATOM      2  C   UNL     1      -1.423 -22.832  -9.518  1.00  0.00    -0.028 C 
ATOM      3  C   UNL     1      -0.868 -23.999  -9.918  1.00  0.00    -0.077 C 
ATOM      4  C   UNL     1      -0.402 -24.966  -8.859  1.00  0.00     0.039 C 
BRANCH   3   5
ATOM      5  C   UNL     1      -0.728 -24.390 -11.378  1.00  0.00     0.034 C 
BRANCH   5   6
ATOM      6  C   UNL     1       0.718 -24.773 -11.732  1.00  0.00     0.032 C 
BRANCH   6   7
ATOM      7  C   UNL     1       0.783 -26.073 -12.498  1.00  0.00    -0.028 C 
ATOM      8  C   UNL     1       1.695 -27.367 -10.557  1.00  0.00     0.039 C 
ATOM      9  C   UNL     1       1.190 -27.251 -11.976  1.00  0.00    -0.080 C 
ATOM     10  C   UNL     1       1.151 -28.476 -12.854  1.00  0.00     0.039 C 
ENDBRANCH   6   7
ENDBRANCH   5   6
ENDBRANCH   3   5
ENDBRANCH   1   2
BRANCH   1  11
ATOM     11  C   UNL     1      -3.384 -21.762 -10.686  1.00  0.00     0.034 C 
BRANCH  11  12
ATOM     12  C   UNL     1      -3.740 -21.318 -12.094  1.00  0.00    -0.077 C 
ATOM     13  C   UNL     1      -4.844 -20.590 -12.379  1.00  0.00    -0.028 C 
ATOM     14  C   UNL     1      -2.806 -21.668 -13.224  1.00  0.00     0.039 C 
BRANCH  13  15
ATOM     15  C   UNL     1      -5.917 -20.217 -11.384  1.00  0.00     0.035 C 
BRANCH  15  16
ATOM     16  C   UNL     1      -6.913 -19.214 -11.979  1.00  0.00     0.079 C 
BRANCH  16  17
ATOM     17  C   UNL     1      -8.338 -19.606 -11.684  1.00  0.00     0.130 C 
ATOM     18  O   UNL     1      -8.592 -20.231 -10.666  1.00  0.00    -0.300 OA
ATOM     19  C   UNL     1      -9.454 -19.247 -12.619  1.00  0.00     0.087 C 
ENDBRANCH  16  17
ENDBRANCH  15  16
ENDBRANCH  13  15
ENDBRANCH  11  12
ENDBRANCH   1  11
TORSDOF 9
ENDMDL
MODEL 6
REMARK VINA RESULT:    -5.924      2.868      7.260
REMARK INTER + INTRA:         -10.421
REMARK INTER:                  -8.112
REMARK INTRA:                  -2.309
REMARK UNBOUND:                -1.381
REMARK SMILES CC(=O)CCC=C(C)CCC=C(C)CCC=C(C)C
REMARK SMILES IDX 10 1 11 2 12 3 13 4 14 5 15 6 16 7 18 8 17 9 19 10 9 11 7 12
REMARK SMILES IDX 6 13 8 14 5 15 4 16 2 17 3 18 1 19
REMARK H PARENT
REMARK Flexibility Score: inf
ROOT
ATOM      1  C   UNL     1       0.892 -26.141 -12.602  1.00  0.00     0.032 C 
ENDROOT
BRANCH   1   2
ATOM      2  C   UNL     1       1.857 -25.248 -11.861  1.00  0.00    -0.028 C 
ATOM      3  C   UNL     1       1.899 -25.096 -10.518  1.00  0.00    -0.077 C 
ATOM      4  C   UNL     1       2.982 -24.227  -9.932  1.00  0.00     0.039 C 
BRANCH   3   5
ATOM      5  C   UNL     1       0.886 -25.733  -9.582  1.00  0.00     0.034 C 
BRANCH   5   6
ATOM      6  C   UNL     1      -0.138 -24.710  -9.067  1.00  0.00     0.032 C 
BRANCH   6   7
ATOM      7  C   UNL     1      -1.286 -24.530 -10.031  1.00  0.00    -0.028 C 
ATOM      8  C   UNL     1      -0.773 -22.115 -10.453  1.00  0.00     0.039 C 
ATOM      9  C   UNL     1      -1.565 -23.380 -10.684  1.00  0.00    -0.080 C 
ATOM     10  C   UNL     1      -2.717 -23.369 -11.656  1.00  0.00     0.039 C 
ENDBRANCH   6   7
ENDBRANCH   5   6
ENDBRANCH   3   5
ENDBRANCH   1   2
BRANCH   1  11
ATOM     11  C   UNL     1       1.560 -27.448 -13.055  1.00  0.00     0.034 C 
BRANCH  11  12
ATOM     12  C   UNL     1       1.647 -28.459 -11.925  1.00  0.00    -0.077 C 
ATOM     13  C   UNL     1       2.807 -28.770 -11.304  1.00  0.00    -0.028 C 
ATOM     14  C   UNL     1       0.381 -29.122 -11.445  1.00  0.00     0.039 C 
BRANCH  13  15
ATOM     15  C   UNL     1       4.169 -28.255 -11.704  1.00  0.00     0.035 C 
BRANCH  15  16
ATOM     16  C   UNL     1       4.809 -27.424 -10.584  1.00  0.00     0.079 C 
BRANCH  16  17
ATOM     17  C   UNL     1       6.249 -27.099 -10.888  1.00  0.00     0.130 C 
ATOM     18  O   UNL     1       6.732 -27.446 -11.955  1.00  0.00    -0.300 OA
ATOM     19  C   UNL     1       7.105 -26.360  -9.904  1.00  0.00     0.087 C 
ENDBRANCH  16  17
ENDBRANCH  15  16
ENDBRANCH  13  15
ENDBRANCH  11  12
ENDBRANCH   1  11
TORSDOF 9
ENDMDL
MODEL 7
REMARK VINA RESULT:    -5.855      1.175      1.502
REMARK INTER + INTRA:         -10.316
REMARK INTER:                  -8.981
REMARK INTRA:                  -1.334
REMARK UNBOUND:                -1.381
REMARK SMILES CC(=O)CCC=C(C)CCC=C(C)CCC=C(C)C
REMARK SMILES IDX 10 1 11 2 12 3 13 4 14 5 15 6 16 7 18 8 17 9 19 10 9 11 7 12
REMARK SMILES IDX 6 13 8 14 5 15 4 16 2 17 3 18 1 19
REMARK H PARENT
REMARK Flexibility Score: inf
ROOT
ATOM      1  C   UNL     1       1.307 -25.158 -11.846  1.00  0.00     0.032 C 
ENDROOT
BRANCH   1   2
ATOM      2  C   UNL     1       1.267 -26.387 -12.722  1.00  0.00    -0.028 C 
ATOM      3  C   UNL     1       1.280 -27.661 -12.271  1.00  0.00    -0.077 C 
ATOM      4  C   UNL     1       1.150 -28.775 -13.278  1.00  0.00     0.039 C 
BRANCH   3   5
ATOM      5  C   UNL     1       1.454 -28.018 -10.805  1.00  0.00     0.034 C 
BRANCH   5   6
ATOM      6  C   UNL     1       2.872 -27.704 -10.304  1.00  0.00     0.032 C 
BRANCH   6   7
ATOM      7  C   UNL     1       3.917 -28.517 -11.031  1.00  0.00    -0.028 C 
ATOM      8  C   UNL     1       5.776 -26.929 -10.484  1.00  0.00     0.039 C 
ATOM      9  C   UNL     1       5.229 -28.198 -11.094  1.00  0.00    -0.080 C 
ATOM     10  C   UNL     1       6.161 -29.137 -11.816  1.00  0.00     0.039 C 
ENDBRANCH   6   7
ENDBRANCH   5   6
ENDBRANCH   3   5
ENDBRANCH   1   2
BRANCH   1  11
ATOM     11  C   UNL     1      -0.075 -24.500 -11.725  1.00  0.00     0.034 C 
BRANCH  11  12
ATOM     12  C   UNL     1      -0.413 -24.156 -10.285  1.00  0.00    -0.077 C 
ATOM     13  C   UNL     1      -1.069 -23.027  -9.932  1.00  0.00    -0.028 C 
ATOM     14  C   UNL     1      -0.035 -25.129  -9.198  1.00  0.00     0.039 C 
BRANCH  13  15
ATOM     15  C   UNL     1      -1.455 -21.917 -10.881  1.00  0.00     0.035 C 
BRANCH  15  16
ATOM     16  C   UNL     1      -2.967 -21.902 -11.145  1.00  0.00     0.079 C 
BRANCH  16  17
ATOM     17  C   UNL     1      -3.347 -22.862 -12.243  1.00  0.00     0.130 C 
ATOM     18  O   UNL     1      -3.693 -23.998 -11.957  1.00  0.00    -0.300 OA
ATOM     19  C   UNL     1      -3.306 -22.452 -13.685  1.00  0.00     0.087 C 
ENDBRANCH  16  17
ENDBRANCH  15  16
ENDBRANCH  13  15
ENDBRANCH  11  12
ENDBRANCH   1  11
TORSDOF 9
ENDMDL
MODEL 8
REMARK VINA RESULT:    -5.816      3.321      8.952
REMARK INTER + INTRA:         -10.256
REMARK INTER:                  -8.780
REMARK INTRA:                  -1.476
REMARK UNBOUND:                -1.381
REMARK SMILES CC(=O)CCC=C(C)CCC=C(C)CCC=C(C)C
REMARK SMILES IDX 10 1 11 2 12 3 13 4 14 5 15 6 16 7 18 8 17 9 19 10 9 11 7 12
REMARK SMILES IDX 6 13 8 14 5 15 4 16 2 17 3 18 1 19
REMARK H PARENT
REMARK Flexibility Score: inf
ROOT
ATOM      1  C   UNL     1      -3.421 -23.431 -10.459  1.00  0.00     0.032 C 
ENDROOT
BRANCH   1   2
ATOM      2  C   UNL     1      -3.493 -23.377 -11.966  1.00  0.00    -0.028 C 
ATOM      3  C   UNL     1      -3.386 -22.252 -12.707  1.00  0.00    -0.077 C 
ATOM      4  C   UNL     1      -3.397 -22.384 -14.209  1.00  0.00     0.039 C 
BRANCH   3   5
ATOM      5  C   UNL     1      -3.292 -20.865 -12.096  1.00  0.00     0.034 C 
BRANCH   5   6
ATOM      6  C   UNL     1      -4.446 -19.959 -12.551  1.00  0.00     0.032 C 
BRANCH   6   7
ATOM      7  C   UNL     1      -5.721 -20.253 -11.797  1.00  0.00    -0.028 C 
ATOM      8  C   UNL     1      -6.853 -18.150 -12.554  1.00  0.00     0.039 C 
ATOM      9  C   UNL     1      -6.820 -19.466 -11.814  1.00  0.00    -0.080 C 
ATOM     10  C   UNL     1      -8.038 -19.919 -11.050  1.00  0.00     0.039 C 
ENDBRANCH   6   7
ENDBRANCH   5   6
ENDBRANCH   3   5
ENDBRANCH   1   2
BRANCH   1  11
ATOM     11  C   UNL     1      -2.082 -24.007  -9.974  1.00  0.00     0.034 C 
BRANCH  11  12
ATOM     12  C   UNL     1      -0.904 -23.179 -10.457  1.00  0.00    -0.077 C 
ATOM     13  C   UNL     1      -0.030 -23.619 -11.391  1.00  0.00    -0.028 C 
ATOM     14  C   UNL     1      -0.716 -21.790  -9.903  1.00  0.00     0.039 C 
BRANCH  13  15
ATOM     15  C   UNL     1      -0.030 -25.004 -11.994  1.00  0.00     0.035 C 
BRANCH  15  16
ATOM     16  C   UNL     1       1.395 -25.482 -12.306  1.00  0.00     0.079 C 
BRANCH  16  17
ATOM     17  C   UNL     1       2.152 -25.827 -11.049  1.00  0.00     0.130 C 
ATOM     18  O   UNL     1       3.304 -25.441 -10.915  1.00  0.00    -0.300 OA
ATOM     19  C   UNL     1       1.521 -26.638  -9.957  1.00  0.00     0.087 C 
ENDBRANCH  16  17
ENDBRANCH  15  16
ENDBRANCH  13  15
ENDBRANCH  11  12
ENDBRANCH   1  11
TORSDOF 9
ENDMDL
MODEL 9
REMARK VINA RESULT:    -5.768      2.535      8.028
REMARK INTER + INTRA:         -10.183
REMARK INTER:                  -9.166
REMARK INTRA:                  -1.017
REMARK UNBOUND:                -1.381
REMARK SMILES CC(=O)CCC=C(C)CCC=C(C)CCC=C(C)C
REMARK SMILES IDX 10 1 11 2 12 3 13 4 14 5 15 6 16 7 18 8 17 9 19 10 9 11 7 12
REMARK SMILES IDX 6 13 8 14 5 15 4 16 2 17 3 18 1 19
REMARK H PARENT
REMARK Flexibility Score: inf
ROOT
ATOM      1  C   UNL     1       1.819 -26.097 -10.560  1.00  0.00     0.032 C 
ENDROOT
BRANCH   1   2
ATOM      2  C   UNL     1       0.796 -25.427  -9.674  1.00  0.00    -0.028 C 
ATOM      3  C   UNL     1      -0.173 -24.589 -10.106  1.00  0.00    -0.077 C 
ATOM      4  C   UNL     1      -1.168 -24.070  -9.099  1.00  0.00     0.039 C 
BRANCH   3   5
ATOM      5  C   UNL     1      -0.280 -24.121 -11.547  1.00  0.00     0.034 C 
BRANCH   5   6
ATOM      6  C   UNL     1      -1.734 -23.831 -11.948  1.00  0.00     0.032 C 
BRANCH   6   7
ATOM      7  C   UNL     1      -1.903 -22.422 -12.466  1.00  0.00    -0.028 C 
ATOM      8  C   UNL     1      -3.640 -21.823 -10.763  1.00  0.00     0.039 C 
ATOM      9  C   UNL     1      -2.732 -21.501 -11.926  1.00  0.00    -0.080 C 
ATOM     10  C   UNL     1      -2.754 -20.118 -12.525  1.00  0.00     0.039 C 
ENDBRANCH   6   7
ENDBRANCH   5   6
ENDBRANCH   3   5
ENDBRANCH   1   2
BRANCH   1  11
ATOM     11  C   UNL     1       1.690 -27.627 -10.521  1.00  0.00     0.034 C 
BRANCH  11  12
ATOM     12  C   UNL     1       2.405 -28.283 -11.690  1.00  0.00    -0.077 C 
ATOM     13  C   UNL     1       3.718 -28.604 -11.663  1.00  0.00    -0.028 C 
ATOM     14  C   UNL     1       1.611 -28.629 -12.924  1.00  0.00     0.039 C 
BRANCH  13  15
ATOM     15  C   UNL     1       4.670 -28.265 -10.541  1.00  0.00     0.035 C 
BRANCH  15  16
ATOM     16  C   UNL     1       5.983 -27.675 -11.074  1.00  0.00     0.079 C 
BRANCH  16  17
ATOM     17  C   UNL     1       6.359 -26.410 -10.347  1.00  0.00     0.130 C 
ATOM     18  O   UNL     1       5.635 -25.429 -10.431  1.00  0.00    -0.300 OA
ATOM     19  C   UNL     1       7.609 -26.327  -9.522  1.00  0.00     0.087 C 
ENDBRANCH  16  17
ENDBRANCH  15  16
ENDBRANCH  13  15
ENDBRANCH  11  12
ENDBRANCH   1  11
TORSDOF 9
ENDMDL
