MODEL 1
REMARK VINA RESULT:    -4.225      0.000      0.000
REMARK INTER + INTRA:          -8.944
REMARK INTER:                  -7.436
REMARK INTRA:                  -1.508
REMARK UNBOUND:                -1.508
REMARK SMILES CCCCCCCCCCCCCCC(=O)[O-]
REMARK SMILES IDX 9 1 10 2 11 3 12 4 13 5 14 6 15 7 16 8 17 9 8 10 7 11 6 12
REMARK SMILES IDX 5 13 4 14 3 15 2 16 1 17
REMARK H PARENT
REMARK Flexibility Score: inf
ROOT
ATOM      1  C   UNL     1       9.414 -17.977  32.906  1.00  0.00     0.000 C 
ENDROOT
BRANCH   1   2
ATOM      2  C   UNL     1       8.476 -17.019  33.656  1.00  0.00     0.000 C 
BRANCH   2   3
ATOM      3  C   UNL     1       8.743 -17.058  35.165  1.00  0.00     0.000 C 
BRANCH   3   4
ATOM      4  C   UNL     1      10.042 -16.316  35.514  1.00  0.00     0.000 C 
BRANCH   4   5
ATOM      5  C   UNL     1      10.040 -14.847  35.057  1.00  0.00     0.006 C 
BRANCH   5   6
ATOM      6  C   UNL     1      11.226 -14.473  34.150  1.00  0.00     0.053 C 
BRANCH   6   7
ATOM      7  C   UNL     1      12.264 -13.662  34.865  1.00  0.00     0.041 C 
ATOM      8  O   UNL     1      13.460 -13.677  34.472  1.00  0.00    -0.550 OA
ATOM      9  O   UNL     1      11.905 -12.861  35.943  1.00  0.00    -0.550 OA
ENDBRANCH   6   7
ENDBRANCH   5   6
ENDBRANCH   4   5
ENDBRANCH   3   4
ENDBRANCH   2   3
ENDBRANCH   1   2
BRANCH   1  10
ATOM     10  C   UNL     1      10.274 -17.261  31.854  1.00  0.00     0.000 C 
BRANCH  10  11
ATOM     11  C   UNL     1      10.862 -18.230  30.812  1.00  0.00    -0.000 C 
BRANCH  11  12
ATOM     12  C   UNL     1      10.947 -19.673  31.334  1.00  0.00    -0.000 C 
BRANCH  12  13
ATOM     13  C   UNL     1      10.344 -20.691  30.351  1.00  0.00    -0.000 C 
BRANCH  13  14
ATOM     14  C   UNL     1       9.704 -20.020  29.124  1.00  0.00    -0.000 C 
BRANCH  14  15
ATOM     15  C   UNL     1       8.262 -20.488  28.880  1.00  0.00    -0.000 C 
BRANCH  15  16
ATOM     16  C   UNL     1       7.545 -20.768  30.206  1.00  0.00    -0.003 C 
ATOM     17  C   UNL     1       6.916 -19.498  30.771  1.00  0.00     0.004 C 
ENDBRANCH  15  16
ENDBRANCH  14  15
ENDBRANCH  13  14
ENDBRANCH  12  13
ENDBRANCH  11  12
ENDBRANCH  10  11
ENDBRANCH   1  10
TORSDOF 13
ENDMDL
MODEL 2
REMARK VINA RESULT:    -4.162      4.284      7.353
REMARK INTER + INTRA:          -8.832
REMARK INTER:                  -7.293
REMARK INTRA:                  -1.540
REMARK UNBOUND:                -1.508
REMARK SMILES CCCCCCCCCCCCCCC(=O)[O-]
REMARK SMILES IDX 9 1 10 2 11 3 12 4 13 5 14 6 15 7 16 8 17 9 8 10 7 11 6 12
REMARK SMILES IDX 5 13 4 14 3 15 2 16 1 17
REMARK H PARENT
REMARK Flexibility Score: inf
ROOT
ATOM      1  C   UNL     1       7.430 -17.939  31.821  1.00  0.00     0.000 C 
ENDROOT
BRANCH   1   2
ATOM      2  C   UNL     1       8.355 -19.155  31.654  1.00  0.00     0.000 C 
BRANCH   2   3
ATOM      3  C   UNL     1       9.824 -18.757  31.833  1.00  0.00     0.000 C 
BRANCH   3   4
ATOM      4  C   UNL     1      10.750 -19.704  31.056  1.00  0.00     0.000 C 
BRANCH   4   5
ATOM      5  C   UNL     1       9.986 -20.778  30.261  1.00  0.00     0.006 C 
BRANCH   5   6
ATOM      6  C   UNL     1       9.925 -20.508  28.747  1.00  0.00     0.053 C 
BRANCH   6   7
ATOM      7  C   UNL     1       8.833 -21.277  28.069  1.00  0.00     0.041 C 
ATOM      8  O   UNL     1       8.193 -22.158  28.701  1.00  0.00    -0.550 OA
ATOM      9  O   UNL     1       8.495 -20.997  26.750  1.00  0.00    -0.550 OA
ENDBRANCH   6   7
ENDBRANCH   5   6
ENDBRANCH   4   5
ENDBRANCH   3   4
ENDBRANCH   2   3
ENDBRANCH   1   2
BRANCH   1  10
ATOM     10  C   UNL     1       6.742 -17.904  33.195  1.00  0.00     0.000 C 
BRANCH  10  11
ATOM     11  C   UNL     1       7.199 -16.711  34.054  1.00  0.00    -0.000 C 
BRANCH  11  12
ATOM     12  C   UNL     1       7.905 -17.154  35.346  1.00  0.00    -0.000 C 
BRANCH  12  13
ATOM     13  C   UNL     1       9.437 -17.155  35.208  1.00  0.00    -0.000 C 
BRANCH  13  14
ATOM     14  C   UNL     1      10.082 -15.877  35.769  1.00  0.00    -0.000 C 
BRANCH  14  15
ATOM     15  C   UNL     1      10.361 -14.830  34.680  1.00  0.00    -0.000 C 
BRANCH  15  16
ATOM     16  C   UNL     1      10.836 -15.500  33.385  1.00  0.00    -0.003 C 
ATOM     17  C   UNL     1      10.034 -15.007  32.183  1.00  0.00     0.004 C 
ENDBRANCH  15  16
ENDBRANCH  14  15
ENDBRANCH  13  14
ENDBRANCH  12  13
ENDBRANCH  11  12
ENDBRANCH  10  11
ENDBRANCH   1  10
TORSDOF 13
ENDMDL
MODEL 3
REMARK VINA RESULT:    -4.105      1.637      2.310
REMARK INTER + INTRA:          -8.732
REMARK INTER:                  -6.868
REMARK INTRA:                  -1.865
REMARK UNBOUND:                -1.508
REMARK SMILES CCCCCCCCCCCCCCC(=O)[O-]
REMARK SMILES IDX 9 1 10 2 11 3 12 4 13 5 14 6 15 7 16 8 17 9 8 10 7 11 6 12
REMARK SMILES IDX 5 13 4 14 3 15 2 16 1 17
REMARK H PARENT
REMARK Flexibility Score: inf
ROOT
ATOM      1  C   UNL     1       7.858 -16.761  31.698  1.00  0.00     0.000 C 
ENDROOT
BRANCH   1   2
ATOM      2  C   UNL     1       8.001 -17.749  32.866  1.00  0.00     0.000 C 
BRANCH   2   3
ATOM      3  C   UNL     1       6.994 -17.434  33.979  1.00  0.00     0.000 C 
BRANCH   3   4
ATOM      4  C   UNL     1       7.713 -17.079  35.288  1.00  0.00     0.000 C 
BRANCH   4   5
ATOM      5  C   UNL     1       9.242 -17.229  35.198  1.00  0.00     0.006 C 
BRANCH   5   6
ATOM      6  C   UNL     1      10.023 -16.045  35.794  1.00  0.00     0.053 C 
BRANCH   6   7
ATOM      7  C   UNL     1       9.549 -14.722  35.272  1.00  0.00     0.041 C 
ATOM      8  O   UNL     1       9.149 -13.833  36.069  1.00  0.00    -0.550 OA
ATOM      9  O   UNL     1       9.584 -14.457  33.908  1.00  0.00    -0.550 OA
ENDBRANCH   6   7
ENDBRANCH   5   6
ENDBRANCH   4   5
ENDBRANCH   3   4
ENDBRANCH   2   3
ENDBRANCH   1   2
BRANCH   1  10
ATOM     10  C   UNL     1       9.153 -16.616  30.884  1.00  0.00     0.000 C 
BRANCH  10  11
ATOM     11  C   UNL     1      10.396 -17.085  31.662  1.00  0.00    -0.000 C 
BRANCH  11  12
ATOM     12  C   UNL     1      11.153 -18.210  30.938  1.00  0.00    -0.000 C 
BRANCH  12  13
ATOM     13  C   UNL     1      10.734 -19.609  31.423  1.00  0.00    -0.000 C 
BRANCH  13  14
ATOM     14  C   UNL     1      10.315 -20.534  30.269  1.00  0.00    -0.000 C 
BRANCH  14  15
ATOM     15  C   UNL     1       9.080 -20.016  29.516  1.00  0.00    -0.000 C 
BRANCH  15  16
ATOM     16  C   UNL     1       7.794 -20.338  30.285  1.00  0.00    -0.003 C 
ATOM     17  C   UNL     1       7.053 -21.513  29.653  1.00  0.00     0.004 C 
ENDBRANCH  15  16
ENDBRANCH  14  15
ENDBRANCH  13  14
ENDBRANCH  12  13
ENDBRANCH  11  12
ENDBRANCH  10  11
ENDBRANCH   1  10
TORSDOF 13
ENDMDL
MODEL 4
REMARK VINA RESULT:    -4.064      2.459      2.887
REMARK INTER + INTRA:          -8.661
REMARK INTER:                  -7.205
REMARK INTRA:                  -1.456
REMARK UNBOUND:                -1.508
REMARK SMILES CCCCCCCCCCCCCCC(=O)[O-]
REMARK SMILES IDX 9 1 10 2 11 3 12 4 13 5 14 6 15 7 16 8 17 9 8 10 7 11 6 12
REMARK SMILES IDX 5 13 4 14 3 15 2 16 1 17
REMARK H PARENT
REMARK Flexibility Score: inf
ROOT
ATOM      1  C   UNL     1       8.003 -17.520  33.161  1.00  0.00     0.000 C 
ENDROOT
BRANCH   1   2
ATOM      2  C   UNL     1       7.968 -16.959  34.590  1.00  0.00     0.000 C 
BRANCH   2   3
ATOM      3  C   UNL     1       9.315 -17.159  35.293  1.00  0.00     0.000 C 
BRANCH   3   4
ATOM      4  C   UNL     1       9.957 -15.811  35.650  1.00  0.00     0.000 C 
BRANCH   4   5
ATOM      5  C   UNL     1       9.090 -14.604  35.249  1.00  0.00     0.006 C 
BRANCH   5   6
ATOM      6  C   UNL     1       8.719 -13.683  36.425  1.00  0.00     0.053 C 
BRANCH   6   7
ATOM      7  C   UNL     1       7.431 -14.077  37.082  1.00  0.00     0.041 C 
ATOM      8  O   UNL     1       6.431 -14.385  36.380  1.00  0.00    -0.550 OA
ATOM      9  O   UNL     1       7.344 -14.141  38.467  1.00  0.00    -0.550 OA
ENDBRANCH   6   7
ENDBRANCH   5   6
ENDBRANCH   4   5
ENDBRANCH   3   4
ENDBRANCH   2   3
ENDBRANCH   1   2
BRANCH   1  10
ATOM     10  C   UNL     1       9.376 -18.100  32.786  1.00  0.00     0.000 C 
BRANCH  10  11
ATOM     11  C   UNL     1      10.019 -17.372  31.591  1.00  0.00    -0.000 C 
BRANCH  11  12
ATOM     12  C   UNL     1      10.879 -18.308  30.726  1.00  0.00    -0.000 C 
BRANCH  12  13
ATOM     13  C   UNL     1      10.881 -19.755  31.248  1.00  0.00    -0.000 C 
BRANCH  13  14
ATOM     14  C   UNL     1      10.284 -20.748  30.237  1.00  0.00    -0.000 C 
BRANCH  14  15
ATOM     15  C   UNL     1       9.361 -20.067  29.215  1.00  0.00    -0.000 C 
BRANCH  15  16
ATOM     16  C   UNL     1       7.934 -20.620  29.312  1.00  0.00    -0.003 C 
ATOM     17  C   UNL     1       7.246 -20.148  30.590  1.00  0.00     0.004 C 
ENDBRANCH  15  16
ENDBRANCH  14  15
ENDBRANCH  13  14
ENDBRANCH  12  13
ENDBRANCH  11  12
ENDBRANCH  10  11
ENDBRANCH   1  10
TORSDOF 13
ENDMDL
MODEL 5
REMARK VINA RESULT:    -4.055      0.623      1.514
REMARK INTER + INTRA:          -8.644
REMARK INTER:                  -7.286
REMARK INTRA:                  -1.357
REMARK UNBOUND:                -1.508
REMARK SMILES CCCCCCCCCCCCCCC(=O)[O-]
REMARK SMILES IDX 9 1 10 2 11 3 12 4 13 5 14 6 15 7 16 8 17 9 8 10 7 11 6 12
REMARK SMILES IDX 5 13 4 14 3 15 2 16 1 17
REMARK H PARENT
REMARK Flexibility Score: inf
ROOT
ATOM      1  C   UNL     1      10.115 -17.263  31.795  1.00  0.00     0.000 C 
ENDROOT
BRANCH   1   2
ATOM      2  C   UNL     1       9.214 -17.895  32.867  1.00  0.00     0.000 C 
BRANCH   2   3
ATOM      3  C   UNL     1       8.741 -16.844  33.877  1.00  0.00     0.000 C 
BRANCH   3   4
ATOM      4  C   UNL     1       9.350 -17.098  35.264  1.00  0.00     0.000 C 
BRANCH   4   5
ATOM      5  C   UNL     1      10.120 -15.885  35.816  1.00  0.00     0.006 C 
BRANCH   5   6
ATOM      6  C   UNL     1      10.036 -14.633  34.925  1.00  0.00     0.053 C 
BRANCH   6   7
ATOM      7  C   UNL     1      11.257 -13.770  35.029  1.00  0.00     0.041 C 
ATOM      8  O   UNL     1      11.278 -12.795  35.826  1.00  0.00    -0.550 OA
ATOM      9  O   UNL     1      12.385 -14.063  34.272  1.00  0.00    -0.550 OA
ENDBRANCH   6   7
ENDBRANCH   5   6
ENDBRANCH   4   5
ENDBRANCH   3   4
ENDBRANCH   2   3
ENDBRANCH   1   2
BRANCH   1  10
ATOM     10  C   UNL     1      10.743 -18.307  30.859  1.00  0.00     0.000 C 
BRANCH  10  11
ATOM     11  C   UNL     1      10.553 -19.747  31.368  1.00  0.00    -0.000 C 
BRANCH  11  12
ATOM     12  C   UNL     1      10.299 -20.746  30.227  1.00  0.00    -0.000 C 
BRANCH  12  13
ATOM     13  C   UNL     1       9.822 -20.057  28.937  1.00  0.00    -0.000 C 
BRANCH  13  14
ATOM     14  C   UNL     1       8.297 -20.130  28.758  1.00  0.00    -0.000 C 
BRANCH  14  15
ATOM     15  C   UNL     1       7.686 -21.384  29.399  1.00  0.00    -0.000 C 
BRANCH  15  16
ATOM     16  C   UNL     1       6.468 -21.023  30.259  1.00  0.00    -0.003 C 
ATOM     17  C   UNL     1       6.647 -19.660  30.922  1.00  0.00     0.004 C 
ENDBRANCH  15  16
ENDBRANCH  14  15
ENDBRANCH  13  14
ENDBRANCH  12  13
ENDBRANCH  11  12
ENDBRANCH  10  11
ENDBRANCH   1  10
TORSDOF 13
ENDMDL
MODEL 6
REMARK VINA RESULT:    -4.017      1.440      3.400
REMARK INTER + INTRA:          -8.577
REMARK INTER:                  -7.033
REMARK INTRA:                  -1.544
REMARK UNBOUND:                -1.508
REMARK SMILES CCCCCCCCCCCCCCC(=O)[O-]
REMARK SMILES IDX 9 1 10 2 11 3 12 4 13 5 14 6 15 7 16 8 17 9 8 10 7 11 6 12
REMARK SMILES IDX 5 13 4 14 3 15 2 16 1 17
REMARK H PARENT
REMARK Flexibility Score: inf
ROOT
ATOM      1  C   UNL     1       6.057 -19.234  31.663  1.00  0.00     0.000 C 
ENDROOT
BRANCH   1   2
ATOM      2  C   UNL     1       7.250 -18.295  31.899  1.00  0.00     0.000 C 
BRANCH   2   3
ATOM      3  C   UNL     1       7.210 -17.700  33.311  1.00  0.00     0.000 C 
BRANCH   3   4
ATOM      4  C   UNL     1       8.615 -17.292  33.777  1.00  0.00     0.000 C 
BRANCH   4   5
ATOM      5  C   UNL     1       8.714 -17.099  35.301  1.00  0.00     0.006 C 
BRANCH   5   6
ATOM      6  C   UNL     1       9.983 -16.357  35.755  1.00  0.00     0.053 C 
BRANCH   6   7
ATOM      7  C   UNL     1       9.759 -14.885  35.924  1.00  0.00     0.041 C 
ATOM      8  O   UNL     1       8.614 -14.448  36.214  1.00  0.00    -0.550 OA
ATOM      9  O   UNL     1      10.820 -13.997  35.796  1.00  0.00    -0.550 OA
ENDBRANCH   6   7
ENDBRANCH   5   6
ENDBRANCH   4   5
ENDBRANCH   3   4
ENDBRANCH   2   3
ENDBRANCH   1   2
BRANCH   1  10
ATOM     10  C   UNL     1       6.358 -20.323  30.621  1.00  0.00     0.000 C 
BRANCH  10  11
ATOM     11  C   UNL     1       7.508 -19.934  29.676  1.00  0.00    -0.000 C 
BRANCH  11  12
ATOM     12  C   UNL     1       8.549 -21.055  29.525  1.00  0.00    -0.000 C 
BRANCH  12  13
ATOM     13  C   UNL     1       9.991 -20.519  29.490  1.00  0.00    -0.000 C 
BRANCH  13  14
ATOM     14  C   UNL     1      10.618 -20.420  30.890  1.00  0.00    -0.000 C 
BRANCH  14  15
ATOM     15  C   UNL     1      10.823 -18.967  31.344  1.00  0.00    -0.000 C 
BRANCH  15  16
ATOM     16  C   UNL     1      10.697 -18.001  30.161  1.00  0.00    -0.003 C 
ATOM     17  C   UNL     1      10.381 -16.585  30.636  1.00  0.00     0.004 C 
ENDBRANCH  15  16
ENDBRANCH  14  15
ENDBRANCH  13  14
ENDBRANCH  12  13
ENDBRANCH  11  12
ENDBRANCH  10  11
ENDBRANCH   1  10
TORSDOF 13
ENDMDL
MODEL 7
REMARK VINA RESULT:    -4.015      3.857      6.902
REMARK INTER + INTRA:          -8.573
REMARK INTER:                  -6.792
REMARK INTRA:                  -1.781
REMARK UNBOUND:                -1.508
REMARK SMILES CCCCCCCCCCCCCCC(=O)[O-]
REMARK SMILES IDX 9 1 10 2 11 3 12 4 13 5 14 6 15 7 16 8 17 9 8 10 7 11 6 12
REMARK SMILES IDX 5 13 4 14 3 15 2 16 1 17
REMARK H PARENT
REMARK Flexibility Score: inf
ROOT
ATOM      1  C   UNL     1      10.132 -16.832  30.796  1.00  0.00     0.000 C 
ENDROOT
BRANCH   1   2
ATOM      2  C   UNL     1      11.143 -17.926  31.171  1.00  0.00     0.000 C 
BRANCH   2   3
ATOM      3  C   UNL     1      10.428 -19.182  31.682  1.00  0.00     0.000 C 
BRANCH   3   4
ATOM      4  C   UNL     1       8.904 -19.038  31.560  1.00  0.00     0.000 C 
BRANCH   4   5
ATOM      5  C   UNL     1       8.275 -20.068  30.604  1.00  0.00     0.006 C 
BRANCH   5   6
ATOM      6  C   UNL     1       9.302 -20.879  29.795  1.00  0.00     0.053 C 
BRANCH   6   7
ATOM      7  C   UNL     1       9.401 -20.424  28.371  1.00  0.00     0.041 C 
ATOM      8  O   UNL     1       9.689 -19.226  28.107  1.00  0.00    -0.550 OA
ATOM      9  O   UNL     1       9.211 -21.329  27.333  1.00  0.00    -0.550 OA
ENDBRANCH   6   7
ENDBRANCH   5   6
ENDBRANCH   4   5
ENDBRANCH   3   4
ENDBRANCH   2   3
ENDBRANCH   1   2
BRANCH   1  10
ATOM     10  C   UNL     1      10.343 -15.533  31.590  1.00  0.00     0.000 C 
BRANCH  10  11
ATOM     11  C   UNL     1       9.450 -15.454  32.841  1.00  0.00    -0.000 C 
BRANCH  11  12
ATOM     12  C   UNL     1      10.214 -15.795  34.131  1.00  0.00    -0.000 C 
BRANCH  12  13
ATOM     13  C   UNL     1       9.560 -16.947  34.914  1.00  0.00    -0.000 C 
BRANCH  13  14
ATOM     14  C   UNL     1       8.073 -17.126  34.570  1.00  0.00    -0.000 C 
BRANCH  14  15
ATOM     15  C   UNL     1       7.167 -17.059  35.809  1.00  0.00    -0.000 C 
BRANCH  15  16
ATOM     16  C   UNL     1       6.514 -15.677  35.935  1.00  0.00    -0.003 C 
ATOM     17  C   UNL     1       7.302 -14.779  36.885  1.00  0.00     0.004 C 
ENDBRANCH  15  16
ENDBRANCH  14  15
ENDBRANCH  13  14
ENDBRANCH  12  13
ENDBRANCH  11  12
ENDBRANCH  10  11
ENDBRANCH   1  10
TORSDOF 13
ENDMDL
MODEL 8
REMARK VINA RESULT:    -4.008      3.602      6.503
REMARK INTER + INTRA:          -8.563
REMARK INTER:                  -6.663
REMARK INTRA:                  -1.900
REMARK UNBOUND:                -1.508
REMARK SMILES CCCCCCCCCCCCCCC(=O)[O-]
REMARK SMILES IDX 9 1 10 2 11 3 12 4 13 5 14 6 15 7 16 8 17 9 8 10 7 11 6 12
REMARK SMILES IDX 5 13 4 14 3 15 2 16 1 17
REMARK H PARENT
REMARK Flexibility Score: inf
ROOT
ATOM      1  C   UNL     1       9.860 -16.093  31.479  1.00  0.00     0.000 C 
ENDROOT
BRANCH   1   2
ATOM      2  C   UNL     1      10.757 -17.309  31.198  1.00  0.00     0.000 C 
BRANCH   2   3
ATOM      3  C   UNL     1      10.215 -18.563  31.893  1.00  0.00     0.000 C 
BRANCH   3   4
ATOM      4  C   UNL     1      10.762 -19.838  31.235  1.00  0.00     0.000 C 
BRANCH   4   5
ATOM      5  C   UNL     1       9.770 -20.483  30.251  1.00  0.00     0.006 C 
BRANCH   5   6
ATOM      6  C   UNL     1       8.298 -20.129  30.526  1.00  0.00     0.053 C 
BRANCH   6   7
ATOM      7  C   UNL     1       7.664 -19.380  29.393  1.00  0.00     0.041 C 
ATOM      8  O   UNL     1       8.266 -18.411  28.859  1.00  0.00    -0.550 OA
ATOM      9  O   UNL     1       6.426 -19.774  28.901  1.00  0.00    -0.550 OA
ENDBRANCH   6   7
ENDBRANCH   5   6
ENDBRANCH   4   5
ENDBRANCH   3   4
ENDBRANCH   2   3
ENDBRANCH   1   2
BRANCH   1  10
ATOM     10  C   UNL     1      10.667 -14.815  31.759  1.00  0.00     0.000 C 
BRANCH  10  11
ATOM     11  C   UNL     1      10.352 -14.208  33.138  1.00  0.00    -0.000 C 
BRANCH  11  12
ATOM     12  C   UNL     1      11.007 -14.990  34.288  1.00  0.00    -0.000 C 
BRANCH  12  13
ATOM     13  C   UNL     1       9.993 -15.412  35.366  1.00  0.00    -0.000 C 
BRANCH  13  14
ATOM     14  C   UNL     1       9.615 -16.899  35.271  1.00  0.00    -0.000 C 
BRANCH  14  15
ATOM     15  C   UNL     1       8.101 -17.132  35.379  1.00  0.00    -0.000 C 
BRANCH  15  16
ATOM     16  C   UNL     1       7.377 -16.606  34.134  1.00  0.00    -0.003 C 
ATOM     17  C   UNL     1       6.919 -17.752  33.236  1.00  0.00     0.004 C 
ENDBRANCH  15  16
ENDBRANCH  14  15
ENDBRANCH  13  14
ENDBRANCH  12  13
ENDBRANCH  11  12
ENDBRANCH  10  11
ENDBRANCH   1  10
TORSDOF 13
ENDMDL
MODEL 9
REMARK VINA RESULT:    -3.989      3.211      6.508
REMARK INTER + INTRA:          -8.529
REMARK INTER:                  -6.426
REMARK INTRA:                  -2.104
REMARK UNBOUND:                -1.508
REMARK SMILES CCCCCCCCCCCCCCC(=O)[O-]
REMARK SMILES IDX 9 1 10 2 11 3 12 4 13 5 14 6 15 7 16 8 17 9 8 10 7 11 6 12
REMARK SMILES IDX 5 13 4 14 3 15 2 16 1 17
REMARK H PARENT
REMARK Flexibility Score: inf
ROOT
ATOM      1  C   UNL     1       8.833 -18.799  31.975  1.00  0.00     0.000 C 
ENDROOT
BRANCH   1   2
ATOM      2  C   UNL     1      10.344 -18.848  31.698  1.00  0.00     0.000 C 
BRANCH   2   3
ATOM      3  C   UNL     1      10.726 -20.135  30.959  1.00  0.00     0.000 C 
BRANCH   3   4
ATOM      4  C   UNL     1       9.559 -20.647  30.103  1.00  0.00     0.000 C 
BRANCH   4   5
ATOM      5  C   UNL     1       9.635 -20.182  28.638  1.00  0.00     0.006 C 
BRANCH   5   6
ATOM      6  C   UNL     1       8.554 -19.158  28.250  1.00  0.00     0.053 C 
BRANCH   6   7
ATOM      7  C   UNL     1       9.100 -17.770  28.105  1.00  0.00     0.041 C 
ATOM      8  O   UNL     1      10.286 -17.518  28.447  1.00  0.00    -0.550 OA
ATOM      9  O   UNL     1       8.314 -16.763  27.559  1.00  0.00    -0.550 OA
ENDBRANCH   6   7
ENDBRANCH   5   6
ENDBRANCH   4   5
ENDBRANCH   3   4
ENDBRANCH   2   3
ENDBRANCH   1   2
BRANCH   1  10
ATOM     10  C   UNL     1       8.240 -17.395  31.778  1.00  0.00     0.000 C 
BRANCH  10  11
ATOM     11  C   UNL     1       9.322 -16.322  31.558  1.00  0.00    -0.000 C 
BRANCH  11  12
ATOM     12  C   UNL     1       9.349 -15.275  32.683  1.00  0.00    -0.000 C 
BRANCH  12  13
ATOM     13  C   UNL     1      10.488 -15.520  33.687  1.00  0.00    -0.000 C 
BRANCH  13  14
ATOM     14  C   UNL     1       9.974 -15.770  35.114  1.00  0.00    -0.000 C 
BRANCH  14  15
ATOM     15  C   UNL     1       9.415 -17.188  35.301  1.00  0.00    -0.000 C 
BRANCH  15  16
ATOM     16  C   UNL     1       7.902 -17.153  35.543  1.00  0.00    -0.003 C 
ATOM     17  C   UNL     1       7.433 -15.745  35.903  1.00  0.00     0.004 C 
ENDBRANCH  15  16
ENDBRANCH  14  15
ENDBRANCH  13  14
ENDBRANCH  12  13
ENDBRANCH  11  12
ENDBRANCH  10  11
ENDBRANCH   1  10
TORSDOF 13
ENDMDL
