MODEL 1
REMARK VINA RESULT:    -6.136      0.000      0.000
REMARK INTER + INTRA:          -6.989
REMARK INTER:                  -6.674
REMARK INTRA:                  -0.315
REMARK UNBOUND:                -0.315
REMARK SMILES C[C@H]1[C@@H](C)CC[C@@]2(C(=O)[O-])CC[C@@]3(C)C(=CC[C@@H]4[C@@]5(C)CC[C@@H](O)C(C)(C)[C@H]5CC[C@]43C)[C@@H]12
REMARK SMILES IDX 7 1 6 2 11 3 33 4 5 5 12 6 15 7 2 8 3 9 13 10 16 11 1 12
REMARK SMILES IDX 4 13 14 14 31 15 17 16 18 17 30 18 32 19 19 20 29 21 28 22
REMARK SMILES IDX 21 23 20 24 25 25 22 26 23 27 26 28 27 29 8 30 9 31 10 32
REMARK SMILES IDX 24 33
REMARK H PARENT 24 34
REMARK Flexibility Score: inf
ROOT
ATOM      1  C   UNL     1       5.079 -27.102   2.071  1.00  0.00     0.017 C 
ATOM      2  C   UNL     1       6.592 -26.969   2.438  1.00  0.00     0.014 C 
ATOM      3  C   UNL     1       4.684 -28.589   2.270  1.00  0.00     0.014 C 
ATOM      4  C   UNL     1       4.186 -26.145   2.956  1.00  0.00     0.030 C 
ATOM      5  C   UNL     1       7.054 -25.534   2.728  1.00  0.00     0.004 C 
ATOM      6  C   UNL     1       3.169 -28.860   2.177  1.00  0.00     0.013 C 
ATOM      7  C   UNL     1       2.716 -26.593   3.149  1.00  0.00    -0.063 C 
ATOM      8  C   UNL     1       4.878 -25.514   4.204  1.00  0.00    -0.003 C 
ATOM      9  C   UNL     1       6.172 -24.760   3.747  1.00  0.00    -0.011 C 
ATOM     10  C   UNL     1       2.310 -28.100   3.247  1.00  0.00    -0.006 C 
ATOM     11  C   UNL     1       1.791 -25.618   2.921  1.00  0.00    -0.027 C 
ATOM     12  C   UNL     1       5.085 -26.474   5.388  1.00  0.00     0.008 C 
ATOM     13  C   UNL     1       7.010 -24.199   4.908  1.00  0.00     0.008 C 
ATOM     14  C   UNL     1       2.688 -28.667   4.647  1.00  0.00     0.017 C 
ATOM     15  C   UNL     1       0.707 -28.309   3.026  1.00  0.00    -0.020 C 
ATOM     16  C   UNL     1       0.407 -25.863   2.396  1.00  0.00     0.032 C 
ATOM     17  C   UNL     1       0.239 -27.312   1.901  1.00  0.00     0.006 C 
ATOM     18  C   UNL     1       0.345 -29.792   2.652  1.00  0.00     0.008 C 
ATOM     19  C   UNL     1      -0.072 -27.998   4.351  1.00  0.00     0.012 C 
ATOM     20  C   UNL     1      -1.125 -27.576   1.098  1.00  0.00    -0.025 C 
ATOM     21  C   UNL     1      -0.174 -29.970   1.223  1.00  0.00     0.005 C 
ATOM     22  C   UNL     1      -1.470 -29.134   1.032  1.00  0.00     0.003 C 
ATOM     23  C   UNL     1      -0.947 -26.923  -0.338  1.00  0.00     0.010 C 
ATOM     24  C   UNL     1      -2.332 -26.850   1.771  1.00  0.00     0.012 C 
ATOM     25  C   UNL     1      -2.443 -29.619  -0.162  1.00  0.00    -0.006 C 
ATOM     26  C   UNL     1      -1.246 -27.847  -1.510  1.00  0.00     0.033 C 
ATOM     27  C   UNL     1      -2.580 -28.535  -1.282  1.00  0.00     0.120 C 
ATOM     28  C   UNL     1      -3.860 -29.890   0.410  1.00  0.00     0.014 C 
ATOM     29  C   UNL     1      -1.983 -30.963  -0.806  1.00  0.00     0.014 C 
ENDROOT
BRANCH   1  30
ATOM     30  C   UNL     1       4.931 -26.737   0.583  1.00  0.00     0.048 C 
ATOM     31  O   UNL     1       5.127 -27.605  -0.310  1.00  0.00    -0.550 OA
ATOM     32  O   UNL     1       4.521 -25.469   0.185  1.00  0.00    -0.550 OA
ENDBRANCH   1  30
BRANCH  27  33
ATOM     33  O   UNL     1      -3.021 -29.077  -2.504  1.00  0.00    -0.393 OA
ATOM     34  H   UNL     1      -2.271 -29.611  -2.876  1.00  0.00     0.210 HD
ENDBRANCH  27  33
TORSDOF 2
ENDMDL
MODEL 2
REMARK VINA RESULT:    -6.043      6.939     11.208
REMARK INTER + INTRA:          -6.888
REMARK INTER:                  -7.092
REMARK INTRA:                   0.204
REMARK UNBOUND:                -0.315
REMARK SMILES C[C@H]1[C@@H](C)CC[C@@]2(C(=O)[O-])CC[C@@]3(C)C(=CC[C@@H]4[C@@]5(C)CC[C@@H](O)C(C)(C)[C@H]5CC[C@]43C)[C@@H]12
REMARK SMILES IDX 7 1 6 2 11 3 33 4 5 5 12 6 15 7 2 8 3 9 13 10 16 11 1 12
REMARK SMILES IDX 4 13 14 14 31 15 17 16 18 17 30 18 32 19 19 20 29 21 28 22
REMARK SMILES IDX 21 23 20 24 25 25 22 26 23 27 26 28 27 29 8 30 9 31 10 32
REMARK SMILES IDX 24 33
REMARK H PARENT 24 34
REMARK Flexibility Score: inf
ROOT
ATOM      1  C   UNL     1      -4.444 -30.387  -1.608  1.00  0.00     0.017 C 
ATOM      2  C   UNL     1      -3.400 -30.200  -0.460  1.00  0.00     0.014 C 
ATOM      3  C   UNL     1      -4.548 -31.908  -1.895  1.00  0.00     0.014 C 
ATOM      4  C   UNL     1      -5.847 -29.777  -1.214  1.00  0.00     0.030 C 
ATOM      5  C   UNL     1      -3.478 -28.845   0.257  1.00  0.00     0.004 C 
ATOM      6  C   UNL     1      -5.702 -32.297  -2.839  1.00  0.00     0.013 C 
ATOM      7  C   UNL     1      -7.070 -30.404  -1.927  1.00  0.00    -0.063 C 
ATOM      8  C   UNL     1      -6.044 -29.414   0.290  1.00  0.00    -0.003 C 
ATOM      9  C   UNL     1      -4.900 -28.444   0.739  1.00  0.00    -0.011 C 
ATOM     10  C   UNL     1      -7.128 -31.919  -2.307  1.00  0.00    -0.006 C 
ATOM     11  C   UNL     1      -7.938 -29.500  -2.465  1.00  0.00    -0.027 C 
ATOM     12  C   UNL     1      -6.265 -30.615   1.226  1.00  0.00     0.008 C 
ATOM     13  C   UNL     1      -4.916 -28.112   2.240  1.00  0.00     0.008 C 
ATOM     14  C   UNL     1      -7.402 -32.780  -1.038  1.00  0.00     0.017 C 
ATOM     15  C   UNL     1      -8.305 -32.226  -3.395  1.00  0.00    -0.020 C 
ATOM     16  C   UNL     1      -8.770 -29.742  -3.690  1.00  0.00     0.032 C 
ATOM     17  C   UNL     1      -8.341 -31.030  -4.419  1.00  0.00     0.006 C 
ATOM     18  C   UNL     1      -8.090 -33.596  -4.135  1.00  0.00     0.008 C 
ATOM     19  C   UNL     1      -9.695 -32.337  -2.679  1.00  0.00     0.012 C 
ATOM     20  C   UNL     1      -9.009 -31.218  -5.865  1.00  0.00    -0.025 C 
ATOM     21  C   UNL     1      -7.756 -33.460  -5.623  1.00  0.00     0.005 C 
ATOM     22  C   UNL     1      -8.922 -32.736  -6.354  1.00  0.00     0.003 C 
ATOM     23  C   UNL     1      -8.273 -30.212  -6.847  1.00  0.00     0.010 C 
ATOM     24  C   UNL     1     -10.516 -30.809  -5.854  1.00  0.00     0.012 C 
ATOM     25  C   UNL     1      -9.017 -33.001  -7.944  1.00  0.00    -0.006 C 
ATOM     26  C   UNL     1      -7.723 -30.836  -8.121  1.00  0.00     0.033 C 
ATOM     27  C   UNL     1      -8.800 -31.690  -8.769  1.00  0.00     0.120 C 
ATOM     28  C   UNL     1     -10.429 -33.547  -8.288  1.00  0.00     0.014 C 
ATOM     29  C   UNL     1      -8.012 -34.087  -8.436  1.00  0.00     0.014 C 
ENDROOT
BRANCH   1  30
ATOM     30  C   UNL     1      -3.890 -29.676  -2.856  1.00  0.00     0.048 C 
ATOM     31  O   UNL     1      -2.839 -28.983  -2.782  1.00  0.00    -0.550 OA
ATOM     32  O   UNL     1      -4.490 -29.826  -4.102  1.00  0.00    -0.550 OA
ENDBRANCH   1  30
BRANCH  27  33
ATOM     33  O   UNL     1      -8.426 -31.948 -10.101  1.00  0.00    -0.393 OA
ATOM     34  H   UNL     1      -7.910 -32.797 -10.103  1.00  0.00     0.210 HD
ENDBRANCH  27  33
TORSDOF 2
ENDMDL
MODEL 3
REMARK VINA RESULT:    -5.959      1.728      8.176
REMARK INTER + INTRA:          -6.796
REMARK INTER:                  -6.442
REMARK INTRA:                  -0.354
REMARK UNBOUND:                -0.315
REMARK SMILES C[C@H]1[C@@H](C)CC[C@@]2(C(=O)[O-])CC[C@@]3(C)C(=CC[C@@H]4[C@@]5(C)CC[C@@H](O)C(C)(C)[C@H]5CC[C@]43C)[C@@H]12
REMARK SMILES IDX 7 1 6 2 11 3 33 4 5 5 12 6 15 7 2 8 3 9 13 10 16 11 1 12
REMARK SMILES IDX 4 13 14 14 31 15 17 16 18 17 30 18 32 19 19 20 29 21 28 22
REMARK SMILES IDX 21 23 20 24 25 25 22 26 23 27 26 28 27 29 8 30 9 31 10 32
REMARK SMILES IDX 24 33
REMARK H PARENT 24 34
REMARK Flexibility Score: inf
ROOT
ATOM      1  C   UNL     1      -3.138 -29.930  -0.694  1.00  0.00     0.017 C 
ATOM      2  C   UNL     1      -4.491 -30.177  -1.437  1.00  0.00     0.014 C 
ATOM      3  C   UNL     1      -2.557 -28.594  -1.226  1.00  0.00     0.014 C 
ATOM      4  C   UNL     1      -3.341 -29.888   0.873  1.00  0.00     0.030 C 
ATOM      5  C   UNL     1      -5.418 -31.191  -0.751  1.00  0.00     0.004 C 
ATOM      6  C   UNL     1      -1.338 -28.075  -0.437  1.00  0.00     0.013 C 
ATOM      7  C   UNL     1      -2.287 -29.072   1.660  1.00  0.00    -0.063 C 
ATOM      8  C   UNL     1      -4.814 -29.768   1.375  1.00  0.00    -0.003 C 
ATOM      9  C   UNL     1      -5.662 -30.931   0.762  1.00  0.00    -0.011 C 
ATOM     10  C   UNL     1      -1.627 -27.780   1.076  1.00  0.00    -0.006 C 
ATOM     11  C   UNL     1      -1.761 -29.716   2.739  1.00  0.00    -0.027 C 
ATOM     12  C   UNL     1      -5.442 -28.371   1.220  1.00  0.00     0.008 C 
ATOM     13  C   UNL     1      -7.163 -30.848   1.085  1.00  0.00     0.008 C 
ATOM     14  C   UNL     1      -2.627 -26.589   1.144  1.00  0.00     0.017 C 
ATOM     15  C   UNL     1      -0.281 -27.363   1.901  1.00  0.00    -0.020 C 
ATOM     16  C   UNL     1      -0.367 -29.514   3.258  1.00  0.00     0.032 C 
ATOM     17  C   UNL     1       0.486 -28.687   2.276  1.00  0.00     0.006 C 
ATOM     18  C   UNL     1       0.642 -26.390   1.082  1.00  0.00     0.008 C 
ATOM     19  C   UNL     1      -0.661 -26.595   3.213  1.00  0.00     0.012 C 
ATOM     20  C   UNL     1       2.048 -28.646   2.640  1.00  0.00    -0.025 C 
ATOM     21  C   UNL     1       1.977 -27.004   0.652  1.00  0.00     0.005 C 
ATOM     22  C   UNL     1       2.783 -27.431   1.910  1.00  0.00     0.003 C 
ATOM     23  C   UNL     1       2.650 -30.059   2.242  1.00  0.00     0.010 C 
ATOM     24  C   UNL     1       2.271 -28.482   4.176  1.00  0.00     0.012 C 
ATOM     25  C   UNL     1       4.380 -27.558   1.703  1.00  0.00    -0.006 C 
ATOM     26  C   UNL     1       3.877 -30.009   1.343  1.00  0.00     0.033 C 
ATOM     27  C   UNL     1       4.882 -29.025   1.916  1.00  0.00     0.120 C 
ATOM     28  C   UNL     1       5.104 -26.656   2.739  1.00  0.00     0.014 C 
ATOM     29  C   UNL     1       4.849 -27.056   0.302  1.00  0.00     0.014 C 
ENDROOT
BRANCH   1  30
ATOM     30  C   UNL     1      -2.188 -31.079  -1.073  1.00  0.00     0.048 C 
ATOM     31  O   UNL     1      -1.951 -32.009  -0.254  1.00  0.00    -0.550 OA
ATOM     32  O   UNL     1      -1.615 -31.159  -2.338  1.00  0.00    -0.550 OA
ENDBRANCH   1  30
BRANCH  27  33
ATOM     33  O   UNL     1       6.133 -29.258   1.313  1.00  0.00    -0.393 OA
ATOM     34  H   UNL     1       6.822 -28.848   1.899  1.00  0.00     0.210 HD
ENDBRANCH  27  33
TORSDOF 2
ENDMDL
MODEL 4
REMARK VINA RESULT:    -5.891      5.584      9.028
REMARK INTER + INTRA:          -6.722
REMARK INTER:                  -6.556
REMARK INTRA:                  -0.166
REMARK UNBOUND:                -0.315
REMARK SMILES C[C@H]1[C@@H](C)CC[C@@]2(C(=O)[O-])CC[C@@]3(C)C(=CC[C@@H]4[C@@]5(C)CC[C@@H](O)C(C)(C)[C@H]5CC[C@]43C)[C@@H]12
REMARK SMILES IDX 7 1 6 2 11 3 33 4 5 5 12 6 15 7 2 8 3 9 13 10 16 11 1 12
REMARK SMILES IDX 4 13 14 14 31 15 17 16 18 17 30 18 32 19 19 20 29 21 28 22
REMARK SMILES IDX 21 23 20 24 25 25 22 26 23 27 26 28 27 29 8 30 9 31 10 32
REMARK SMILES IDX 24 33
REMARK H PARENT 24 34
REMARK Flexibility Score: inf
ROOT
ATOM      1  C   UNL     1      -5.155 -30.496  -0.834  1.00  0.00     0.017 C 
ATOM      2  C   UNL     1      -5.417 -31.224  -2.192  1.00  0.00     0.014 C 
ATOM      3  C   UNL     1      -4.954 -31.591   0.246  1.00  0.00     0.014 C 
ATOM      4  C   UNL     1      -3.901 -29.539  -0.925  1.00  0.00     0.030 C 
ATOM      5  C   UNL     1      -5.204 -30.348  -3.435  1.00  0.00     0.004 C 
ATOM      6  C   UNL     1      -4.456 -31.058   1.604  1.00  0.00     0.013 C 
ATOM      7  C   UNL     1      -3.176 -29.259   0.414  1.00  0.00    -0.063 C 
ATOM      8  C   UNL     1      -2.983 -29.723  -2.174  1.00  0.00    -0.003 C 
ATOM      9  C   UNL     1      -3.848 -29.588  -3.471  1.00  0.00    -0.011 C 
ATOM     10  C   UNL     1      -3.065 -30.336   1.543  1.00  0.00    -0.006 C 
ATOM     11  C   UNL     1      -2.921 -27.943   0.657  1.00  0.00    -0.027 C 
ATOM     12  C   UNL     1      -2.077 -30.966  -2.138  1.00  0.00     0.008 C 
ATOM     13  C   UNL     1      -3.076 -29.873  -4.770  1.00  0.00     0.008 C 
ATOM     14  C   UNL     1      -1.995 -31.401   1.165  1.00  0.00     0.017 C 
ATOM     15  C   UNL     1      -2.641 -29.672   2.972  1.00  0.00    -0.020 C 
ATOM     16  C   UNL     1      -2.866 -27.322   2.022  1.00  0.00     0.032 C 
ATOM     17  C   UNL     1      -3.385 -28.289   3.103  1.00  0.00     0.006 C 
ATOM     18  C   UNL     1      -2.976 -30.610   4.188  1.00  0.00     0.008 C 
ATOM     19  C   UNL     1      -1.092 -29.434   3.025  1.00  0.00     0.012 C 
ATOM     20  C   UNL     1      -3.593 -27.612   4.542  1.00  0.00    -0.025 C 
ATOM     21  C   UNL     1      -4.086 -30.082   5.101  1.00  0.00     0.005 C 
ATOM     22  C   UNL     1      -3.660 -28.712   5.699  1.00  0.00     0.003 C 
ATOM     23  C   UNL     1      -4.912 -26.733   4.451  1.00  0.00     0.010 C 
ATOM     24  C   UNL     1      -2.427 -26.632   4.886  1.00  0.00     0.012 C 
ATOM     25  C   UNL     1      -4.402 -28.290   7.070  1.00  0.00    -0.006 C 
ATOM     26  C   UNL     1      -5.945 -27.004   5.534  1.00  0.00     0.033 C 
ATOM     27  C   UNL     1      -5.266 -26.997   6.893  1.00  0.00     0.120 C 
ATOM     28  C   UNL     1      -3.337 -28.001   8.161  1.00  0.00     0.014 C 
ATOM     29  C   UNL     1      -5.300 -29.428   7.645  1.00  0.00     0.014 C 
ENDROOT
BRANCH   1  30
ATOM     30  C   UNL     1      -6.417 -29.682  -0.496  1.00  0.00     0.048 C 
ATOM     31  O   UNL     1      -7.543 -30.036  -0.940  1.00  0.00    -0.550 OA
ATOM     32  O   UNL     1      -6.363 -28.579   0.350  1.00  0.00    -0.550 OA
ENDBRANCH   1  30
BRANCH  27  33
ATOM     33  O   UNL     1      -6.253 -26.869   7.888  1.00  0.00    -0.393 OA
ATOM     34  H   UNL     1      -6.810 -26.081   7.651  1.00  0.00     0.210 HD
ENDBRANCH  27  33
TORSDOF 2
ENDMDL
MODEL 5
REMARK VINA RESULT:    -5.841      6.304     12.902
REMARK INTER + INTRA:          -6.668
REMARK INTER:                  -6.423
REMARK INTRA:                  -0.246
REMARK UNBOUND:                -0.315
REMARK SMILES C[C@H]1[C@@H](C)CC[C@@]2(C(=O)[O-])CC[C@@]3(C)C(=CC[C@@H]4[C@@]5(C)CC[C@@H](O)C(C)(C)[C@H]5CC[C@]43C)[C@@H]12
REMARK SMILES IDX 7 1 6 2 11 3 33 4 5 5 12 6 15 7 2 8 3 9 13 10 16 11 1 12
REMARK SMILES IDX 4 13 14 14 31 15 17 16 18 17 30 18 32 19 19 20 29 21 28 22
REMARK SMILES IDX 21 23 20 24 25 25 22 26 23 27 26 28 27 29 8 30 9 31 10 32
REMARK SMILES IDX 24 33
REMARK H PARENT 24 34
REMARK Flexibility Score: inf
ROOT
ATOM      1  C   UNL     1      -8.723 -30.306  -5.682  1.00  0.00     0.017 C 
ATOM      2  C   UNL     1      -9.843 -30.042  -6.739  1.00  0.00     0.014 C 
ATOM      3  C   UNL     1      -8.954 -29.317  -4.509  1.00  0.00     0.014 C 
ATOM      4  C   UNL     1      -8.743 -31.805  -5.184  1.00  0.00     0.030 C 
ATOM      5  C   UNL     1     -10.053 -31.185  -7.743  1.00  0.00     0.004 C 
ATOM      6  C   UNL     1      -8.080 -29.591  -3.268  1.00  0.00     0.013 C 
ATOM      7  C   UNL     1      -8.159 -32.047  -3.771  1.00  0.00    -0.063 C 
ATOM      8  C   UNL     1     -10.010 -32.638  -5.553  1.00  0.00    -0.003 C 
ATOM      9  C   UNL     1     -10.223 -32.591  -7.103  1.00  0.00    -0.011 C 
ATOM     10  C   UNL     1      -8.306 -31.000  -2.618  1.00  0.00    -0.006 C 
ATOM     11  C   UNL     1      -7.264 -33.071  -3.694  1.00  0.00    -0.027 C 
ATOM     12  C   UNL     1     -11.266 -32.311  -4.727  1.00  0.00     0.008 C 
ATOM     13  C   UNL     1     -11.516 -33.275  -7.577  1.00  0.00     0.008 C 
ATOM     14  C   UNL     1      -9.754 -31.031  -2.047  1.00  0.00     0.017 C 
ATOM     15  C   UNL     1      -7.268 -31.299  -1.395  1.00  0.00    -0.020 C 
ATOM     16  C   UNL     1      -6.111 -33.127  -2.734  1.00  0.00     0.032 C 
ATOM     17  C   UNL     1      -5.905 -31.777  -2.022  1.00  0.00     0.006 C 
ATOM     18  C   UNL     1      -7.056 -30.044  -0.473  1.00  0.00     0.008 C 
ATOM     19  C   UNL     1      -7.832 -32.427  -0.463  1.00  0.00     0.012 C 
ATOM     20  C   UNL     1      -4.544 -31.683  -1.177  1.00  0.00    -0.025 C 
ATOM     21  C   UNL     1      -5.651 -29.439  -0.548  1.00  0.00     0.005 C 
ATOM     22  C   UNL     1      -4.605 -30.500  -0.106  1.00  0.00     0.003 C 
ATOM     23  C   UNL     1      -3.363 -31.509  -2.222  1.00  0.00     0.010 C 
ATOM     24  C   UNL     1      -4.262 -33.009  -0.403  1.00  0.00     0.012 C 
ATOM     25  C   UNL     1      -3.194 -29.910   0.415  1.00  0.00    -0.006 C 
ATOM     26  C   UNL     1      -2.437 -30.331  -1.960  1.00  0.00     0.033 C 
ATOM     27  C   UNL     1      -2.004 -30.343  -0.504  1.00  0.00     0.120 C 
ATOM     28  C   UNL     1      -2.909 -30.449   1.842  1.00  0.00     0.014 C 
ATOM     29  C   UNL     1      -3.200 -28.355   0.543  1.00  0.00     0.014 C 
ENDROOT
BRANCH   1  30
ATOM     30  C   UNL     1      -7.374 -29.988  -6.350  1.00  0.00     0.048 C 
ATOM     31  O   UNL     1      -7.266 -29.008  -7.136  1.00  0.00    -0.550 OA
ATOM     32  O   UNL     1      -6.231 -30.727  -6.063  1.00  0.00    -0.550 OA
ENDBRANCH   1  30
BRANCH  27  33
ATOM     33  O   UNL     1      -0.882 -29.506  -0.362  1.00  0.00    -0.393 OA
ATOM     34  H   UNL     1      -0.516 -29.347  -1.272  1.00  0.00     0.210 HD
ENDBRANCH  27  33
TORSDOF 2
ENDMDL
MODEL 6
REMARK VINA RESULT:    -5.703      4.443      7.993
REMARK INTER + INTRA:          -6.518
REMARK INTER:                  -6.862
REMARK INTRA:                   0.344
REMARK UNBOUND:                -0.315
REMARK SMILES C[C@H]1[C@@H](C)CC[C@@]2(C(=O)[O-])CC[C@@]3(C)C(=CC[C@@H]4[C@@]5(C)CC[C@@H](O)C(C)(C)[C@H]5CC[C@]43C)[C@@H]12
REMARK SMILES IDX 7 1 6 2 11 3 33 4 5 5 12 6 15 7 2 8 3 9 13 10 16 11 1 12
REMARK SMILES IDX 4 13 14 14 31 15 17 16 18 17 30 18 32 19 19 20 29 21 28 22
REMARK SMILES IDX 21 23 20 24 25 25 22 26 23 27 26 28 27 29 8 30 9 31 10 32
REMARK SMILES IDX 24 33
REMARK H PARENT 24 34
REMARK Flexibility Score: inf
ROOT
ATOM      1  C   UNL     1      -2.736 -29.105   0.037  1.00  0.00     0.017 C 
ATOM      2  C   UNL     1      -1.241 -29.222  -0.402  1.00  0.00     0.014 C 
ATOM      3  C   UNL     1      -3.050 -30.329   0.936  1.00  0.00     0.014 C 
ATOM      4  C   UNL     1      -3.008 -27.747   0.797  1.00  0.00     0.030 C 
ATOM      5  C   UNL     1      -0.623 -27.914  -0.917  1.00  0.00     0.004 C 
ATOM      6  C   UNL     1      -4.415 -30.257   1.650  1.00  0.00     0.013 C 
ATOM      7  C   UNL     1      -4.198 -27.763   1.787  1.00  0.00    -0.063 C 
ATOM      8  C   UNL     1      -1.748 -26.947   1.254  1.00  0.00    -0.003 C 
ATOM      9  C   UNL     1      -0.827 -26.687   0.016  1.00  0.00    -0.011 C 
ATOM     10  C   UNL     1      -4.574 -29.033   2.617  1.00  0.00    -0.006 C 
ATOM     11  C   UNL     1      -5.060 -26.715   1.655  1.00  0.00    -0.027 C 
ATOM     12  C   UNL     1      -1.019 -27.528   2.479  1.00  0.00     0.008 C 
ATOM     13  C   UNL     1       0.511 -26.013   0.362  1.00  0.00     0.008 C 
ATOM     14  C   UNL     1      -3.569 -29.225   3.791  1.00  0.00     0.017 C 
ATOM     15  C   UNL     1      -6.077 -28.922   3.245  1.00  0.00    -0.020 C 
ATOM     16  C   UNL     1      -6.530 -26.779   1.951  1.00  0.00     0.032 C 
ATOM     17  C   UNL     1      -6.999 -28.229   2.172  1.00  0.00     0.006 C 
ATOM     18  C   UNL     1      -6.653 -30.323   3.664  1.00  0.00     0.008 C 
ATOM     19  C   UNL     1      -6.060 -28.055   4.551  1.00  0.00     0.012 C 
ATOM     20  C   UNL     1      -8.593 -28.399   2.240  1.00  0.00    -0.025 C 
ATOM     21  C   UNL     1      -7.833 -30.797   2.811  1.00  0.00     0.005 C 
ATOM     22  C   UNL     1      -9.002 -29.781   2.930  1.00  0.00     0.003 C 
ATOM     23  C   UNL     1      -9.134 -28.269   0.754  1.00  0.00     0.010 C 
ATOM     24  C   UNL     1      -9.255 -27.246   3.058  1.00  0.00     0.012 C 
ATOM     25  C   UNL     1     -10.469 -30.364   2.588  1.00  0.00    -0.006 C 
ATOM     26  C   UNL     1     -10.031 -29.407   0.289  1.00  0.00     0.033 C 
ATOM     27  C   UNL     1     -11.099 -29.666   1.337  1.00  0.00     0.120 C 
ATOM     28  C   UNL     1     -11.413 -30.114   3.794  1.00  0.00     0.014 C 
ATOM     29  C   UNL     1     -10.467 -31.908   2.364  1.00  0.00     0.014 C 
ENDROOT
BRANCH   1  30
ATOM     30  C   UNL     1      -3.598 -29.181  -1.236  1.00  0.00     0.048 C 
ATOM     31  O   UNL     1      -4.812 -29.512  -1.165  1.00  0.00    -0.550 OA
ATOM     32  O   UNL     1      -3.085 -28.830  -2.480  1.00  0.00    -0.550 OA
ENDBRANCH   1  30
BRANCH  27  33
ATOM     33  O   UNL     1     -12.125 -30.433   0.753  1.00  0.00    -0.393 OA
ATOM     34  H   UNL     1     -12.339 -31.168   1.385  1.00  0.00     0.210 HD
ENDBRANCH  27  33
TORSDOF 2
ENDMDL
MODEL 7
REMARK VINA RESULT:    -5.632      6.530      8.608
REMARK INTER + INTRA:          -6.441
REMARK INTER:                  -6.206
REMARK INTRA:                  -0.235
REMARK UNBOUND:                -0.315
REMARK SMILES C[C@H]1[C@@H](C)CC[C@@]2(C(=O)[O-])CC[C@@]3(C)C(=CC[C@@H]4[C@@]5(C)CC[C@@H](O)C(C)(C)[C@H]5CC[C@]43C)[C@@H]12
REMARK SMILES IDX 7 1 6 2 11 3 33 4 5 5 12 6 15 7 2 8 3 9 13 10 16 11 1 12
REMARK SMILES IDX 4 13 14 14 31 15 17 16 18 17 30 18 32 19 19 20 29 21 28 22
REMARK SMILES IDX 21 23 20 24 25 25 22 26 23 27 26 28 27 29 8 30 9 31 10 32
REMARK SMILES IDX 24 33
REMARK H PARENT 24 34
REMARK Flexibility Score: inf
ROOT
ATOM      1  C   UNL     1      -4.784 -27.772   2.630  1.00  0.00     0.017 C 
ATOM      2  C   UNL     1      -4.554 -26.946   3.936  1.00  0.00     0.014 C 
ATOM      3  C   UNL     1      -3.503 -27.635   1.766  1.00  0.00     0.014 C 
ATOM      4  C   UNL     1      -5.101 -29.286   2.954  1.00  0.00     0.030 C 
ATOM      5  C   UNL     1      -5.500 -27.305   5.092  1.00  0.00     0.004 C 
ATOM      6  C   UNL     1      -3.460 -28.574   0.544  1.00  0.00     0.013 C 
ATOM      7  C   UNL     1      -4.743 -30.296   1.837  1.00  0.00    -0.063 C 
ATOM      8  C   UNL     1      -4.817 -29.753   4.416  1.00  0.00    -0.003 C 
ATOM      9  C   UNL     1      -5.589 -28.824   5.411  1.00  0.00    -0.011 C 
ATOM     10  C   UNL     1      -3.507 -30.100   0.900  1.00  0.00    -0.006 C 
ATOM     11  C   UNL     1      -5.734 -31.182   1.535  1.00  0.00    -0.027 C 
ATOM     12  C   UNL     1      -3.330 -29.954   4.756  1.00  0.00     0.008 C 
ATOM     13  C   UNL     1      -5.289 -29.108   6.892  1.00  0.00     0.008 C 
ATOM     14  C   UNL     1      -2.195 -30.449   1.662  1.00  0.00     0.017 C 
ATOM     15  C   UNL     1      -3.596 -31.050  -0.424  1.00  0.00    -0.020 C 
ATOM     16  C   UNL     1      -5.957 -31.782   0.178  1.00  0.00     0.032 C 
ATOM     17  C   UNL     1      -5.098 -31.085  -0.895  1.00  0.00     0.006 C 
ATOM     18  C   UNL     1      -2.654 -30.551  -1.580  1.00  0.00     0.008 C 
ATOM     19  C   UNL     1      -3.125 -32.506  -0.084  1.00  0.00     0.012 C 
ATOM     20  C   UNL     1      -5.468 -31.498  -2.401  1.00  0.00    -0.025 C 
ATOM     21  C   UNL     1      -3.395 -30.018  -2.808  1.00  0.00     0.005 C 
ATOM     22  C   UNL     1      -4.282 -31.143  -3.410  1.00  0.00     0.003 C 
ATOM     23  C   UNL     1      -6.826 -30.759  -2.761  1.00  0.00     0.010 C 
ATOM     24  C   UNL     1      -5.750 -33.029  -2.519  1.00  0.00     0.012 C 
ATOM     25  C   UNL     1      -4.674 -30.963  -4.966  1.00  0.00    -0.006 C 
ATOM     26  C   UNL     1      -6.799 -29.947  -4.047  1.00  0.00     0.033 C 
ATOM     27  C   UNL     1      -6.217 -30.794  -5.165  1.00  0.00     0.120 C 
ATOM     28  C   UNL     1      -4.231 -32.225  -5.755  1.00  0.00     0.014 C 
ATOM     29  C   UNL     1      -3.938 -29.763  -5.639  1.00  0.00     0.014 C 
ENDROOT
BRANCH   1  30
ATOM     30  C   UNL     1      -5.967 -27.133   1.882  1.00  0.00     0.048 C 
ATOM     31  O   UNL     1      -6.128 -25.882   1.892  1.00  0.00    -0.550 OA
ATOM     32  O   UNL     1      -6.849 -27.901   1.128  1.00  0.00    -0.550 OA
ENDBRANCH   1  30
BRANCH  27  33
ATOM     33  O   UNL     1      -6.538 -30.193  -6.397  1.00  0.00    -0.393 OA
ATOM     34  H   UNL     1      -6.500 -30.904  -7.090  1.00  0.00     0.210 HD
ENDBRANCH  27  33
TORSDOF 2
ENDMDL
MODEL 8
REMARK VINA RESULT:    -5.549      7.674     13.059
REMARK INTER + INTRA:          -6.351
REMARK INTER:                  -6.213
REMARK INTRA:                  -0.138
REMARK UNBOUND:                -0.315
REMARK SMILES C[C@H]1[C@@H](C)CC[C@@]2(C(=O)[O-])CC[C@@]3(C)C(=CC[C@@H]4[C@@]5(C)CC[C@@H](O)C(C)(C)[C@H]5CC[C@]43C)[C@@H]12
REMARK SMILES IDX 7 1 6 2 11 3 33 4 5 5 12 6 15 7 2 8 3 9 13 10 16 11 1 12
REMARK SMILES IDX 4 13 14 14 31 15 17 16 18 17 30 18 32 19 19 20 29 21 28 22
REMARK SMILES IDX 21 23 20 24 25 25 22 26 23 27 26 28 27 29 8 30 9 31 10 32
REMARK SMILES IDX 24 33
REMARK H PARENT 24 34
REMARK Flexibility Score: inf
ROOT
ATOM      1  C   UNL     1      -8.605 -30.414  -4.970  1.00  0.00     0.017 C 
ATOM      2  C   UNL     1      -9.095 -30.540  -6.448  1.00  0.00     0.014 C 
ATOM      3  C   UNL     1      -9.116 -29.053  -4.429  1.00  0.00     0.014 C 
ATOM      4  C   UNL     1      -9.126 -31.617  -4.087  1.00  0.00     0.030 C 
ATOM      5  C   UNL     1      -9.076 -31.971  -7.006  1.00  0.00     0.004 C 
ATOM      6  C   UNL     1      -8.923 -28.862  -2.911  1.00  0.00     0.013 C 
ATOM      7  C   UNL     1      -9.257 -31.324  -2.572  1.00  0.00    -0.063 C 
ATOM      8  C   UNL     1     -10.251 -32.497  -4.714  1.00  0.00    -0.003 C 
ATOM      9  C   UNL     1      -9.772 -33.030  -6.105  1.00  0.00    -0.011 C 
ATOM     10  C   UNL     1      -9.673 -29.919  -2.027  1.00  0.00    -0.006 C 
ATOM     11  C   UNL     1      -8.697 -32.266  -1.762  1.00  0.00    -0.027 C 
ATOM     12  C   UNL     1     -11.649 -31.854  -4.724  1.00  0.00     0.008 C 
ATOM     13  C   UNL     1     -10.847 -33.811  -6.879  1.00  0.00     0.008 C 
ATOM     14  C   UNL     1     -11.202 -29.699  -2.222  1.00  0.00     0.017 C 
ATOM     15  C   UNL     1      -9.333 -29.761  -0.439  1.00  0.00    -0.020 C 
ATOM     16  C   UNL     1      -8.096 -31.985  -0.415  1.00  0.00     0.032 C 
ATOM     17  C   UNL     1      -7.954 -30.471  -0.166  1.00  0.00     0.006 C 
ATOM     18  C   UNL     1      -9.293 -28.257   0.016  1.00  0.00     0.008 C 
ATOM     19  C   UNL     1     -10.447 -30.444   0.428  1.00  0.00     0.012 C 
ATOM     20  C   UNL     1      -7.092 -30.099   1.135  1.00  0.00    -0.025 C 
ATOM     21  C   UNL     1      -7.902 -27.758   0.415  1.00  0.00     0.005 C 
ATOM     22  C   UNL     1      -7.370 -28.599   1.609  1.00  0.00     0.003 C 
ATOM     23  C   UNL     1      -5.570 -30.357   0.768  1.00  0.00     0.010 C 
ATOM     24  C   UNL     1      -7.429 -31.045   2.331  1.00  0.00     0.012 C 
ATOM     25  C   UNL     1      -6.230 -27.891   2.506  1.00  0.00    -0.006 C 
ATOM     26  C   UNL     1      -4.633 -29.189   1.038  1.00  0.00     0.033 C 
ATOM     27  C   UNL     1      -4.871 -28.665   2.443  1.00  0.00     0.120 C 
ATOM     28  C   UNL     1      -6.689 -27.862   3.988  1.00  0.00     0.014 C 
ATOM     29  C   UNL     1      -5.988 -26.402   2.108  1.00  0.00     0.014 C 
ENDROOT
BRANCH   1  30
ATOM     30  C   UNL     1      -7.067 -30.402  -4.993  1.00  0.00     0.048 C 
ATOM     31  O   UNL     1      -6.447 -30.054  -6.034  1.00  0.00    -0.550 OA
ATOM     32  O   UNL     1      -6.322 -30.712  -3.859  1.00  0.00    -0.550 OA
ENDBRANCH   1  30
BRANCH  27  33
ATOM     33  O   UNL     1      -3.777 -27.862   2.815  1.00  0.00    -0.393 OA
ATOM     34  H   UNL     1      -2.954 -28.326   2.509  1.00  0.00     0.210 HD
ENDBRANCH  27  33
TORSDOF 2
ENDMDL
MODEL 9
REMARK VINA RESULT:    -4.342      4.498     11.488
REMARK INTER + INTRA:          -5.038
REMARK INTER:                  -4.711
REMARK INTRA:                  -0.327
REMARK UNBOUND:                -0.315
REMARK SMILES C[C@H]1[C@@H](C)CC[C@@]2(C(=O)[O-])CC[C@@]3(C)C(=CC[C@@H]4[C@@]5(C)CC[C@@H](O)C(C)(C)[C@H]5CC[C@]43C)[C@@H]12
REMARK SMILES IDX 7 1 6 2 11 3 33 4 5 5 12 6 15 7 2 8 3 9 13 10 16 11 1 12
REMARK SMILES IDX 4 13 14 14 31 15 17 16 18 17 30 18 32 19 19 20 29 21 28 22
REMARK SMILES IDX 21 23 20 24 25 25 22 26 23 27 26 28 27 29 8 30 9 31 10 32
REMARK SMILES IDX 24 33
REMARK H PARENT 24 34
REMARK Flexibility Score: inf
ROOT
ATOM      1  C   UNL     1      -9.303 -29.439  -1.462  1.00  0.00     0.017 C 
ATOM      2  C   UNL     1     -10.851 -29.391  -1.675  1.00  0.00     0.014 C 
ATOM      3  C   UNL     1      -8.991 -28.641  -0.169  1.00  0.00     0.014 C 
ATOM      4  C   UNL     1      -8.782 -30.928  -1.360  1.00  0.00     0.030 C 
ATOM      5  C   UNL     1     -11.396 -30.466  -2.627  1.00  0.00     0.004 C 
ATOM      6  C   UNL     1      -7.537 -28.777   0.324  1.00  0.00     0.013 C 
ATOM      7  C   UNL     1      -7.469 -31.121  -0.564  1.00  0.00    -0.063 C 
ATOM      8  C   UNL     1      -9.871 -32.028  -1.162  1.00  0.00    -0.003 C 
ATOM      9  C   UNL     1     -10.930 -31.915  -2.309  1.00  0.00    -0.011 C 
ATOM     10  C   UNL     1      -7.110 -30.244   0.679  1.00  0.00    -0.006 C 
ATOM     11  C   UNL     1      -6.530 -31.882  -1.195  1.00  0.00    -0.027 C 
ATOM     12  C   UNL     1     -10.469 -32.104   0.253  1.00  0.00     0.008 C 
ATOM     13  C   UNL     1     -12.125 -32.870  -2.153  1.00  0.00     0.008 C 
ATOM     14  C   UNL     1      -7.947 -30.694   1.913  1.00  0.00     0.017 C 
ATOM     15  C   UNL     1      -5.529 -30.360   1.066  1.00  0.00    -0.020 C 
ATOM     16  C   UNL     1      -5.047 -31.713  -1.035  1.00  0.00     0.032 C 
ATOM     17  C   UNL     1      -4.706 -30.416  -0.276  1.00  0.00     0.006 C 
ATOM     18  C   UNL     1      -5.048 -29.170   1.973  1.00  0.00     0.008 C 
ATOM     19  C   UNL     1      -5.263 -31.666   1.892  1.00  0.00     0.012 C 
ATOM     20  C   UNL     1      -3.146 -30.041  -0.289  1.00  0.00    -0.025 C 
ATOM     21  C   UNL     1      -4.061 -28.219   1.290  1.00  0.00     0.005 C 
ATOM     22  C   UNL     1      -2.787 -29.003   0.871  1.00  0.00     0.003 C 
ATOM     23  C   UNL     1      -2.818 -29.484  -1.738  1.00  0.00     0.010 C 
ATOM     24  C   UNL     1      -2.254 -31.307  -0.085  1.00  0.00     0.012 C 
ATOM     25  C   UNL     1      -1.456 -28.112   0.670  1.00  0.00    -0.006 C 
ATOM     26  C   UNL     1      -2.123 -28.131  -1.769  1.00  0.00     0.033 C 
ATOM     27  C   UNL     1      -0.945 -28.147  -0.809  1.00  0.00     0.120 C 
ATOM     28  C   UNL     1      -0.324 -28.671   1.574  1.00  0.00     0.014 C 
ATOM     29  C   UNL     1      -1.652 -26.627   1.107  1.00  0.00     0.014 C 
ENDROOT
BRANCH   1  30
ATOM     30  C   UNL     1      -8.650 -28.731  -2.661  1.00  0.00     0.048 C 
ATOM     31  O   UNL     1      -7.882 -29.364  -3.436  1.00  0.00    -0.550 OA
ATOM     32  O   UNL     1      -8.931 -27.401  -2.959  1.00  0.00    -0.550 OA
ENDBRANCH   1  30
BRANCH  27  33
ATOM     33  O   UNL     1      -0.103 -27.062  -1.114  1.00  0.00    -0.393 OA
ATOM     34  H   UNL     1       0.216 -27.190  -2.045  1.00  0.00     0.210 HD
ENDBRANCH  27  33
TORSDOF 2
ENDMDL
