MODEL 1
REMARK VINA RESULT:    -5.063      0.000      0.000
REMARK INTER + INTRA:          -5.211
REMARK INTER:                  -5.211
REMARK INTRA:                   0.000
REMARK UNBOUND:                 0.000
REMARK SMILES Oc1ccc2[nH]ccc2c1
REMARK SMILES IDX 3 1 4 2 5 3 9 4 8 5 7 6 6 7 10 8 2 9 1 11
REMARK H PARENT 6 10 1 12
REMARK Flexibility Score: inf
ROOT
ATOM      1  C   UNL     1      83.484  31.706  66.567  1.00  0.00     0.048 A 
ATOM      2  C   UNL     1      84.562  31.768  67.470  1.00  0.00     0.030 A 
ATOM      3  C   UNL     1      85.821  31.391  67.006  1.00  0.00     0.046 A 
ATOM      4  C   UNL     1      86.017  30.971  65.717  1.00  0.00     0.003 A 
ATOM      5  C   UNL     1      87.355  30.675  65.580  1.00  0.00     0.028 A 
ATOM      6  C   UNL     1      87.916  30.939  66.826  1.00  0.00     0.083 A 
ATOM      7  N   UNL     1      86.974  31.375  67.693  1.00  0.00    -0.361 N 
ATOM      8  C   UNL     1      84.972  30.897  64.799  1.00  0.00     0.056 A 
ATOM      9  C   UNL     1      83.684  31.272  65.237  1.00  0.00     0.116 A 
ATOM     10  H   UNL     1      87.118  31.643  68.693  1.00  0.00     0.166 HD
ENDROOT
BRANCH   9  11
ATOM     11  O   UNL     1      82.599  31.221  64.363  1.00  0.00    -0.508 OA
ATOM     12  H   UNL     1      82.641  31.642  63.442  1.00  0.00     0.293 HD
ENDBRANCH   9  11
TORSDOF 1
ENDMDL
MODEL 2
REMARK VINA RESULT:    -4.664      2.596      3.985
REMARK INTER + INTRA:          -4.800
REMARK INTER:                  -4.800
REMARK INTRA:                   0.000
REMARK UNBOUND:                 0.000
REMARK SMILES Oc1ccc2[nH]ccc2c1
REMARK SMILES IDX 3 1 4 2 5 3 9 4 8 5 7 6 6 7 10 8 2 9 1 11
REMARK H PARENT 6 10 1 12
REMARK Flexibility Score: inf
ROOT
ATOM      1  C   UNL     1      87.474  30.530  66.094  1.00  0.00     0.048 A 
ATOM      2  C   UNL     1      86.640  29.757  65.265  1.00  0.00     0.030 A 
ATOM      3  C   UNL     1      85.301  30.132  65.158  1.00  0.00     0.046 A 
ATOM      4  C   UNL     1      84.801  31.213  65.834  1.00  0.00     0.003 A 
ATOM      5  C   UNL     1      83.463  31.313  65.518  1.00  0.00     0.028 A 
ATOM      6  C   UNL     1      83.216  30.258  64.644  1.00  0.00     0.083 A 
ATOM      7  N   UNL     1      84.343  29.540  64.428  1.00  0.00    -0.361 N 
ATOM      8  C   UNL     1      85.599  31.998  66.663  1.00  0.00     0.056 A 
ATOM      9  C   UNL     1      86.959  31.646  66.793  1.00  0.00     0.116 A 
ATOM     10  H   UNL     1      84.442  28.698  63.818  1.00  0.00     0.166 HD
ENDROOT
BRANCH   9  11
ATOM     11  O   UNL     1      87.807  32.394  67.608  1.00  0.00    -0.508 OA
ATOM     12  H   UNL     1      87.622  33.370  67.808  1.00  0.00     0.293 HD
ENDBRANCH   9  11
TORSDOF 1
ENDMDL
MODEL 3
REMARK VINA RESULT:    -4.455     17.065     17.396
REMARK INTER + INTRA:          -4.585
REMARK INTER:                  -4.585
REMARK INTRA:                   0.000
REMARK UNBOUND:                 0.000
REMARK SMILES Oc1ccc2[nH]ccc2c1
REMARK SMILES IDX 3 1 4 2 5 3 9 4 8 5 7 6 6 7 10 8 2 9 1 11
REMARK H PARENT 6 10 1 12
REMARK Flexibility Score: inf
ROOT
ATOM      1  C   UNL     1      74.861  36.125  53.500  1.00  0.00     0.048 A 
ATOM      2  C   UNL     1      74.023  35.993  54.622  1.00  0.00     0.030 A 
ATOM      3  C   UNL     1      73.324  34.796  54.775  1.00  0.00     0.046 A 
ATOM      4  C   UNL     1      73.440  33.775  53.869  1.00  0.00     0.003 A 
ATOM      5  C   UNL     1      72.632  32.747  54.303  1.00  0.00     0.028 A 
ATOM      6  C   UNL     1      72.053  33.211  55.480  1.00  0.00     0.083 A 
ATOM      7  N   UNL     1      72.479  34.463  55.763  1.00  0.00    -0.361 N 
ATOM      8  C   UNL     1      74.260  33.874  52.748  1.00  0.00     0.056 A 
ATOM      9  C   UNL     1      74.982  35.072  52.564  1.00  0.00     0.116 A 
ATOM     10  H   UNL     1      72.204  35.049  56.584  1.00  0.00     0.166 HD
ENDROOT
BRANCH   9  11
ATOM     11  O   UNL     1      75.820  35.230  51.462  1.00  0.00    -0.508 OA
ATOM     12  H   UNL     1      76.373  36.070  51.333  1.00  0.00     0.293 HD
ENDBRANCH   9  11
TORSDOF 1
ENDMDL
MODEL 4
REMARK VINA RESULT:    -4.452     15.815     17.171
REMARK INTER + INTRA:          -4.582
REMARK INTER:                  -4.582
REMARK INTRA:                   0.000
REMARK UNBOUND:                 0.000
REMARK SMILES Oc1ccc2[nH]ccc2c1
REMARK SMILES IDX 3 1 4 2 5 3 9 4 8 5 7 6 6 7 10 8 2 9 1 11
REMARK H PARENT 6 10 1 12
REMARK Flexibility Score: inf
ROOT
ATOM      1  C   UNL     1      80.793  33.481  50.649  1.00  0.00     0.048 A 
ATOM      2  C   UNL     1      80.247  34.459  49.798  1.00  0.00     0.030 A 
ATOM      3  C   UNL     1      79.005  34.996  50.137  1.00  0.00     0.046 A 
ATOM      4  C   UNL     1      78.328  34.592  51.256  1.00  0.00     0.003 A 
ATOM      5  C   UNL     1      77.150  35.304  51.304  1.00  0.00     0.028 A 
ATOM      6  C   UNL     1      77.175  36.125  50.180  1.00  0.00     0.083 A 
ATOM      7  N   UNL     1      78.311  35.932  49.471  1.00  0.00    -0.361 N 
ATOM      8  C   UNL     1      78.840  33.625  52.119  1.00  0.00     0.056 A 
ATOM      9  C   UNL     1      80.096  33.062  51.805  1.00  0.00     0.116 A 
ATOM     10  H   UNL     1      78.587  36.415  48.586  1.00  0.00     0.166 HD
ENDROOT
BRANCH   9  11
ATOM     11  O   UNL     1      80.659  32.091  52.630  1.00  0.00    -0.508 OA
ATOM     12  H   UNL     1      80.414  31.112  52.539  1.00  0.00     0.293 HD
ENDBRANCH   9  11
TORSDOF 1
ENDMDL
MODEL 5
REMARK VINA RESULT:    -4.397      1.673      2.290
REMARK INTER + INTRA:          -4.526
REMARK INTER:                  -4.526
REMARK INTRA:                   0.000
REMARK UNBOUND:                 0.000
REMARK SMILES Oc1ccc2[nH]ccc2c1
REMARK SMILES IDX 3 1 4 2 5 3 9 4 8 5 7 6 6 7 10 8 2 9 1 11
REMARK H PARENT 6 10 1 12
REMARK Flexibility Score: inf
ROOT
ATOM      1  C   UNL     1      83.271  31.264  65.282  1.00  0.00     0.048 A 
ATOM      2  C   UNL     1      84.440  31.600  64.574  1.00  0.00     0.030 A 
ATOM      3  C   UNL     1      85.576  31.927  65.312  1.00  0.00     0.046 A 
ATOM      4  C   UNL     1      85.569  31.929  66.681  1.00  0.00     0.003 A 
ATOM      5  C   UNL     1      86.830  32.292  67.099  1.00  0.00     0.028 A 
ATOM      6  C   UNL     1      87.556  32.498  65.930  1.00  0.00     0.083 A 
ATOM      7  N   UNL     1      86.784  32.274  64.841  1.00  0.00    -0.361 N 
ATOM      8  C   UNL     1      84.429  31.603  67.412  1.00  0.00     0.056 A 
ATOM      9  C   UNL     1      83.261  31.266  66.695  1.00  0.00     0.116 A 
ATOM     10  H   UNL     1      87.074  32.356  63.840  1.00  0.00     0.166 HD
ENDROOT
BRANCH   9  11
ATOM     11  O   UNL     1      82.090  30.930  67.372  1.00  0.00    -0.508 OA
ATOM     12  H   UNL     1      81.820  29.962  67.515  1.00  0.00     0.293 HD
ENDBRANCH   9  11
TORSDOF 1
ENDMDL
MODEL 6
REMARK VINA RESULT:    -4.371      1.963      3.262
REMARK INTER + INTRA:          -4.499
REMARK INTER:                  -4.499
REMARK INTRA:                   0.000
REMARK UNBOUND:                 0.000
REMARK SMILES Oc1ccc2[nH]ccc2c1
REMARK SMILES IDX 3 1 4 2 5 3 9 4 8 5 7 6 6 7 10 8 2 9 1 11
REMARK H PARENT 6 10 1 12
REMARK Flexibility Score: inf
ROOT
ATOM      1  C   UNL     1      87.706  31.193  66.018  1.00  0.00     0.048 A 
ATOM      2  C   UNL     1      86.988  31.428  67.205  1.00  0.00     0.030 A 
ATOM      3  C   UNL     1      85.599  31.509  67.119  1.00  0.00     0.046 A 
ATOM      4  C   UNL     1      84.941  31.369  65.926  1.00  0.00     0.003 A 
ATOM      5  C   UNL     1      83.594  31.500  66.180  1.00  0.00     0.028 A 
ATOM      6  C   UNL     1      83.502  31.720  67.551  1.00  0.00     0.083 A 
ATOM      7  N   UNL     1      84.730  31.725  68.120  1.00  0.00    -0.361 N 
ATOM      8  C   UNL     1      85.622  31.136  64.733  1.00  0.00     0.056 A 
ATOM      9  C   UNL     1      87.030  31.047  64.785  1.00  0.00     0.116 A 
ATOM     10  H   UNL     1      84.952  31.868  69.131  1.00  0.00     0.166 HD
ENDROOT
BRANCH   9  11
ATOM     11  O   UNL     1      87.765  30.815  63.624  1.00  0.00    -0.508 OA
ATOM     12  H   UNL     1      88.714  30.461  63.662  1.00  0.00     0.293 HD
ENDBRANCH   9  11
TORSDOF 1
ENDMDL
MODEL 7
REMARK VINA RESULT:    -4.202      1.463      2.122
REMARK INTER + INTRA:          -4.325
REMARK INTER:                  -4.325
REMARK INTRA:                   0.000
REMARK UNBOUND:                 0.000
REMARK SMILES Oc1ccc2[nH]ccc2c1
REMARK SMILES IDX 3 1 4 2 5 3 9 4 8 5 7 6 6 7 10 8 2 9 1 11
REMARK H PARENT 6 10 1 12
REMARK Flexibility Score: inf
ROOT
ATOM      1  C   UNL     1      84.594  32.325  63.751  1.00  0.00     0.048 A 
ATOM      2  C   UNL     1      85.896  32.758  64.062  1.00  0.00     0.030 A 
ATOM      3  C   UNL     1      86.388  32.478  65.336  1.00  0.00     0.046 A 
ATOM      4  C   UNL     1      85.639  31.806  66.265  1.00  0.00     0.003 A 
ATOM      5  C   UNL     1      86.402  31.693  67.406  1.00  0.00     0.028 A 
ATOM      6  C   UNL     1      87.608  32.318  67.101  1.00  0.00     0.083 A 
ATOM      7  N   UNL     1      87.593  32.796  65.835  1.00  0.00    -0.361 N 
ATOM      8  C   UNL     1      84.346  31.365  65.990  1.00  0.00     0.056 A 
ATOM      9  C   UNL     1      83.818  31.632  64.709  1.00  0.00     0.116 A 
ATOM     10  H   UNL     1      88.364  33.308  65.350  1.00  0.00     0.166 HD
ENDROOT
BRANCH   9  11
ATOM     11  O   UNL     1      82.532  31.215  64.375  1.00  0.00    -0.508 OA
ATOM     12  H   UNL     1      81.972  30.663  65.015  1.00  0.00     0.293 HD
ENDBRANCH   9  11
TORSDOF 1
ENDMDL
MODEL 8
REMARK VINA RESULT:    -4.141     17.116     17.315
REMARK INTER + INTRA:          -4.262
REMARK INTER:                  -4.262
REMARK INTRA:                   0.000
REMARK UNBOUND:                 0.000
REMARK SMILES Oc1ccc2[nH]ccc2c1
REMARK SMILES IDX 3 1 4 2 5 3 9 4 8 5 7 6 6 7 10 8 2 9 1 11
REMARK H PARENT 6 10 1 12
REMARK Flexibility Score: inf
ROOT
ATOM      1  C   UNL     1      72.365  32.865  55.024  1.00  0.00     0.048 A 
ATOM      2  C   UNL     1      73.166  32.692  53.879  1.00  0.00     0.030 A 
ATOM      3  C   UNL     1      73.890  33.791  53.420  1.00  0.00     0.046 A 
ATOM      4  C   UNL     1      73.834  35.005  54.052  1.00  0.00     0.003 A 
ATOM      5  C   UNL     1      74.654  35.868  53.359  1.00  0.00     0.028 A 
ATOM      6  C   UNL     1      75.178  35.112  52.315  1.00  0.00     0.083 A 
ATOM      7  N   UNL     1      74.708  33.844  52.357  1.00  0.00    -0.361 N 
ATOM      8  C   UNL     1      73.052  35.209  55.186  1.00  0.00     0.056 A 
ATOM      9  C   UNL     1      72.305  34.117  55.677  1.00  0.00     0.116 A 
ATOM     10  H   UNL     1      74.937  33.068  51.695  1.00  0.00     0.166 HD
ENDROOT
BRANCH   9  11
ATOM     11  O   UNL     1      71.505  34.261  56.808  1.00  0.00    -0.508 OA
ATOM     12  H   UNL     1      71.093  35.154  57.055  1.00  0.00     0.293 HD
ENDBRANCH   9  11
TORSDOF 1
ENDMDL
