MODEL 1
REMARK VINA RESULT:    -2.997      0.000      0.000
REMARK INTER + INTRA:          -3.405
REMARK INTER:                  -3.347
REMARK INTRA:                  -0.058
REMARK UNBOUND:                -0.058
REMARK SMILES CCCC(=O)[O-]
REMARK SMILES IDX 3 1 4 2 5 3 6 4 2 5 1 6
REMARK H PARENT
REMARK Flexibility Score: inf
ROOT
ATOM      1  C   UNL     1      61.390  27.231  27.467  1.00  0.00     0.052 C 
ENDROOT
BRANCH   1   2
ATOM      2  C   UNL     1      61.161  28.555  28.125  1.00  0.00     0.041 C 
ATOM      3  O   UNL     1      60.379  28.646  29.108  1.00  0.00    -0.550 OA
ATOM      4  O   UNL     1      61.848  29.678  27.685  1.00  0.00    -0.550 OA
ENDBRANCH   1   2
BRANCH   1   5
ATOM      5  C   UNL     1      61.427  27.389  25.945  1.00  0.00     0.003 C 
ATOM      6  C   UNL     1      60.018  27.453  25.363  1.00  0.00     0.004 C 
ENDBRANCH   1   5
TORSDOF 2
ENDMDL
MODEL 2
REMARK VINA RESULT:    -2.989      2.308      3.125
REMARK INTER + INTRA:          -3.397
REMARK INTER:                  -3.388
REMARK INTRA:                  -0.009
REMARK UNBOUND:                -0.058
REMARK SMILES CCCC(=O)[O-]
REMARK SMILES IDX 3 1 4 2 5 3 6 4 2 5 1 6
REMARK H PARENT
REMARK Flexibility Score: inf
ROOT
ATOM      1  C   UNL     1      61.136  27.229  27.080  1.00  0.00     0.052 C 
ENDROOT
BRANCH   1   2
ATOM      2  C   UNL     1      60.516  27.276  25.719  1.00  0.00     0.041 C 
ATOM      3  O   UNL     1      59.486  26.596  25.469  1.00  0.00    -0.550 OA
ATOM      4  O   UNL     1      61.047  28.106  24.741  1.00  0.00    -0.550 OA
ENDBRANCH   1   2
BRANCH   1   5
ATOM      5  C   UNL     1      61.319  28.645  27.634  1.00  0.00     0.003 C 
ATOM      6  C   UNL     1      60.828  28.741  29.075  1.00  0.00     0.004 C 
ENDBRANCH   1   5
TORSDOF 2
ENDMDL
MODEL 3
REMARK VINA RESULT:    -2.979     14.627     15.735
REMARK INTER + INTRA:          -3.385
REMARK INTER:                  -3.372
REMARK INTRA:                  -0.013
REMARK UNBOUND:                -0.058
REMARK SMILES CCCC(=O)[O-]
REMARK SMILES IDX 3 1 4 2 5 3 6 4 2 5 1 6
REMARK H PARENT
REMARK Flexibility Score: inf
ROOT
ATOM      1  C   UNL     1      59.810  29.105  11.266  1.00  0.00     0.052 C 
ENDROOT
BRANCH   1   2
ATOM      2  C   UNL     1      59.561  28.443  12.584  1.00  0.00     0.041 C 
ATOM      3  O   UNL     1      60.456  28.439  13.470  1.00  0.00    -0.550 OA
ATOM      4  O   UNL     1      58.324  27.872  12.852  1.00  0.00    -0.550 OA
ENDBRANCH   1   2
BRANCH   1   5
ATOM      5  C   UNL     1      61.175  28.690  10.708  1.00  0.00     0.003 C 
ATOM      6  C   UNL     1      61.036  28.072   9.320  1.00  0.00     0.004 C 
ENDBRANCH   1   5
TORSDOF 2
ENDMDL
MODEL 4
REMARK VINA RESULT:    -2.976     15.452     16.641
REMARK INTER + INTRA:          -3.382
REMARK INTER:                  -3.311
REMARK INTRA:                  -0.071
REMARK UNBOUND:                -0.058
REMARK SMILES CCCC(=O)[O-]
REMARK SMILES IDX 3 1 4 2 5 3 6 4 2 5 1 6
REMARK H PARENT
REMARK Flexibility Score: inf
ROOT
ATOM      1  C   UNL     1      60.621  29.663  10.948  1.00  0.00     0.052 C 
ENDROOT
BRANCH   1   2
ATOM      2  C   UNL     1      61.521  28.746  10.182  1.00  0.00     0.041 C 
ATOM      3  O   UNL     1      62.767  28.788  10.358  1.00  0.00    -0.550 OA
ATOM      4  O   UNL     1      60.980  27.811   9.308  1.00  0.00    -0.550 OA
ENDBRANCH   1   2
BRANCH   1   5
ATOM      5  C   UNL     1      59.626  28.858  11.789  1.00  0.00     0.003 C 
ATOM      6  C   UNL     1      60.328  28.144  12.940  1.00  0.00     0.004 C 
ENDBRANCH   1   5
TORSDOF 2
ENDMDL
MODEL 5
REMARK VINA RESULT:    -2.961     16.678     17.385
REMARK INTER + INTRA:          -3.364
REMARK INTER:                  -3.336
REMARK INTRA:                  -0.029
REMARK UNBOUND:                -0.058
REMARK SMILES CCCC(=O)[O-]
REMARK SMILES IDX 3 1 4 2 5 3 6 4 2 5 1 6
REMARK H PARENT
REMARK Flexibility Score: inf
ROOT
ATOM      1  C   UNL     1      61.302  28.375  10.146  1.00  0.00     0.052 C 
ENDROOT
BRANCH   1   2
ATOM      2  C   UNL     1      60.225  29.413  10.145  1.00  0.00     0.041 C 
ATOM      3  O   UNL     1      59.640  29.720  11.217  1.00  0.00    -0.550 OA
ATOM      4  O   UNL     1      59.900  30.077   8.969  1.00  0.00    -0.550 OA
ENDBRANCH   1   2
BRANCH   1   5
ATOM      5  C   UNL     1      62.641  28.993  10.555  1.00  0.00     0.003 C 
ATOM      6  C   UNL     1      63.630  28.983   9.393  1.00  0.00     0.004 C 
ENDBRANCH   1   5
TORSDOF 2
ENDMDL
MODEL 6
REMARK VINA RESULT:    -2.883      1.283      1.816
REMARK INTER + INTRA:          -3.278
REMARK INTER:                  -3.239
REMARK INTRA:                  -0.038
REMARK UNBOUND:                -0.058
REMARK SMILES CCCC(=O)[O-]
REMARK SMILES IDX 3 1 4 2 5 3 6 4 2 5 1 6
REMARK H PARENT
REMARK Flexibility Score: inf
ROOT
ATOM      1  C   UNL     1      61.162  27.035  26.513  1.00  0.00     0.052 C 
ENDROOT
BRANCH   1   2
ATOM      2  C   UNL     1      61.148  27.678  27.863  1.00  0.00     0.041 C 
ATOM      3  O   UNL     1      61.090  28.931  27.968  1.00  0.00    -0.550 OA
ATOM      4  O   UNL     1      61.152  26.891  29.008  1.00  0.00    -0.550 OA
ENDBRANCH   1   2
BRANCH   1   5
ATOM      5  C   UNL     1      60.680  28.021  25.445  1.00  0.00     0.003 C 
ATOM      6  C   UNL     1      61.808  28.391  24.487  1.00  0.00     0.004 C 
ENDBRANCH   1   5
TORSDOF 2
ENDMDL
MODEL 7
REMARK VINA RESULT:    -2.872     14.195     14.872
REMARK INTER + INTRA:          -3.266
REMARK INTER:                  -3.227
REMARK INTRA:                  -0.039
REMARK UNBOUND:                -0.058
REMARK SMILES CCCC(=O)[O-]
REMARK SMILES IDX 3 1 4 2 5 3 6 4 2 5 1 6
REMARK H PARENT
REMARK Flexibility Score: inf
ROOT
ATOM      1  C   UNL     1      60.813  29.348  13.527  1.00  0.00     0.052 C 
ENDROOT
BRANCH   1   2
ATOM      2  C   UNL     1      59.704  28.949  12.605  1.00  0.00     0.041 C 
ATOM      3  O   UNL     1      59.562  29.531  11.498  1.00  0.00    -0.550 OA
ATOM      4  O   UNL     1      58.857  27.904  12.948  1.00  0.00    -0.550 OA
ENDBRANCH   1   2
BRANCH   1   5
ATOM      5  C   UNL     1      62.076  28.534  13.229  1.00  0.00     0.003 C 
ATOM      6  C   UNL     1      63.077  29.350  12.417  1.00  0.00     0.004 C 
ENDBRANCH   1   5
TORSDOF 2
ENDMDL
MODEL 8
REMARK VINA RESULT:    -2.840      3.171      3.928
REMARK INTER + INTRA:          -3.230
REMARK INTER:                  -3.215
REMARK INTRA:                  -0.015
REMARK UNBOUND:                -0.058
REMARK SMILES CCCC(=O)[O-]
REMARK SMILES IDX 3 1 4 2 5 3 6 4 2 5 1 6
REMARK H PARENT
REMARK Flexibility Score: inf
ROOT
ATOM      1  C   UNL     1      63.352  26.230  25.140  1.00  0.00     0.052 C 
ENDROOT
BRANCH   1   2
ATOM      2  C   UNL     1      62.920  27.141  26.245  1.00  0.00     0.041 C 
ATOM      3  O   UNL     1      63.538  28.218  26.456  1.00  0.00    -0.550 OA
ATOM      4  O   UNL     1      61.807  26.825  27.011  1.00  0.00    -0.550 OA
ENDBRANCH   1   2
BRANCH   1   5
ATOM      5  C   UNL     1      64.876  26.250  24.994  1.00  0.00     0.003 C 
ATOM      6  C   UNL     1      65.303  25.793  23.602  1.00  0.00     0.004 C 
ENDBRANCH   1   5
TORSDOF 2
ENDMDL
MODEL 9
REMARK VINA RESULT:    -2.816      2.115      2.327
REMARK INTER + INTRA:          -3.203
REMARK INTER:                  -3.142
REMARK INTRA:                  -0.061
REMARK UNBOUND:                -0.058
REMARK SMILES CCCC(=O)[O-]
REMARK SMILES IDX 3 1 4 2 5 3 6 4 2 5 1 6
REMARK H PARENT
REMARK Flexibility Score: inf
ROOT
ATOM      1  C   UNL     1      62.019  28.767  26.216  1.00  0.00     0.052 C 
ENDROOT
BRANCH   1   2
ATOM      2  C   UNL     1      62.634  27.541  26.811  1.00  0.00     0.041 C 
ATOM      3  O   UNL     1      62.364  27.207  27.994  1.00  0.00    -0.550 OA
ATOM      4  O   UNL     1      63.469  26.739  26.043  1.00  0.00    -0.550 OA
ENDBRANCH   1   2
BRANCH   1   5
ATOM      5  C   UNL     1      61.186  28.404  24.983  1.00  0.00     0.003 C 
ATOM      6  C   UNL     1      60.072  27.425  25.340  1.00  0.00     0.004 C 
ENDBRANCH   1   5
TORSDOF 2
ENDMDL
