MODEL 1
REMARK VINA RESULT:    -4.232      0.000      0.000
REMARK INTER + INTRA:          -5.400
REMARK INTER:                  -5.221
REMARK INTRA:                  -0.179
REMARK UNBOUND:                -0.179
REMARK SMILES CCCCC=CC(C)=O
REMARK SMILES IDX 4 1 3 2 2 3 1 4 5 5 6 6 7 7 9 8 8 9
REMARK H PARENT
REMARK Flexibility Score: inf
ROOT
ATOM      1  C   UNL     1      26.375  55.409  -0.698  1.00  0.00     0.027 C 
ENDROOT
BRANCH   1   2
ATOM      2  C   UNL     1      27.780  55.853  -0.270  1.00  0.00     0.004 C 
BRANCH   2   3
ATOM      3  C   UNL     1      28.676  56.091  -1.490  1.00  0.00    -0.003 C 
ATOM      4  C   UNL     1      28.763  54.843  -2.364  1.00  0.00     0.004 C 
ENDBRANCH   2   3
ENDBRANCH   1   2
BRANCH   1   5
ATOM      5  C   UNL     1      25.902  54.240   0.117  1.00  0.00    -0.023 C 
ATOM      6  C   UNL     1      24.933  53.429  -0.324  1.00  0.00     0.042 C 
BRANCH   6   7
ATOM      7  C   UNL     1      24.427  52.275   0.447  1.00  0.00     0.152 C 
ATOM      8  O   UNL     1      25.114  51.845   1.412  1.00  0.00    -0.295 OA
ATOM      9  C   UNL     1      23.129  51.597   0.123  1.00  0.00     0.093 C 
ENDBRANCH   6   7
ENDBRANCH   1   5
TORSDOF 4
ENDMDL
MODEL 2
REMARK VINA RESULT:    -3.936      1.386      1.711
REMARK INTER + INTRA:          -5.035
REMARK INTER:                  -4.837
REMARK INTRA:                  -0.198
REMARK UNBOUND:                -0.179
REMARK SMILES CCCCC=CC(C)=O
REMARK SMILES IDX 4 1 3 2 2 3 1 4 5 5 6 6 7 7 9 8 8 9
REMARK H PARENT
REMARK Flexibility Score: inf
ROOT
ATOM      1  C   UNL     1      26.265  54.357   0.994  1.00  0.00     0.027 C 
ENDROOT
BRANCH   1   2
ATOM      2  C   UNL     1      26.366  55.260  -0.242  1.00  0.00     0.004 C 
BRANCH   2   3
ATOM      3  C   UNL     1      27.770  55.861  -0.369  1.00  0.00    -0.003 C 
ATOM      4  C   UNL     1      28.407  55.499  -1.708  1.00  0.00     0.004 C 
ENDBRANCH   2   3
ENDBRANCH   1   2
BRANCH   1   5
ATOM      5  C   UNL     1      25.222  53.293   0.806  1.00  0.00    -0.023 C 
ATOM      6  C   UNL     1      24.697  53.035  -0.397  1.00  0.00     0.042 C 
BRANCH   6   7
ATOM      7  C   UNL     1      23.662  52.006  -0.628  1.00  0.00     0.152 C 
ATOM      8  O   UNL     1      23.541  51.519  -1.783  1.00  0.00    -0.295 OA
ATOM      9  C   UNL     1      22.752  51.522   0.462  1.00  0.00     0.093 C 
ENDBRANCH   6   7
ENDBRANCH   1   5
TORSDOF 4
ENDMDL
MODEL 3
REMARK VINA RESULT:    -3.881      2.085      5.094
REMARK INTER + INTRA:          -4.968
REMARK INTER:                  -4.780
REMARK INTRA:                  -0.188
REMARK UNBOUND:                -0.179
REMARK SMILES CCCCC=CC(C)=O
REMARK SMILES IDX 4 1 3 2 2 3 1 4 5 5 6 6 7 7 9 8 8 9
REMARK H PARENT
REMARK Flexibility Score: inf
ROOT
ATOM      1  C   UNL     1      24.815  52.477   0.661  1.00  0.00     0.027 C 
ENDROOT
BRANCH   1   2
ATOM      2  C   UNL     1      24.024  51.450  -0.159  1.00  0.00     0.004 C 
BRANCH   2   3
ATOM      3  C   UNL     1      23.161  52.141  -1.220  1.00  0.00    -0.003 C 
ATOM      4  C   UNL     1      22.881  51.210  -2.397  1.00  0.00     0.004 C 
ENDBRANCH   2   3
ENDBRANCH   1   2
BRANCH   1   5
ATOM      5  C   UNL     1      25.759  53.257  -0.208  1.00  0.00    -0.023 C 
ATOM      6  C   UNL     1      25.961  54.566  -0.019  1.00  0.00     0.042 C 
BRANCH   6   7
ATOM      7  C   UNL     1      26.870  55.377  -0.855  1.00  0.00     0.152 C 
ATOM      8  O   UNL     1      26.571  55.566  -2.064  1.00  0.00    -0.295 OA
ATOM      9  C   UNL     1      28.133  55.981  -0.317  1.00  0.00     0.093 C 
ENDBRANCH   6   7
ENDBRANCH   1   5
TORSDOF 4
ENDMDL
MODEL 4
REMARK VINA RESULT:    -3.868      1.608      5.512
REMARK INTER + INTRA:          -4.952
REMARK INTER:                  -4.763
REMARK INTRA:                  -0.189
REMARK UNBOUND:                -0.179
REMARK SMILES CCCCC=CC(C)=O
REMARK SMILES IDX 4 1 3 2 2 3 1 4 5 5 6 6 7 7 9 8 8 9
REMARK H PARENT
REMARK Flexibility Score: inf
ROOT
ATOM      1  C   UNL     1      23.491  52.020  -1.108  1.00  0.00     0.027 C 
ENDROOT
BRANCH   1   2
ATOM      2  C   UNL     1      22.585  51.063  -0.323  1.00  0.00     0.004 C 
BRANCH   2   3
ATOM      3  C   UNL     1      22.543  51.442   1.161  1.00  0.00    -0.003 C 
ATOM      4  C   UNL     1      21.124  51.340   1.717  1.00  0.00     0.004 C 
ENDBRANCH   2   3
ENDBRANCH   1   2
BRANCH   1   5
ATOM      5  C   UNL     1      24.495  52.680  -0.209  1.00  0.00    -0.023 C 
ATOM      6  C   UNL     1      25.036  53.865  -0.518  1.00  0.00     0.042 C 
BRANCH   6   7
ATOM      7  C   UNL     1      26.036  54.547   0.330  1.00  0.00     0.152 C 
ATOM      8  O   UNL     1      26.124  54.218   1.542  1.00  0.00    -0.295 OA
ATOM      9  C   UNL     1      26.946  55.613  -0.201  1.00  0.00     0.093 C 
ENDBRANCH   6   7
ENDBRANCH   1   5
TORSDOF 4
ENDMDL
MODEL 5
REMARK VINA RESULT:    -3.832      2.014      5.136
REMARK INTER + INTRA:          -4.907
REMARK INTER:                  -4.743
REMARK INTRA:                  -0.164
REMARK UNBOUND:                -0.179
REMARK SMILES CCCCC=CC(C)=O
REMARK SMILES IDX 4 1 3 2 2 3 1 4 5 5 6 6 7 7 9 8 8 9
REMARK H PARENT
REMARK Flexibility Score: inf
ROOT
ATOM      1  C   UNL     1      23.622  51.399  -0.225  1.00  0.00     0.027 C 
ENDROOT
BRANCH   1   2
ATOM      2  C   UNL     1      22.992  51.865  -1.543  1.00  0.00     0.004 C 
BRANCH   2   3
ATOM      3  C   UNL     1      22.567  50.668  -2.401  1.00  0.00    -0.003 C 
ATOM      4  C   UNL     1      22.449  51.058  -3.872  1.00  0.00     0.004 C 
ENDBRANCH   2   3
ENDBRANCH   1   2
BRANCH   1   5
ATOM      5  C   UNL     1      24.636  52.388   0.273  1.00  0.00    -0.023 C 
ATOM      6  C   UNL     1      24.966  53.469  -0.442  1.00  0.00     0.042 C 
BRANCH   6   7
ATOM      7  C   UNL     1      25.966  54.463   0.001  1.00  0.00     0.152 C 
ATOM      8  O   UNL     1      26.207  54.569   1.233  1.00  0.00    -0.295 OA
ATOM      9  C   UNL     1      26.703  55.346  -0.960  1.00  0.00     0.093 C 
ENDBRANCH   6   7
ENDBRANCH   1   5
TORSDOF 4
ENDMDL
MODEL 6
REMARK VINA RESULT:    -3.774      2.206      5.606
REMARK INTER + INTRA:          -4.835
REMARK INTER:                  -4.675
REMARK INTRA:                  -0.160
REMARK UNBOUND:                -0.179
REMARK SMILES CCCCC=CC(C)=O
REMARK SMILES IDX 4 1 3 2 2 3 1 4 5 5 6 6 7 7 9 8 8 9
REMARK H PARENT
REMARK Flexibility Score: inf
ROOT
ATOM      1  C   UNL     1      23.050  51.395  -1.192  1.00  0.00     0.027 C 
ENDROOT
BRANCH   1   2
ATOM      2  C   UNL     1      22.806  51.273  -2.701  1.00  0.00     0.004 C 
BRANCH   2   3
ATOM      3  C   UNL     1      21.925  50.060  -3.020  1.00  0.00    -0.003 C 
ATOM      4  C   UNL     1      21.715  49.191  -1.783  1.00  0.00     0.004 C 
ENDBRANCH   2   3
ENDBRANCH   1   2
BRANCH   1   5
ATOM      5  C   UNL     1      23.820  52.641  -0.864  1.00  0.00    -0.023 C 
ATOM      6  C   UNL     1      24.856  52.618  -0.017  1.00  0.00     0.042 C 
BRANCH   6   7
ATOM      7  C   UNL     1      25.636  53.819   0.345  1.00  0.00     0.152 C 
ATOM      8  O   UNL     1      25.934  54.004   1.555  1.00  0.00    -0.295 OA
ATOM      9  C   UNL     1      26.085  54.824  -0.673  1.00  0.00     0.093 C 
ENDBRANCH   6   7
ENDBRANCH   1   5
TORSDOF 4
ENDMDL
MODEL 7
REMARK VINA RESULT:    -3.760     11.434     12.330
REMARK INTER + INTRA:          -4.817
REMARK INTER:                  -4.581
REMARK INTRA:                  -0.237
REMARK UNBOUND:                -0.179
REMARK SMILES CCCCC=CC(C)=O
REMARK SMILES IDX 4 1 3 2 2 3 1 4 5 5 6 6 7 7 9 8 8 9
REMARK H PARENT
REMARK Flexibility Score: inf
ROOT
ATOM      1  C   UNL     1      29.732  60.925   8.456  1.00  0.00     0.027 C 
ENDROOT
BRANCH   1   2
ATOM      2  C   UNL     1      29.139  61.756   9.600  1.00  0.00     0.004 C 
BRANCH   2   3
ATOM      3  C   UNL     1      30.160  62.767  10.132  1.00  0.00    -0.003 C 
ATOM      4  C   UNL     1      31.110  63.225   9.028  1.00  0.00     0.004 C 
ENDBRANCH   2   3
ENDBRANCH   1   2
BRANCH   1   5
ATOM      5  C   UNL     1      29.681  59.456   8.766  1.00  0.00    -0.023 C 
ATOM      6  C   UNL     1      29.213  59.006   9.936  1.00  0.00     0.042 C 
BRANCH   6   7
ATOM      7  C   UNL     1      29.153  57.573  10.289  1.00  0.00     0.152 C 
ATOM      8  O   UNL     1      28.026  57.042  10.471  1.00  0.00    -0.295 OA
ATOM      9  C   UNL     1      30.384  56.730  10.439  1.00  0.00     0.093 C 
ENDBRANCH   6   7
ENDBRANCH   1   5
TORSDOF 4
ENDMDL
MODEL 8
REMARK VINA RESULT:    -3.639      2.923      5.239
REMARK INTER + INTRA:          -4.668
REMARK INTER:                  -4.502
REMARK INTRA:                  -0.166
REMARK UNBOUND:                -0.179
REMARK SMILES CCCCC=CC(C)=O
REMARK SMILES IDX 4 1 3 2 2 3 1 4 5 5 6 6 7 7 9 8 8 9
REMARK H PARENT
REMARK Flexibility Score: inf
ROOT
ATOM      1  C   UNL     1      22.636  50.884  -1.880  1.00  0.00     0.027 C 
ENDROOT
BRANCH   1   2
ATOM      2  C   UNL     1      22.632  51.091  -3.399  1.00  0.00     0.004 C 
BRANCH   2   3
ATOM      3  C   UNL     1      23.648  50.171  -4.083  1.00  0.00    -0.003 C 
ATOM      4  C   UNL     1      23.747  50.470  -5.576  1.00  0.00     0.004 C 
ENDBRANCH   2   3
ENDBRANCH   1   2
BRANCH   1   5
ATOM      5  C   UNL     1      23.369  51.992  -1.181  1.00  0.00    -0.023 C 
ATOM      6  C   UNL     1      24.499  51.762  -0.502  1.00  0.00     0.042 C 
BRANCH   6   7
ATOM      7  C   UNL     1      25.248  52.818   0.210  1.00  0.00     0.152 C 
ATOM      8  O   UNL     1      25.692  52.571   1.363  1.00  0.00    -0.295 OA
ATOM      9  C   UNL     1      25.498  54.170  -0.388  1.00  0.00     0.093 C 
ENDBRANCH   6   7
ENDBRANCH   1   5
TORSDOF 4
ENDMDL
MODEL 9
REMARK VINA RESULT:    -3.507      1.206      1.803
REMARK INTER + INTRA:          -4.506
REMARK INTER:                  -4.359
REMARK INTRA:                  -0.147
REMARK UNBOUND:                -0.179
REMARK SMILES CCCCC=CC(C)=O
REMARK SMILES IDX 4 1 3 2 2 3 1 4 5 5 6 6 7 7 9 8 8 9
REMARK H PARENT
REMARK Flexibility Score: inf
ROOT
ATOM      1  C   UNL     1      25.520  53.970  -0.489  1.00  0.00     0.027 C 
ENDROOT
BRANCH   1   2
ATOM      2  C   UNL     1      26.292  54.843   0.509  1.00  0.00     0.004 C 
BRANCH   2   3
ATOM      3  C   UNL     1      27.248  55.794  -0.218  1.00  0.00    -0.003 C 
ATOM      4  C   UNL     1      27.484  55.346  -1.658  1.00  0.00     0.004 C 
ENDBRANCH   2   3
ENDBRANCH   1   2
BRANCH   1   5
ATOM      5  C   UNL     1      24.794  52.857   0.209  1.00  0.00    -0.023 C 
ATOM      6  C   UNL     1      24.293  51.818  -0.468  1.00  0.00     0.042 C 
BRANCH   6   7
ATOM      7  C   UNL     1      23.561  50.706   0.174  1.00  0.00     0.152 C 
ATOM      8  O   UNL     1      24.018  50.221   1.243  1.00  0.00    -0.295 OA
ATOM      9  C   UNL     1      22.299  50.136  -0.400  1.00  0.00     0.093 C 
ENDBRANCH   6   7
ENDBRANCH   1   5
TORSDOF 4
ENDMDL
