MODEL 1
REMARK VINA RESULT:    -5.858      0.000      0.000
REMARK INTER + INTRA:          -6.297
REMARK INTER:                  -6.201
REMARK INTRA:                  -0.096
REMARK UNBOUND:                -0.096
REMARK SMILES C=C(C)[C@H]1CC=C(C)C(=O)C1
REMARK SMILES IDX 8 1 7 2 6 3 5 4 4 5 11 6 9 7 10 8 2 9 1 10 3 11
REMARK H PARENT
REMARK Flexibility Score: inf
ROOT
ATOM      1  C   UNL     1     -29.471  19.269 -32.922  1.00  0.00     0.048 C 
ATOM      2  C   UNL     1     -27.998  19.446 -33.164  1.00  0.00    -0.012 C 
ATOM      3  C   UNL     1     -27.562  20.469 -33.919  1.00  0.00    -0.019 C 
ATOM      4  C   UNL     1     -26.099  20.682 -34.208  1.00  0.00     0.036 C 
ATOM      5  C   UNL     1     -25.227  20.217 -33.028  1.00  0.00     0.025 C 
ATOM      6  C   UNL     1     -25.544  18.752 -32.672  1.00  0.00     0.089 C 
ATOM      7  C   UNL     1     -27.024  18.566 -32.472  1.00  0.00     0.158 C 
ATOM      8  O   UNL     1     -27.430  17.627 -31.735  1.00  0.00    -0.295 OA
ENDROOT
BRANCH   5   9
ATOM      9  C   UNL     1     -23.746  20.410 -33.319  1.00  0.00    -0.077 C 
ATOM     10  C   UNL     1     -23.184  19.813 -34.383  1.00  0.00     0.008 C 
ATOM     11  C   UNL     1     -22.875  21.268 -32.433  1.00  0.00     0.039 C 
ENDBRANCH   5   9
TORSDOF 1
ENDMDL
MODEL 2
REMARK VINA RESULT:    -5.098      6.947      9.112
REMARK INTER + INTRA:          -5.492
REMARK INTER:                  -5.397
REMARK INTRA:                  -0.095
REMARK UNBOUND:                -0.096
REMARK SMILES C=C(C)[C@H]1CC=C(C)C(=O)C1
REMARK SMILES IDX 8 1 7 2 6 3 5 4 4 5 11 6 9 7 10 8 2 9 1 10 3 11
REMARK H PARENT
REMARK Flexibility Score: inf
ROOT
ATOM      1  C   UNL     1     -23.300  14.357 -30.513  1.00  0.00     0.048 C 
ATOM      2  C   UNL     1     -24.493  13.564 -30.052  1.00  0.00    -0.012 C 
ATOM      3  C   UNL     1     -24.315  12.361 -29.479  1.00  0.00    -0.019 C 
ATOM      4  C   UNL     1     -25.474  11.518 -29.017  1.00  0.00     0.036 C 
ATOM      5  C   UNL     1     -26.640  12.397 -28.530  1.00  0.00     0.025 C 
ATOM      6  C   UNL     1     -27.049  13.399 -29.626  1.00  0.00     0.089 C 
ATOM      7  C   UNL     1     -25.849  14.162 -30.118  1.00  0.00     0.158 C 
ATOM      8  O   UNL     1     -26.014  15.305 -30.623  1.00  0.00    -0.295 OA
ENDROOT
BRANCH   5   9
ATOM      9  C   UNL     1     -27.824  11.554 -28.079  1.00  0.00    -0.077 C 
ATOM     10  C   UNL     1     -27.620  10.420 -27.390  1.00  0.00     0.008 C 
ATOM     11  C   UNL     1     -29.244  11.963 -28.387  1.00  0.00     0.039 C 
ENDBRANCH   5   9
TORSDOF 1
ENDMDL
MODEL 3
REMARK VINA RESULT:    -4.841     10.421     12.047
REMARK INTER + INTRA:          -5.221
REMARK INTER:                  -5.132
REMARK INTRA:                  -0.088
REMARK UNBOUND:                -0.096
REMARK SMILES C=C(C)[C@H]1CC=C(C)C(=O)C1
REMARK SMILES IDX 8 1 7 2 6 3 5 4 4 5 11 6 9 7 10 8 2 9 1 10 3 11
REMARK H PARENT
REMARK Flexibility Score: inf
ROOT
ATOM      1  C   UNL     1     -14.820  15.475 -30.518  1.00  0.00     0.048 C 
ATOM      2  C   UNL     1     -15.858  14.417 -30.267  1.00  0.00    -0.012 C 
ATOM      3  C   UNL     1     -16.254  14.154 -29.009  1.00  0.00    -0.019 C 
ATOM      4  C   UNL     1     -17.277  13.093 -28.700  1.00  0.00     0.036 C 
ATOM      5  C   UNL     1     -18.309  12.969 -29.835  1.00  0.00     0.025 C 
ATOM      6  C   UNL     1     -17.600  12.721 -31.179  1.00  0.00     0.089 C 
ATOM      7  C   UNL     1     -16.531  13.753 -31.411  1.00  0.00     0.158 C 
ATOM      8  O   UNL     1     -16.186  14.024 -32.593  1.00  0.00    -0.295 OA
ENDROOT
BRANCH   5   9
ATOM      9  C   UNL     1     -19.336  11.885 -29.539  1.00  0.00    -0.077 C 
ATOM     10  C   UNL     1     -20.642  12.118 -29.750  1.00  0.00     0.008 C 
ATOM     11  C   UNL     1     -18.923  10.534 -29.009  1.00  0.00     0.039 C 
ENDBRANCH   5   9
TORSDOF 1
ENDMDL
MODEL 4
REMARK VINA RESULT:    -4.786     11.064     12.809
REMARK INTER + INTRA:          -5.162
REMARK INTER:                  -5.064
REMARK INTRA:                  -0.098
REMARK UNBOUND:                -0.096
REMARK SMILES C=C(C)[C@H]1CC=C(C)C(=O)C1
REMARK SMILES IDX 8 1 7 2 6 3 5 4 4 5 11 6 9 7 10 8 2 9 1 10 3 11
REMARK H PARENT
REMARK Flexibility Score: inf
ROOT
ATOM      1  C   UNL     1     -14.120  13.881 -32.319  1.00  0.00     0.048 C 
ATOM      2  C   UNL     1     -15.222  13.113 -31.644  1.00  0.00    -0.012 C 
ATOM      3  C   UNL     1     -14.920  12.165 -30.740  1.00  0.00    -0.019 C 
ATOM      4  C   UNL     1     -15.984  11.354 -30.048  1.00  0.00     0.036 C 
ATOM      5  C   UNL     1     -17.267  12.180 -29.844  1.00  0.00     0.025 C 
ATOM      6  C   UNL     1     -17.753  12.754 -31.187  1.00  0.00     0.089 C 
ATOM      7  C   UNL     1     -16.639  13.486 -31.884  1.00  0.00     0.158 C 
ATOM      8  O   UNL     1     -16.923  14.399 -32.705  1.00  0.00    -0.295 OA
ENDROOT
BRANCH   5   9
ATOM      9  C   UNL     1     -18.354  11.362 -29.162  1.00  0.00    -0.077 C 
ATOM     10  C   UNL     1     -19.647  11.672 -29.348  1.00  0.00     0.008 C 
ATOM     11  C   UNL     1     -18.016  10.192 -28.269  1.00  0.00     0.039 C 
ENDBRANCH   5   9
TORSDOF 1
ENDMDL
MODEL 5
REMARK VINA RESULT:    -4.780     11.029     11.912
REMARK INTER + INTRA:          -5.155
REMARK INTER:                  -5.066
REMARK INTRA:                  -0.089
REMARK UNBOUND:                -0.096
REMARK SMILES C=C(C)[C@H]1CC=C(C)C(=O)C1
REMARK SMILES IDX 8 1 7 2 6 3 5 4 4 5 11 6 9 7 10 8 2 9 1 10 3 11
REMARK H PARENT
REMARK Flexibility Score: inf
ROOT
ATOM      1  C   UNL     1     -19.167  12.078 -29.692  1.00  0.00     0.048 C 
ATOM      2  C   UNL     1     -17.860  12.723 -30.061  1.00  0.00    -0.012 C 
ATOM      3  C   UNL     1     -17.686  13.223 -31.296  1.00  0.00    -0.019 C 
ATOM      4  C   UNL     1     -16.391  13.863 -31.724  1.00  0.00     0.036 C 
ATOM      5  C   UNL     1     -15.706  14.573 -30.542  1.00  0.00     0.025 C 
ATOM      6  C   UNL     1     -15.513  13.594 -29.369  1.00  0.00     0.089 C 
ATOM      7  C   UNL     1     -16.812  12.916 -29.028  1.00  0.00     0.158 C 
ATOM      8  O   UNL     1     -16.987  12.478 -27.858  1.00  0.00    -0.295 OA
ENDROOT
BRANCH   5   9
ATOM      9  C   UNL     1     -14.387  15.206 -30.961  1.00  0.00    -0.077 C 
ATOM     10  C   UNL     1     -14.035  16.409 -30.482  1.00  0.00     0.008 C 
ATOM     11  C   UNL     1     -13.447  14.507 -31.913  1.00  0.00     0.039 C 
ENDBRANCH   5   9
TORSDOF 1
ENDMDL
MODEL 6
REMARK VINA RESULT:    -4.754      8.275      9.621
REMARK INTER + INTRA:          -5.128
REMARK INTER:                  -5.033
REMARK INTRA:                  -0.095
REMARK UNBOUND:                -0.096
REMARK SMILES C=C(C)[C@H]1CC=C(C)C(=O)C1
REMARK SMILES IDX 8 1 7 2 6 3 5 4 4 5 11 6 9 7 10 8 2 9 1 10 3 11
REMARK H PARENT
REMARK Flexibility Score: inf
ROOT
ATOM      1  C   UNL     1     -29.395  12.568 -28.921  1.00  0.00     0.048 C 
ATOM      2  C   UNL     1     -27.978  12.146 -28.645  1.00  0.00    -0.012 C 
ATOM      3  C   UNL     1     -27.737  11.092 -27.846  1.00  0.00    -0.019 C 
ATOM      4  C   UNL     1     -26.338  10.638 -27.522  1.00  0.00     0.036 C 
ATOM      5  C   UNL     1     -25.384  10.898 -28.702  1.00  0.00     0.025 C 
ATOM      6  C   UNL     1     -25.435  12.380 -29.116  1.00  0.00     0.089 C 
ATOM      7  C   UNL     1     -26.856  12.815 -29.350  1.00  0.00     0.158 C 
ATOM      8  O   UNL     1     -27.082  13.782 -30.127  1.00  0.00    -0.295 OA
ENDROOT
BRANCH   5   9
ATOM      9  C   UNL     1     -23.963  10.460 -28.376  1.00  0.00    -0.077 C 
ATOM     10  C   UNL     1     -22.990  10.592 -29.293  1.00  0.00     0.008 C 
ATOM     11  C   UNL     1     -23.609   9.875 -27.031  1.00  0.00     0.039 C 
ENDBRANCH   5   9
TORSDOF 1
ENDMDL
MODEL 7
REMARK VINA RESULT:    -4.698     11.061     12.762
REMARK INTER + INTRA:          -5.069
REMARK INTER:                  -4.978
REMARK INTRA:                  -0.091
REMARK UNBOUND:                -0.096
REMARK SMILES C=C(C)[C@H]1CC=C(C)C(=O)C1
REMARK SMILES IDX 8 1 7 2 6 3 5 4 4 5 11 6 9 7 10 8 2 9 1 10 3 11
REMARK H PARENT
REMARK Flexibility Score: inf
ROOT
ATOM      1  C   UNL     1     -13.921  14.732 -31.693  1.00  0.00     0.048 C 
ATOM      2  C   UNL     1     -15.130  14.071 -31.090  1.00  0.00    -0.012 C 
ATOM      3  C   UNL     1     -16.187  13.776 -31.866  1.00  0.00    -0.019 C 
ATOM      4  C   UNL     1     -17.430  13.131 -31.310  1.00  0.00     0.036 C 
ATOM      5  C   UNL     1     -17.090  12.187 -30.142  1.00  0.00     0.025 C 
ATOM      6  C   UNL     1     -16.290  12.939 -29.062  1.00  0.00     0.089 C 
ATOM      7  C   UNL     1     -15.105  13.636 -29.672  1.00  0.00     0.158 C 
ATOM      8  O   UNL     1     -14.099  13.880 -28.951  1.00  0.00    -0.295 OA
ENDROOT
BRANCH   5   9
ATOM      9  C   UNL     1     -18.342  11.546 -29.561  1.00  0.00    -0.077 C 
ATOM     10  C   UNL     1     -18.266  10.357 -28.942  1.00  0.00     0.008 C 
ATOM     11  C   UNL     1     -19.690  12.219 -29.661  1.00  0.00     0.039 C 
ENDBRANCH   5   9
TORSDOF 1
ENDMDL
MODEL 8
REMARK VINA RESULT:    -4.645      7.006      8.278
REMARK INTER + INTRA:          -5.013
REMARK INTER:                  -4.916
REMARK INTRA:                  -0.097
REMARK UNBOUND:                -0.096
REMARK SMILES C=C(C)[C@H]1CC=C(C)C(=O)C1
REMARK SMILES IDX 8 1 7 2 6 3 5 4 4 5 11 6 9 7 10 8 2 9 1 10 3 11
REMARK H PARENT
REMARK Flexibility Score: inf
ROOT
ATOM      1  C   UNL     1     -30.123  10.285 -31.072  1.00  0.00     0.048 C 
ATOM      2  C   UNL     1     -28.859  11.007 -30.692  1.00  0.00    -0.012 C 
ATOM      3  C   UNL     1     -27.815  11.018 -31.539  1.00  0.00    -0.019 C 
ATOM      4  C   UNL     1     -26.520  11.710 -31.201  1.00  0.00     0.036 C 
ATOM      5  C   UNL     1     -26.767  12.950 -30.324  1.00  0.00     0.025 C 
ATOM      6  C   UNL     1     -27.568  12.566 -29.066  1.00  0.00     0.089 C 
ATOM      7  C   UNL     1     -28.810  11.806 -29.443  1.00  0.00     0.158 C 
ATOM      8  O   UNL     1     -29.801  11.826 -28.664  1.00  0.00    -0.295 OA
ENDROOT
BRANCH   5   9
ATOM      9  C   UNL     1     -25.462  13.645 -29.962  1.00  0.00    -0.077 C 
ATOM     10  C   UNL     1     -24.443  12.939 -29.446  1.00  0.00     0.008 C 
ATOM     11  C   UNL     1     -25.276  15.128 -30.171  1.00  0.00     0.039 C 
ENDBRANCH   5   9
TORSDOF 1
ENDMDL
MODEL 9
REMARK VINA RESULT:    -4.622      8.643      9.940
REMARK INTER + INTRA:          -4.989
REMARK INTER:                  -4.892
REMARK INTRA:                  -0.097
REMARK UNBOUND:                -0.096
REMARK SMILES C=C(C)[C@H]1CC=C(C)C(=O)C1
REMARK SMILES IDX 8 1 7 2 6 3 5 4 4 5 11 6 9 7 10 8 2 9 1 10 3 11
REMARK H PARENT
REMARK Flexibility Score: inf
ROOT
ATOM      1  C   UNL     1     -28.250  10.005 -33.925  1.00  0.00     0.048 C 
ATOM      2  C   UNL     1     -28.205  10.444 -32.487  1.00  0.00    -0.012 C 
ATOM      3  C   UNL     1     -29.027   9.876 -31.589  1.00  0.00    -0.019 C 
ATOM      4  C   UNL     1     -29.036  10.289 -30.141  1.00  0.00     0.036 C 
ATOM      5  C   UNL     1     -27.633  10.723 -29.679  1.00  0.00     0.025 C 
ATOM      6  C   UNL     1     -27.086  11.831 -30.599  1.00  0.00     0.089 C 
ATOM      7  C   UNL     1     -27.172  11.411 -32.041  1.00  0.00     0.158 C 
ATOM      8  O   UNL     1     -26.375  11.919 -32.876  1.00  0.00    -0.295 OA
ENDROOT
BRANCH   5   9
ATOM      9  C   UNL     1     -27.637  11.162 -28.222  1.00  0.00    -0.077 C 
ATOM     10  C   UNL     1     -28.083  12.383 -27.886  1.00  0.00     0.008 C 
ATOM     11  C   UNL     1     -27.147  10.248 -27.125  1.00  0.00     0.039 C 
ENDBRANCH   5   9
TORSDOF 1
ENDMDL
