MODEL 1
REMARK VINA RESULT:    15.042      0.000      0.000
REMARK INTER + INTRA:          25.819
REMARK INTER:                  26.473
REMARK INTRA:                  -0.654
REMARK UNBOUND:                -0.654
REMARK SMILES CCCCCCCCCCCCCCC(=O)[O-]
REMARK SMILES IDX 9 1 10 2 11 3 12 4 13 5 14 6 15 7 16 8 17 9 8 10 7 11 6 12
REMARK SMILES IDX 5 13 4 14 3 15 2 16 1 17
REMARK H PARENT
REMARK Flexibility Score: inf
ROOT
ATOM      1  C   UNL     1     -16.494 -13.511 -22.422  1.00  0.00     0.000 C 
ENDROOT
BRANCH   1   2
ATOM      2  C   UNL     1     -17.185 -13.617 -23.792  1.00  0.00     0.000 C 
BRANCH   2   3
ATOM      3  C   UNL     1     -18.406 -12.688 -23.909  1.00  0.00     0.000 C 
BRANCH   3   4
ATOM      4  C   UNL     1     -19.470 -13.217 -24.888  1.00  0.00     0.000 C 
BRANCH   4   5
ATOM      5  C   UNL     1     -20.929 -12.982 -24.455  1.00  0.00     0.006 C 
BRANCH   5   6
ATOM      6  C   UNL     1     -21.720 -14.284 -24.285  1.00  0.00     0.053 C 
BRANCH   6   7
ATOM      7  C   UNL     1     -22.192 -14.428 -22.873  1.00  0.00     0.041 C 
ATOM      8  O   UNL     1     -22.895 -15.417 -22.536  1.00  0.00    -0.550 OA
ATOM      9  O   UNL     1     -21.813 -13.495 -21.915  1.00  0.00    -0.550 OA
ENDBRANCH   6   7
ENDBRANCH   5   6
ENDBRANCH   4   5
ENDBRANCH   3   4
ENDBRANCH   2   3
ENDBRANCH   1   2
BRANCH   1  10
ATOM     10  C   UNL     1     -15.423 -12.407 -22.389  1.00  0.00     0.000 C 
BRANCH  10  11
ATOM     11  C   UNL     1     -14.697 -12.235 -23.736  1.00  0.00    -0.000 C 
BRANCH  11  12
ATOM     12  C   UNL     1     -13.910 -10.920 -23.890  1.00  0.00    -0.000 C 
BRANCH  12  13
ATOM     13  C   UNL     1     -14.555  -9.745 -23.140  1.00  0.00    -0.000 C 
BRANCH  13  14
ATOM     14  C   UNL     1     -14.192  -8.405 -23.800  1.00  0.00    -0.000 C 
BRANCH  14  15
ATOM     15  C   UNL     1     -15.429  -7.511 -24.026  1.00  0.00    -0.000 C 
BRANCH  15  16
ATOM     16  C   UNL     1     -15.232  -6.454 -25.125  1.00  0.00    -0.003 C 
ATOM     17  C   UNL     1     -14.062  -5.512 -24.848  1.00  0.00     0.004 C 
ENDBRANCH  15  16
ENDBRANCH  14  15
ENDBRANCH  13  14
ENDBRANCH  12  13
ENDBRANCH  11  12
ENDBRANCH  10  11
ENDBRANCH   1  10
TORSDOF 13
ENDMDL
MODEL 2
REMARK VINA RESULT:    15.078      2.108      3.068
REMARK INTER + INTRA:          25.884
REMARK INTER:                  26.473
REMARK INTRA:                  -0.589
REMARK UNBOUND:                -0.654
REMARK SMILES CCCCCCCCCCCCCCC(=O)[O-]
REMARK SMILES IDX 9 1 10 2 11 3 12 4 13 5 14 6 15 7 16 8 17 9 8 10 7 11 6 12
REMARK SMILES IDX 5 13 4 14 3 15 2 16 1 17
REMARK H PARENT
REMARK Flexibility Score: inf
ROOT
ATOM      1  C   UNL     1     -15.306 -12.590 -22.836  1.00  0.00     0.000 C 
ENDROOT
BRANCH   1   2
ATOM      2  C   UNL     1     -16.200 -13.669 -23.469  1.00  0.00     0.000 C 
BRANCH   2   3
ATOM      3  C   UNL     1     -17.697 -13.339 -23.344  1.00  0.00     0.000 C 
BRANCH   3   4
ATOM      4  C   UNL     1     -18.393 -13.184 -24.710  1.00  0.00     0.000 C 
BRANCH   4   5
ATOM      5  C   UNL     1     -19.840 -12.662 -24.648  1.00  0.00     0.006 C 
BRANCH   5   6
ATOM      6  C   UNL     1     -20.879 -13.734 -25.002  1.00  0.00     0.053 C 
BRANCH   6   7
ATOM      7  C   UNL     1     -21.756 -14.020 -23.824  1.00  0.00     0.041 C 
ATOM      8  O   UNL     1     -21.696 -13.296 -22.797  1.00  0.00    -0.550 OA
ATOM      9  O   UNL     1     -22.678 -15.059 -23.881  1.00  0.00    -0.550 OA
ENDBRANCH   6   7
ENDBRANCH   5   6
ENDBRANCH   4   5
ENDBRANCH   3   4
ENDBRANCH   2   3
ENDBRANCH   1   2
BRANCH   1  10
ATOM     10  C   UNL     1     -14.442 -11.858 -23.877  1.00  0.00     0.000 C 
BRANCH  10  11
ATOM     11  C   UNL     1     -13.777 -10.586 -23.318  1.00  0.00    -0.000 C 
BRANCH  11  12
ATOM     12  C   UNL     1     -14.585  -9.289 -23.510  1.00  0.00    -0.000 C 
BRANCH  12  13
ATOM     13  C   UNL     1     -13.833  -8.038 -23.035  1.00  0.00    -0.000 C 
BRANCH  13  14
ATOM     14  C   UNL     1     -12.741  -8.404 -22.018  1.00  0.00    -0.000 C 
BRANCH  14  15
ATOM     15  C   UNL     1     -13.047  -7.855 -20.609  1.00  0.00    -0.000 C 
BRANCH  15  16
ATOM     16  C   UNL     1     -12.260  -8.558 -19.489  1.00  0.00    -0.003 C 
ATOM     17  C   UNL     1     -12.947  -8.471 -18.128  1.00  0.00     0.004 C 
ENDBRANCH  15  16
ENDBRANCH  14  15
ENDBRANCH  13  14
ENDBRANCH  12  13
ENDBRANCH  11  12
ENDBRANCH  10  11
ENDBRANCH   1  10
TORSDOF 13
ENDMDL
MODEL 3
REMARK VINA RESULT:    15.933      4.123      8.335
REMARK INTER + INTRA:          27.389
REMARK INTER:                  28.071
REMARK INTRA:                  -0.682
REMARK UNBOUND:                -0.654
REMARK SMILES CCCCCCCCCCCCCCC(=O)[O-]
REMARK SMILES IDX 9 1 10 2 11 3 12 4 13 5 14 6 15 7 16 8 17 9 8 10 7 11 6 12
REMARK SMILES IDX 5 13 4 14 3 15 2 16 1 17
REMARK H PARENT
REMARK Flexibility Score: inf
ROOT
ATOM      1  C   UNL     1     -15.435 -12.302 -22.560  1.00  0.00     0.000 C 
ENDROOT
BRANCH   1   2
ATOM      2  C   UNL     1     -14.520 -11.927 -23.738  1.00  0.00     0.000 C 
BRANCH   2   3
ATOM      3  C   UNL     1     -13.639 -10.704 -23.432  1.00  0.00     0.000 C 
BRANCH   3   4
ATOM      4  C   UNL     1     -14.399  -9.370 -23.561  1.00  0.00     0.000 C 
BRANCH   4   5
ATOM      5  C   UNL     1     -13.729  -8.169 -22.869  1.00  0.00     0.006 C 
BRANCH   5   6
ATOM      6  C   UNL     1     -12.721  -8.585 -21.790  1.00  0.00     0.053 C 
BRANCH   6   7
ATOM      7  C   UNL     1     -13.055  -7.935 -20.485  1.00  0.00     0.041 C 
ATOM      8  O   UNL     1     -12.422  -8.244 -19.442  1.00  0.00    -0.550 OA
ATOM      9  O   UNL     1     -14.033  -6.949 -20.430  1.00  0.00    -0.550 OA
ENDBRANCH   6   7
ENDBRANCH   5   6
ENDBRANCH   4   5
ENDBRANCH   3   4
ENDBRANCH   2   3
ENDBRANCH   1   2
BRANCH   1  10
ATOM     10  C   UNL     1     -16.133 -13.658 -22.768  1.00  0.00     0.000 C 
BRANCH  10  11
ATOM     11  C   UNL     1     -17.110 -13.653 -23.958  1.00  0.00    -0.000 C 
BRANCH  11  12
ATOM     12  C   UNL     1     -18.442 -12.923 -23.705  1.00  0.00    -0.000 C 
BRANCH  12  13
ATOM     13  C   UNL     1     -19.466 -13.137 -24.829  1.00  0.00    -0.000 C 
BRANCH  13  14
ATOM     14  C   UNL     1     -20.902 -12.994 -24.301  1.00  0.00    -0.000 C 
BRANCH  14  15
ATOM     15  C   UNL     1     -21.746 -14.261 -24.553  1.00  0.00    -0.000 C 
BRANCH  15  16
ATOM     16  C   UNL     1     -22.396 -14.831 -23.281  1.00  0.00    -0.003 C 
ATOM     17  C   UNL     1     -22.022 -14.059 -22.018  1.00  0.00     0.004 C 
ENDBRANCH  15  16
ENDBRANCH  14  15
ENDBRANCH  13  14
ENDBRANCH  12  13
ENDBRANCH  11  12
ENDBRANCH  10  11
ENDBRANCH   1  10
TORSDOF 13
ENDMDL
MODEL 4
REMARK VINA RESULT:    16.095      3.644      8.109
REMARK INTER + INTRA:          27.674
REMARK INTER:                  28.250
REMARK INTRA:                  -0.576
REMARK UNBOUND:                -0.654
REMARK SMILES CCCCCCCCCCCCCCC(=O)[O-]
REMARK SMILES IDX 9 1 10 2 11 3 12 4 13 5 14 6 15 7 16 8 17 9 8 10 7 11 6 12
REMARK SMILES IDX 5 13 4 14 3 15 2 16 1 17
REMARK H PARENT
REMARK Flexibility Score: inf
ROOT
ATOM      1  C   UNL     1     -15.469 -12.226 -22.583  1.00  0.00     0.000 C 
ENDROOT
BRANCH   1   2
ATOM      2  C   UNL     1     -14.564 -12.279 -23.825  1.00  0.00     0.000 C 
BRANCH   2   3
ATOM      3  C   UNL     1     -13.647 -11.049 -23.937  1.00  0.00     0.000 C 
BRANCH   3   4
ATOM      4  C   UNL     1     -14.425  -9.720 -23.948  1.00  0.00     0.000 C 
BRANCH   4   5
ATOM      5  C   UNL     1     -13.847  -8.618 -23.042  1.00  0.00     0.006 C 
BRANCH   5   6
ATOM      6  C   UNL     1     -14.736  -7.370 -22.975  1.00  0.00     0.053 C 
BRANCH   6   7
ATOM      7  C   UNL     1     -14.813  -6.710 -24.316  1.00  0.00     0.041 C 
ATOM      8  O   UNL     1     -15.731  -7.015 -25.121  1.00  0.00    -0.550 OA
ATOM      9  O   UNL     1     -13.898  -5.721 -24.657  1.00  0.00    -0.550 OA
ENDBRANCH   6   7
ENDBRANCH   5   6
ENDBRANCH   4   5
ENDBRANCH   3   4
ENDBRANCH   2   3
ENDBRANCH   1   2
BRANCH   1  10
ATOM     10  C   UNL     1     -16.439 -13.419 -22.512  1.00  0.00     0.000 C 
BRANCH  10  11
ATOM     11  C   UNL     1     -17.197 -13.653 -23.832  1.00  0.00    -0.000 C 
BRANCH  11  12
ATOM     12  C   UNL     1     -18.252 -12.586 -24.176  1.00  0.00    -0.000 C 
BRANCH  12  13
ATOM     13  C   UNL     1     -19.445 -13.153 -24.959  1.00  0.00    -0.000 C 
BRANCH  13  14
ATOM     14  C   UNL     1     -20.752 -12.987 -24.167  1.00  0.00    -0.000 C 
BRANCH  14  15
ATOM     15  C   UNL     1     -21.827 -14.009 -24.594  1.00  0.00    -0.000 C 
BRANCH  15  16
ATOM     16  C   UNL     1     -22.180 -15.026 -23.495  1.00  0.00    -0.003 C 
ATOM     17  C   UNL     1     -22.333 -14.389 -22.115  1.00  0.00     0.004 C 
ENDBRANCH  15  16
ENDBRANCH  14  15
ENDBRANCH  13  14
ENDBRANCH  12  13
ENDBRANCH  11  12
ENDBRANCH  10  11
ENDBRANCH   1  10
TORSDOF 13
ENDMDL
MODEL 5
REMARK VINA RESULT:    16.668      3.911      7.183
REMARK INTER + INTRA:          28.681
REMARK INTER:                  29.199
REMARK INTRA:                  -0.518
REMARK UNBOUND:                -0.654
REMARK SMILES CCCCCCCCCCCCCCC(=O)[O-]
REMARK SMILES IDX 9 1 10 2 11 3 12 4 13 5 14 6 15 7 16 8 17 9 8 10 7 11 6 12
REMARK SMILES IDX 5 13 4 14 3 15 2 16 1 17
REMARK H PARENT
REMARK Flexibility Score: inf
ROOT
ATOM      1  C   UNL     1     -16.495 -13.270 -22.463  1.00  0.00     0.000 C 
ENDROOT
BRANCH   1   2
ATOM      2  C   UNL     1     -17.252 -13.690 -23.735  1.00  0.00     0.000 C 
BRANCH   2   3
ATOM      3  C   UNL     1     -18.436 -12.759 -24.048  1.00  0.00     0.000 C 
BRANCH   3   4
ATOM      4  C   UNL     1     -19.491 -13.417 -24.957  1.00  0.00     0.000 C 
BRANCH   4   5
ATOM      5  C   UNL     1     -20.953 -13.108 -24.587  1.00  0.00     0.006 C 
BRANCH   5   6
ATOM      6  C   UNL     1     -21.791 -14.370 -24.349  1.00  0.00     0.053 C 
BRANCH   6   7
ATOM      7  C   UNL     1     -22.224 -14.449 -22.920  1.00  0.00     0.041 C 
ATOM      8  O   UNL     1     -22.906 -15.427 -22.516  1.00  0.00    -0.550 OA
ATOM      9  O   UNL     1     -21.831 -13.466 -22.020  1.00  0.00    -0.550 OA
ENDBRANCH   6   7
ENDBRANCH   5   6
ENDBRANCH   4   5
ENDBRANCH   3   4
ENDBRANCH   2   3
ENDBRANCH   1   2
BRANCH   1  10
ATOM     10  C   UNL     1     -16.074 -14.477 -21.606  1.00  0.00     0.000 C 
BRANCH  10  11
ATOM     11  C   UNL     1     -16.761 -14.502 -20.228  1.00  0.00    -0.000 C 
BRANCH  11  12
ATOM     12  C   UNL     1     -16.471 -15.752 -19.378  1.00  0.00    -0.000 C 
BRANCH  12  13
ATOM     13  C   UNL     1     -17.493 -15.962 -18.251  1.00  0.00    -0.000 C 
BRANCH  13  14
ATOM     14  C   UNL     1     -16.838 -15.786 -16.872  1.00  0.00    -0.000 C 
BRANCH  14  15
ATOM     15  C   UNL     1     -17.527 -16.638 -15.785  1.00  0.00    -0.000 C 
BRANCH  15  16
ATOM     16  C   UNL     1     -19.061 -16.530 -15.798  1.00  0.00    -0.003 C 
ATOM     17  C   UNL     1     -19.752 -17.846 -16.148  1.00  0.00     0.004 C 
ENDBRANCH  15  16
ENDBRANCH  14  15
ENDBRANCH  13  14
ENDBRANCH  12  13
ENDBRANCH  11  12
ENDBRANCH  10  11
ENDBRANCH   1  10
TORSDOF 13
ENDMDL
MODEL 6
REMARK VINA RESULT:    17.038     14.808     16.655
REMARK INTER + INTRA:          29.333
REMARK INTER:                  30.155
REMARK INTRA:                  -0.822
REMARK UNBOUND:                -0.654
REMARK SMILES CCCCCCCCCCCCCCC(=O)[O-]
REMARK SMILES IDX 9 1 10 2 11 3 12 4 13 5 14 6 15 7 16 8 17 9 8 10 7 11 6 12
REMARK SMILES IDX 5 13 4 14 3 15 2 16 1 17
REMARK H PARENT
REMARK Flexibility Score: inf
ROOT
ATOM      1  C   UNL     1     -24.564  -2.978 -13.439  1.00  0.00     0.000 C 
ENDROOT
BRANCH   1   2
ATOM      2  C   UNL     1     -25.120  -3.744 -14.651  1.00  0.00     0.000 C 
BRANCH   2   3
ATOM      3  C   UNL     1     -24.915  -2.983 -15.972  1.00  0.00     0.000 C 
BRANCH   3   4
ATOM      4  C   UNL     1     -24.544  -3.909 -17.146  1.00  0.00     0.000 C 
BRANCH   4   5
ATOM      5  C   UNL     1     -25.565  -5.022 -17.445  1.00  0.00     0.006 C 
BRANCH   5   6
ATOM      6  C   UNL     1     -26.978  -4.486 -17.703  1.00  0.00     0.053 C 
BRANCH   6   7
ATOM      7  C   UNL     1     -27.997  -5.352 -17.033  1.00  0.00     0.041 C 
ATOM      8  O   UNL     1     -29.061  -5.659 -17.631  1.00  0.00    -0.550 OA
ATOM      9  O   UNL     1     -27.748  -5.861 -15.764  1.00  0.00    -0.550 OA
ENDBRANCH   6   7
ENDBRANCH   5   6
ENDBRANCH   4   5
ENDBRANCH   3   4
ENDBRANCH   2   3
ENDBRANCH   1   2
BRANCH   1  10
ATOM     10  C   UNL     1     -24.963  -3.626 -12.102  1.00  0.00     0.000 C 
BRANCH  10  11
ATOM     11  C   UNL     1     -25.726  -4.952 -12.282  1.00  0.00    -0.000 C 
BRANCH  11  12
ATOM     12  C   UNL     1     -27.121  -4.994 -11.632  1.00  0.00    -0.000 C 
BRANCH  12  13
ATOM     13  C   UNL     1     -27.555  -3.639 -11.055  1.00  0.00    -0.000 C 
BRANCH  13  14
ATOM     14  C   UNL     1     -29.019  -3.332 -11.408  1.00  0.00    -0.000 C 
BRANCH  14  15
ATOM     15  C   UNL     1     -30.009  -4.039 -10.459  1.00  0.00    -0.000 C 
BRANCH  15  16
ATOM     16  C   UNL     1     -29.373  -4.497  -9.135  1.00  0.00    -0.003 C 
ATOM     17  C   UNL     1     -30.371  -5.159  -8.188  1.00  0.00     0.004 C 
ENDBRANCH  15  16
ENDBRANCH  14  15
ENDBRANCH  13  14
ENDBRANCH  12  13
ENDBRANCH  11  12
ENDBRANCH  10  11
ENDBRANCH   1  10
TORSDOF 13
ENDMDL
MODEL 7
REMARK VINA RESULT:    17.190     14.606     16.318
REMARK INTER + INTRA:          29.600
REMARK INTER:                  30.160
REMARK INTRA:                  -0.561
REMARK UNBOUND:                -0.654
REMARK SMILES CCCCCCCCCCCCCCC(=O)[O-]
REMARK SMILES IDX 9 1 10 2 11 3 12 4 13 5 14 6 15 7 16 8 17 9 8 10 7 11 6 12
REMARK SMILES IDX 5 13 4 14 3 15 2 16 1 17
REMARK H PARENT
REMARK Flexibility Score: inf
ROOT
ATOM      1  C   UNL     1     -24.956  -3.273 -15.167  1.00  0.00     0.000 C 
ENDROOT
BRANCH   1   2
ATOM      2  C   UNL     1     -24.664  -4.123 -16.414  1.00  0.00     0.000 C 
BRANCH   2   3
ATOM      3  C   UNL     1     -25.926  -4.391 -17.252  1.00  0.00     0.000 C 
BRANCH   3   4
ATOM      4  C   UNL     1     -27.060  -5.040 -16.437  1.00  0.00     0.000 C 
BRANCH   4   5
ATOM      5  C   UNL     1     -28.121  -5.780 -17.272  1.00  0.00     0.006 C 
BRANCH   5   6
ATOM      6  C   UNL     1     -29.498  -5.106 -17.223  1.00  0.00     0.053 C 
BRANCH   6   7
ATOM      7  C   UNL     1     -29.717  -4.275 -18.447  1.00  0.00     0.041 C 
ATOM      8  O   UNL     1     -30.851  -4.235 -18.993  1.00  0.00    -0.550 OA
ATOM      9  O   UNL     1     -28.680  -3.504 -18.958  1.00  0.00    -0.550 OA
ENDBRANCH   6   7
ENDBRANCH   5   6
ENDBRANCH   4   5
ENDBRANCH   3   4
ENDBRANCH   2   3
ENDBRANCH   1   2
BRANCH   1  10
ATOM     10  C   UNL     1     -24.372  -3.892 -13.884  1.00  0.00     0.000 C 
BRANCH  10  11
ATOM     11  C   UNL     1     -25.120  -3.452 -12.612  1.00  0.00    -0.000 C 
BRANCH  11  12
ATOM     12  C   UNL     1     -25.686  -4.602 -11.758  1.00  0.00    -0.000 C 
BRANCH  12  13
ATOM     13  C   UNL     1     -27.220  -4.667 -11.782  1.00  0.00    -0.000 C 
BRANCH  13  14
ATOM     14  C   UNL     1     -27.834  -3.481 -11.022  1.00  0.00    -0.000 C 
BRANCH  14  15
ATOM     15  C   UNL     1     -29.296  -3.215 -11.439  1.00  0.00    -0.000 C 
BRANCH  15  16
ATOM     16  C   UNL     1     -30.329  -3.940 -10.560  1.00  0.00    -0.003 C 
ATOM     17  C   UNL     1     -29.692  -4.807  -9.477  1.00  0.00     0.004 C 
ENDBRANCH  15  16
ENDBRANCH  14  15
ENDBRANCH  13  14
ENDBRANCH  12  13
ENDBRANCH  11  12
ENDBRANCH  10  11
ENDBRANCH   1  10
TORSDOF 13
ENDMDL
MODEL 8
REMARK VINA RESULT:    17.321     14.585     16.738
REMARK INTER + INTRA:          29.831
REMARK INTER:                  29.747
REMARK INTRA:                   0.084
REMARK UNBOUND:                -0.654
REMARK SMILES CCCCCCCCCCCCCCC(=O)[O-]
REMARK SMILES IDX 9 1 10 2 11 3 12 4 13 5 14 6 15 7 16 8 17 9 8 10 7 11 6 12
REMARK SMILES IDX 5 13 4 14 3 15 2 16 1 17
REMARK H PARENT
REMARK Flexibility Score: inf
ROOT
ATOM      1  C   UNL     1     -26.301  -4.182 -11.901  1.00  0.00     0.000 C 
ENDROOT
BRANCH   1   2
ATOM      2  C   UNL     1     -24.826  -3.773 -12.043  1.00  0.00     0.000 C 
BRANCH   2   3
ATOM      3  C   UNL     1     -24.533  -3.084 -13.387  1.00  0.00     0.000 C 
BRANCH   3   4
ATOM      4  C   UNL     1     -25.061  -3.880 -14.596  1.00  0.00     0.000 C 
BRANCH   4   5
ATOM      5  C   UNL     1     -24.657  -3.318 -15.972  1.00  0.00     0.006 C 
BRANCH   5   6
ATOM      6  C   UNL     1     -24.999  -4.265 -17.129  1.00  0.00     0.053 C 
BRANCH   6   7
ATOM      7  C   UNL     1     -23.772  -4.584 -17.924  1.00  0.00     0.041 C 
ATOM      8  O   UNL     1     -23.736  -5.611 -18.650  1.00  0.00    -0.550 OA
ATOM      9  O   UNL     1     -22.686  -3.717 -17.901  1.00  0.00    -0.550 OA
ENDBRANCH   6   7
ENDBRANCH   5   6
ENDBRANCH   4   5
ENDBRANCH   3   4
ENDBRANCH   2   3
ENDBRANCH   1   2
BRANCH   1  10
ATOM     10  C   UNL     1     -27.118  -3.159 -11.092  1.00  0.00     0.000 C 
BRANCH  10  11
ATOM     11  C   UNL     1     -28.632  -3.256 -11.359  1.00  0.00    -0.000 C 
BRANCH  11  12
ATOM     12  C   UNL     1     -29.451  -3.917 -10.235  1.00  0.00    -0.000 C 
BRANCH  12  13
ATOM     13  C   UNL     1     -29.446  -5.451 -10.313  1.00  0.00    -0.000 C 
BRANCH  13  14
ATOM     14  C   UNL     1     -28.066  -6.018  -9.945  1.00  0.00    -0.000 C 
BRANCH  14  15
ATOM     15  C   UNL     1     -27.425  -6.799 -11.111  1.00  0.00    -0.000 C 
BRANCH  15  16
ATOM     16  C   UNL     1     -26.400  -7.852 -10.657  1.00  0.00    -0.003 C 
ATOM     17  C   UNL     1     -24.965  -7.330 -10.653  1.00  0.00     0.004 C 
ENDBRANCH  15  16
ENDBRANCH  14  15
ENDBRANCH  13  14
ENDBRANCH  12  13
ENDBRANCH  11  12
ENDBRANCH  10  11
ENDBRANCH   1  10
TORSDOF 13
ENDMDL
MODEL 9
REMARK VINA RESULT:    17.330     14.877     16.553
REMARK INTER + INTRA:          29.846
REMARK INTER:                  30.656
REMARK INTRA:                  -0.810
REMARK UNBOUND:                -0.654
REMARK SMILES CCCCCCCCCCCCCCC(=O)[O-]
REMARK SMILES IDX 9 1 10 2 11 3 12 4 13 5 14 6 15 7 16 8 17 9 8 10 7 11 6 12
REMARK SMILES IDX 5 13 4 14 3 15 2 16 1 17
REMARK H PARENT
REMARK Flexibility Score: inf
ROOT
ATOM      1  C   UNL     1     -24.357  -3.825 -13.990  1.00  0.00     0.000 C 
ENDROOT
BRANCH   1   2
ATOM      2  C   UNL     1     -24.827  -3.752 -12.528  1.00  0.00     0.000 C 
BRANCH   2   3
ATOM      3  C   UNL     1     -26.146  -4.509 -12.297  1.00  0.00     0.000 C 
BRANCH   3   4
ATOM      4  C   UNL     1     -27.040  -3.845 -11.232  1.00  0.00     0.000 C 
BRANCH   4   5
ATOM      5  C   UNL     1     -28.499  -3.607 -11.663  1.00  0.00     0.006 C 
BRANCH   5   6
ATOM      6  C   UNL     1     -29.410  -3.208 -10.495  1.00  0.00     0.053 C 
BRANCH   6   7
ATOM      7  C   UNL     1     -29.957  -4.425  -9.819  1.00  0.00     0.041 C 
ATOM      8  O   UNL     1     -30.726  -5.204 -10.440  1.00  0.00    -0.550 OA
ATOM      9  O   UNL     1     -29.576  -4.727  -8.517  1.00  0.00    -0.550 OA
ENDBRANCH   6   7
ENDBRANCH   5   6
ENDBRANCH   4   5
ENDBRANCH   3   4
ENDBRANCH   2   3
ENDBRANCH   1   2
BRANCH   1  10
ATOM     10  C   UNL     1     -25.150  -2.879 -14.909  1.00  0.00     0.000 C 
BRANCH  10  11
ATOM     11  C   UNL     1     -24.749  -3.008 -16.391  1.00  0.00    -0.000 C 
BRANCH  11  12
ATOM     12  C   UNL     1     -25.060  -4.372 -17.034  1.00  0.00    -0.000 C 
BRANCH  12  13
ATOM     13  C   UNL     1     -26.521  -4.502 -17.487  1.00  0.00    -0.000 C 
BRANCH  13  14
ATOM     14  C   UNL     1     -27.305  -5.445 -16.561  1.00  0.00    -0.000 C 
BRANCH  14  15
ATOM     15  C   UNL     1     -28.643  -5.897 -17.183  1.00  0.00    -0.000 C 
BRANCH  15  16
ATOM     16  C   UNL     1     -29.649  -4.751 -17.379  1.00  0.00    -0.003 C 
ATOM     17  C   UNL     1     -29.939  -4.452 -18.848  1.00  0.00     0.004 C 
ENDBRANCH  15  16
ENDBRANCH  14  15
ENDBRANCH  13  14
ENDBRANCH  12  13
ENDBRANCH  11  12
ENDBRANCH  10  11
ENDBRANCH   1  10
TORSDOF 13
ENDMDL
