MODEL 1
REMARK VINA RESULT:    -4.655      0.000      0.000
REMARK INTER + INTRA:          -5.187
REMARK INTER:                  -4.927
REMARK INTRA:                  -0.259
REMARK UNBOUND:                -0.259
REMARK SMILES O=c1cc(-c2ccccc2)oc2ccccc12
REMARK SMILES IDX 4 1 3 2 2 3 1 4 17 5 16 6 15 7 14 8 13 9 12 10 11 11 5 12
REMARK SMILES IDX 8 13 7 14 9 15 6 16 10 17
REMARK H PARENT
REMARK Flexibility Score: inf
ROOT
ATOM      1  C   UNL     1      14.049   5.352  -5.616  1.00  0.00     0.138 A 
ATOM      2  C   UNL     1      13.900   6.538  -4.867  1.00  0.00     0.100 A 
ATOM      3  C   UNL     1      14.058   7.775  -5.497  1.00  0.00     0.193 A 
ATOM      4  O   UNL     1      13.925   8.835  -4.827  1.00  0.00    -0.289 OA
ATOM      5  C   UNL     1      14.361   7.819  -6.864  1.00  0.00     0.065 A 
ATOM      6  C   UNL     1      14.532   9.030  -7.559  1.00  0.00     0.016 A 
ATOM      7  C   UNL     1      14.834   9.015  -8.925  1.00  0.00     0.001 A 
ATOM      8  C   UNL     1      14.967   7.801  -9.604  1.00  0.00     0.004 A 
ATOM      9  C   UNL     1      14.799   6.594  -8.921  1.00  0.00     0.048 A 
ATOM     10  C   UNL     1      14.496   6.596  -7.555  1.00  0.00     0.138 A 
ATOM     11  O   UNL     1      14.337   5.442  -6.915  1.00  0.00    -0.456 OA
ENDROOT
BRANCH   1  12
ATOM     12  C   UNL     1      13.897   3.988  -5.019  1.00  0.00     0.017 A 
ATOM     13  C   UNL     1      13.666   1.380  -3.966  1.00  0.00     0.000 A 
ATOM     14  C   UNL     1      14.414   1.603  -5.122  1.00  0.00     0.001 A 
ATOM     15  C   UNL     1      13.033   2.447  -3.332  1.00  0.00     0.001 A 
ATOM     16  C   UNL     1      14.530   2.894  -5.645  1.00  0.00     0.012 A 
ATOM     17  C   UNL     1      13.143   3.742  -3.849  1.00  0.00     0.012 A 
ENDBRANCH   1  12
TORSDOF 1
ENDMDL
MODEL 2
REMARK VINA RESULT:    -4.514     11.516     12.878
REMARK INTER + INTRA:          -5.037
REMARK INTER:                  -4.799
REMARK INTRA:                  -0.238
REMARK UNBOUND:                -0.259
REMARK SMILES O=c1cc(-c2ccccc2)oc2ccccc12
REMARK SMILES IDX 4 1 3 2 2 3 1 4 17 5 16 6 15 7 14 8 13 9 12 10 11 11 5 12
REMARK SMILES IDX 8 13 7 14 9 15 6 16 10 17
REMARK H PARENT
REMARK Flexibility Score: inf
ROOT
ATOM      1  C   UNL     1       3.779   8.266  -9.254  1.00  0.00     0.138 A 
ATOM      2  C   UNL     1       4.226   7.379  -8.252  1.00  0.00     0.100 A 
ATOM      3  C   UNL     1       3.482   6.233  -7.965  1.00  0.00     0.193 A 
ATOM      4  O   UNL     1       3.882   5.440  -7.070  1.00  0.00    -0.289 OA
ATOM      5  C   UNL     1       2.302   5.979  -8.678  1.00  0.00     0.065 A 
ATOM      6  C   UNL     1       1.507   4.844  -8.440  1.00  0.00     0.016 A 
ATOM      7  C   UNL     1       0.338   4.640  -9.181  1.00  0.00     0.001 A 
ATOM      8  C   UNL     1      -0.044   5.562 -10.159  1.00  0.00     0.004 A 
ATOM      9  C   UNL     1       0.740   6.693 -10.403  1.00  0.00     0.048 A 
ATOM     10  C   UNL     1       1.911   6.907  -9.667  1.00  0.00     0.138 A 
ATOM     11  O   UNL     1       2.651   7.985  -9.907  1.00  0.00    -0.456 OA
ENDROOT
BRANCH   1  12
ATOM     12  C   UNL     1       4.515   9.515  -9.623  1.00  0.00     0.017 A 
ATOM     13  C   UNL     1       5.904  11.842 -10.412  1.00  0.00     0.000 A 
ATOM     14  C   UNL     1       5.556  10.881 -11.360  1.00  0.00     0.001 A 
ATOM     15  C   UNL     1       5.564  11.653  -9.073  1.00  0.00     0.001 A 
ATOM     16  C   UNL     1       4.868   9.728 -10.972  1.00  0.00     0.012 A 
ATOM     17  C   UNL     1       4.876  10.501  -8.676  1.00  0.00     0.012 A 
ENDBRANCH   1  12
TORSDOF 1
ENDMDL
MODEL 3
REMARK VINA RESULT:    -4.490      1.879      3.267
REMARK INTER + INTRA:          -5.012
REMARK INTER:                  -4.756
REMARK INTRA:                  -0.256
REMARK UNBOUND:                -0.259
REMARK SMILES O=c1cc(-c2ccccc2)oc2ccccc12
REMARK SMILES IDX 4 1 3 2 2 3 1 4 17 5 16 6 15 7 14 8 13 9 12 10 11 11 5 12
REMARK SMILES IDX 8 13 7 14 9 15 6 16 10 17
REMARK H PARENT
REMARK Flexibility Score: inf
ROOT
ATOM      1  C   UNL     1      14.212   3.627  -4.296  1.00  0.00     0.138 A 
ATOM      2  C   UNL     1      14.589   3.556  -5.653  1.00  0.00     0.100 A 
ATOM      3  C   UNL     1      14.746   4.734  -6.387  1.00  0.00     0.193 A 
ATOM      4  O   UNL     1      15.084   4.669  -7.600  1.00  0.00    -0.289 OA
ATOM      5  C   UNL     1      14.527   5.970  -5.764  1.00  0.00     0.065 A 
ATOM      6  C   UNL     1      14.669   7.192  -6.445  1.00  0.00     0.016 A 
ATOM      7  C   UNL     1      14.437   8.398  -5.773  1.00  0.00     0.001 A 
ATOM      8  C   UNL     1      14.065   8.393  -4.426  1.00  0.00     0.004 A 
ATOM      9  C   UNL     1      13.923   7.182  -3.742  1.00  0.00     0.048 A 
ATOM     10  C   UNL     1      14.151   5.971  -4.404  1.00  0.00     0.138 A 
ATOM     11  O   UNL     1      14.014   4.825  -3.744  1.00  0.00    -0.456 OA
ENDROOT
BRANCH   1  12
ATOM     12  C   UNL     1      14.022   2.416  -3.439  1.00  0.00     0.017 A 
ATOM     13  C   UNL     1      13.729   0.083  -1.877  1.00  0.00     0.000 A 
ATOM     14  C   UNL     1      14.613   0.095  -2.955  1.00  0.00     0.001 A 
ATOM     15  C   UNL     1      12.990   1.225  -1.571  1.00  0.00     0.001 A 
ATOM     16  C   UNL     1      14.760   1.249  -3.730  1.00  0.00     0.012 A 
ATOM     17  C   UNL     1      13.131   2.384  -2.342  1.00  0.00     0.012 A 
ENDBRANCH   1  12
TORSDOF 1
ENDMDL
MODEL 4
REMARK VINA RESULT:    -4.488      2.975      4.588
REMARK INTER + INTRA:          -5.010
REMARK INTER:                  -4.789
REMARK INTRA:                  -0.220
REMARK UNBOUND:                -0.259
REMARK SMILES O=c1cc(-c2ccccc2)oc2ccccc12
REMARK SMILES IDX 4 1 3 2 2 3 1 4 17 5 16 6 15 7 14 8 13 9 12 10 11 11 5 12
REMARK SMILES IDX 8 13 7 14 9 15 6 16 10 17
REMARK H PARENT
REMARK Flexibility Score: inf
ROOT
ATOM      1  C   UNL     1      13.924   2.779  -3.194  1.00  0.00     0.138 A 
ATOM      2  C   UNL     1      13.230   3.067  -4.388  1.00  0.00     0.100 A 
ATOM      3  C   UNL     1      13.148   4.388  -4.835  1.00  0.00     0.193 A 
ATOM      4  O   UNL     1      12.529   4.645  -5.903  1.00  0.00    -0.289 OA
ATOM      5  C   UNL     1      13.757   5.407  -4.091  1.00  0.00     0.065 A 
ATOM      6  C   UNL     1      13.713   6.757  -4.485  1.00  0.00     0.016 A 
ATOM      7  C   UNL     1      14.337   7.735  -3.704  1.00  0.00     0.001 A 
ATOM      8  C   UNL     1      15.008   7.376  -2.531  1.00  0.00     0.004 A 
ATOM      9  C   UNL     1      15.056   6.038  -2.132  1.00  0.00     0.048 A 
ATOM     10  C   UNL     1      14.435   5.051  -2.906  1.00  0.00     0.138 A 
ATOM     11  O   UNL     1      14.488   3.781  -2.518  1.00  0.00    -0.456 OA
ENDROOT
BRANCH   1  12
ATOM     12  C   UNL     1      14.059   1.394  -2.645  1.00  0.00     0.017 A 
ATOM     13  C   UNL     1      14.236  -1.203  -1.555  1.00  0.00     0.000 A 
ATOM     14  C   UNL     1      13.211  -0.346  -1.155  1.00  0.00     0.001 A 
ATOM     15  C   UNL     1      15.172  -0.777  -2.495  1.00  0.00     0.001 A 
ATOM     16  C   UNL     1      13.122   0.941  -1.693  1.00  0.00     0.012 A 
ATOM     17  C   UNL     1      15.091   0.510  -3.038  1.00  0.00     0.012 A 
ENDBRANCH   1  12
TORSDOF 1
ENDMDL
MODEL 5
REMARK VINA RESULT:    -4.425     10.841     11.307
REMARK INTER + INTRA:          -4.943
REMARK INTER:                  -4.714
REMARK INTRA:                  -0.229
REMARK UNBOUND:                -0.259
REMARK SMILES O=c1cc(-c2ccccc2)oc2ccccc12
REMARK SMILES IDX 4 1 3 2 2 3 1 4 17 5 16 6 15 7 14 8 13 9 12 10 11 11 5 12
REMARK SMILES IDX 8 13 7 14 9 15 6 16 10 17
REMARK H PARENT
REMARK Flexibility Score: inf
ROOT
ATOM      1  C   UNL     1       3.130   6.253  -7.059  1.00  0.00     0.138 A 
ATOM      2  C   UNL     1       3.749   6.021  -8.305  1.00  0.00     0.100 A 
ATOM      3  C   UNL     1       4.214   7.103  -9.056  1.00  0.00     0.193 A 
ATOM      4  O   UNL     1       4.769   6.895 -10.169  1.00  0.00    -0.289 OA
ATOM      5  C   UNL     1       4.059   8.404  -8.559  1.00  0.00     0.065 A 
ATOM      6  C   UNL     1       4.506   9.537  -9.263  1.00  0.00     0.016 A 
ATOM      7  C   UNL     1       4.324  10.814  -8.720  1.00  0.00     0.001 A 
ATOM      8  C   UNL     1       3.701  10.969  -7.479  1.00  0.00     0.004 A 
ATOM      9  C   UNL     1       3.255   9.849  -6.773  1.00  0.00     0.048 A 
ATOM     10  C   UNL     1       3.431   8.567  -7.306  1.00  0.00     0.138 A 
ATOM     11  O   UNL     1       3.004   7.508  -6.626  1.00  0.00    -0.456 OA
ENDROOT
BRANCH   1  12
ATOM     12  C   UNL     1       2.604   5.152  -6.194  1.00  0.00     0.017 A 
ATOM     13  C   UNL     1       1.704   3.044  -4.547  1.00  0.00     0.000 A 
ATOM     14  C   UNL     1       3.067   3.208  -4.788  1.00  0.00     0.001 A 
ATOM     15  C   UNL     1       0.786   3.923  -5.119  1.00  0.00     0.001 A 
ATOM     16  C   UNL     1       3.516   4.251  -5.603  1.00  0.00     0.012 A 
ATOM     17  C   UNL     1       1.226   4.969  -5.937  1.00  0.00     0.012 A 
ENDBRANCH   1  12
TORSDOF 1
ENDMDL
MODEL 6
REMARK VINA RESULT:    -4.284      2.732      4.547
REMARK INTER + INTRA:          -4.794
REMARK INTER:                  -4.572
REMARK INTRA:                  -0.222
REMARK UNBOUND:                -0.259
REMARK SMILES O=c1cc(-c2ccccc2)oc2ccccc12
REMARK SMILES IDX 4 1 3 2 2 3 1 4 17 5 16 6 15 7 14 8 13 9 12 10 11 11 5 12
REMARK SMILES IDX 8 13 7 14 9 15 6 16 10 17
REMARK H PARENT
REMARK Flexibility Score: inf
ROOT
ATOM      1  C   UNL     1      14.774   2.124  -6.716  1.00  0.00     0.138 A 
ATOM      2  C   UNL     1      15.752   2.986  -7.256  1.00  0.00     0.100 A 
ATOM      3  C   UNL     1      15.773   4.329  -6.874  1.00  0.00     0.193 A 
ATOM      4  O   UNL     1      16.648   5.098  -7.356  1.00  0.00    -0.289 OA
ATOM      5  C   UNL     1      14.821   4.801  -5.960  1.00  0.00     0.065 A 
ATOM      6  C   UNL     1      14.787   6.141  -5.533  1.00  0.00     0.016 A 
ATOM      7  C   UNL     1      13.814   6.559  -4.619  1.00  0.00     0.001 A 
ATOM      8  C   UNL     1      12.875   5.650  -4.125  1.00  0.00     0.004 A 
ATOM      9  C   UNL     1      12.902   4.317  -4.544  1.00  0.00     0.048 A 
ATOM     10  C   UNL     1      13.870   3.887  -5.458  1.00  0.00     0.138 A 
ATOM     11  O   UNL     1      13.888   2.617  -5.850  1.00  0.00    -0.456 OA
ENDROOT
BRANCH   1  12
ATOM     12  C   UNL     1      14.681   0.674  -7.071  1.00  0.00     0.017 A 
ATOM     13  C   UNL     1      14.582  -2.079  -7.684  1.00  0.00     0.000 A 
ATOM     14  C   UNL     1      15.557  -1.592  -6.815  1.00  0.00     0.001 A 
ATOM     15  C   UNL     1      13.655  -1.205  -8.249  1.00  0.00     0.001 A 
ATOM     16  C   UNL     1      15.608  -0.229  -6.510  1.00  0.00     0.012 A 
ATOM     17  C   UNL     1      13.699   0.161  -7.951  1.00  0.00     0.012 A 
ENDBRANCH   1  12
TORSDOF 1
ENDMDL
MODEL 7
REMARK VINA RESULT:    -4.282      2.405      4.208
REMARK INTER + INTRA:          -4.791
REMARK INTER:                  -4.528
REMARK INTRA:                  -0.263
REMARK UNBOUND:                -0.259
REMARK SMILES O=c1cc(-c2ccccc2)oc2ccccc12
REMARK SMILES IDX 4 1 3 2 2 3 1 4 17 5 16 6 15 7 14 8 13 9 12 10 11 11 5 12
REMARK SMILES IDX 8 13 7 14 9 15 6 16 10 17
REMARK H PARENT
REMARK Flexibility Score: inf
ROOT
ATOM      1  C   UNL     1      14.497   2.641  -6.179  1.00  0.00     0.138 A 
ATOM      2  C   UNL     1      13.989   2.483  -4.872  1.00  0.00     0.100 A 
ATOM      3  C   UNL     1      13.700   3.613  -4.104  1.00  0.00     0.193 A 
ATOM      4  O   UNL     1      13.245   3.472  -2.937  1.00  0.00    -0.289 OA
ATOM      5  C   UNL     1      13.918   4.888  -4.644  1.00  0.00     0.065 A 
ATOM      6  C   UNL     1      13.648   6.067  -3.925  1.00  0.00     0.016 A 
ATOM      7  C   UNL     1      13.885   7.314  -4.513  1.00  0.00     0.001 A 
ATOM      8  C   UNL     1      14.391   7.395  -5.813  1.00  0.00     0.004 A 
ATOM      9  C   UNL     1      14.662   6.229  -6.534  1.00  0.00     0.048 A 
ATOM     10  C   UNL     1      14.429   4.976  -5.957  1.00  0.00     0.138 A 
ATOM     11  O   UNL     1      14.689   3.873  -6.651  1.00  0.00    -0.456 OA
ENDROOT
BRANCH   1  12
ATOM     12  C   UNL     1      14.833   1.485  -7.067  1.00  0.00     0.017 A 
ATOM     13  C   UNL     1      15.415  -0.755  -8.683  1.00  0.00     0.000 A 
ATOM     14  C   UNL     1      14.633  -0.904  -7.539  1.00  0.00     0.001 A 
ATOM     15  C   UNL     1      15.909   0.502  -9.029  1.00  0.00     0.001 A 
ATOM     16  C   UNL     1      14.343   0.204  -6.737  1.00  0.00     0.012 A 
ATOM     17  C   UNL     1      15.625   1.616  -8.231  1.00  0.00     0.012 A 
ENDBRANCH   1  12
TORSDOF 1
ENDMDL
MODEL 8
REMARK VINA RESULT:    -4.261     12.173     13.217
REMARK INTER + INTRA:          -4.770
REMARK INTER:                  -4.532
REMARK INTRA:                  -0.238
REMARK UNBOUND:                -0.259
REMARK SMILES O=c1cc(-c2ccccc2)oc2ccccc12
REMARK SMILES IDX 4 1 3 2 2 3 1 4 17 5 16 6 15 7 14 8 13 9 12 10 11 11 5 12
REMARK SMILES IDX 8 13 7 14 9 15 6 16 10 17
REMARK H PARENT
REMARK Flexibility Score: inf
ROOT
ATOM      1  C   UNL     1       2.680   7.054  -8.905  1.00  0.00     0.138 A 
ATOM      2  C   UNL     1       1.659   6.743  -7.982  1.00  0.00     0.100 A 
ATOM      3  C   UNL     1       0.918   5.570  -8.144  1.00  0.00     0.193 A 
ATOM      4  O   UNL     1       0.007   5.292  -7.319  1.00  0.00    -0.289 OA
ATOM      5  C   UNL     1       1.201   4.719  -9.221  1.00  0.00     0.065 A 
ATOM      6  C   UNL     1       0.494   3.523  -9.442  1.00  0.00     0.016 A 
ATOM      7  C   UNL     1       0.818   2.710 -10.534  1.00  0.00     0.001 A 
ATOM      8  C   UNL     1       1.843   3.082 -11.408  1.00  0.00     0.004 A 
ATOM      9  C   UNL     1       2.550   4.268 -11.196  1.00  0.00     0.048 A 
ATOM     10  C   UNL     1       2.235   5.089 -10.108  1.00  0.00     0.138 A 
ATOM     11  O   UNL     1       2.914   6.214  -9.914  1.00  0.00    -0.456 OA
ENDROOT
BRANCH   1  12
ATOM     12  C   UNL     1       3.519   8.288  -8.804  1.00  0.00     0.017 A 
ATOM     13  C   UNL     1       5.124  10.593  -8.524  1.00  0.00     0.000 A 
ATOM     14  C   UNL     1       4.984   9.705  -7.458  1.00  0.00     0.001 A 
ATOM     15  C   UNL     1       4.471  10.340  -9.729  1.00  0.00     0.001 A 
ATOM     16  C   UNL     1       4.190   8.563  -7.594  1.00  0.00     0.012 A 
ATOM     17  C   UNL     1       3.674   9.200  -9.874  1.00  0.00     0.012 A 
ENDBRANCH   1  12
TORSDOF 1
ENDMDL
MODEL 9
REMARK VINA RESULT:    -4.219     11.297     13.061
REMARK INTER + INTRA:          -4.726
REMARK INTER:                  -4.495
REMARK INTRA:                  -0.230
REMARK UNBOUND:                -0.259
REMARK SMILES O=c1cc(-c2ccccc2)oc2ccccc12
REMARK SMILES IDX 4 1 3 2 2 3 1 4 17 5 16 6 15 7 14 8 13 9 12 10 11 11 5 12
REMARK SMILES IDX 8 13 7 14 9 15 6 16 10 17
REMARK H PARENT
REMARK Flexibility Score: inf
ROOT
ATOM      1  C   UNL     1       2.812   6.258  -6.387  1.00  0.00     0.138 A 
ATOM      2  C   UNL     1       3.461   5.006  -6.397  1.00  0.00     0.100 A 
ATOM      3  C   UNL     1       3.361   4.169  -5.284  1.00  0.00     0.193 A 
ATOM      4  O   UNL     1       3.941   3.050  -5.294  1.00  0.00    -0.289 OA
ATOM      5  C   UNL     1       2.615   4.586  -4.173  1.00  0.00     0.065 A 
ATOM      6  C   UNL     1       2.473   3.792  -3.020  1.00  0.00     0.016 A 
ATOM      7  C   UNL     1       1.717   4.257  -1.939  1.00  0.00     0.001 A 
ATOM      8  C   UNL     1       1.101   5.510  -1.999  1.00  0.00     0.004 A 
ATOM      9  C   UNL     1       1.237   6.305  -3.139  1.00  0.00     0.048 A 
ATOM     10  C   UNL     1       1.991   5.850  -4.227  1.00  0.00     0.138 A 
ATOM     11  O   UNL     1       2.114   6.613  -5.308  1.00  0.00    -0.456 OA
ENDROOT
BRANCH   1  12
ATOM     12  C   UNL     1       2.869   7.214  -7.537  1.00  0.00     0.017 A 
ATOM     13  C   UNL     1       3.072   9.027  -9.691  1.00  0.00     0.000 A 
ATOM     14  C   UNL     1       4.209   8.671  -8.968  1.00  0.00     0.001 A 
ATOM     15  C   UNL     1       1.834   8.486  -9.349  1.00  0.00     0.001 A 
ATOM     16  C   UNL     1       4.112   7.773  -7.901  1.00  0.00     0.012 A 
ATOM     17  C   UNL     1       1.726   7.587  -8.282  1.00  0.00     0.012 A 
ENDBRANCH   1  12
TORSDOF 1
ENDMDL
