MODEL 1
REMARK VINA RESULT:    -4.868      0.000      0.000
REMARK INTER + INTRA:          -6.081
REMARK INTER:                  -5.863
REMARK INTRA:                  -0.218
REMARK UNBOUND:                -0.218
REMARK SMILES O=c1c(O)c(-c2ccc(O)c(O)c2)oc2cc(O)cc(O)c12
REMARK SMILES IDX 5 1 3 2 2 3 1 4 22 5 20 6 19 7 17 8 16 9 15 10 14 11 6 12
REMARK SMILES IDX 7 13 8 14 9 15 13 16 11 17 10 18 12 20 4 22 21 24 18 26
REMARK H PARENT 10 19 12 21 4 23 21 25 18 27
REMARK Flexibility Score: inf
ROOT
ATOM      1  C   UNL     1      22.393  12.772  86.906  1.00  0.00     0.180 A 
ATOM      2  C   UNL     1      21.885  14.033  86.549  1.00  0.00     0.208 A 
ATOM      3  C   UNL     1      22.762  15.127  86.478  1.00  0.00     0.238 A 
ATOM      4  O   UNL     1      22.289  16.266  86.231  1.00  0.00    -0.285 OA
ATOM      5  C   UNL     1      24.146  14.936  86.712  1.00  0.00     0.111 A 
ATOM      6  C   UNL     1      25.134  15.963  86.623  1.00  0.00     0.134 A 
ATOM      7  C   UNL     1      26.458  15.681  86.979  1.00  0.00     0.093 A 
ATOM      8  C   UNL     1      26.844  14.395  87.358  1.00  0.00     0.123 A 
ATOM      9  C   UNL     1      25.898  13.371  87.395  1.00  0.00     0.094 A 
ATOM     10  C   UNL     1      24.561  13.630  87.082  1.00  0.00     0.146 A 
ATOM     11  O   UNL     1      23.690  12.631  87.151  1.00  0.00    -0.452 OA
ENDROOT
BRANCH   1  12
ATOM     12  C   UNL     1      21.528  11.576  87.016  1.00  0.00     0.025 A 
ATOM     13  C   UNL     1      20.562  11.461  88.028  1.00  0.00     0.016 A 
ATOM     14  C   UNL     1      19.774  10.312  88.125  1.00  0.00     0.051 A 
ATOM     15  C   UNL     1      19.943   9.253  87.227  1.00  0.00     0.157 A 
ATOM     16  C   UNL     1      21.714  10.506  86.128  1.00  0.00     0.062 A 
ATOM     17  C   UNL     1      20.929   9.349  86.216  1.00  0.00     0.158 A 
BRANCH  15  18
ATOM     18  O   UNL     1      19.120   8.134  87.375  1.00  0.00    -0.504 OA
ATOM     19  H   UNL     1      18.409   8.046  88.086  1.00  0.00     0.293 HD
ENDBRANCH  15  18
BRANCH  17  20
ATOM     20  O   UNL     1      21.162   8.330  85.290  1.00  0.00    -0.504 OA
ATOM     21  H   UNL     1      20.433   7.775  84.866  1.00  0.00     0.293 HD
ENDBRANCH  17  20
ENDBRANCH   1  12
BRANCH   2  22
ATOM     22  O   UNL     1      20.528  14.185  86.248  1.00  0.00    -0.502 OA
ATOM     23  H   UNL     1      19.977  14.959  86.600  1.00  0.00     0.293 HD
ENDBRANCH   2  22
BRANCH   6  24
ATOM     24  O   UNL     1      24.876  17.261  86.172  1.00  0.00    -0.507 OA
ATOM     25  H   UNL     1      25.571  17.986  86.071  1.00  0.00     0.293 HD
ENDBRANCH   6  24
BRANCH   8  26
ATOM     26  O   UNL     1      28.174  14.146  87.689  1.00  0.00    -0.508 OA
ATOM     27  H   UNL     1      28.447  13.892  88.632  1.00  0.00     0.293 HD
ENDBRANCH   8  26
TORSDOF 6
ENDMDL
MODEL 2
REMARK VINA RESULT:    -4.648      1.770      3.684
REMARK INTER + INTRA:          -5.817
REMARK INTER:                  -5.509
REMARK INTRA:                  -0.308
REMARK UNBOUND:                -0.218
REMARK SMILES O=c1c(O)c(-c2ccc(O)c(O)c2)oc2cc(O)cc(O)c12
REMARK SMILES IDX 5 1 3 2 2 3 1 4 22 5 20 6 19 7 17 8 16 9 15 10 14 11 6 12
REMARK SMILES IDX 7 13 8 14 9 15 13 16 11 17 10 18 12 20 4 22 21 24 18 26
REMARK H PARENT 10 19 12 21 4 23 21 25 18 27
REMARK Flexibility Score: inf
ROOT
ATOM      1  C   UNL     1      21.570  13.371  86.555  1.00  0.00     0.180 A 
ATOM      2  C   UNL     1      22.906  13.668  86.874  1.00  0.00     0.208 A 
ATOM      3  C   UNL     1      23.392  14.963  86.632  1.00  0.00     0.238 A 
ATOM      4  O   UNL     1      24.608  15.201  86.850  1.00  0.00    -0.285 OA
ATOM      5  C   UNL     1      22.522  15.959  86.126  1.00  0.00     0.111 A 
ATOM      6  C   UNL     1      22.895  17.317  85.885  1.00  0.00     0.134 A 
ATOM      7  C   UNL     1      21.979  18.188  85.283  1.00  0.00     0.093 A 
ATOM      8  C   UNL     1      20.685  17.772  84.973  1.00  0.00     0.123 A 
ATOM      9  C   UNL     1      20.293  16.463  85.254  1.00  0.00     0.094 A 
ATOM     10  C   UNL     1      21.195  15.559  85.820  1.00  0.00     0.146 A 
ATOM     11  O   UNL     1      20.787  14.317  86.052  1.00  0.00    -0.452 OA
ENDROOT
BRANCH   1  12
ATOM     12  C   UNL     1      20.989  12.026  86.768  1.00  0.00     0.025 A 
ATOM     13  C   UNL     1      20.274  11.713  87.935  1.00  0.00     0.016 A 
ATOM     14  C   UNL     1      19.757  10.430  88.123  1.00  0.00     0.051 A 
ATOM     15  C   UNL     1      19.952   9.433  87.162  1.00  0.00     0.157 A 
ATOM     16  C   UNL     1      21.205  11.022  85.812  1.00  0.00     0.062 A 
ATOM     17  C   UNL     1      20.690   9.732  85.991  1.00  0.00     0.158 A 
BRANCH  15  18
ATOM     18  O   UNL     1      19.405   8.172  87.408  1.00  0.00    -0.504 OA
ATOM     19  H   UNL     1      19.950   7.356  87.644  1.00  0.00     0.293 HD
ENDBRANCH  15  18
BRANCH  17  20
ATOM     20  O   UNL     1      20.934   8.786  84.992  1.00  0.00    -0.504 OA
ATOM     21  H   UNL     1      20.714   7.805  85.078  1.00  0.00     0.293 HD
ENDBRANCH  17  20
ENDBRANCH   1  12
BRANCH   2  22
ATOM     22  O   UNL     1      23.728  12.692  87.443  1.00  0.00    -0.502 OA
ATOM     23  H   UNL     1      24.310  12.078  86.885  1.00  0.00     0.293 HD
ENDBRANCH   2  22
BRANCH   6  24
ATOM     24  O   UNL     1      24.133  17.864  86.236  1.00  0.00    -0.507 OA
ATOM     25  H   UNL     1      25.004  17.355  86.260  1.00  0.00     0.293 HD
ENDBRANCH   6  24
BRANCH   8  26
ATOM     26  O   UNL     1      19.794  18.671  84.390  1.00  0.00    -0.508 OA
ATOM     27  H   UNL     1      18.856  18.392  84.127  1.00  0.00     0.293 HD
ENDBRANCH   8  26
TORSDOF 6
ENDMDL
MODEL 3
REMARK VINA RESULT:    -4.503      2.182      4.162
REMARK INTER + INTRA:          -5.642
REMARK INTER:                  -5.335
REMARK INTRA:                  -0.307
REMARK UNBOUND:                -0.218
REMARK SMILES O=c1c(O)c(-c2ccc(O)c(O)c2)oc2cc(O)cc(O)c12
REMARK SMILES IDX 5 1 3 2 2 3 1 4 22 5 20 6 19 7 17 8 16 9 15 10 14 11 6 12
REMARK SMILES IDX 7 13 8 14 9 15 13 16 11 17 10 18 12 20 4 22 21 24 18 26
REMARK H PARENT 10 19 12 21 4 23 21 25 18 27
REMARK Flexibility Score: inf
ROOT
ATOM      1  C   UNL     1      21.026  13.539  86.349  1.00  0.00     0.180 A 
ATOM      2  C   UNL     1      22.320  13.991  86.658  1.00  0.00     0.208 A 
ATOM      3  C   UNL     1      22.666  15.319  86.364  1.00  0.00     0.238 A 
ATOM      4  O   UNL     1      23.848  15.696  86.574  1.00  0.00    -0.285 OA
ATOM      5  C   UNL     1      21.698  16.195  85.816  1.00  0.00     0.111 A 
ATOM      6  C   UNL     1      21.924  17.574  85.519  1.00  0.00     0.134 A 
ATOM      7  C   UNL     1      20.924  18.316  84.880  1.00  0.00     0.093 A 
ATOM      8  C   UNL     1      19.684  17.751  84.585  1.00  0.00     0.123 A 
ATOM      9  C   UNL     1      19.433  16.420  84.919  1.00  0.00     0.094 A 
ATOM     10  C   UNL     1      20.424  15.642  85.523  1.00  0.00     0.146 A 
ATOM     11  O   UNL     1      20.150  14.374  85.805  1.00  0.00    -0.452 OA
ENDROOT
BRANCH   1  12
ATOM     12  C   UNL     1      20.591  12.149  86.616  1.00  0.00     0.025 A 
ATOM     13  C   UNL     1      20.158  11.749  87.890  1.00  0.00     0.016 A 
ATOM     14  C   UNL     1      19.776  10.426  88.123  1.00  0.00     0.051 A 
ATOM     15  C   UNL     1      19.831   9.476  87.098  1.00  0.00     0.157 A 
ATOM     16  C   UNL     1      20.668  11.193  85.592  1.00  0.00     0.062 A 
ATOM     17  C   UNL     1      20.287   9.864  85.815  1.00  0.00     0.158 A 
BRANCH  15  18
ATOM     18  O   UNL     1      19.430   8.172  87.394  1.00  0.00    -0.504 OA
ATOM     19  H   UNL     1      18.718   7.940  88.070  1.00  0.00     0.293 HD
ENDBRANCH  15  18
BRANCH  17  20
ATOM     20  O   UNL     1      20.379   8.970  84.745  1.00  0.00    -0.504 OA
ATOM     21  H   UNL     1      19.584   8.520  84.316  1.00  0.00     0.293 HD
ENDBRANCH  17  20
ENDBRANCH   1  12
BRANCH   2  22
ATOM     22  O   UNL     1      23.238  13.132  87.269  1.00  0.00    -0.502 OA
ATOM     23  H   UNL     1      24.238  13.296  87.241  1.00  0.00     0.293 HD
ENDBRANCH   2  22
BRANCH   6  24
ATOM     24  O   UNL     1      23.094  18.265  85.850  1.00  0.00    -0.507 OA
ATOM     25  H   UNL     1      23.130  19.225  86.157  1.00  0.00     0.293 HD
ENDBRANCH   6  24
BRANCH   8  26
ATOM     26  O   UNL     1      18.706  18.524  83.964  1.00  0.00    -0.508 OA
ATOM     27  H   UNL     1      18.836  18.890  83.027  1.00  0.00     0.293 HD
ENDBRANCH   8  26
TORSDOF 6
ENDMDL
MODEL 4
REMARK VINA RESULT:    -4.489      2.129      2.938
REMARK INTER + INTRA:          -5.625
REMARK INTER:                  -5.309
REMARK INTRA:                  -0.316
REMARK UNBOUND:                -0.218
REMARK SMILES O=c1c(O)c(-c2ccc(O)c(O)c2)oc2cc(O)cc(O)c12
REMARK SMILES IDX 5 1 3 2 2 3 1 4 22 5 20 6 19 7 17 8 16 9 15 10 14 11 6 12
REMARK SMILES IDX 7 13 8 14 9 15 13 16 11 17 10 18 12 20 4 22 21 24 18 26
REMARK H PARENT 10 19 12 21 4 23 21 25 18 27
REMARK Flexibility Score: inf
ROOT
ATOM      1  C   UNL     1      20.516  13.554  85.986  1.00  0.00     0.180 A 
ATOM      2  C   UNL     1      19.543  14.385  85.405  1.00  0.00     0.208 A 
ATOM      3  C   UNL     1      19.874  15.716  85.105  1.00  0.00     0.238 A 
ATOM      4  O   UNL     1      18.977  16.475  84.655  1.00  0.00    -0.285 OA
ATOM      5  C   UNL     1      21.190  16.184  85.339  1.00  0.00     0.111 A 
ATOM      6  C   UNL     1      21.650  17.501  85.031  1.00  0.00     0.134 A 
ATOM      7  C   UNL     1      22.944  17.885  85.404  1.00  0.00     0.093 A 
ATOM      8  C   UNL     1      23.816  16.984  86.013  1.00  0.00     0.123 A 
ATOM      9  C   UNL     1      23.396  15.678  86.268  1.00  0.00     0.094 A 
ATOM     10  C   UNL     1      22.098  15.276  85.943  1.00  0.00     0.146 A 
ATOM     11  O   UNL     1      21.732  14.031  86.223  1.00  0.00    -0.452 OA
ENDROOT
BRANCH   1  12
ATOM     12  C   UNL     1      20.238  12.145  86.343  1.00  0.00     0.025 A 
ATOM     13  C   UNL     1      19.901  11.775  87.655  1.00  0.00     0.016 A 
ATOM     14  C   UNL     1      19.666  10.435  87.973  1.00  0.00     0.051 A 
ATOM     15  C   UNL     1      19.775   9.440  86.996  1.00  0.00     0.157 A 
ATOM     16  C   UNL     1      20.369  11.146  85.367  1.00  0.00     0.062 A 
ATOM     17  C   UNL     1      20.136   9.800  85.675  1.00  0.00     0.158 A 
BRANCH  15  18
ATOM     18  O   UNL     1      19.523   8.121  87.377  1.00  0.00    -0.504 OA
ATOM     19  H   UNL     1      20.227   7.398  87.410  1.00  0.00     0.293 HD
ENDBRANCH  15  18
BRANCH  17  20
ATOM     20  O   UNL     1      20.274   8.861  84.649  1.00  0.00    -0.504 OA
ATOM     21  H   UNL     1      20.589   9.087  83.717  1.00  0.00     0.293 HD
ENDBRANCH  17  20
ENDBRANCH   1  12
BRANCH   2  22
ATOM     22  O   UNL     1      18.272  13.882  85.113  1.00  0.00    -0.502 OA
ATOM     23  H   UNL     1      17.460  14.090  85.682  1.00  0.00     0.293 HD
ENDBRANCH   2  22
BRANCH   6  24
ATOM     24  O   UNL     1      20.893  18.456  84.345  1.00  0.00    -0.507 OA
ATOM     25  H   UNL     1      20.003  18.817  84.653  1.00  0.00     0.293 HD
ENDBRANCH   6  24
BRANCH   8  26
ATOM     26  O   UNL     1      25.103  17.395  86.355  1.00  0.00    -0.508 OA
ATOM     27  H   UNL     1      25.269  18.014  87.140  1.00  0.00     0.293 HD
ENDBRANCH   8  26
TORSDOF 6
ENDMDL
MODEL 5
REMARK VINA RESULT:    -4.048      2.854      6.810
REMARK INTER + INTRA:          -5.094
REMARK INTER:                  -4.876
REMARK INTRA:                  -0.218
REMARK UNBOUND:                -0.218
REMARK SMILES O=c1c(O)c(-c2ccc(O)c(O)c2)oc2cc(O)cc(O)c12
REMARK SMILES IDX 5 1 3 2 2 3 1 4 22 5 20 6 19 7 17 8 16 9 15 10 14 11 6 12
REMARK SMILES IDX 7 13 8 14 9 15 13 16 11 17 10 18 12 20 4 22 21 24 18 26
REMARK H PARENT 10 19 12 21 4 23 21 25 18 27
REMARK Flexibility Score: inf
ROOT
ATOM      1  C   UNL     1      21.395  14.299  85.625  1.00  0.00     0.180 A 
ATOM      2  C   UNL     1      22.527  13.991  84.850  1.00  0.00     0.208 A 
ATOM      3  C   UNL     1      22.901  12.647  84.695  1.00  0.00     0.238 A 
ATOM      4  O   UNL     1      23.957  12.383  84.063  1.00  0.00    -0.285 OA
ATOM      5  C   UNL     1      22.109  11.624  85.272  1.00  0.00     0.111 A 
ATOM      6  C   UNL     1      22.369  10.225  85.142  1.00  0.00     0.134 A 
ATOM      7  C   UNL     1      21.578   9.308  85.844  1.00  0.00     0.093 A 
ATOM      8  C   UNL     1      20.498   9.732  86.618  1.00  0.00     0.123 A 
ATOM      9  C   UNL     1      20.202  11.092  86.708  1.00  0.00     0.094 A 
ATOM     10  C   UNL     1      20.996  12.034  86.050  1.00  0.00     0.146 A 
ATOM     11  O   UNL     1      20.691  13.320  86.179  1.00  0.00    -0.452 OA
ENDROOT
BRANCH   1  12
ATOM     12  C   UNL     1      20.946  15.693  85.845  1.00  0.00     0.025 A 
ATOM     13  C   UNL     1      19.795  16.198  85.222  1.00  0.00     0.016 A 
ATOM     14  C   UNL     1      19.405  17.523  85.426  1.00  0.00     0.051 A 
ATOM     15  C   UNL     1      20.160  18.371  86.243  1.00  0.00     0.157 A 
ATOM     16  C   UNL     1      21.717  16.548  86.647  1.00  0.00     0.062 A 
ATOM     17  C   UNL     1      21.335  17.878  86.859  1.00  0.00     0.158 A 
BRANCH  15  18
ATOM     18  O   UNL     1      19.714  19.684  86.411  1.00  0.00    -0.504 OA
ATOM     19  H   UNL     1      19.995  20.283  87.173  1.00  0.00     0.293 HD
ENDBRANCH  15  18
BRANCH  17  20
ATOM     20  O   UNL     1      22.144  18.667  87.680  1.00  0.00    -0.504 OA
ATOM     21  H   UNL     1      23.079  18.412  87.964  1.00  0.00     0.293 HD
ENDBRANCH  17  20
ENDBRANCH   1  12
BRANCH   2  22
ATOM     22  O   UNL     1      23.251  15.011  84.226  1.00  0.00    -0.502 OA
ATOM     23  H   UNL     1      22.927  15.473  83.385  1.00  0.00     0.293 HD
ENDBRANCH   2  22
BRANCH   6  24
ATOM     24  O   UNL     1      23.367   9.686  84.324  1.00  0.00    -0.507 OA
ATOM     25  H   UNL     1      23.458   8.708  84.094  1.00  0.00     0.293 HD
ENDBRANCH   6  24
BRANCH   8  26
ATOM     26  O   UNL     1      19.721   8.790  87.289  1.00  0.00    -0.508 OA
ATOM     27  H   UNL     1      20.102   7.893  87.569  1.00  0.00     0.293 HD
ENDBRANCH   8  26
TORSDOF 6
ENDMDL
MODEL 6
REMARK VINA RESULT:    -4.022     14.911     16.977
REMARK INTER + INTRA:          -5.063
REMARK INTER:                  -4.749
REMARK INTRA:                  -0.313
REMARK UNBOUND:                -0.218
REMARK SMILES O=c1c(O)c(-c2ccc(O)c(O)c2)oc2cc(O)cc(O)c12
REMARK SMILES IDX 5 1 3 2 2 3 1 4 22 5 20 6 19 7 17 8 16 9 15 10 14 11 6 12
REMARK SMILES IDX 7 13 8 14 9 15 13 16 11 17 10 18 12 20 4 22 21 24 18 26
REMARK H PARENT 10 19 12 21 4 23 21 25 18 27
REMARK Flexibility Score: inf
ROOT
ATOM      1  C   UNL     1      18.736  14.262  71.741  1.00  0.00     0.180 A 
ATOM      2  C   UNL     1      18.028  14.179  70.530  1.00  0.00     0.208 A 
ATOM      3  C   UNL     1      17.587  12.924  70.083  1.00  0.00     0.238 A 
ATOM      4  O   UNL     1      17.021  12.847  68.962  1.00  0.00    -0.285 OA
ATOM      5  C   UNL     1      17.812  11.774  70.878  1.00  0.00     0.111 A 
ATOM      6  C   UNL     1      17.371  10.457  70.545  1.00  0.00     0.134 A 
ATOM      7  C   UNL     1      17.742   9.378  71.357  1.00  0.00     0.093 A 
ATOM      8  C   UNL     1      18.483   9.574  72.522  1.00  0.00     0.123 A 
ATOM      9  C   UNL     1      18.873  10.863  72.886  1.00  0.00     0.094 A 
ATOM     10  C   UNL     1      18.550  11.955  72.077  1.00  0.00     0.146 A 
ATOM     11  O   UNL     1      18.959  13.162  72.449  1.00  0.00    -0.452 OA
ENDROOT
BRANCH   1  12
ATOM     12  C   UNL     1      19.245  15.548  72.271  1.00  0.00     0.025 A 
ATOM     13  C   UNL     1      18.423  16.410  73.014  1.00  0.00     0.016 A 
ATOM     14  C   UNL     1      18.919  17.629  73.482  1.00  0.00     0.051 A 
ATOM     15  C   UNL     1      20.235  18.016  73.209  1.00  0.00     0.157 A 
ATOM     16  C   UNL     1      20.558  15.944  71.977  1.00  0.00     0.062 A 
ATOM     17  C   UNL     1      21.065  17.164  72.442  1.00  0.00     0.158 A 
BRANCH  15  18
ATOM     18  O   UNL     1      20.671  19.244  73.710  1.00  0.00    -0.504 OA
ATOM     19  H   UNL     1      20.790  19.443  74.693  1.00  0.00     0.293 HD
ENDBRANCH  15  18
BRANCH  17  20
ATOM     20  O   UNL     1      22.385  17.488  72.121  1.00  0.00    -0.504 OA
ATOM     21  H   UNL     1      22.725  18.432  72.010  1.00  0.00     0.293 HD
ENDBRANCH  17  20
ENDBRANCH   1  12
BRANCH   2  22
ATOM     22  O   UNL     1      17.751  15.336  69.797  1.00  0.00    -0.502 OA
ATOM     23  H   UNL     1      16.903  15.445  69.252  1.00  0.00     0.293 HD
ENDBRANCH   2  22
BRANCH   6  24
ATOM     24  O   UNL     1      16.552  10.158  69.452  1.00  0.00    -0.507 OA
ATOM     25  H   UNL     1      15.985   9.328  69.365  1.00  0.00     0.293 HD
ENDBRANCH   6  24
BRANCH   8  26
ATOM     26  O   UNL     1      18.820   8.479  73.314  1.00  0.00    -0.508 OA
ATOM     27  H   UNL     1      18.272   8.225  74.128  1.00  0.00     0.293 HD
ENDBRANCH   8  26
TORSDOF 6
ENDMDL
MODEL 7
REMARK VINA RESULT:    -3.993      1.578      6.569
REMARK INTER + INTRA:          -5.028
REMARK INTER:                  -4.757
REMARK INTRA:                  -0.270
REMARK UNBOUND:                -0.218
REMARK SMILES O=c1c(O)c(-c2ccc(O)c(O)c2)oc2cc(O)cc(O)c12
REMARK SMILES IDX 5 1 3 2 2 3 1 4 22 5 20 6 19 7 17 8 16 9 15 10 14 11 6 12
REMARK SMILES IDX 7 13 8 14 9 15 13 16 11 17 10 18 12 20 4 22 21 24 18 26
REMARK H PARENT 10 19 12 21 4 23 21 25 18 27
REMARK Flexibility Score: inf
ROOT
ATOM      1  C   UNL     1      22.835  13.547  86.523  1.00  0.00     0.180 A 
ATOM      2  C   UNL     1      21.827  14.426  86.091  1.00  0.00     0.208 A 
ATOM      3  C   UNL     1      20.520  13.938  85.930  1.00  0.00     0.238 A 
ATOM      4  O   UNL     1      19.640  14.711  85.472  1.00  0.00    -0.285 OA
ATOM      5  C   UNL     1      20.226  12.592  86.255  1.00  0.00     0.111 A 
ATOM      6  C   UNL     1      18.928  12.001  86.173  1.00  0.00     0.134 A 
ATOM      7  C   UNL     1      18.776  10.631  86.419  1.00  0.00     0.093 A 
ATOM      8  C   UNL     1      19.859   9.844  86.806  1.00  0.00     0.123 A 
ATOM      9  C   UNL     1      21.122  10.421  86.942  1.00  0.00     0.094 A 
ATOM     10  C   UNL     1      21.313  11.777  86.667  1.00  0.00     0.146 A 
ATOM     11  O   UNL     1      22.535  12.282  86.789  1.00  0.00    -0.452 OA
ENDROOT
BRANCH   1  12
ATOM     12  C   UNL     1      24.238  13.984  86.702  1.00  0.00     0.025 A 
ATOM     13  C   UNL     1      24.763  14.259  87.975  1.00  0.00     0.016 A 
ATOM     14  C   UNL     1      26.082  14.693  88.116  1.00  0.00     0.051 A 
ATOM     15  C   UNL     1      26.899  14.873  86.995  1.00  0.00     0.157 A 
ATOM     16  C   UNL     1      25.048  14.185  85.574  1.00  0.00     0.062 A 
ATOM     17  C   UNL     1      26.373  14.619  85.705  1.00  0.00     0.158 A 
BRANCH  15  18
ATOM     18  O   UNL     1      28.210  15.304  87.204  1.00  0.00    -0.504 OA
ATOM     19  H   UNL     1      28.872  14.829  87.800  1.00  0.00     0.293 HD
ENDBRANCH  15  18
BRANCH  17  20
ATOM     20  O   UNL     1      27.124  14.786  84.539  1.00  0.00    -0.504 OA
ATOM     21  H   UNL     1      27.393  14.029  83.927  1.00  0.00     0.293 HD
ENDBRANCH  17  20
ENDBRANCH   1  12
BRANCH   2  22
ATOM     22  O   UNL     1      22.122  15.770  85.847  1.00  0.00    -0.502 OA
ATOM     23  H   UNL     1      23.070  16.103  85.710  1.00  0.00     0.293 HD
ENDBRANCH   2  22
BRANCH   6  24
ATOM     24  O   UNL     1      17.760  12.713  85.882  1.00  0.00    -0.507 OA
ATOM     25  H   UNL     1      17.091  12.458  85.171  1.00  0.00     0.293 HD
ENDBRANCH   6  24
BRANCH   8  26
ATOM     26  O   UNL     1      19.667   8.487  87.060  1.00  0.00    -0.508 OA
ATOM     27  H   UNL     1      19.201   8.166  87.901  1.00  0.00     0.293 HD
ENDBRANCH   8  26
TORSDOF 6
ENDMDL
MODEL 8
REMARK VINA RESULT:    -3.960      2.654      6.748
REMARK INTER + INTRA:          -4.988
REMARK INTER:                  -4.660
REMARK INTRA:                  -0.328
REMARK UNBOUND:                -0.218
REMARK SMILES O=c1c(O)c(-c2ccc(O)c(O)c2)oc2cc(O)cc(O)c12
REMARK SMILES IDX 5 1 3 2 2 3 1 4 22 5 20 6 19 7 17 8 16 9 15 10 14 11 6 12
REMARK SMILES IDX 7 13 8 14 9 15 13 16 11 17 10 18 12 20 4 22 21 24 18 26
REMARK H PARENT 10 19 12 21 4 23 21 25 18 27
REMARK Flexibility Score: inf
ROOT
ATOM      1  C   UNL     1      21.208  12.921  85.804  1.00  0.00     0.180 A 
ATOM      2  C   UNL     1      20.779  12.116  86.872  1.00  0.00     0.208 A 
ATOM      3  C   UNL     1      20.868  10.720  86.752  1.00  0.00     0.238 A 
ATOM      4  O   UNL     1      20.413  10.004  87.681  1.00  0.00    -0.285 OA
ATOM      5  C   UNL     1      21.435  10.148  85.587  1.00  0.00     0.111 A 
ATOM      6  C   UNL     1      21.617   8.747  85.376  1.00  0.00     0.134 A 
ATOM      7  C   UNL     1      22.091   8.290  84.140  1.00  0.00     0.093 A 
ATOM      8  C   UNL     1      22.452   9.184  83.132  1.00  0.00     0.123 A 
ATOM      9  C   UNL     1      22.331  10.557  83.348  1.00  0.00     0.094 A 
ATOM     10  C   UNL     1      21.825  11.042  84.556  1.00  0.00     0.146 A 
ATOM     11  O   UNL     1      21.706  12.355  84.711  1.00  0.00    -0.452 OA
ENDROOT
BRANCH   1  12
ATOM     12  C   UNL     1      21.133  14.399  85.850  1.00  0.00     0.025 A 
ATOM     13  C   UNL     1      19.962  15.084  85.489  1.00  0.00     0.016 A 
ATOM     14  C   UNL     1      19.924  16.480  85.518  1.00  0.00     0.051 A 
ATOM     15  C   UNL     1      21.050  17.218  85.895  1.00  0.00     0.157 A 
ATOM     16  C   UNL     1      22.271  15.138  86.207  1.00  0.00     0.062 A 
ATOM     17  C   UNL     1      22.243  16.538  86.240  1.00  0.00     0.158 A 
BRANCH  15  18
ATOM     18  O   UNL     1      20.945  18.610  85.908  1.00  0.00    -0.504 OA
ATOM     19  H   UNL     1      20.823  19.159  86.747  1.00  0.00     0.293 HD
ENDBRANCH  15  18
BRANCH  17  20
ATOM     20  O   UNL     1      23.410  17.206  86.617  1.00  0.00    -0.504 OA
ATOM     21  H   UNL     1      24.336  16.810  86.542  1.00  0.00     0.293 HD
ENDBRANCH  17  20
ENDBRANCH   1  12
BRANCH   2  22
ATOM     22  O   UNL     1      20.293  12.702  88.044  1.00  0.00    -0.502 OA
ATOM     23  H   UNL     1      20.087  13.692  88.112  1.00  0.00     0.293 HD
ENDBRANCH   2  22
BRANCH   6  24
ATOM     24  O   UNL     1      21.372   7.770  86.346  1.00  0.00    -0.507 OA
ATOM     25  H   UNL     1      21.125   7.958  87.306  1.00  0.00     0.293 HD
ENDBRANCH   6  24
BRANCH   8  26
ATOM     26  O   UNL     1      22.937   8.694  81.921  1.00  0.00    -0.508 OA
ATOM     27  H   UNL     1      23.383   9.303  81.245  1.00  0.00     0.293 HD
ENDBRANCH   8  26
TORSDOF 6
ENDMDL
MODEL 9
REMARK VINA RESULT:    -3.862      3.366      4.535
REMARK INTER + INTRA:          -4.869
REMARK INTER:                  -4.561
REMARK INTRA:                  -0.308
REMARK UNBOUND:                -0.218
REMARK SMILES O=c1c(O)c(-c2ccc(O)c(O)c2)oc2cc(O)cc(O)c12
REMARK SMILES IDX 5 1 3 2 2 3 1 4 22 5 20 6 19 7 17 8 16 9 15 10 14 11 6 12
REMARK SMILES IDX 7 13 8 14 9 15 13 16 11 17 10 18 12 20 4 22 21 24 18 26
REMARK H PARENT 10 19 12 21 4 23 21 25 18 27
REMARK Flexibility Score: inf
ROOT
ATOM      1  C   UNL     1      20.046  14.340  85.498  1.00  0.00     0.180 A 
ATOM      2  C   UNL     1      19.027  14.906  84.712  1.00  0.00     0.208 A 
ATOM      3  C   UNL     1      18.949  16.303  84.600  1.00  0.00     0.238 A 
ATOM      4  O   UNL     1      17.991  16.804  83.957  1.00  0.00    -0.285 OA
ATOM      5  C   UNL     1      19.923  17.115  85.230  1.00  0.00     0.111 A 
ATOM      6  C   UNL     1      19.969  18.541  85.147  1.00  0.00     0.134 A 
ATOM      7  C   UNL     1      20.917  19.246  85.898  1.00  0.00     0.093 A 
ATOM      8  C   UNL     1      21.861  18.578  86.677  1.00  0.00     0.123 A 
ATOM      9  C   UNL     1      21.860  17.184  86.722  1.00  0.00     0.094 A 
ATOM     10  C   UNL     1      20.903  16.453  86.014  1.00  0.00     0.146 A 
ATOM     11  O   UNL     1      20.925  15.129  86.102  1.00  0.00    -0.452 OA
ENDROOT
BRANCH   1  12
ATOM     12  C   UNL     1      20.184  12.876  85.675  1.00  0.00     0.025 A 
ATOM     13  C   UNL     1      20.834  12.081  84.718  1.00  0.00     0.016 A 
ATOM     14  C   UNL     1      20.930  10.699  84.897  1.00  0.00     0.051 A 
ATOM     15  C   UNL     1      20.372  10.084  86.022  1.00  0.00     0.157 A 
ATOM     16  C   UNL     1      19.604  12.259  86.794  1.00  0.00     0.062 A 
ATOM     17  C   UNL     1      19.695  10.874  86.982  1.00  0.00     0.158 A 
BRANCH  15  18
ATOM     18  O   UNL     1      20.507   8.700  86.144  1.00  0.00    -0.504 OA
ATOM     19  H   UNL     1      20.780   8.090  85.387  1.00  0.00     0.293 HD
ENDBRANCH  15  18
BRANCH  17  20
ATOM     20  O   UNL     1      19.104  10.330  88.125  1.00  0.00    -0.504 OA
ATOM     21  H   UNL     1      18.797   9.372  88.200  1.00  0.00     0.293 HD
ENDBRANCH  17  20
ENDBRANCH   1  12
BRANCH   2  22
ATOM     22  O   UNL     1      18.120  14.083  84.037  1.00  0.00    -0.502 OA
ATOM     23  H   UNL     1      18.400  13.220  83.587  1.00  0.00     0.293 HD
ENDBRANCH   2  22
BRANCH   6  24
ATOM     24  O   UNL     1      19.130  19.305  84.330  1.00  0.00    -0.507 OA
ATOM     25  H   UNL     1      19.361  19.622  83.400  1.00  0.00     0.293 HD
ENDBRANCH   6  24
BRANCH   8  26
ATOM     26  O   UNL     1      22.800  19.313  87.398  1.00  0.00    -0.508 OA
ATOM     27  H   UNL     1      23.213  20.159  87.022  1.00  0.00     0.293 HD
ENDBRANCH   8  26
TORSDOF 6
ENDMDL
