MODEL 1
REMARK VINA RESULT:    -3.062      0.000      0.000
REMARK INTER + INTRA:          -3.330
REMARK INTER:                  -3.330
REMARK INTRA:                   0.000
REMARK UNBOUND:                 0.000
REMARK SMILES [NH3+]CC(=O)[O-]
REMARK SMILES IDX 2 1 1 2 3 6 4 7 5 8
REMARK H PARENT 1 3 1 4 1 5
REMARK Flexibility Score: inf
ROOT
ATOM      1  C   UNL     1      82.837 186.462 189.427  1.00  0.00     0.312 C 
ENDROOT
BRANCH   1   2
ATOM      2  N   UNL     1      83.349 187.320 190.493  1.00  0.00    -0.353 N 
ATOM      3  H   UNL     1      83.775 186.724 191.239  1.00  0.00     0.344 HD
ATOM      4  H   UNL     1      82.568 187.879 190.910  1.00  0.00     0.344 HD
ATOM      5  H   UNL     1      84.082 187.964 190.115  1.00  0.00     0.344 HD
ENDBRANCH   1   2
BRANCH   1   6
ATOM      6  C   UNL     1      81.699 185.623 189.924  1.00  0.00     0.096 C 
ATOM      7  O   UNL     1      80.729 186.160 190.520  1.00  0.00    -0.544 OA
ATOM      8  O   UNL     1      81.737 184.243 189.773  1.00  0.00    -0.544 OA
ENDBRANCH   1   6
TORSDOF 2
ENDMDL
MODEL 2
REMARK VINA RESULT:    -3.018      1.740      2.015
REMARK INTER + INTRA:          -3.282
REMARK INTER:                  -3.282
REMARK INTRA:                   0.000
REMARK UNBOUND:                 0.000
REMARK SMILES [NH3+]CC(=O)[O-]
REMARK SMILES IDX 2 1 1 2 3 6 4 7 5 8
REMARK H PARENT 1 3 1 4 1 5
REMARK Flexibility Score: inf
ROOT
ATOM      1  C   UNL     1      81.970 186.493 190.495  1.00  0.00     0.312 C 
ENDROOT
BRANCH   1   2
ATOM      2  N   UNL     1      82.755 187.406 191.323  1.00  0.00    -0.353 N 
ATOM      3  H   UNL     1      83.169 188.150 190.717  1.00  0.00     0.344 HD
ATOM      4  H   UNL     1      83.530 186.884 191.797  1.00  0.00     0.344 HD
ATOM      5  H   UNL     1      82.142 187.856 192.042  1.00  0.00     0.344 HD
ENDBRANCH   1   2
BRANCH   1   6
ATOM      6  C   UNL     1      82.798 185.956 189.368  1.00  0.00     0.096 C 
ATOM      7  O   UNL     1      82.261 185.674 188.265  1.00  0.00    -0.544 OA
ATOM      8  O   UNL     1      84.154 185.719 189.555  1.00  0.00    -0.544 OA
ENDBRANCH   1   6
TORSDOF 2
ENDMDL
MODEL 3
REMARK VINA RESULT:    -2.833      2.828      3.076
REMARK INTER + INTRA:          -3.081
REMARK INTER:                  -3.081
REMARK INTRA:                   0.000
REMARK UNBOUND:                 0.000
REMARK SMILES [NH3+]CC(=O)[O-]
REMARK SMILES IDX 2 1 1 2 3 6 4 7 5 8
REMARK H PARENT 1 3 1 4 1 5
REMARK Flexibility Score: inf
ROOT
ATOM      1  C   UNL     1      79.060 186.506 190.389  1.00  0.00     0.312 C 
ENDROOT
BRANCH   1   2
ATOM      2  N   UNL     1      78.427 187.332 189.363  1.00  0.00    -0.353 N 
ATOM      3  H   UNL     1      78.545 188.340 189.613  1.00  0.00     0.344 HD
ATOM      4  H   UNL     1      77.404 187.114 189.307  1.00  0.00     0.344 HD
ATOM      5  H   UNL     1      78.876 187.159 188.434  1.00  0.00     0.344 HD
ENDBRANCH   1   2
BRANCH   1   6
ATOM      6  C   UNL     1      80.374 185.974 189.904  1.00  0.00     0.096 C 
ATOM      7  O   UNL     1      81.402 186.074 190.623  1.00  0.00    -0.544 OA
ATOM      8  O   UNL     1      80.471 185.415 188.636  1.00  0.00    -0.544 OA
ENDBRANCH   1   6
TORSDOF 2
ENDMDL
MODEL 4
REMARK VINA RESULT:    -2.794     12.063     12.359
REMARK INTER + INTRA:          -3.039
REMARK INTER:                  -3.039
REMARK INTRA:                   0.000
REMARK UNBOUND:                 0.000
REMARK SMILES [NH3+]CC(=O)[O-]
REMARK SMILES IDX 2 1 1 2 3 6 4 7 5 8
REMARK H PARENT 1 3 1 4 1 5
REMARK Flexibility Score: inf
ROOT
ATOM      1  C   UNL     1      86.933 177.794 196.254  1.00  0.00     0.312 C 
ENDROOT
BRANCH   1   2
ATOM      2  N   UNL     1      87.588 178.536 197.329  1.00  0.00    -0.353 N 
ATOM      3  H   UNL     1      88.624 178.469 197.211  1.00  0.00     0.344 HD
ATOM      4  H   UNL     1      87.325 178.128 198.258  1.00  0.00     0.344 HD
ATOM      5  H   UNL     1      87.307 179.543 197.294  1.00  0.00     0.344 HD
ENDBRANCH   1   2
BRANCH   1   6
ATOM      6  C   UNL     1      86.546 176.423 196.715  1.00  0.00     0.096 C 
ATOM      7  O   UNL     1      86.967 175.406 196.104  1.00  0.00    -0.544 OA
ATOM      8  O   UNL     1      85.679 176.271 197.790  1.00  0.00    -0.544 OA
ENDBRANCH   1   6
TORSDOF 2
ENDMDL
MODEL 5
REMARK VINA RESULT:    -2.766     14.891     15.183
REMARK INTER + INTRA:          -3.009
REMARK INTER:                  -3.009
REMARK INTRA:                   0.000
REMARK UNBOUND:                 0.000
REMARK SMILES [NH3+]CC(=O)[O-]
REMARK SMILES IDX 2 1 1 2 3 6 4 7 5 8
REMARK H PARENT 1 3 1 4 1 5
REMARK Flexibility Score: inf
ROOT
ATOM      1  C   UNL     1      85.374 175.653 198.932  1.00  0.00     0.312 C 
ENDROOT
BRANCH   1   2
ATOM      2  N   UNL     1      83.953 175.984 199.026  1.00  0.00    -0.353 N 
ATOM      3  H   UNL     1      83.639 175.867 200.016  1.00  0.00     0.344 HD
ATOM      4  H   UNL     1      83.394 175.344 198.415  1.00  0.00     0.344 HD
ATOM      5  H   UNL     1      83.796 176.977 198.736  1.00  0.00     0.344 HD
ENDBRANCH   1   2
BRANCH   1   6
ATOM      6  C   UNL     1      85.731 174.573 199.905  1.00  0.00     0.096 C 
ATOM      7  O   UNL     1      86.158 174.869 201.052  1.00  0.00    -0.544 OA
ATOM      8  O   UNL     1      85.642 173.239 199.526  1.00  0.00    -0.544 OA
ENDBRANCH   1   6
TORSDOF 2
ENDMDL
MODEL 6
REMARK VINA RESULT:    -2.757      2.238      2.639
REMARK INTER + INTRA:          -2.998
REMARK INTER:                  -2.998
REMARK INTRA:                   0.000
REMARK UNBOUND:                 0.000
REMARK SMILES [NH3+]CC(=O)[O-]
REMARK SMILES IDX 2 1 1 2 3 6 4 7 5 8
REMARK H PARENT 1 3 1 4 1 5
REMARK Flexibility Score: inf
ROOT
ATOM      1  C   UNL     1      80.810 185.775 190.422  1.00  0.00     0.312 C 
ENDROOT
BRANCH   1   2
ATOM      2  N   UNL     1      79.842 186.858 190.588  1.00  0.00    -0.353 N 
ATOM      3  H   UNL     1      78.942 186.462 190.940  1.00  0.00     0.344 HD
ATOM      4  H   UNL     1      79.670 187.329 189.669  1.00  0.00     0.344 HD
ATOM      5  H   UNL     1      80.200 187.556 191.281  1.00  0.00     0.344 HD
ENDBRANCH   1   2
BRANCH   1   6
ATOM      6  C   UNL     1      82.097 186.296 189.861  1.00  0.00     0.096 C 
ATOM      7  O   UNL     1      82.398 186.078 188.658  1.00  0.00    -0.544 OA
ATOM      8  O   UNL     1      82.987 186.977 190.681  1.00  0.00    -0.544 OA
ENDBRANCH   1   6
TORSDOF 2
ENDMDL
MODEL 7
REMARK VINA RESULT:    -2.754     12.674     13.121
REMARK INTER + INTRA:          -2.995
REMARK INTER:                  -2.995
REMARK INTRA:                   0.000
REMARK UNBOUND:                 0.000
REMARK SMILES [NH3+]CC(=O)[O-]
REMARK SMILES IDX 2 1 1 2 3 6 4 7 5 8
REMARK H PARENT 1 3 1 4 1 5
REMARK Flexibility Score: inf
ROOT
ATOM      1  C   UNL     1      85.331 175.883 198.634  1.00  0.00     0.312 C 
ENDROOT
BRANCH   1   2
ATOM      2  N   UNL     1      83.922 175.974 199.010  1.00  0.00    -0.353 N 
ATOM      3  H   UNL     1      83.387 175.222 198.520  1.00  0.00     0.344 HD
ATOM      4  H   UNL     1      83.534 176.905 198.727  1.00  0.00     0.344 HD
ATOM      5  H   UNL     1      83.817 175.847 200.043  1.00  0.00     0.344 HD
ENDBRANCH   1   2
BRANCH   1   6
ATOM      6  C   UNL     1      85.487 175.945 197.145  1.00  0.00     0.096 C 
ATOM      7  O   UNL     1      85.478 174.887 196.463  1.00  0.00    -0.544 OA
ATOM      8  O   UNL     1      85.694 177.167 196.519  1.00  0.00    -0.544 OA
ENDBRANCH   1   6
TORSDOF 2
ENDMDL
MODEL 8
REMARK VINA RESULT:    -2.695      3.656      3.895
REMARK INTER + INTRA:          -2.931
REMARK INTER:                  -2.931
REMARK INTRA:                   0.000
REMARK UNBOUND:                 0.000
REMARK SMILES [NH3+]CC(=O)[O-]
REMARK SMILES IDX 2 1 1 2 3 6 4 7 5 8
REMARK H PARENT 1 3 1 4 1 5
REMARK Flexibility Score: inf
ROOT
ATOM      1  C   UNL     1      78.979 186.071 189.839  1.00  0.00     0.312 C 
ENDROOT
BRANCH   1   2
ATOM      2  N   UNL     1      78.412 187.336 189.378  1.00  0.00    -0.353 N 
ATOM      3  H   UNL     1      77.782 187.719 190.118  1.00  0.00     0.344 HD
ATOM      4  H   UNL     1      77.854 187.183 188.505  1.00  0.00     0.344 HD
ATOM      5  H   UNL     1      79.176 188.026 189.192  1.00  0.00     0.344 HD
ENDBRANCH   1   2
BRANCH   1   6
ATOM      6  C   UNL     1      78.518 185.759 191.229  1.00  0.00     0.096 C 
ATOM      7  O   UNL     1      77.606 186.443 191.763  1.00  0.00    -0.544 OA
ATOM      8  O   UNL     1      79.132 184.745 191.953  1.00  0.00    -0.544 OA
ENDBRANCH   1   6
TORSDOF 2
ENDMDL
MODEL 9
REMARK VINA RESULT:    -2.619      1.637      1.805
REMARK INTER + INTRA:          -2.849
REMARK INTER:                  -2.849
REMARK INTRA:                   0.000
REMARK UNBOUND:                 0.000
REMARK SMILES [NH3+]CC(=O)[O-]
REMARK SMILES IDX 2 1 1 2 3 6 4 7 5 8
REMARK H PARENT 1 3 1 4 1 5
REMARK Flexibility Score: inf
ROOT
ATOM      1  C   UNL     1      81.499 185.914 190.230  1.00  0.00     0.312 C 
ENDROOT
BRANCH   1   2
ATOM      2  N   UNL     1      82.058 186.990 191.045  1.00  0.00    -0.353 N 
ATOM      3  H   UNL     1      83.089 186.847 191.142  1.00  0.00     0.344 HD
ATOM      4  H   UNL     1      81.623 186.981 191.998  1.00  0.00     0.344 HD
ATOM      5  H   UNL     1      81.886 187.915 190.587  1.00  0.00     0.344 HD
ENDBRANCH   1   2
BRANCH   1   6
ATOM      6  C   UNL     1      80.075 185.649 190.608  1.00  0.00     0.096 C 
ATOM      7  O   UNL     1      79.215 186.564 190.522  1.00  0.00    -0.544 OA
ATOM      8  O   UNL     1      79.708 184.404 191.104  1.00  0.00    -0.544 OA
ENDBRANCH   1   6
TORSDOF 2
ENDMDL
