MODEL 1
REMARK VINA RESULT:    -3.389      0.000      0.000
REMARK INTER + INTRA:          -5.906
REMARK INTER:                  -5.172
REMARK INTRA:                  -0.734
REMARK UNBOUND:                -0.734
REMARK SMILES O=C([O-])CCCCCCCCC(=O)[O-]
REMARK SMILES IDX 7 1 6 2 5 3 4 4 2 5 1 6 3 7 8 8 9 9 10 10 11 11 12 12 13 13
REMARK SMILES IDX 14 14
REMARK H PARENT
REMARK Flexibility Score: inf
ROOT
ATOM      1  C   UNL     1      61.137  31.738  59.959  1.00  0.00     0.000 C 
ENDROOT
BRANCH   1   2
ATOM      2  C   UNL     1      61.691  33.046  60.548  1.00  0.00     0.000 C 
BRANCH   2   3
ATOM      3  C   UNL     1      63.056  33.431  59.953  1.00  0.00     0.006 C 
BRANCH   3   4
ATOM      4  C   UNL     1      64.113  33.673  61.039  1.00  0.00     0.053 C 
BRANCH   4   5
ATOM      5  C   UNL     1      64.306  35.133  61.312  1.00  0.00     0.041 C 
ATOM      6  O   UNL     1      63.310  35.892  61.444  1.00  0.00    -0.550 OA
ATOM      7  O   UNL     1      65.589  35.661  61.391  1.00  0.00    -0.550 OA
ENDBRANCH   4   5
ENDBRANCH   3   4
ENDBRANCH   2   3
ENDBRANCH   1   2
BRANCH   1   8
ATOM      8  C   UNL     1      60.710  30.736  61.045  1.00  0.00     0.000 C 
BRANCH   8   9
ATOM      9  C   UNL     1      61.887  30.255  61.914  1.00  0.00     0.000 C 
BRANCH   9  10
ATOM     10  C   UNL     1      62.843  29.261  61.226  1.00  0.00     0.006 C 
BRANCH  10  11
ATOM     11  C   UNL     1      64.238  29.849  60.976  1.00  0.00     0.053 C 
BRANCH  11  12
ATOM     12  C   UNL     1      65.261  28.758  60.923  1.00  0.00     0.041 C 
ATOM     13  O   UNL     1      64.902  27.557  60.808  1.00  0.00    -0.550 OA
ATOM     14  O   UNL     1      66.614  29.073  60.950  1.00  0.00    -0.550 OA
ENDBRANCH  11  12
ENDBRANCH  10  11
ENDBRANCH   9  10
ENDBRANCH   8   9
ENDBRANCH   1   8
TORSDOF 9
ENDMDL
MODEL 2
REMARK VINA RESULT:    -3.385     12.343     13.977
REMARK INTER + INTRA:          -5.901
REMARK INTER:                  -4.902
REMARK INTRA:                  -0.999
REMARK UNBOUND:                -0.734
REMARK SMILES O=C([O-])CCCCCCCCC(=O)[O-]
REMARK SMILES IDX 7 1 6 2 5 3 4 4 2 5 1 6 3 7 8 8 9 9 10 10 11 11 12 12 13 13
REMARK SMILES IDX 14 14
REMARK H PARENT
REMARK Flexibility Score: inf
ROOT
ATOM      1  C   UNL     1      58.031  25.520  51.121  1.00  0.00     0.000 C 
ENDROOT
BRANCH   1   2
ATOM      2  C   UNL     1      56.635  26.109  51.386  1.00  0.00     0.000 C 
BRANCH   2   3
ATOM      3  C   UNL     1      55.919  26.537  50.093  1.00  0.00     0.006 C 
BRANCH   3   4
ATOM      4  C   UNL     1      55.138  27.846  50.271  1.00  0.00     0.053 C 
BRANCH   4   5
ATOM      5  C   UNL     1      53.754  27.750  49.705  1.00  0.00     0.041 C 
ATOM      6  O   UNL     1      53.344  26.668  49.209  1.00  0.00    -0.550 OA
ATOM      7  O   UNL     1      52.928  28.866  49.699  1.00  0.00    -0.550 OA
ENDBRANCH   4   5
ENDBRANCH   3   4
ENDBRANCH   2   3
ENDBRANCH   1   2
BRANCH   1   8
ATOM      8  C   UNL     1      58.588  25.920  49.744  1.00  0.00     0.000 C 
BRANCH   8   9
ATOM      9  C   UNL     1      59.882  26.751  49.839  1.00  0.00     0.000 C 
BRANCH   9  10
ATOM     10  C   UNL     1      59.844  28.105  49.107  1.00  0.00     0.006 C 
BRANCH  10  11
ATOM     11  C   UNL     1      58.669  28.989  49.544  1.00  0.00     0.053 C 
BRANCH  11  12
ATOM     12  C   UNL     1      58.877  29.479  50.943  1.00  0.00     0.041 C 
ATOM     13  O   UNL     1      57.957  29.367  51.796  1.00  0.00    -0.550 OA
ATOM     14  O   UNL     1      60.103  30.012  51.318  1.00  0.00    -0.550 OA
ENDBRANCH  11  12
ENDBRANCH  10  11
ENDBRANCH   9  10
ENDBRANCH   8   9
ENDBRANCH   1   8
TORSDOF 9
ENDMDL
MODEL 3
REMARK VINA RESULT:    -3.385      1.103      5.714
REMARK INTER + INTRA:          -5.900
REMARK INTER:                  -5.465
REMARK INTRA:                  -0.435
REMARK UNBOUND:                -0.734
REMARK SMILES O=C([O-])CCCCCCCCC(=O)[O-]
REMARK SMILES IDX 7 1 6 2 5 3 4 4 2 5 1 6 3 7 8 8 9 9 10 10 11 11 12 12 13 13
REMARK SMILES IDX 14 14
REMARK H PARENT
REMARK Flexibility Score: inf
ROOT
ATOM      1  C   UNL     1      61.128  31.063  61.401  1.00  0.00     0.000 C 
ENDROOT
BRANCH   1   2
ATOM      2  C   UNL     1      62.043  29.890  61.791  1.00  0.00     0.000 C 
BRANCH   2   3
ATOM      3  C   UNL     1      63.524  30.165  61.475  1.00  0.00     0.006 C 
BRANCH   3   4
ATOM      4  C   UNL     1      64.248  28.912  60.966  1.00  0.00     0.053 C 
BRANCH   4   5
ATOM      5  C   UNL     1      65.680  29.195  60.627  1.00  0.00     0.041 C 
ATOM      6  O   UNL     1      65.966  30.000  59.703  1.00  0.00    -0.550 OA
ATOM      7  O   UNL     1      66.697  28.546  61.315  1.00  0.00    -0.550 OA
ENDBRANCH   4   5
ENDBRANCH   3   4
ENDBRANCH   2   3
ENDBRANCH   1   2
BRANCH   1   8
ATOM      8  C   UNL     1      61.675  31.867  60.210  1.00  0.00     0.000 C 
BRANCH   8   9
ATOM      9  C   UNL     1      61.589  33.390  60.425  1.00  0.00     0.000 C 
BRANCH   9  10
ATOM     10  C   UNL     1      62.944  34.102  60.602  1.00  0.00     0.006 C 
BRANCH  10  11
ATOM     11  C   UNL     1      62.796  35.581  60.981  1.00  0.00     0.053 C 
BRANCH  11  12
ATOM     12  C   UNL     1      64.142  36.216  61.137  1.00  0.00     0.041 C 
ATOM     13  O   UNL     1      64.568  37.022  60.268  1.00  0.00    -0.550 OA
ATOM     14  O   UNL     1      64.906  35.957  62.268  1.00  0.00    -0.550 OA
ENDBRANCH  11  12
ENDBRANCH  10  11
ENDBRANCH   9  10
ENDBRANCH   8   9
ENDBRANCH   1   8
TORSDOF 9
ENDMDL
MODEL 4
REMARK VINA RESULT:    -3.373     12.799     14.271
REMARK INTER + INTRA:          -5.882
REMARK INTER:                  -5.316
REMARK INTRA:                  -0.567
REMARK UNBOUND:                -0.734
REMARK SMILES O=C([O-])CCCCCCCCC(=O)[O-]
REMARK SMILES IDX 7 1 6 2 5 3 4 4 2 5 1 6 3 7 8 8 9 9 10 10 11 11 12 12 13 13
REMARK SMILES IDX 14 14
REMARK H PARENT
REMARK Flexibility Score: inf
ROOT
ATOM      1  C   UNL     1      57.775  28.624  50.764  1.00  0.00     0.000 C 
ENDROOT
BRANCH   1   2
ATOM      2  C   UNL     1      56.273  28.476  50.465  1.00  0.00     0.000 C 
BRANCH   2   3
ATOM      3  C   UNL     1      55.711  27.117  50.915  1.00  0.00     0.006 C 
BRANCH   3   4
ATOM      4  C   UNL     1      55.653  26.105  49.763  1.00  0.00     0.053 C 
BRANCH   4   5
ATOM      5  C   UNL     1      54.290  25.500  49.622  1.00  0.00     0.041 C 
ATOM      6  O   UNL     1      53.651  25.618  48.544  1.00  0.00    -0.550 OA
ATOM      7  O   UNL     1      53.714  24.830  50.694  1.00  0.00    -0.550 OA
ENDBRANCH   4   5
ENDBRANCH   3   4
ENDBRANCH   2   3
ENDBRANCH   1   2
BRANCH   1   8
ATOM      8  C   UNL     1      58.551  29.246  49.591  1.00  0.00     0.000 C 
BRANCH   8   9
ATOM      9  C   UNL     1      59.616  28.300  49.007  1.00  0.00     0.000 C 
BRANCH   9  10
ATOM     10  C   UNL     1      59.523  26.838  49.483  1.00  0.00     0.006 C 
BRANCH  10  11
ATOM     11  C   UNL     1      60.887  26.238  49.847  1.00  0.00     0.053 C 
BRANCH  11  12
ATOM     12  C   UNL     1      60.766  24.763  50.070  1.00  0.00     0.041 C 
ATOM     13  O   UNL     1      61.784  24.025  49.990  1.00  0.00    -0.550 OA
ATOM     14  O   UNL     1      59.540  24.210  50.415  1.00  0.00    -0.550 OA
ENDBRANCH  11  12
ENDBRANCH  10  11
ENDBRANCH   9  10
ENDBRANCH   8   9
ENDBRANCH   1   8
TORSDOF 9
ENDMDL
MODEL 5
REMARK VINA RESULT:    -3.346     12.419     14.204
REMARK INTER + INTRA:          -5.841
REMARK INTER:                  -5.097
REMARK INTRA:                  -0.744
REMARK UNBOUND:                -0.734
REMARK SMILES O=C([O-])CCCCCCCCC(=O)[O-]
REMARK SMILES IDX 7 1 6 2 5 3 4 4 2 5 1 6 3 7 8 8 9 9 10 10 11 11 12 12 13 13
REMARK SMILES IDX 14 14
REMARK H PARENT
REMARK Flexibility Score: inf
ROOT
ATOM      1  C   UNL     1      58.533  29.068  51.109  1.00  0.00     0.000 C 
ENDROOT
BRANCH   1   2
ATOM      2  C   UNL     1      58.760  29.021  49.588  1.00  0.00     0.000 C 
BRANCH   2   3
ATOM      3  C   UNL     1      59.556  27.781  49.146  1.00  0.00     0.006 C 
BRANCH   3   4
ATOM      4  C   UNL     1      59.850  26.835  50.318  1.00  0.00     0.053 C 
BRANCH   4   5
ATOM      5  C   UNL     1      59.044  25.576  50.233  1.00  0.00     0.041 C 
ATOM      6  O   UNL     1      57.794  25.629  50.094  1.00  0.00    -0.550 OA
ATOM      7  O   UNL     1      59.672  24.341  50.336  1.00  0.00    -0.550 OA
ENDBRANCH   4   5
ENDBRANCH   3   4
ENDBRANCH   2   3
ENDBRANCH   1   2
BRANCH   1   8
ATOM      8  C   UNL     1      57.042  29.053  51.484  1.00  0.00     0.000 C 
BRANCH   8   9
ATOM      9  C   UNL     1      56.125  28.739  50.286  1.00  0.00     0.000 C 
BRANCH   9  10
ATOM     10  C   UNL     1      54.616  28.829  50.577  1.00  0.00     0.006 C 
BRANCH  10  11
ATOM     11  C   UNL     1      53.787  27.841  49.746  1.00  0.00     0.053 C 
BRANCH  11  12
ATOM     12  C   UNL     1      54.273  26.442  49.959  1.00  0.00     0.041 C 
ATOM     13  O   UNL     1      54.288  25.946  51.116  1.00  0.00    -0.550 OA
ATOM     14  O   UNL     1      54.663  25.669  48.873  1.00  0.00    -0.550 OA
ENDBRANCH  11  12
ENDBRANCH  10  11
ENDBRANCH   9  10
ENDBRANCH   8   9
ENDBRANCH   1   8
TORSDOF 9
ENDMDL
MODEL 6
REMARK VINA RESULT:    -3.319     12.297     13.852
REMARK INTER + INTRA:          -5.799
REMARK INTER:                  -5.064
REMARK INTRA:                  -0.736
REMARK UNBOUND:                -0.734
REMARK SMILES O=C([O-])CCCCCCCCC(=O)[O-]
REMARK SMILES IDX 7 1 6 2 5 3 4 4 2 5 1 6 3 7 8 8 9 9 10 10 11 11 12 12 13 13
REMARK SMILES IDX 14 14
REMARK H PARENT
REMARK Flexibility Score: inf
ROOT
ATOM      1  C   UNL     1      58.451  29.270  51.026  1.00  0.00     0.000 C 
ENDROOT
BRANCH   1   2
ATOM      2  C   UNL     1      57.079  28.799  51.536  1.00  0.00     0.000 C 
BRANCH   2   3
ATOM      3  C   UNL     1      55.988  28.872  50.453  1.00  0.00     0.006 C 
BRANCH   3   4
ATOM      4  C   UNL     1      55.295  27.521  50.239  1.00  0.00     0.053 C 
BRANCH   4   5
ATOM      5  C   UNL     1      53.892  27.688  49.739  1.00  0.00     0.041 C 
ATOM      6  O   UNL     1      53.300  26.729  49.177  1.00  0.00    -0.550 OA
ATOM      7  O   UNL     1      53.251  28.913  49.867  1.00  0.00    -0.550 OA
ENDBRANCH   4   5
ENDBRANCH   3   4
ENDBRANCH   2   3
ENDBRANCH   1   2
BRANCH   1   8
ATOM      8  C   UNL     1      58.631  29.037  49.516  1.00  0.00     0.000 C 
BRANCH   8   9
ATOM      9  C   UNL     1      59.979  28.378  49.168  1.00  0.00     0.000 C 
BRANCH   9  10
ATOM     10  C   UNL     1      60.098  26.891  49.551  1.00  0.00     0.006 C 
BRANCH  10  11
ATOM     11  C   UNL     1      58.748  26.163  49.552  1.00  0.00     0.053 C 
BRANCH  11  12
ATOM     12  C   UNL     1      58.694  25.163  50.664  1.00  0.00     0.041 C 
ATOM     13  O   UNL     1      59.599  24.295  50.779  1.00  0.00    -0.550 OA
ATOM     14  O   UNL     1      57.672  25.221  51.603  1.00  0.00    -0.550 OA
ENDBRANCH  11  12
ENDBRANCH  10  11
ENDBRANCH   9  10
ENDBRANCH   8   9
ENDBRANCH   1   8
TORSDOF 9
ENDMDL
MODEL 7
REMARK VINA RESULT:    -3.314     12.438     14.334
REMARK INTER + INTRA:          -5.792
REMARK INTER:                  -5.201
REMARK INTRA:                  -0.591
REMARK UNBOUND:                -0.734
REMARK SMILES O=C([O-])CCCCCCCCC(=O)[O-]
REMARK SMILES IDX 7 1 6 2 5 3 4 4 2 5 1 6 3 7 8 8 9 9 10 10 11 11 12 12 13 13
REMARK SMILES IDX 14 14
REMARK H PARENT
REMARK Flexibility Score: inf
ROOT
ATOM      1  C   UNL     1      55.139  28.557  51.760  1.00  0.00     0.000 C 
ENDROOT
BRANCH   1   2
ATOM      2  C   UNL     1      54.441  29.185  50.542  1.00  0.00     0.000 C 
BRANCH   2   3
ATOM      3  C   UNL     1      53.639  28.157  49.725  1.00  0.00     0.006 C 
BRANCH   3   4
ATOM      4  C   UNL     1      53.496  26.818  50.461  1.00  0.00     0.053 C 
BRANCH   4   5
ATOM      5  C   UNL     1      54.209  25.711  49.746  1.00  0.00     0.041 C 
ATOM      6  O   UNL     1      53.635  24.607  49.552  1.00  0.00    -0.550 OA
ATOM      7  O   UNL     1      55.519  25.890  49.321  1.00  0.00    -0.550 OA
ENDBRANCH   4   5
ENDBRANCH   3   4
ENDBRANCH   2   3
ENDBRANCH   1   2
BRANCH   1   8
ATOM      8  C   UNL     1      56.663  28.762  51.739  1.00  0.00     0.000 C 
BRANCH   8   9
ATOM      9  C   UNL     1      57.230  28.891  50.313  1.00  0.00     0.000 C 
BRANCH   9  10
ATOM     10  C   UNL     1      58.739  29.188  50.234  1.00  0.00     0.006 C 
BRANCH  10  11
ATOM     11  C   UNL     1      59.414  28.540  49.019  1.00  0.00     0.053 C 
BRANCH  11  12
ATOM     12  C   UNL     1      59.912  27.172  49.367  1.00  0.00     0.041 C 
ATOM     13  O   UNL     1      61.138  26.977  49.575  1.00  0.00    -0.550 OA
ATOM     14  O   UNL     1      59.014  26.121  49.510  1.00  0.00    -0.550 OA
ENDBRANCH  11  12
ENDBRANCH  10  11
ENDBRANCH   9  10
ENDBRANCH   8   9
ENDBRANCH   1   8
TORSDOF 9
ENDMDL
MODEL 8
REMARK VINA RESULT:    -3.226      2.013      2.726
REMARK INTER + INTRA:          -5.657
REMARK INTER:                  -5.101
REMARK INTRA:                  -0.556
REMARK UNBOUND:                -0.734
REMARK SMILES O=C([O-])CCCCCCCCC(=O)[O-]
REMARK SMILES IDX 7 1 6 2 5 3 4 4 2 5 1 6 3 7 8 8 9 9 10 10 11 11 12 12 13 13
REMARK SMILES IDX 14 14
REMARK H PARENT
REMARK Flexibility Score: inf
ROOT
ATOM      1  C   UNL     1      61.717  34.252  60.325  1.00  0.00     0.000 C 
ENDROOT
BRANCH   1   2
ATOM      2  C   UNL     1      62.624  35.331  60.941  1.00  0.00     0.000 C 
BRANCH   2   3
ATOM      3  C   UNL     1      64.005  34.784  61.340  1.00  0.00     0.006 C 
BRANCH   3   4
ATOM      4  C   UNL     1      65.138  35.751  60.973  1.00  0.00     0.053 C 
BRANCH   4   5
ATOM      5  C   UNL     1      65.443  35.720  59.507  1.00  0.00     0.041 C 
ATOM      6  O   UNL     1      65.894  36.745  58.930  1.00  0.00    -0.550 OA
ATOM      7  O   UNL     1      65.201  34.567  58.771  1.00  0.00    -0.550 OA
ENDBRANCH   4   5
ENDBRANCH   3   4
ENDBRANCH   2   3
ENDBRANCH   1   2
BRANCH   1   8
ATOM      8  C   UNL     1      62.218  32.826  60.610  1.00  0.00     0.000 C 
BRANCH   8   9
ATOM      9  C   UNL     1      61.089  31.779  60.596  1.00  0.00     0.000 C 
BRANCH   9  10
ATOM     10  C   UNL     1      61.135  30.754  61.744  1.00  0.00     0.006 C 
BRANCH  10  11
ATOM     11  C   UNL     1      62.389  29.872  61.709  1.00  0.00     0.053 C 
BRANCH  11  12
ATOM     12  C   UNL     1      62.400  29.029  60.472  1.00  0.00     0.041 C 
ATOM     13  O   UNL     1      61.470  28.208  60.257  1.00  0.00    -0.550 OA
ATOM     14  O   UNL     1      63.411  29.187  59.533  1.00  0.00    -0.550 OA
ENDBRANCH  11  12
ENDBRANCH  10  11
ENDBRANCH   9  10
ENDBRANCH   8   9
ENDBRANCH   1   8
TORSDOF 9
ENDMDL
MODEL 9
REMARK VINA RESULT:    -3.223     11.940     12.932
REMARK INTER + INTRA:          -5.653
REMARK INTER:                  -4.625
REMARK INTRA:                  -1.027
REMARK UNBOUND:                -0.734
REMARK SMILES O=C([O-])CCCCCCCCC(=O)[O-]
REMARK SMILES IDX 7 1 6 2 5 3 4 4 2 5 1 6 3 7 8 8 9 9 10 10 11 11 12 12 13 13
REMARK SMILES IDX 14 14
REMARK H PARENT
REMARK Flexibility Score: inf
ROOT
ATOM      1  C   UNL     1      58.661  29.477  50.939  1.00  0.00     0.000 C 
ENDROOT
BRANCH   1   2
ATOM      2  C   UNL     1      58.696  29.220  49.423  1.00  0.00     0.000 C 
BRANCH   2   3
ATOM      3  C   UNL     1      59.735  28.156  49.028  1.00  0.00     0.006 C 
BRANCH   3   4
ATOM      4  C   UNL     1      60.692  27.827  50.180  1.00  0.00     0.053 C 
BRANCH   4   5
ATOM      5  C   UNL     1      61.904  27.085  49.704  1.00  0.00     0.041 C 
ATOM      6  O   UNL     1      62.781  27.674  49.020  1.00  0.00    -0.550 OA
ATOM      7  O   UNL     1      62.048  25.733  49.991  1.00  0.00    -0.550 OA
ENDBRANCH   4   5
ENDBRANCH   3   4
ENDBRANCH   2   3
ENDBRANCH   1   2
BRANCH   1   8
ATOM      8  C   UNL     1      57.329  29.049  51.579  1.00  0.00     0.000 C 
BRANCH   8   9
ATOM      9  C   UNL     1      56.305  28.540  50.547  1.00  0.00     0.000 C 
BRANCH   9  10
ATOM     10  C   UNL     1      55.850  27.081  50.742  1.00  0.00     0.006 C 
BRANCH  10  11
ATOM     11  C   UNL     1      56.722  26.076  49.979  1.00  0.00     0.053 C 
BRANCH  11  12
ATOM     12  C   UNL     1      57.764  25.497  50.884  1.00  0.00     0.041 C 
ATOM     13  O   UNL     1      58.781  24.933  50.400  1.00  0.00    -0.550 OA
ATOM     14  O   UNL     1      57.638  25.625  52.261  1.00  0.00    -0.550 OA
ENDBRANCH  11  12
ENDBRANCH  10  11
ENDBRANCH   9  10
ENDBRANCH   8   9
ENDBRANCH   1   8
TORSDOF 9
ENDMDL
