MODEL 1
REMARK VINA RESULT:    -3.087      0.000      0.000
REMARK INTER + INTRA:          -4.221
REMARK INTER:                  -3.989
REMARK INTRA:                  -0.232
REMARK UNBOUND:                -0.232
REMARK SMILES CCCCCCC(=O)[O-]
REMARK SMILES IDX 5 1 6 2 7 3 8 4 9 5 4 6 3 7 2 8 1 9
REMARK H PARENT
REMARK Flexibility Score: inf
ROOT
ATOM      1  C   UNL     1       7.493 -21.497 -17.085  1.00  0.00     0.006 C 
ENDROOT
BRANCH   1   2
ATOM      2  C   UNL     1       6.317 -20.957 -16.266  1.00  0.00     0.053 C 
BRANCH   2   3
ATOM      3  C   UNL     1       5.168 -21.914 -16.305  1.00  0.00     0.041 C 
ATOM      4  O   UNL     1       4.120 -21.673 -15.650  1.00  0.00    -0.550 OA
ATOM      5  O   UNL     1       5.272 -23.097 -17.024  1.00  0.00    -0.550 OA
ENDBRANCH   2   3
ENDBRANCH   1   2
BRANCH   1   6
ATOM      6  C   UNL     1       8.797 -21.434 -16.282  1.00  0.00     0.000 C 
BRANCH   6   7
ATOM      7  C   UNL     1       8.556 -20.855 -14.883  1.00  0.00    -0.000 C 
BRANCH   7   8
ATOM      8  C   UNL     1       9.803 -20.132 -14.363  1.00  0.00    -0.003 C 
ATOM      9  C   UNL     1      11.033 -20.486 -15.192  1.00  0.00     0.004 C 
ENDBRANCH   7   8
ENDBRANCH   6   7
ENDBRANCH   1   6
TORSDOF 5
ENDMDL
MODEL 2
REMARK VINA RESULT:    -2.944      2.094      2.698
REMARK INTER + INTRA:          -4.036
REMARK INTER:                  -3.821
REMARK INTRA:                  -0.216
REMARK UNBOUND:                -0.232
REMARK SMILES CCCCCCC(=O)[O-]
REMARK SMILES IDX 5 1 6 2 7 3 8 4 9 5 4 6 3 7 2 8 1 9
REMARK H PARENT
REMARK Flexibility Score: inf
ROOT
ATOM      1  C   UNL     1       6.698 -21.330 -16.602  1.00  0.00     0.006 C 
ENDROOT
BRANCH   1   2
ATOM      2  C   UNL     1       7.699 -22.383 -17.085  1.00  0.00     0.053 C 
BRANCH   2   3
ATOM      3  C   UNL     1       7.916 -22.263 -18.560  1.00  0.00     0.041 C 
ATOM      4  O   UNL     1       8.898 -21.612 -19.005  1.00  0.00    -0.550 OA
ATOM      5  O   UNL     1       7.007 -22.826 -19.445  1.00  0.00    -0.550 OA
ENDBRANCH   2   3
ENDBRANCH   1   2
BRANCH   1   6
ATOM      6  C   UNL     1       7.289 -20.490 -15.464  1.00  0.00     0.000 C 
BRANCH   6   7
ATOM      7  C   UNL     1       8.549 -21.149 -14.890  1.00  0.00    -0.000 C 
BRANCH   7   8
ATOM      8  C   UNL     1       9.530 -20.097 -14.361  1.00  0.00    -0.003 C 
ATOM      9  C   UNL     1      10.963 -20.424 -14.766  1.00  0.00     0.004 C 
ENDBRANCH   7   8
ENDBRANCH   6   7
ENDBRANCH   1   6
TORSDOF 5
ENDMDL
MODEL 3
REMARK VINA RESULT:    -2.900      2.208      2.956
REMARK INTER + INTRA:          -3.980
REMARK INTER:                  -3.756
REMARK INTRA:                  -0.224
REMARK UNBOUND:                -0.232
REMARK SMILES CCCCCCC(=O)[O-]
REMARK SMILES IDX 5 1 6 2 7 3 8 4 9 5 4 6 3 7 2 8 1 9
REMARK H PARENT
REMARK Flexibility Score: inf
ROOT
ATOM      1  C   UNL     1       7.087 -21.200 -16.998  1.00  0.00     0.006 C 
ENDROOT
BRANCH   1   2
ATOM      2  C   UNL     1       8.356 -21.917 -17.468  1.00  0.00     0.053 C 
BRANCH   2   3
ATOM      3  C   UNL     1       8.288 -22.194 -18.936  1.00  0.00     0.041 C 
ATOM      4  O   UNL     1       7.304 -22.814 -19.419  1.00  0.00    -0.550 OA
ATOM      5  O   UNL     1       9.334 -21.813 -19.765  1.00  0.00    -0.550 OA
ENDBRANCH   2   3
ENDBRANCH   1   2
BRANCH   1   6
ATOM      6  C   UNL     1       7.290 -20.571 -15.615  1.00  0.00     0.000 C 
BRANCH   6   7
ATOM      7  C   UNL     1       8.520 -21.163 -14.916  1.00  0.00    -0.000 C 
BRANCH   7   8
ATOM      8  C   UNL     1       9.479 -20.058 -14.458  1.00  0.00    -0.003 C 
ATOM      9  C   UNL     1      10.916 -20.371 -14.861  1.00  0.00     0.004 C 
ENDBRANCH   7   8
ENDBRANCH   6   7
ENDBRANCH   1   6
TORSDOF 5
ENDMDL
MODEL 4
REMARK VINA RESULT:    -2.798      2.797      3.368
REMARK INTER + INTRA:          -3.848
REMARK INTER:                  -3.448
REMARK INTRA:                  -0.400
REMARK UNBOUND:                -0.232
REMARK SMILES CCCCCCC(=O)[O-]
REMARK SMILES IDX 5 1 6 2 7 3 8 4 9 5 4 6 3 7 2 8 1 9
REMARK H PARENT
REMARK Flexibility Score: inf
ROOT
ATOM      1  C   UNL     1       7.634 -22.510 -16.364  1.00  0.00     0.006 C 
ENDROOT
BRANCH   1   2
ATOM      2  C   UNL     1       7.864 -22.771 -17.856  1.00  0.00     0.053 C 
BRANCH   2   3
ATOM      3  C   UNL     1       9.042 -21.992 -18.348  1.00  0.00     0.041 C 
ATOM      4  O   UNL     1       8.995 -21.408 -19.463  1.00  0.00    -0.550 OA
ATOM      5  O   UNL     1      10.211 -21.951 -17.600  1.00  0.00    -0.550 OA
ENDBRANCH   2   3
ENDBRANCH   1   2
BRANCH   1   6
ATOM      6  C   UNL     1       6.843 -21.215 -16.149  1.00  0.00     0.000 C 
BRANCH   6   7
ATOM      7  C   UNL     1       7.600 -20.254 -15.225  1.00  0.00    -0.000 C 
BRANCH   7   8
ATOM      8  C   UNL     1       8.733 -20.976 -14.488  1.00  0.00    -0.003 C 
ATOM      9  C   UNL     1      10.029 -20.173 -14.543  1.00  0.00     0.004 C 
ENDBRANCH   7   8
ENDBRANCH   6   7
ENDBRANCH   1   6
TORSDOF 5
ENDMDL
MODEL 5
REMARK VINA RESULT:    -2.786      3.121      3.548
REMARK INTER + INTRA:          -3.833
REMARK INTER:                  -3.547
REMARK INTRA:                  -0.287
REMARK UNBOUND:                -0.232
REMARK SMILES CCCCCCC(=O)[O-]
REMARK SMILES IDX 5 1 6 2 7 3 8 4 9 5 4 6 3 7 2 8 1 9
REMARK H PARENT
REMARK Flexibility Score: inf
ROOT
ATOM      1  C   UNL     1       8.132 -22.851 -16.938  1.00  0.00     0.006 C 
ENDROOT
BRANCH   1   2
ATOM      2  C   UNL     1       7.969 -21.983 -18.189  1.00  0.00     0.053 C 
BRANCH   2   3
ATOM      3  C   UNL     1       9.303 -21.684 -18.796  1.00  0.00     0.041 C 
ATOM      4  O   UNL     1      10.357 -21.854 -18.127  1.00  0.00    -0.550 OA
ATOM      5  O   UNL     1       9.382 -21.169 -20.083  1.00  0.00    -0.550 OA
ENDBRANCH   2   3
ENDBRANCH   1   2
BRANCH   1   6
ATOM      6  C   UNL     1       7.467 -22.195 -15.722  1.00  0.00     0.000 C 
BRANCH   6   7
ATOM      7  C   UNL     1       8.053 -20.803 -15.459  1.00  0.00    -0.000 C 
BRANCH   7   8
ATOM      8  C   UNL     1       9.016 -20.827 -14.266  1.00  0.00    -0.003 C 
ATOM      9  C   UNL     1      10.369 -20.226 -14.637  1.00  0.00     0.004 C 
ENDBRANCH   7   8
ENDBRANCH   6   7
ENDBRANCH   1   6
TORSDOF 5
ENDMDL
MODEL 6
REMARK VINA RESULT:    -2.750     14.635     16.243
REMARK INTER + INTRA:          -3.786
REMARK INTER:                  -3.532
REMARK INTRA:                  -0.254
REMARK UNBOUND:                -0.232
REMARK SMILES CCCCCCC(=O)[O-]
REMARK SMILES IDX 5 1 6 2 7 3 8 4 9 5 4 6 3 7 2 8 1 9
REMARK H PARENT
REMARK Flexibility Score: inf
ROOT
ATOM      1  C   UNL     1      -9.005 -21.698 -13.837  1.00  0.00     0.006 C 
ENDROOT
BRANCH   1   2
ATOM      2  C   UNL     1      -8.904 -20.170 -13.814  1.00  0.00     0.053 C 
BRANCH   2   3
ATOM      3  C   UNL     1      -8.860 -19.669 -12.406  1.00  0.00     0.041 C 
ATOM      4  O   UNL     1      -8.941 -18.434 -12.169  1.00  0.00    -0.550 OA
ATOM      5  O   UNL     1      -8.679 -20.559 -11.355  1.00  0.00    -0.550 OA
ENDBRANCH   2   3
ENDBRANCH   1   2
BRANCH   1   6
ATOM      6  C   UNL     1      -8.032 -22.298 -14.858  1.00  0.00     0.000 C 
BRANCH   6   7
ATOM      7  C   UNL     1      -8.637 -22.291 -16.266  1.00  0.00    -0.000 C 
BRANCH   7   8
ATOM      8  C   UNL     1      -7.795 -21.439 -17.223  1.00  0.00    -0.003 C 
ATOM      9  C   UNL     1      -6.324 -21.442 -16.816  1.00  0.00     0.004 C 
ENDBRANCH   7   8
ENDBRANCH   6   7
ENDBRANCH   1   6
TORSDOF 5
ENDMDL
MODEL 7
REMARK VINA RESULT:    -2.674     14.963     15.916
REMARK INTER + INTRA:          -3.688
REMARK INTER:                  -3.485
REMARK INTRA:                  -0.203
REMARK UNBOUND:                -0.232
REMARK SMILES CCCCCCC(=O)[O-]
REMARK SMILES IDX 5 1 6 2 7 3 8 4 9 5 4 6 3 7 2 8 1 9
REMARK H PARENT
REMARK Flexibility Score: inf
ROOT
ATOM      1  C   UNL     1      -6.872 -21.978 -12.804  1.00  0.00     0.006 C 
ENDROOT
BRANCH   1   2
ATOM      2  C   UNL     1      -8.143 -22.287 -12.007  1.00  0.00     0.053 C 
BRANCH   2   3
ATOM      3  C   UNL     1      -8.576 -21.087 -11.226  1.00  0.00     0.041 C 
ATOM      4  O   UNL     1      -8.844 -21.191 -10.000  1.00  0.00    -0.550 OA
ATOM      5  O   UNL     1      -8.732 -19.862 -11.861  1.00  0.00    -0.550 OA
ENDBRANCH   2   3
ENDBRANCH   1   2
BRANCH   1   6
ATOM      6  C   UNL     1      -7.050 -22.337 -14.284  1.00  0.00     0.000 C 
BRANCH   6   7
ATOM      7  C   UNL     1      -8.025 -21.374 -14.971  1.00  0.00    -0.000 C 
BRANCH   7   8
ATOM      8  C   UNL     1      -8.069 -21.622 -16.483  1.00  0.00    -0.003 C 
ATOM      9  C   UNL     1      -6.729 -21.298 -17.136  1.00  0.00     0.004 C 
ENDBRANCH   7   8
ENDBRANCH   6   7
ENDBRANCH   1   6
TORSDOF 5
ENDMDL
MODEL 8
REMARK VINA RESULT:    -2.494     13.670     15.378
REMARK INTER + INTRA:          -3.456
REMARK INTER:                  -3.142
REMARK INTRA:                  -0.313
REMARK UNBOUND:                -0.232
REMARK SMILES CCCCCCC(=O)[O-]
REMARK SMILES IDX 5 1 6 2 7 3 8 4 9 5 4 6 3 7 2 8 1 9
REMARK H PARENT
REMARK Flexibility Score: inf
ROOT
ATOM      1  C   UNL     1      -8.331 -21.118 -14.133  1.00  0.00     0.006 C 
ENDROOT
BRANCH   1   2
ATOM      2  C   UNL     1      -8.348 -21.844 -12.785  1.00  0.00     0.053 C 
BRANCH   2   3
ATOM      3  C   UNL     1      -6.979 -22.336 -12.437  1.00  0.00     0.041 C 
ATOM      4  O   UNL     1      -6.037 -22.228 -13.266  1.00  0.00    -0.550 OA
ATOM      5  O   UNL     1      -6.752 -22.958 -11.217  1.00  0.00    -0.550 OA
ENDBRANCH   2   3
ENDBRANCH   1   2
BRANCH   1   6
ATOM      6  C   UNL     1      -9.068 -21.930 -15.204  1.00  0.00     0.000 C 
BRANCH   6   7
ATOM      7  C   UNL     1      -8.339 -21.856 -16.551  1.00  0.00    -0.000 C 
BRANCH   7   8
ATOM      8  C   UNL     1      -7.069 -21.004 -16.444  1.00  0.00    -0.003 C 
ATOM      9  C   UNL     1      -5.884 -21.690 -17.116  1.00  0.00     0.004 C 
ENDBRANCH   7   8
ENDBRANCH   6   7
ENDBRANCH   1   6
TORSDOF 5
ENDMDL
MODEL 9
REMARK VINA RESULT:    -2.464      3.126      4.669
REMARK INTER + INTRA:          -3.416
REMARK INTER:                  -3.231
REMARK INTRA:                  -0.185
REMARK UNBOUND:                -0.232
REMARK SMILES CCCCCCC(=O)[O-]
REMARK SMILES IDX 5 1 6 2 7 3 8 4 9 5 4 6 3 7 2 8 1 9
REMARK H PARENT
REMARK Flexibility Score: inf
ROOT
ATOM      1  C   UNL     1       7.582 -22.068 -17.862  1.00  0.00     0.006 C 
ENDROOT
BRANCH   1   2
ATOM      2  C   UNL     1       7.718 -22.302 -16.354  1.00  0.00     0.053 C 
BRANCH   2   3
ATOM      3  C   UNL     1       7.717 -20.999 -15.620  1.00  0.00     0.041 C 
ATOM      4  O   UNL     1       8.701 -20.674 -14.904  1.00  0.00    -0.550 OA
ATOM      5  O   UNL     1       6.609 -20.165 -15.685  1.00  0.00    -0.550 OA
ENDBRANCH   2   3
ENDBRANCH   1   2
BRANCH   1   6
ATOM      6  C   UNL     1       6.560 -23.031 -18.477  1.00  0.00     0.000 C 
BRANCH   6   7
ATOM      7  C   UNL     1       6.738 -23.125 -19.997  1.00  0.00    -0.000 C 
BRANCH   7   8
ATOM      8  C   UNL     1       8.151 -22.702 -20.414  1.00  0.00    -0.003 C 
ATOM      9  C   UNL     1       8.191 -22.276 -21.879  1.00  0.00     0.004 C 
ENDBRANCH   7   8
ENDBRANCH   6   7
ENDBRANCH   1   6
TORSDOF 5
ENDMDL
