MODEL 1
REMARK VINA RESULT:    -4.383      0.000      0.000
REMARK INTER + INTRA:          -5.641
REMARK INTER:                  -5.408
REMARK INTRA:                  -0.233
REMARK UNBOUND:                -0.233
REMARK SMILES C=CCc1ccc(OC)c(OC)c1
REMARK SMILES IDX 7 1 10 2 13 3 4 4 5 5 6 6 8 7 9 8 11 9 12 10 3 11 2 12 1 13
REMARK H PARENT
REMARK Flexibility Score: inf
ROOT
ATOM      1  C   UNL     1      86.342  31.562  66.596  1.00  0.00     0.160 A 
ATOM      2  C   UNL     1      85.966  30.891  65.421  1.00  0.00     0.160 A 
ATOM      3  C   UNL     1      86.870  30.003  64.805  1.00  0.00     0.054 A 
ATOM      4  C   UNL     1      88.139  29.779  65.360  1.00  0.00    -0.040 A 
ATOM      5  C   UNL     1      88.512  30.460  66.526  1.00  0.00     0.008 A 
ATOM      6  C   UNL     1      87.621  31.341  67.143  1.00  0.00     0.051 A 
ENDROOT
BRANCH   1   7
ATOM      7  O   UNL     1      85.420  32.440  67.188  1.00  0.00    -0.493 OA
ATOM      8  C   UNL     1      84.391  32.041  68.088  1.00  0.00     0.278 C 
ENDBRANCH   1   7
BRANCH   2   9
ATOM      9  O   UNL     1      84.688  31.136  64.896  1.00  0.00    -0.493 OA
ATOM     10  C   UNL     1      83.736  30.124  64.584  1.00  0.00     0.278 C 
ENDBRANCH   2   9
BRANCH   4  11
ATOM     11  C   UNL     1      89.115  28.853  64.682  1.00  0.00     0.062 C 
BRANCH  11  12
ATOM     12  C   UNL     1      88.538  27.471  64.555  1.00  0.00    -0.030 C 
ATOM     13  C   UNL     1      89.124  26.410  65.118  1.00  0.00     0.004 C 
ENDBRANCH  11  12
ENDBRANCH   4  11
TORSDOF 4
ENDMDL
MODEL 2
REMARK VINA RESULT:    -4.072     15.379     17.864
REMARK INTER + INTRA:          -5.257
REMARK INTER:                  -5.058
REMARK INTRA:                  -0.199
REMARK UNBOUND:                -0.233
REMARK SMILES C=CCc1ccc(OC)c(OC)c1
REMARK SMILES IDX 7 1 10 2 13 3 4 4 5 5 6 6 8 7 9 8 11 9 12 10 3 11 2 12 1 13
REMARK H PARENT
REMARK Flexibility Score: inf
ROOT
ATOM      1  C   UNL     1      79.647  35.082  50.559  1.00  0.00     0.160 A 
ATOM      2  C   UNL     1      79.294  34.299  51.670  1.00  0.00     0.160 A 
ATOM      3  C   UNL     1      78.012  34.435  52.238  1.00  0.00     0.054 A 
ATOM      4  C   UNL     1      77.085  35.339  51.700  1.00  0.00    -0.040 A 
ATOM      5  C   UNL     1      77.449  36.125  50.597  1.00  0.00     0.008 A 
ATOM      6  C   UNL     1      78.717  35.995  50.027  1.00  0.00     0.051 A 
ENDROOT
BRANCH   1   7
ATOM      7  O   UNL     1      80.931  34.923  50.012  1.00  0.00    -0.493 OA
ATOM      8  C   UNL     1      81.296  33.897  49.095  1.00  0.00     0.278 C 
ENDBRANCH   1   7
BRANCH   2   9
ATOM      9  O   UNL     1      80.244  33.402  52.181  1.00  0.00    -0.493 OA
ATOM     10  C   UNL     1      80.009  32.014  52.398  1.00  0.00     0.278 C 
ENDBRANCH   2   9
BRANCH   4  11
ATOM     11  C   UNL     1      75.726  35.506  52.329  1.00  0.00     0.062 C 
BRANCH  11  12
ATOM     12  C   UNL     1      75.148  34.171  52.707  1.00  0.00    -0.030 C 
ATOM     13  C   UNL     1      74.396  34.016  53.801  1.00  0.00     0.004 C 
ENDBRANCH  11  12
ENDBRANCH   4  11
TORSDOF 4
ENDMDL
MODEL 3
REMARK VINA RESULT:    -4.037      1.918      2.558
REMARK INTER + INTRA:          -5.213
REMARK INTER:                  -4.926
REMARK INTRA:                  -0.287
REMARK UNBOUND:                -0.233
REMARK SMILES C=CCc1ccc(OC)c(OC)c1
REMARK SMILES IDX 7 1 10 2 13 3 4 4 5 5 6 6 8 7 9 8 11 9 12 10 3 11 2 12 1 13
REMARK H PARENT
REMARK Flexibility Score: inf
ROOT
ATOM      1  C   UNL     1      87.535  32.084  64.593  1.00  0.00     0.160 A 
ATOM      2  C   UNL     1      86.722  31.147  65.251  1.00  0.00     0.160 A 
ATOM      3  C   UNL     1      87.121  29.797  65.308  1.00  0.00     0.054 A 
ATOM      4  C   UNL     1      88.324  29.383  64.718  1.00  0.00    -0.040 A 
ATOM      5  C   UNL     1      89.125  30.322  64.053  1.00  0.00     0.008 A 
ATOM      6  C   UNL     1      88.738  31.662  63.994  1.00  0.00     0.051 A 
ENDROOT
BRANCH   1   7
ATOM      7  O   UNL     1      87.113  33.423  64.555  1.00  0.00    -0.493 OA
ATOM      8  C   UNL     1      87.834  34.512  65.122  1.00  0.00     0.278 C 
ENDBRANCH   1   7
BRANCH   2   9
ATOM      9  O   UNL     1      85.527  31.596  65.833  1.00  0.00    -0.493 OA
ATOM     10  C   UNL     1      85.393  32.004  67.191  1.00  0.00     0.278 C 
ENDBRANCH   2   9
BRANCH   4  11
ATOM     11  C   UNL     1      88.732  27.934  64.752  1.00  0.00     0.062 C 
BRANCH  11  12
ATOM     12  C   UNL     1      89.119  27.457  63.380  1.00  0.00    -0.030 C 
ATOM     13  C   UNL     1      88.798  26.235  62.944  1.00  0.00     0.004 C 
ENDBRANCH  11  12
ENDBRANCH   4  11
TORSDOF 4
ENDMDL
MODEL 4
REMARK VINA RESULT:    -3.964      2.590      4.709
REMARK INTER + INTRA:          -5.123
REMARK INTER:                  -4.814
REMARK INTRA:                  -0.309
REMARK UNBOUND:                -0.233
REMARK SMILES C=CCc1ccc(OC)c(OC)c1
REMARK SMILES IDX 7 1 10 2 13 3 4 4 5 5 6 6 8 7 9 8 11 9 12 10 3 11 2 12 1 13
REMARK H PARENT
REMARK Flexibility Score: inf
ROOT
ATOM      1  C   UNL     1      87.402  33.011  64.907  1.00  0.00     0.160 A 
ATOM      2  C   UNL     1      87.230  32.122  65.980  1.00  0.00     0.160 A 
ATOM      3  C   UNL     1      85.957  31.575  66.235  1.00  0.00     0.054 A 
ATOM      4  C   UNL     1      84.863  31.906  65.422  1.00  0.00    -0.040 A 
ATOM      5  C   UNL     1      85.040  32.802  64.359  1.00  0.00     0.008 A 
ATOM      6  C   UNL     1      86.299  33.347  64.100  1.00  0.00     0.051 A 
ENDROOT
BRANCH   1   7
ATOM      7  O   UNL     1      88.683  33.538  64.677  1.00  0.00    -0.493 OA
ATOM      8  C   UNL     1      89.110  34.830  65.099  1.00  0.00     0.278 C 
ENDBRANCH   1   7
BRANCH   2   9
ATOM      9  O   UNL     1      88.347  31.810  66.771  1.00  0.00    -0.493 OA
ATOM     10  C   UNL     1      89.081  30.593  66.686  1.00  0.00     0.278 C 
ENDBRANCH   2   9
BRANCH   4  11
ATOM     11  C   UNL     1      83.496  31.344  65.715  1.00  0.00     0.062 C 
BRANCH  11  12
ATOM     12  C   UNL     1      83.097  30.341  64.670  1.00  0.00    -0.030 C 
ATOM     13  C   UNL     1      83.872  29.294  64.369  1.00  0.00     0.004 C 
ENDBRANCH  11  12
ENDBRANCH   4  11
TORSDOF 4
ENDMDL
MODEL 5
REMARK VINA RESULT:    -3.945      1.215      2.648
REMARK INTER + INTRA:          -5.100
REMARK INTER:                  -4.826
REMARK INTRA:                  -0.275
REMARK UNBOUND:                -0.233
REMARK SMILES C=CCc1ccc(OC)c(OC)c1
REMARK SMILES IDX 7 1 10 2 13 3 4 4 5 5 6 6 8 7 9 8 11 9 12 10 3 11 2 12 1 13
REMARK H PARENT
REMARK Flexibility Score: inf
ROOT
ATOM      1  C   UNL     1      86.278  31.322  66.151  1.00  0.00     0.160 A 
ATOM      2  C   UNL     1      87.634  31.395  66.508  1.00  0.00     0.160 A 
ATOM      3  C   UNL     1      88.534  30.421  66.032  1.00  0.00     0.054 A 
ATOM      4  C   UNL     1      88.088  29.384  65.200  1.00  0.00    -0.040 A 
ATOM      5  C   UNL     1      86.731  29.311  64.857  1.00  0.00     0.008 A 
ATOM      6  C   UNL     1      85.833  30.274  65.323  1.00  0.00     0.051 A 
ENDROOT
BRANCH   1   7
ATOM      7  O   UNL     1      85.405  32.308  66.638  1.00  0.00    -0.493 OA
ATOM      8  C   UNL     1      84.636  32.185  67.830  1.00  0.00     0.278 C 
ENDBRANCH   1   7
BRANCH   2   9
ATOM      9  O   UNL     1      88.047  32.448  67.339  1.00  0.00    -0.493 OA
ATOM     10  C   UNL     1      88.913  33.504  66.934  1.00  0.00     0.278 C 
ENDBRANCH   2   9
BRANCH   4  11
ATOM     11  C   UNL     1      89.045  28.326  64.718  1.00  0.00     0.062 C 
BRANCH  11  12
ATOM     12  C   UNL     1      88.313  27.055  64.389  1.00  0.00    -0.030 C 
ATOM     13  C   UNL     1      88.651  26.303  63.336  1.00  0.00     0.004 C 
ENDBRANCH  11  12
ENDBRANCH   4  11
TORSDOF 4
ENDMDL
MODEL 6
REMARK VINA RESULT:    -3.921     15.404     17.805
REMARK INTER + INTRA:          -5.071
REMARK INTER:                  -4.809
REMARK INTRA:                  -0.261
REMARK UNBOUND:                -0.233
REMARK SMILES C=CCc1ccc(OC)c(OC)c1
REMARK SMILES IDX 7 1 10 2 13 3 4 4 5 5 6 6 8 7 9 8 11 9 12 10 3 11 2 12 1 13
REMARK H PARENT
REMARK Flexibility Score: inf
ROOT
ATOM      1  C   UNL     1      78.457  33.844  51.994  1.00  0.00     0.160 A 
ATOM      2  C   UNL     1      78.332  35.227  51.786  1.00  0.00     0.160 A 
ATOM      3  C   UNL     1      77.076  35.846  51.946  1.00  0.00     0.054 A 
ATOM      4  C   UNL     1      75.952  35.092  52.317  1.00  0.00    -0.040 A 
ATOM      5  C   UNL     1      76.083  33.711  52.512  1.00  0.00     0.008 A 
ATOM      6  C   UNL     1      77.324  33.091  52.357  1.00  0.00     0.051 A 
ENDROOT
BRANCH   1   7
ATOM      7  O   UNL     1      79.721  33.256  51.830  1.00  0.00    -0.493 OA
ATOM      8  C   UNL     1      80.115  32.016  52.408  1.00  0.00     0.278 C 
ENDBRANCH   1   7
BRANCH   2   9
ATOM      9  O   UNL     1      79.477  35.950  51.419  1.00  0.00    -0.493 OA
ATOM     10  C   UNL     1      79.949  36.092  50.083  1.00  0.00     0.278 C 
ENDBRANCH   2   9
BRANCH   4  11
ATOM     11  C   UNL     1      74.605  35.750  52.455  1.00  0.00     0.062 C 
BRANCH  11  12
ATOM     12  C   UNL     1      73.885  35.238  53.672  1.00  0.00    -0.030 C 
ATOM     13  C   UNL     1      74.061  35.790  54.876  1.00  0.00     0.004 C 
ENDBRANCH  11  12
ENDBRANCH   4  11
TORSDOF 4
ENDMDL
MODEL 7
REMARK VINA RESULT:    -3.814      2.229      4.408
REMARK INTER + INTRA:          -4.939
REMARK INTER:                  -4.667
REMARK INTRA:                  -0.272
REMARK UNBOUND:                -0.233
REMARK SMILES C=CCc1ccc(OC)c(OC)c1
REMARK SMILES IDX 7 1 10 2 13 3 4 4 5 5 6 6 8 7 9 8 11 9 12 10 3 11 2 12 1 13
REMARK H PARENT
REMARK Flexibility Score: inf
ROOT
ATOM      1  C   UNL     1      85.710  30.670  65.101  1.00  0.00     0.160 A 
ATOM      2  C   UNL     1      87.005  30.132  65.167  1.00  0.00     0.160 A 
ATOM      3  C   UNL     1      88.083  30.954  65.552  1.00  0.00     0.054 A 
ATOM      4  C   UNL     1      87.872  32.302  65.876  1.00  0.00    -0.040 A 
ATOM      5  C   UNL     1      86.578  32.835  65.798  1.00  0.00     0.008 A 
ATOM      6  C   UNL     1      85.504  32.027  65.418  1.00  0.00     0.051 A 
ENDROOT
BRANCH   1   7
ATOM      7  O   UNL     1      84.656  29.827  64.716  1.00  0.00    -0.493 OA
ATOM      8  C   UNL     1      83.286  30.213  64.683  1.00  0.00     0.278 C 
ENDBRANCH   1   7
BRANCH   2   9
ATOM      9  O   UNL     1      87.181  28.779  64.839  1.00  0.00    -0.493 OA
ATOM     10  C   UNL     1      88.442  28.163  64.601  1.00  0.00     0.278 C 
ENDBRANCH   2   9
BRANCH   4  11
ATOM     11  C   UNL     1      89.030  33.187  66.257  1.00  0.00     0.062 C 
BRANCH  11  12
ATOM     12  C   UNL     1      88.713  34.629  65.976  1.00  0.00    -0.030 C 
ATOM     13  C   UNL     1      89.125  35.234  64.858  1.00  0.00     0.004 C 
ENDBRANCH  11  12
ENDBRANCH   4  11
TORSDOF 4
ENDMDL
MODEL 8
REMARK VINA RESULT:    -3.797      1.812      3.333
REMARK INTER + INTRA:          -4.917
REMARK INTER:                  -4.614
REMARK INTRA:                  -0.303
REMARK UNBOUND:                -0.233
REMARK SMILES C=CCc1ccc(OC)c(OC)c1
REMARK SMILES IDX 7 1 10 2 13 3 4 4 5 5 6 6 8 7 9 8 11 9 12 10 3 11 2 12 1 13
REMARK H PARENT
REMARK Flexibility Score: inf
ROOT
ATOM      1  C   UNL     1      86.610  29.745  65.120  1.00  0.00     0.160 A 
ATOM      2  C   UNL     1      88.004  29.897  65.068  1.00  0.00     0.160 A 
ATOM      3  C   UNL     1      88.815  28.789  64.747  1.00  0.00     0.054 A 
ATOM      4  C   UNL     1      88.239  27.540  64.473  1.00  0.00    -0.040 A 
ATOM      5  C   UNL     1      86.846  27.394  64.538  1.00  0.00     0.008 A 
ATOM      6  C   UNL     1      86.037  28.486  64.854  1.00  0.00     0.051 A 
ENDROOT
BRANCH   1   7
ATOM      7  O   UNL     1      85.828  30.866  65.441  1.00  0.00    -0.493 OA
ATOM      8  C   UNL     1      84.551  31.147  64.877  1.00  0.00     0.278 C 
ENDBRANCH   1   7
BRANCH   2   9
ATOM      9  O   UNL     1      88.546  31.161  65.344  1.00  0.00    -0.493 OA
ATOM     10  C   UNL     1      89.125  31.537  66.590  1.00  0.00     0.278 C 
ENDBRANCH   2   9
BRANCH   4  11
ATOM     11  C   UNL     1      89.108  26.350  64.162  1.00  0.00     0.062 C 
BRANCH  11  12
ATOM     12  C   UNL     1      88.306  25.261  63.508  1.00  0.00    -0.030 C 
ATOM     13  C   UNL     1      88.464  24.950  62.217  1.00  0.00     0.004 C 
ENDBRANCH  11  12
ENDBRANCH   4  11
TORSDOF 4
ENDMDL
