MODEL 1
REMARK VINA RESULT:    -6.287      0.000      0.000
REMARK INTER + INTRA:          -8.154
REMARK INTER:                  -7.757
REMARK INTRA:                  -0.397
REMARK UNBOUND:                -0.397
REMARK SMILES COc1cc(-c2oc3cc(O)cc(O)c3c(=O)c2O)ccc1O
REMARK SMILES IDX 6 1 18 2 16 3 17 4 15 5 13 6 12 7 10 8 9 9 8 10 7 11 5 12
REMARK SMILES IDX 3 13 22 14 4 15 21 16 20 17 2 18 1 19 23 20 19 22 14 24
REMARK SMILES IDX 11 26
REMARK H PARENT 23 21 19 23 14 25 11 27
REMARK Flexibility Score: inf
ROOT
ATOM      1  C   UNL     1       5.671 -15.245   7.032  1.00  0.00     0.180 A 
ATOM      2  C   UNL     1       6.078 -14.335   6.037  1.00  0.00     0.208 A 
ATOM      3  C   UNL     1       7.435 -14.277   5.686  1.00  0.00     0.238 A 
ATOM      4  O   UNL     1       7.814 -13.458   4.804  1.00  0.00    -0.285 OA
ATOM      5  C   UNL     1       8.356 -15.140   6.315  1.00  0.00     0.111 A 
ATOM      6  C   UNL     1       9.740 -15.148   6.014  1.00  0.00     0.134 A 
ATOM      7  C   UNL     1      10.591 -16.045   6.678  1.00  0.00     0.093 A 
ATOM      8  C   UNL     1      10.087 -16.930   7.633  1.00  0.00     0.123 A 
ATOM      9  C   UNL     1       8.721 -16.927   7.934  1.00  0.00     0.094 A 
ATOM     10  C   UNL     1       7.857 -16.040   7.284  1.00  0.00     0.146 A 
ATOM     11  O   UNL     1       6.566 -16.054   7.593  1.00  0.00    -0.452 OA
ENDROOT
BRANCH   1  12
ATOM     12  C   UNL     1       4.261 -15.351   7.472  1.00  0.00     0.025 A 
ATOM     13  C   UNL     1       2.024 -16.322   7.276  1.00  0.00     0.161 A 
ATOM     14  C   UNL     1       1.578 -15.480   8.304  1.00  0.00     0.157 A 
ATOM     15  C   UNL     1       3.368 -16.247   6.857  1.00  0.00     0.062 A 
ATOM     16  C   UNL     1       2.460 -14.572   8.902  1.00  0.00     0.051 A 
ATOM     17  C   UNL     1       3.790 -14.503   8.484  1.00  0.00     0.016 A 
BRANCH  13  18
ATOM     18  O   UNL     1       1.107 -17.210   6.693  1.00  0.00    -0.493 OA
ATOM     19  C   UNL     1       0.517 -17.033   5.409  1.00  0.00     0.278 C 
ENDBRANCH  13  18
BRANCH  14  20
ATOM     20  O   UNL     1       0.251 -15.551   8.724  1.00  0.00    -0.504 OA
ATOM     21  H   UNL     1      -0.410 -14.810   8.521  1.00  0.00     0.293 HD
ENDBRANCH  14  20
ENDBRANCH   1  12
BRANCH   2  22
ATOM     22  O   UNL     1       5.138 -13.525   5.394  1.00  0.00    -0.502 OA
ATOM     23  H   UNL     1       4.190 -13.420   5.733  1.00  0.00     0.293 HD
ENDBRANCH   2  22
BRANCH   6  24
ATOM     24  O   UNL     1      10.275 -14.275   5.065  1.00  0.00    -0.507 OA
ATOM     25  H   UNL     1      11.129 -13.760   5.237  1.00  0.00     0.293 HD
ENDBRANCH   6  24
BRANCH   8  26
ATOM     26  O   UNL     1      10.953 -17.812   8.277  1.00  0.00    -0.508 OA
ATOM     27  H   UNL     1      10.659 -18.743   8.545  1.00  0.00     0.293 HD
ENDBRANCH   8  26
TORSDOF 6
ENDMDL
MODEL 2
REMARK VINA RESULT:    -6.215      5.815      8.210
REMARK INTER + INTRA:          -8.065
REMARK INTER:                  -7.669
REMARK INTRA:                  -0.396
REMARK UNBOUND:                -0.397
REMARK SMILES COc1cc(-c2oc3cc(O)cc(O)c3c(=O)c2O)ccc1O
REMARK SMILES IDX 6 1 18 2 16 3 17 4 15 5 13 6 12 7 10 8 9 9 8 10 7 11 5 12
REMARK SMILES IDX 3 13 22 14 4 15 21 16 20 17 2 18 1 19 23 20 19 22 14 24
REMARK SMILES IDX 11 26
REMARK H PARENT 23 21 19 23 14 25 11 27
REMARK Flexibility Score: inf
ROOT
ATOM      1  C   UNL     1       9.335 -14.567  12.062  1.00  0.00     0.180 A 
ATOM      2  C   UNL     1      10.590 -13.965  12.277  1.00  0.00     0.208 A 
ATOM      3  C   UNL     1      10.637 -12.634  12.717  1.00  0.00     0.238 A 
ATOM      4  O   UNL     1      11.756 -12.081  12.903  1.00  0.00    -0.285 OA
ATOM      5  C   UNL     1       9.436 -11.935  12.955  1.00  0.00     0.111 A 
ATOM      6  C   UNL     1       9.397 -10.592  13.405  1.00  0.00     0.134 A 
ATOM      7  C   UNL     1       8.160  -9.970  13.628  1.00  0.00     0.093 A 
ATOM      8  C   UNL     1       6.965 -10.660  13.412  1.00  0.00     0.123 A 
ATOM      9  C   UNL     1       6.998 -11.985  12.968  1.00  0.00     0.094 A 
ATOM     10  C   UNL     1       8.220 -12.623  12.738  1.00  0.00     0.146 A 
ATOM     11  O   UNL     1       8.222 -13.881  12.311  1.00  0.00    -0.452 OA
ENDROOT
BRANCH   1  12
ATOM     12  C   UNL     1       9.202 -15.960  11.578  1.00  0.00     0.025 A 
ATOM     13  C   UNL     1       9.037 -17.589   9.761  1.00  0.00     0.161 A 
ATOM     14  C   UNL     1       8.895 -18.615  10.705  1.00  0.00     0.157 A 
ATOM     15  C   UNL     1       9.183 -16.259  10.204  1.00  0.00     0.062 A 
ATOM     16  C   UNL     1       8.892 -18.317  12.073  1.00  0.00     0.051 A 
ATOM     17  C   UNL     1       9.038 -16.998  12.506  1.00  0.00     0.016 A 
BRANCH  13  18
ATOM     18  O   UNL     1       9.023 -17.927   8.399  1.00  0.00    -0.493 OA
ATOM     19  C   UNL     1       9.792 -17.270   7.397  1.00  0.00     0.278 C 
ENDBRANCH  13  18
BRANCH  14  20
ATOM     20  O   UNL     1       8.753 -19.933  10.273  1.00  0.00    -0.504 OA
ATOM     21  H   UNL     1       8.025 -20.536  10.639  1.00  0.00     0.293 HD
ENDBRANCH  14  20
ENDBRANCH   1  12
BRANCH   2  22
ATOM     22  O   UNL     1      11.765 -14.695  12.080  1.00  0.00    -0.502 OA
ATOM     23  H   UNL     1      12.096 -14.953  11.158  1.00  0.00     0.293 HD
ENDBRANCH   2  22
BRANCH   6  24
ATOM     24  O   UNL     1      10.573  -9.876  13.631  1.00  0.00    -0.507 OA
ATOM     25  H   UNL     1      10.558  -8.913  13.945  1.00  0.00     0.293 HD
ENDBRANCH   6  24
BRANCH   8  26
ATOM     26  O   UNL     1       5.750 -10.018  13.643  1.00  0.00    -0.508 OA
ATOM     27  H   UNL     1       5.426  -9.819  14.582  1.00  0.00     0.293 HD
ENDBRANCH   8  26
TORSDOF 6
ENDMDL
MODEL 3
REMARK VINA RESULT:    -6.211      1.894      3.697
REMARK INTER + INTRA:          -8.061
REMARK INTER:                  -7.678
REMARK INTRA:                  -0.382
REMARK UNBOUND:                -0.397
REMARK SMILES COc1cc(-c2oc3cc(O)cc(O)c3c(=O)c2O)ccc1O
REMARK SMILES IDX 6 1 18 2 16 3 17 4 15 5 13 6 12 7 10 8 9 9 8 10 7 11 5 12
REMARK SMILES IDX 3 13 22 14 4 15 21 16 20 17 2 18 1 19 23 20 19 22 14 24
REMARK SMILES IDX 11 26
REMARK H PARENT 23 21 19 23 14 25 11 27
REMARK Flexibility Score: inf
ROOT
ATOM      1  C   UNL     1       3.468 -15.589   8.262  1.00  0.00     0.180 A 
ATOM      2  C   UNL     1       4.379 -16.278   9.087  1.00  0.00     0.208 A 
ATOM      3  C   UNL     1       5.743 -16.249   8.762  1.00  0.00     0.238 A 
ATOM      4  O   UNL     1       6.567 -16.872   9.487  1.00  0.00    -0.285 OA
ATOM      5  C   UNL     1       6.177 -15.520   7.635  1.00  0.00     0.111 A 
ATOM      6  C   UNL     1       7.535 -15.438   7.242  1.00  0.00     0.134 A 
ATOM      7  C   UNL     1       7.886 -14.682   6.112  1.00  0.00     0.093 A 
ATOM      8  C   UNL     1       6.911 -14.011   5.372  1.00  0.00     0.123 A 
ATOM      9  C   UNL     1       5.569 -14.089   5.756  1.00  0.00     0.094 A 
ATOM     10  C   UNL     1       5.197 -14.837   6.877  1.00  0.00     0.146 A 
ATOM     11  O   UNL     1       3.915 -14.900   7.216  1.00  0.00    -0.452 OA
ENDROOT
BRANCH   1  12
ATOM     12  C   UNL     1       2.011 -15.589   8.528  1.00  0.00     0.025 A 
ATOM     13  C   UNL     1      -0.246 -16.420   8.085  1.00  0.00     0.161 A 
ATOM     14  C   UNL     1      -0.755 -15.515   9.027  1.00  0.00     0.157 A 
ATOM     15  C   UNL     1       1.140 -16.447   7.833  1.00  0.00     0.062 A 
ATOM     16  C   UNL     1       0.107 -14.645   9.704  1.00  0.00     0.051 A 
ATOM     17  C   UNL     1       1.480 -14.677   9.452  1.00  0.00     0.016 A 
BRANCH  13  18
ATOM     18  O   UNL     1      -1.145 -17.267   7.418  1.00  0.00    -0.493 OA
ATOM     19  C   UNL     1      -1.562 -17.097   6.068  1.00  0.00     0.278 C 
ENDBRANCH  13  18
BRANCH  14  20
ATOM     20  O   UNL     1      -2.125 -15.486   9.283  1.00  0.00    -0.504 OA
ATOM     21  H   UNL     1      -2.593 -16.249   9.758  1.00  0.00     0.293 HD
ENDBRANCH  14  20
ENDBRANCH   1  12
BRANCH   2  22
ATOM     22  O   UNL     1       3.930 -16.953  10.225  1.00  0.00    -0.502 OA
ATOM     23  H   UNL     1       3.742 -17.948  10.228  1.00  0.00     0.293 HD
ENDBRANCH   2  22
BRANCH   6  24
ATOM     24  O   UNL     1       8.533 -16.097   7.961  1.00  0.00    -0.507 OA
ATOM     25  H   UNL     1       9.123 -15.608   8.622  1.00  0.00     0.293 HD
ENDBRANCH   6  24
BRANCH   8  26
ATOM     26  O   UNL     1       7.288 -13.267   4.256  1.00  0.00    -0.508 OA
ATOM     27  H   UNL     1       7.491 -12.277   4.323  1.00  0.00     0.293 HD
ENDBRANCH   8  26
TORSDOF 6
ENDMDL
MODEL 4
REMARK VINA RESULT:    -6.121      1.581      7.464
REMARK INTER + INTRA:          -7.949
REMARK INTER:                  -7.563
REMARK INTRA:                  -0.385
REMARK UNBOUND:                -0.397
REMARK SMILES COc1cc(-c2oc3cc(O)cc(O)c3c(=O)c2O)ccc1O
REMARK SMILES IDX 6 1 18 2 16 3 17 4 15 5 13 6 12 7 10 8 9 9 8 10 7 11 5 12
REMARK SMILES IDX 3 13 22 14 4 15 21 16 20 17 2 18 1 19 23 20 19 22 14 24
REMARK SMILES IDX 11 26
REMARK H PARENT 23 21 19 23 14 25 11 27
REMARK Flexibility Score: inf
ROOT
ATOM      1  C   UNL     1       3.847 -15.400   7.042  1.00  0.00     0.180 A 
ATOM      2  C   UNL     1       3.291 -14.881   8.228  1.00  0.00     0.208 A 
ATOM      3  C   UNL     1       1.994 -15.268   8.595  1.00  0.00     0.238 A 
ATOM      4  O   UNL     1       1.481 -14.800   9.649  1.00  0.00    -0.285 OA
ATOM      5  C   UNL     1       1.283 -16.180   7.787  1.00  0.00     0.111 A 
ATOM      6  C   UNL     1      -0.027 -16.625   8.090  1.00  0.00     0.134 A 
ATOM      7  C   UNL     1      -0.663 -17.542   7.240  1.00  0.00     0.093 A 
ATOM      8  C   UNL     1      -0.018 -18.022   6.099  1.00  0.00     0.123 A 
ATOM      9  C   UNL     1       1.276 -17.587   5.795  1.00  0.00     0.094 A 
ATOM     10  C   UNL     1       1.926 -16.672   6.628  1.00  0.00     0.146 A 
ATOM     11  O   UNL     1       3.153 -16.270   6.314  1.00  0.00    -0.452 OA
ENDROOT
BRANCH   1  12
ATOM     12  C   UNL     1       5.201 -15.024   6.578  1.00  0.00     0.025 A 
ATOM     13  C   UNL     1       7.630 -15.317   6.597  1.00  0.00     0.161 A 
ATOM     14  C   UNL     1       7.758 -14.240   5.709  1.00  0.00     0.157 A 
ATOM     15  C   UNL     1       6.346 -15.701   7.035  1.00  0.00     0.062 A 
ATOM     16  C   UNL     1       6.622 -13.551   5.269  1.00  0.00     0.051 A 
ATOM     17  C   UNL     1       5.353 -13.936   5.706  1.00  0.00     0.016 A 
BRANCH  13  18
ATOM     18  O   UNL     1       8.794 -15.974   7.024  1.00  0.00    -0.493 OA
ATOM     19  C   UNL     1       8.808 -17.167   7.800  1.00  0.00     0.278 C 
ENDBRANCH  13  18
BRANCH  14  20
ATOM     20  O   UNL     1       9.025 -13.857   5.270  1.00  0.00    -0.504 OA
ATOM     21  H   UNL     1       9.221 -13.702   4.288  1.00  0.00     0.293 HD
ENDBRANCH  14  20
ENDBRANCH   1  12
BRANCH   2  22
ATOM     22  O   UNL     1       4.034 -14.016   9.036  1.00  0.00    -0.502 OA
ATOM     23  H   UNL     1       4.462 -13.171   8.677  1.00  0.00     0.293 HD
ENDBRANCH   2  22
BRANCH   6  24
ATOM     24  O   UNL     1      -0.699 -16.164   9.224  1.00  0.00    -0.507 OA
ATOM     25  H   UNL     1      -1.230 -16.788   9.818  1.00  0.00     0.293 HD
ENDBRANCH   6  24
BRANCH   8  26
ATOM     26  O   UNL     1      -0.672 -18.934   5.272  1.00  0.00    -0.508 OA
ATOM     27  H   UNL     1      -1.608 -18.758   4.927  1.00  0.00     0.293 HD
ENDBRANCH   8  26
TORSDOF 6
ENDMDL
MODEL 5
REMARK VINA RESULT:    -6.061      4.402      7.825
REMARK INTER + INTRA:          -7.874
REMARK INTER:                  -7.482
REMARK INTRA:                  -0.392
REMARK UNBOUND:                -0.397
REMARK SMILES COc1cc(-c2oc3cc(O)cc(O)c3c(=O)c2O)ccc1O
REMARK SMILES IDX 6 1 18 2 16 3 17 4 15 5 13 6 12 7 10 8 9 9 8 10 7 11 5 12
REMARK SMILES IDX 3 13 22 14 4 15 21 16 20 17 2 18 1 19 23 20 19 22 14 24
REMARK SMILES IDX 11 26
REMARK H PARENT 23 21 19 23 14 25 11 27
REMARK Flexibility Score: inf
ROOT
ATOM      1  C   UNL     1       7.242 -14.751  10.654  1.00  0.00     0.180 A 
ATOM      2  C   UNL     1       6.074 -15.410  11.085  1.00  0.00     0.208 A 
ATOM      3  C   UNL     1       4.996 -15.530  10.196  1.00  0.00     0.238 A 
ATOM      4  O   UNL     1       3.940 -16.108  10.574  1.00  0.00    -0.285 OA
ATOM      5  C   UNL     1       5.108 -15.010   8.889  1.00  0.00     0.111 A 
ATOM      6  C   UNL     1       4.069 -15.094   7.931  1.00  0.00     0.134 A 
ATOM      7  C   UNL     1       4.263 -14.561   6.647  1.00  0.00     0.093 A 
ATOM      8  C   UNL     1       5.470 -13.948   6.305  1.00  0.00     0.123 A 
ATOM      9  C   UNL     1       6.499 -13.863   7.247  1.00  0.00     0.094 A 
ATOM     10  C   UNL     1       6.326 -14.387   8.532  1.00  0.00     0.146 A 
ATOM     11  O   UNL     1       7.318 -14.287   9.410  1.00  0.00    -0.452 OA
ENDROOT
BRANCH   1  12
ATOM     12  C   UNL     1       8.414 -14.567  11.540  1.00  0.00     0.025 A 
ATOM     13  C   UNL     1       9.758 -13.197  13.057  1.00  0.00     0.161 A 
ATOM     14  C   UNL     1      10.683 -14.244  13.170  1.00  0.00     0.157 A 
ATOM     15  C   UNL     1       8.626 -13.361  12.232  1.00  0.00     0.062 A 
ATOM     16  C   UNL     1      10.485 -15.437  12.465  1.00  0.00     0.051 A 
ATOM     17  C   UNL     1       9.362 -15.595  11.651  1.00  0.00     0.016 A 
BRANCH  13  18
ATOM     18  O   UNL     1       9.998 -12.012  13.769  1.00  0.00    -0.493 OA
ATOM     19  C   UNL     1      10.357 -10.770  13.172  1.00  0.00     0.278 C 
ENDBRANCH  13  18
BRANCH  14  20
ATOM     20  O   UNL     1      11.802 -14.088  13.986  1.00  0.00    -0.504 OA
ATOM     21  H   UNL     1      12.671 -14.573  13.793  1.00  0.00     0.293 HD
ENDBRANCH  14  20
ENDBRANCH   1  12
BRANCH   2  22
ATOM     22  O   UNL     1       6.006 -15.958  12.369  1.00  0.00    -0.502 OA
ATOM     23  H   UNL     1       5.133 -16.051  12.874  1.00  0.00     0.293 HD
ENDBRANCH   2  22
BRANCH   6  24
ATOM     24  O   UNL     1       2.851 -15.700   8.242  1.00  0.00    -0.507 OA
ATOM     25  H   UNL     1       1.966 -15.287   7.973  1.00  0.00     0.293 HD
ENDBRANCH   6  24
BRANCH   8  26
ATOM     26  O   UNL     1       5.636 -13.428   5.023  1.00  0.00    -0.508 OA
ATOM     27  H   UNL     1       6.484 -13.589   4.492  1.00  0.00     0.293 HD
ENDBRANCH   8  26
TORSDOF 6
ENDMDL
MODEL 6
REMARK VINA RESULT:    -6.043      4.707      5.882
REMARK INTER + INTRA:          -7.852
REMARK INTER:                  -7.455
REMARK INTRA:                  -0.397
REMARK UNBOUND:                -0.397
REMARK SMILES COc1cc(-c2oc3cc(O)cc(O)c3c(=O)c2O)ccc1O
REMARK SMILES IDX 6 1 18 2 16 3 17 4 15 5 13 6 12 7 10 8 9 9 8 10 7 11 5 12
REMARK SMILES IDX 3 13 22 14 4 15 21 16 20 17 2 18 1 19 23 20 19 22 14 24
REMARK SMILES IDX 11 26
REMARK H PARENT 23 21 19 23 14 25 11 27
REMARK Flexibility Score: inf
ROOT
ATOM      1  C   UNL     1       7.405 -14.399  10.515  1.00  0.00     0.180 A 
ATOM      2  C   UNL     1       8.432 -15.344  10.705  1.00  0.00     0.208 A 
ATOM      3  C   UNL     1       9.527 -15.002  11.513  1.00  0.00     0.238 A 
ATOM      4  O   UNL     1      10.459 -15.837  11.681  1.00  0.00    -0.285 OA
ATOM      5  C   UNL     1       9.569 -13.736  12.133  1.00  0.00     0.111 A 
ATOM      6  C   UNL     1      10.635 -13.316  12.966  1.00  0.00     0.134 A 
ATOM      7  C   UNL     1      10.597 -12.043  13.554  1.00  0.00     0.093 A 
ATOM      8  C   UNL     1       9.519 -11.185  13.327  1.00  0.00     0.123 A 
ATOM      9  C   UNL     1       8.464 -11.594  12.505  1.00  0.00     0.094 A 
ATOM     10  C   UNL     1       8.483 -12.858  11.909  1.00  0.00     0.146 A 
ATOM     11  O   UNL     1       7.471 -13.220  11.128  1.00  0.00    -0.452 OA
ENDROOT
BRANCH   1  12
ATOM     12  C   UNL     1       6.228 -14.677   9.662  1.00  0.00     0.025 A 
ATOM     13  C   UNL     1       5.105 -14.650   7.489  1.00  0.00     0.161 A 
ATOM     14  C   UNL     1       3.950 -15.172   8.089  1.00  0.00     0.157 A 
ATOM     15  C   UNL     1       6.241 -14.396   8.284  1.00  0.00     0.062 A 
ATOM     16  C   UNL     1       3.928 -15.431   9.464  1.00  0.00     0.051 A 
ATOM     17  C   UNL     1       5.056 -15.179  10.246  1.00  0.00     0.016 A 
BRANCH  13  18
ATOM     18  O   UNL     1       5.083 -14.391   6.110  1.00  0.00    -0.493 OA
ATOM     19  C   UNL     1       6.136 -13.757   5.392  1.00  0.00     0.278 C 
ENDBRANCH  13  18
BRANCH  14  20
ATOM     20  O   UNL     1       2.824 -15.427   7.308  1.00  0.00    -0.504 OA
ATOM     21  H   UNL     1       1.934 -14.980   7.498  1.00  0.00     0.293 HD
ENDBRANCH  14  20
ENDBRANCH   1  12
BRANCH   2  22
ATOM     22  O   UNL     1       8.344 -16.609  10.119  1.00  0.00    -0.502 OA
ATOM     23  H   UNL     1       9.007 -17.348  10.319  1.00  0.00     0.293 HD
ENDBRANCH   2  22
BRANCH   6  24
ATOM     24  O   UNL     1      11.726 -14.151  13.212  1.00  0.00    -0.507 OA
ATOM     25  H   UNL     1      11.861 -15.015  12.703  1.00  0.00     0.293 HD
ENDBRANCH   6  24
BRANCH   8  26
ATOM     26  O   UNL     1       9.506  -9.926  13.924  1.00  0.00    -0.508 OA
ATOM     27  H   UNL     1      10.333  -9.341  13.945  1.00  0.00     0.293 HD
ENDBRANCH   8  26
TORSDOF 6
ENDMDL
MODEL 7
REMARK VINA RESULT:    -6.001      6.320      8.527
REMARK INTER + INTRA:          -7.801
REMARK INTER:                  -7.400
REMARK INTRA:                  -0.401
REMARK UNBOUND:                -0.397
REMARK SMILES COc1cc(-c2oc3cc(O)cc(O)c3c(=O)c2O)ccc1O
REMARK SMILES IDX 6 1 18 2 16 3 17 4 15 5 13 6 12 7 10 8 9 9 8 10 7 11 5 12
REMARK SMILES IDX 3 13 22 14 4 15 21 16 20 17 2 18 1 19 23 20 19 22 14 24
REMARK SMILES IDX 11 26
REMARK H PARENT 23 21 19 23 14 25 11 27
REMARK Flexibility Score: inf
ROOT
ATOM      1  C   UNL     1       9.383 -14.630  12.173  1.00  0.00     0.180 A 
ATOM      2  C   UNL     1      10.649 -14.028  12.311  1.00  0.00     0.208 A 
ATOM      3  C   UNL     1      10.721 -12.677  12.681  1.00  0.00     0.238 A 
ATOM      4  O   UNL     1      11.849 -12.123  12.796  1.00  0.00    -0.285 OA
ATOM      5  C   UNL     1       9.533 -11.957  12.927  1.00  0.00     0.111 A 
ATOM      6  C   UNL     1       9.519 -10.593  13.309  1.00  0.00     0.134 A 
ATOM      7  C   UNL     1       8.295  -9.950  13.546  1.00  0.00     0.093 A 
ATOM      8  C   UNL     1       7.089 -10.642  13.409  1.00  0.00     0.123 A 
ATOM      9  C   UNL     1       7.097 -11.988  13.033  1.00  0.00     0.094 A 
ATOM     10  C   UNL     1       8.306 -12.646  12.791  1.00  0.00     0.146 A 
ATOM     11  O   UNL     1       8.285 -13.924  12.429  1.00  0.00    -0.452 OA
ENDROOT
BRANCH   1  12
ATOM     12  C   UNL     1       9.225 -16.045  11.767  1.00  0.00     0.025 A 
ATOM     13  C   UNL     1       9.063 -18.424  12.312  1.00  0.00     0.161 A 
ATOM     14  C   UNL     1       8.977 -18.723  10.945  1.00  0.00     0.157 A 
ATOM     15  C   UNL     1       9.196 -17.081  12.718  1.00  0.00     0.062 A 
ATOM     16  C   UNL     1       9.028 -17.695   9.996  1.00  0.00     0.051 A 
ATOM     17  C   UNL     1       9.158 -16.367  10.403  1.00  0.00     0.016 A 
BRANCH  13  18
ATOM     18  O   UNL     1       9.021 -19.483  13.232  1.00  0.00    -0.493 OA
ATOM     19  C   UNL     1       8.037 -19.629  14.250  1.00  0.00     0.278 C 
ENDBRANCH  13  18
BRANCH  14  20
ATOM     20  O   UNL     1       8.843 -20.049  10.538  1.00  0.00    -0.504 OA
ATOM     21  H   UNL     1       9.177 -20.362   9.633  1.00  0.00     0.293 HD
ENDBRANCH  14  20
ENDBRANCH   1  12
BRANCH   2  22
ATOM     22  O   UNL     1      11.812 -14.776  12.108  1.00  0.00    -0.502 OA
ATOM     23  H   UNL     1      11.934 -15.385  11.308  1.00  0.00     0.293 HD
ENDBRANCH   2  22
BRANCH   6  24
ATOM     24  O   UNL     1      10.707  -9.875  13.454  1.00  0.00    -0.507 OA
ATOM     25  H   UNL     1      10.877  -9.285  14.259  1.00  0.00     0.293 HD
ENDBRANCH   6  24
BRANCH   8  26
ATOM     26  O   UNL     1       5.887  -9.979  13.652  1.00  0.00    -0.508 OA
ATOM     27  H   UNL     1       5.636  -9.137  13.148  1.00  0.00     0.293 HD
ENDBRANCH   8  26
TORSDOF 6
ENDMDL
MODEL 8
REMARK VINA RESULT:    -5.967      2.529      2.892
REMARK INTER + INTRA:          -7.759
REMARK INTER:                  -7.567
REMARK INTRA:                  -0.192
REMARK UNBOUND:                -0.397
REMARK SMILES COc1cc(-c2oc3cc(O)cc(O)c3c(=O)c2O)ccc1O
REMARK SMILES IDX 6 1 18 2 16 3 17 4 15 5 13 6 12 7 10 8 9 9 8 10 7 11 5 12
REMARK SMILES IDX 3 13 22 14 4 15 21 16 20 17 2 18 1 19 23 20 19 22 14 24
REMARK SMILES IDX 11 26
REMARK H PARENT 23 21 19 23 14 25 11 27
REMARK Flexibility Score: inf
ROOT
ATOM      1  C   UNL     1       5.572 -16.003   8.394  1.00  0.00     0.180 A 
ATOM      2  C   UNL     1       5.013 -15.043   7.528  1.00  0.00     0.208 A 
ATOM      3  C   UNL     1       5.816 -14.490   6.520  1.00  0.00     0.238 A 
ATOM      4  O   UNL     1       5.329 -13.621   5.745  1.00  0.00    -0.285 OA
ATOM      5  C   UNL     1       7.152 -14.919   6.378  1.00  0.00     0.111 A 
ATOM      6  C   UNL     1       8.026 -14.415   5.384  1.00  0.00     0.134 A 
ATOM      7  C   UNL     1       9.340 -14.900   5.303  1.00  0.00     0.093 A 
ATOM      8  C   UNL     1       9.795 -15.876   6.193  1.00  0.00     0.123 A 
ATOM      9  C   UNL     1       8.937 -16.377   7.176  1.00  0.00     0.094 A 
ATOM     10  C   UNL     1       7.625 -15.905   7.274  1.00  0.00     0.146 A 
ATOM     11  O   UNL     1       6.832 -16.394   8.221  1.00  0.00    -0.452 OA
ENDROOT
BRANCH   1  12
ATOM     12  C   UNL     1       4.796 -16.617   9.495  1.00  0.00     0.025 A 
ATOM     13  C   UNL     1       2.889 -17.919  10.303  1.00  0.00     0.161 A 
ATOM     14  C   UNL     1       3.322 -17.720  11.621  1.00  0.00     0.157 A 
ATOM     15  C   UNL     1       3.627 -17.357   9.242  1.00  0.00     0.062 A 
ATOM     16  C   UNL     1       4.474 -16.965  11.877  1.00  0.00     0.051 A 
ATOM     17  C   UNL     1       5.201 -16.412  10.822  1.00  0.00     0.016 A 
BRANCH  13  18
ATOM     18  O   UNL     1       1.723 -18.670  10.089  1.00  0.00    -0.493 OA
ATOM     19  C   UNL     1       0.454 -18.115   9.763  1.00  0.00     0.278 C 
ENDBRANCH  13  18
BRANCH  14  20
ATOM     20  O   UNL     1       2.598 -18.275  12.675  1.00  0.00    -0.504 OA
ATOM     21  H   UNL     1       1.713 -18.745  12.521  1.00  0.00     0.293 HD
ENDBRANCH  14  20
ENDBRANCH   1  12
BRANCH   2  22
ATOM     22  O   UNL     1       3.672 -14.671   7.659  1.00  0.00    -0.502 OA
ATOM     23  H   UNL     1       3.049 -15.109   8.326  1.00  0.00     0.293 HD
ENDBRANCH   2  22
BRANCH   6  24
ATOM     24  O   UNL     1       7.601 -13.440   4.480  1.00  0.00    -0.507 OA
ATOM     25  H   UNL     1       7.012 -13.669   3.689  1.00  0.00     0.293 HD
ENDBRANCH   6  24
BRANCH   8  26
ATOM     26  O   UNL     1      11.105 -16.341   6.089  1.00  0.00    -0.508 OA
ATOM     27  H   UNL     1      11.827 -15.794   5.636  1.00  0.00     0.293 HD
ENDBRANCH   8  26
TORSDOF 6
ENDMDL
MODEL 9
REMARK VINA RESULT:    -5.882      3.257      4.326
REMARK INTER + INTRA:          -7.654
REMARK INTER:                  -7.545
REMARK INTRA:                  -0.109
REMARK UNBOUND:                -0.397
REMARK SMILES COc1cc(-c2oc3cc(O)cc(O)c3c(=O)c2O)ccc1O
REMARK SMILES IDX 6 1 18 2 16 3 17 4 15 5 13 6 12 7 10 8 9 9 8 10 7 11 5 12
REMARK SMILES IDX 3 13 22 14 4 15 21 16 20 17 2 18 1 19 23 20 19 22 14 24
REMARK SMILES IDX 11 26
REMARK H PARENT 23 21 19 23 14 25 11 27
REMARK Flexibility Score: inf
ROOT
ATOM      1  C   UNL     1       5.819 -15.937   8.837  1.00  0.00     0.180 A 
ATOM      2  C   UNL     1       5.115 -15.015   8.038  1.00  0.00     0.208 A 
ATOM      3  C   UNL     1       5.751 -14.468   6.914  1.00  0.00     0.238 A 
ATOM      4  O   UNL     1       5.134 -13.633   6.197  1.00  0.00    -0.285 OA
ATOM      5  C   UNL     1       7.066 -14.865   6.594  1.00  0.00     0.111 A 
ATOM      6  C   UNL     1       7.776 -14.365   5.475  1.00  0.00     0.134 A 
ATOM      7  C   UNL     1       9.079 -14.818   5.220  1.00  0.00     0.093 A 
ATOM      8  C   UNL     1       9.684 -15.757   6.058  1.00  0.00     0.123 A 
ATOM      9  C   UNL     1       8.988 -16.255   7.163  1.00  0.00     0.094 A 
ATOM     10  C   UNL     1       7.689 -15.815   7.436  1.00  0.00     0.146 A 
ATOM     11  O   UNL     1       7.053 -16.300   8.497  1.00  0.00    -0.452 OA
ENDROOT
BRANCH   1  12
ATOM     12  C   UNL     1       5.223 -16.542  10.050  1.00  0.00     0.025 A 
ATOM     13  C   UNL     1       5.297 -17.064  12.439  1.00  0.00     0.161 A 
ATOM     14  C   UNL     1       4.082 -17.753  12.317  1.00  0.00     0.157 A 
ATOM     15  C   UNL     1       5.868 -16.467  11.298  1.00  0.00     0.062 A 
ATOM     16  C   UNL     1       3.449 -17.848  11.072  1.00  0.00     0.051 A 
ATOM     17  C   UNL     1       4.019 -17.253   9.945  1.00  0.00     0.016 A 
BRANCH  13  18
ATOM     18  O   UNL     1       5.906 -17.002  13.701  1.00  0.00    -0.493 OA
ATOM     19  C   UNL     1       7.265 -16.640  13.924  1.00  0.00     0.278 C 
ENDBRANCH  13  18
BRANCH  14  20
ATOM     20  O   UNL     1       3.510 -18.344  13.442  1.00  0.00    -0.504 OA
ATOM     21  H   UNL     1       3.130 -19.283  13.413  1.00  0.00     0.293 HD
ENDBRANCH  14  20
ENDBRANCH   1  12
BRANCH   2  22
ATOM     22  O   UNL     1       3.796 -14.675   8.349  1.00  0.00    -0.502 OA
ATOM     23  H   UNL     1       3.283 -13.965   7.839  1.00  0.00     0.293 HD
ENDBRANCH   2  22
BRANCH   6  24
ATOM     24  O   UNL     1       7.199 -13.425   4.619  1.00  0.00    -0.507 OA
ATOM     25  H   UNL     1       7.337 -12.431   4.749  1.00  0.00     0.293 HD
ENDBRANCH   6  24
BRANCH   8  26
ATOM     26  O   UNL     1      10.979 -16.191   5.780  1.00  0.00    -0.508 OA
ATOM     27  H   UNL     1      11.252 -17.158   5.905  1.00  0.00     0.293 HD
ENDBRANCH   8  26
TORSDOF 6
ENDMDL
