MODEL 1
REMARK VINA RESULT:    -3.746      0.000      0.000
REMARK INTER + INTRA:          -3.965
REMARK INTER:                  -3.965
REMARK INTRA:                   0.000
REMARK UNBOUND:                 0.000
REMARK SMILES O=c1ccc2cc(O)c(O)cc2o1
REMARK SMILES IDX 4 1 3 2 2 3 1 4 13 5 12 6 11 7 9 8 7 9 6 10 5 11 8 12 10 14
REMARK H PARENT 8 13 10 15
REMARK Flexibility Score: inf
ROOT
ATOM      1  C   UNL     1     148.635 160.251 160.118  1.00  0.00     0.019 A 
ATOM      2  C   UNL     1     148.628 161.597 159.754  1.00  0.00     0.094 A 
ATOM      3  C   UNL     1     147.687 162.453 160.338  1.00  0.00     0.336 A 
ATOM      4  O   UNL     1     147.665 163.671 160.023  1.00  0.00    -0.246 OA
ATOM      5  O   UNL     1     146.814 161.986 161.228  1.00  0.00    -0.423 OA
ATOM      6  C   UNL     1     146.788 160.710 161.603  1.00  0.00     0.142 A 
ATOM      7  C   UNL     1     145.845 160.277 162.543  1.00  0.00     0.098 A 
ATOM      8  C   UNL     1     145.813 158.932 162.941  1.00  0.00     0.161 A 
ATOM      9  C   UNL     1     146.726 158.017 162.397  1.00  0.00     0.158 A 
ATOM     10  C   UNL     1     147.673 158.446 161.455  1.00  0.00     0.062 A 
ATOM     11  C   UNL     1     147.707 159.788 161.056  1.00  0.00     0.022 A 
ENDROOT
BRANCH   9  12
ATOM     12  O   UNL     1     146.686 156.683 162.799  1.00  0.00    -0.504 OA
ATOM     13  H   UNL     1     146.145 156.388 163.605  1.00  0.00     0.293 HD
ENDBRANCH   9  12
BRANCH   8  14
ATOM     14  O   UNL     1     144.876 158.498 163.877  1.00  0.00    -0.504 OA
ATOM     15  H   UNL     1     144.247 159.146 164.337  1.00  0.00     0.293 HD
ENDBRANCH   8  14
TORSDOF 2
ENDMDL
MODEL 2
REMARK VINA RESULT:    -3.087      1.578      2.777
REMARK INTER + INTRA:          -3.268
REMARK INTER:                  -3.268
REMARK INTRA:                   0.000
REMARK UNBOUND:                 0.000
REMARK SMILES O=c1ccc2cc(O)c(O)cc2o1
REMARK SMILES IDX 4 1 3 2 2 3 1 4 13 5 12 6 11 7 9 8 7 9 6 10 5 11 8 12 10 14
REMARK H PARENT 8 13 10 15
REMARK Flexibility Score: inf
ROOT
ATOM      1  C   UNL     1     146.950 163.369 160.621  1.00  0.00     0.019 A 
ATOM      2  C   UNL     1     148.018 164.114 160.121  1.00  0.00     0.094 A 
ATOM      3  C   UNL     1     149.234 163.470 159.869  1.00  0.00     0.336 A 
ATOM      4  O   UNL     1     150.209 164.125 159.417  1.00  0.00    -0.246 OA
ATOM      5  O   UNL     1     149.367 162.166 160.103  1.00  0.00    -0.423 OA
ATOM      6  C   UNL     1     148.374 161.419 160.579  1.00  0.00     0.142 A 
ATOM      7  C   UNL     1     148.574 160.053 160.806  1.00  0.00     0.098 A 
ATOM      8  C   UNL     1     147.530 159.262 161.308  1.00  0.00     0.161 A 
ATOM      9  C   UNL     1     146.282 159.840 161.584  1.00  0.00     0.158 A 
ATOM     10  C   UNL     1     146.076 161.209 161.358  1.00  0.00     0.062 A 
ATOM     11  C   UNL     1     147.118 162.001 160.857  1.00  0.00     0.022 A 
ENDROOT
BRANCH   9  12
ATOM     12  O   UNL     1     145.251 159.045 162.082  1.00  0.00    -0.504 OA
ATOM     13  H   UNL     1     144.284 159.209 161.826  1.00  0.00     0.293 HD
ENDBRANCH   9  12
BRANCH   8  14
ATOM     14  O   UNL     1     147.725 157.901 161.535  1.00  0.00    -0.504 OA
ATOM     15  H   UNL     1     147.319 157.434 162.338  1.00  0.00     0.293 HD
ENDBRANCH   8  14
TORSDOF 2
ENDMDL
MODEL 3
REMARK VINA RESULT:    -3.009     13.726     14.715
REMARK INTER + INTRA:          -3.185
REMARK INTER:                  -3.185
REMARK INTRA:                   0.000
REMARK UNBOUND:                 0.000
REMARK SMILES O=c1ccc2cc(O)c(O)cc2o1
REMARK SMILES IDX 4 1 3 2 2 3 1 4 13 5 12 6 11 7 9 8 7 9 6 10 5 11 8 12 10 14
REMARK H PARENT 8 13 10 15
REMARK Flexibility Score: inf
ROOT
ATOM      1  C   UNL     1     162.773 162.620 163.960  1.00  0.00     0.019 A 
ATOM      2  C   UNL     1     162.867 163.012 162.624  1.00  0.00     0.094 A 
ATOM      3  C   UNL     1     161.826 163.760 162.063  1.00  0.00     0.336 A 
ATOM      4  O   UNL     1     161.893 164.124 160.859  1.00  0.00    -0.246 OA
ATOM      5  O   UNL     1     160.765 164.091 162.794  1.00  0.00    -0.423 OA
ATOM      6  C   UNL     1     160.636 163.739 164.070  1.00  0.00     0.142 A 
ATOM      7  C   UNL     1     159.496 164.116 164.788  1.00  0.00     0.098 A 
ATOM      8  C   UNL     1     159.356 163.746 166.134  1.00  0.00     0.161 A 
ATOM      9  C   UNL     1     160.359 162.995 166.763  1.00  0.00     0.158 A 
ATOM     10  C   UNL     1     161.504 162.614 166.048  1.00  0.00     0.062 A 
ATOM     11  C   UNL     1     161.646 162.983 164.704  1.00  0.00     0.022 A 
ENDROOT
BRANCH   9  12
ATOM     12  O   UNL     1     160.211 162.632 168.101  1.00  0.00    -0.504 OA
ATOM     13  H   UNL     1     159.540 163.095 168.705  1.00  0.00     0.293 HD
ENDBRANCH   9  12
BRANCH   8  14
ATOM     14  O   UNL     1     158.221 164.120 166.852  1.00  0.00    -0.504 OA
ATOM     15  H   UNL     1     157.605 163.430 167.268  1.00  0.00     0.293 HD
ENDBRANCH   8  14
TORSDOF 2
ENDMDL
MODEL 4
REMARK VINA RESULT:    -2.473      1.284      5.058
REMARK INTER + INTRA:          -2.618
REMARK INTER:                  -2.618
REMARK INTRA:                   0.000
REMARK UNBOUND:                 0.000
REMARK SMILES O=c1ccc2cc(O)c(O)cc2o1
REMARK SMILES IDX 4 1 3 2 2 3 1 4 13 5 12 6 11 7 9 8 7 9 6 10 5 11 8 12 10 14
REMARK H PARENT 8 13 10 15
REMARK Flexibility Score: inf
ROOT
ATOM      1  C   UNL     1     145.633 160.004 162.013  1.00  0.00     0.019 A 
ATOM      2  C   UNL     1     145.868 158.673 162.356  1.00  0.00     0.094 A 
ATOM      3  C   UNL     1     147.116 158.110 162.067  1.00  0.00     0.336 A 
ATOM      4  O   UNL     1     147.348 156.910 162.371  1.00  0.00    -0.246 OA
ATOM      5  O   UNL     1     148.061 158.835 161.475  1.00  0.00    -0.423 OA
ATOM      6  C   UNL     1     147.878 160.107 161.131  1.00  0.00     0.142 A 
ATOM      7  C   UNL     1     148.909 160.819 160.509  1.00  0.00     0.098 A 
ATOM      8  C   UNL     1     148.720 162.160 160.145  1.00  0.00     0.161 A 
ATOM      9  C   UNL     1     147.495 162.791 160.403  1.00  0.00     0.158 A 
ATOM     10  C   UNL     1     146.457 162.082 161.026  1.00  0.00     0.062 A 
ATOM     11  C   UNL     1     146.644 160.743 161.391  1.00  0.00     0.022 A 
ENDROOT
BRANCH   9  12
ATOM     12  O   UNL     1     147.316 164.125 160.037  1.00  0.00    -0.504 OA
ATOM     13  H   UNL     1     147.301 164.410 159.064  1.00  0.00     0.293 HD
ENDBRANCH   9  12
BRANCH   8  14
ATOM     14  O   UNL     1     149.746 162.873 159.525  1.00  0.00    -0.504 OA
ATOM     15  H   UNL     1     149.666 163.190 158.565  1.00  0.00     0.293 HD
ENDBRANCH   8  14
TORSDOF 2
ENDMDL
MODEL 5
REMARK VINA RESULT:    -2.251     21.369     23.206
REMARK INTER + INTRA:          -2.383
REMARK INTER:                  -2.383
REMARK INTRA:                   0.000
REMARK UNBOUND:                 0.000
REMARK SMILES O=c1ccc2cc(O)c(O)cc2o1
REMARK SMILES IDX 4 1 3 2 2 3 1 4 13 5 12 6 11 7 9 8 7 9 6 10 5 11 8 12 10 14
REMARK H PARENT 8 13 10 15
REMARK Flexibility Score: inf
ROOT
ATOM      1  C   UNL     1     161.109 146.495 171.301  1.00  0.00     0.019 A 
ATOM      2  C   UNL     1     160.217 146.179 170.276  1.00  0.00     0.094 A 
ATOM      3  C   UNL     1     159.220 145.227 170.515  1.00  0.00     0.336 A 
ATOM      4  O   UNL     1     158.405 144.929 169.602  1.00  0.00    -0.246 OA
ATOM      5  O   UNL     1     159.126 144.634 171.702  1.00  0.00    -0.423 OA
ATOM      6  C   UNL     1     159.955 144.907 172.706  1.00  0.00     0.142 A 
ATOM      7  C   UNL     1     159.807 144.250 173.933  1.00  0.00     0.098 A 
ATOM      8  C   UNL     1     160.680 144.534 174.994  1.00  0.00     0.161 A 
ATOM      9  C   UNL     1     161.704 145.478 174.828  1.00  0.00     0.158 A 
ATOM     10  C   UNL     1     161.856 146.139 173.600  1.00  0.00     0.062 A 
ATOM     11  C   UNL     1     160.986 145.857 172.538  1.00  0.00     0.022 A 
ENDROOT
BRANCH   9  12
ATOM     12  O   UNL     1     162.565 145.753 175.888  1.00  0.00    -0.504 OA
ATOM     13  H   UNL     1     162.220 145.873 176.834  1.00  0.00     0.293 HD
ENDBRANCH   9  12
BRANCH   8  14
ATOM     14  O   UNL     1     160.535 143.882 176.218  1.00  0.00    -0.504 OA
ATOM     15  H   UNL     1     161.020 144.201 177.049  1.00  0.00     0.293 HD
ENDBRANCH   8  14
TORSDOF 2
ENDMDL
MODEL 6
REMARK VINA RESULT:    -2.165     14.243     15.639
REMARK INTER + INTRA:          -2.291
REMARK INTER:                  -2.291
REMARK INTRA:                   0.000
REMARK UNBOUND:                 0.000
REMARK SMILES O=c1ccc2cc(O)c(O)cc2o1
REMARK SMILES IDX 4 1 3 2 2 3 1 4 13 5 12 6 11 7 9 8 7 9 6 10 5 11 8 12 10 14
REMARK H PARENT 8 13 10 15
REMARK Flexibility Score: inf
ROOT
ATOM      1  C   UNL     1     159.664 164.123 164.617  1.00  0.00     0.019 A 
ATOM      2  C   UNL     1     159.703 163.736 165.956  1.00  0.00     0.094 A 
ATOM      3  C   UNL     1     160.796 162.991 166.414  1.00  0.00     0.336 A 
ATOM      4  O   UNL     1     160.850 162.633 167.620  1.00  0.00    -0.246 OA
ATOM      5  O   UNL     1     161.780 162.659 165.583  1.00  0.00    -0.423 OA
ATOM      6  C   UNL     1     161.781 163.008 164.299  1.00  0.00     0.142 A 
ATOM      7  C   UNL     1     162.845 162.629 163.472  1.00  0.00     0.098 A 
ATOM      8  C   UNL     1     162.850 162.994 162.118  1.00  0.00     0.161 A 
ATOM      9  C   UNL     1     161.788 163.741 161.589  1.00  0.00     0.158 A 
ATOM     10  C   UNL     1     160.719 164.124 162.413  1.00  0.00     0.062 A 
ATOM     11  C   UNL     1     160.712 163.760 163.766  1.00  0.00     0.022 A 
ENDROOT
BRANCH   9  12
ATOM     12  O   UNL     1     161.802 164.100 160.242  1.00  0.00    -0.504 OA
ATOM     13  H   UNL     1     161.720 165.068 159.950  1.00  0.00     0.293 HD
ENDBRANCH   9  12
BRANCH   8  14
ATOM     14  O   UNL     1     163.908 162.618 161.292  1.00  0.00    -0.504 OA
ATOM     15  H   UNL     1     164.732 163.199 161.188  1.00  0.00     0.293 HD
ENDBRANCH   8  14
TORSDOF 2
ENDMDL
MODEL 7
REMARK VINA RESULT:    -2.004     14.057     15.516
REMARK INTER + INTRA:          -2.121
REMARK INTER:                  -2.121
REMARK INTRA:                   0.000
REMARK UNBOUND:                 0.000
REMARK SMILES O=c1ccc2cc(O)c(O)cc2o1
REMARK SMILES IDX 4 1 3 2 2 3 1 4 13 5 12 6 11 7 9 8 7 9 6 10 5 11 8 12 10 14
REMARK H PARENT 8 13 10 15
REMARK Flexibility Score: inf
ROOT
ATOM      1  C   UNL     1     162.029 162.599 165.389  1.00  0.00     0.019 A 
ATOM      2  C   UNL     1     160.981 162.997 166.218  1.00  0.00     0.094 A 
ATOM      3  C   UNL     1     159.939 163.757 165.675  1.00  0.00     0.336 A 
ATOM      4  O   UNL     1     158.983 164.125 166.407  1.00  0.00    -0.246 OA
ATOM      5  O   UNL     1     159.951 164.093 164.387  1.00  0.00    -0.423 OA
ATOM      6  C   UNL     1     160.931 163.734 163.563  1.00  0.00     0.142 A 
ATOM      7  C   UNL     1     160.890 164.118 162.218  1.00  0.00     0.098 A 
ATOM      8  C   UNL     1     161.922 163.742 161.345  1.00  0.00     0.161 A 
ATOM      9  C   UNL     1     162.999 162.980 161.819  1.00  0.00     0.158 A 
ATOM     10  C   UNL     1     163.045 162.592 163.167  1.00  0.00     0.062 A 
ATOM     11  C   UNL     1     162.016 162.966 164.040  1.00  0.00     0.022 A 
ENDROOT
BRANCH   9  12
ATOM     12  O   UNL     1     164.019 162.611 160.944  1.00  0.00    -0.504 OA
ATOM     13  H   UNL     1     164.237 161.637 160.764  1.00  0.00     0.293 HD
ENDBRANCH   9  12
BRANCH   8  14
ATOM     14  O   UNL     1     161.883 164.123 160.004  1.00  0.00    -0.504 OA
ATOM     15  H   UNL     1     161.005 164.270 159.520  1.00  0.00     0.293 HD
ENDBRANCH   8  14
TORSDOF 2
ENDMDL
MODEL 8
REMARK VINA RESULT:    -1.709      1.142      4.577
REMARK INTER + INTRA:          -1.809
REMARK INTER:                  -1.809
REMARK INTRA:                   0.000
REMARK UNBOUND:                 0.000
REMARK SMILES O=c1ccc2cc(O)c(O)cc2o1
REMARK SMILES IDX 4 1 3 2 2 3 1 4 13 5 12 6 11 7 9 8 7 9 6 10 5 11 8 12 10 14
REMARK H PARENT 8 13 10 15
REMARK Flexibility Score: inf
ROOT
ATOM      1  C   UNL     1     148.367 158.862 161.034  1.00  0.00     0.019 A 
ATOM      2  C   UNL     1     147.570 157.982 161.766  1.00  0.00     0.094 A 
ATOM      3  C   UNL     1     146.362 158.445 162.298  1.00  0.00     0.336 A 
ATOM      4  O   UNL     1     145.628 157.666 162.960  1.00  0.00    -0.246 OA
ATOM      5  O   UNL     1     145.982 159.706 162.108  1.00  0.00    -0.423 OA
ATOM      6  C   UNL     1     146.712 160.578 161.417  1.00  0.00     0.142 A 
ATOM      7  C   UNL     1     146.261 161.892 161.251  1.00  0.00     0.098 A 
ATOM      8  C   UNL     1     147.028 162.814 160.524  1.00  0.00     0.161 A 
ATOM      9  C   UNL     1     148.251 162.421 159.961  1.00  0.00     0.158 A 
ATOM     10  C   UNL     1     148.708 161.105 160.124  1.00  0.00     0.062 A 
ATOM     11  C   UNL     1     147.943 160.182 160.850  1.00  0.00     0.022 A 
ENDROOT
BRANCH   9  12
ATOM     12  O   UNL     1     149.006 163.345 159.240  1.00  0.00    -0.504 OA
ATOM     13  H   UNL     1     148.892 164.343 159.376  1.00  0.00     0.293 HD
ENDBRANCH   9  12
BRANCH   8  14
ATOM     14  O   UNL     1     146.581 164.124 160.357  1.00  0.00    -0.504 OA
ATOM     15  H   UNL     1     147.165 164.918 160.595  1.00  0.00     0.293 HD
ENDBRANCH   8  14
TORSDOF 2
ENDMDL
