MODEL 1
REMARK VINA RESULT:    -4.342      0.000      0.000
REMARK INTER + INTRA:          -7.135
REMARK INTER:                  -6.626
REMARK INTRA:                  -0.509
REMARK UNBOUND:                -0.509
REMARK SMILES CCCCCCCCCCC(=O)[O-]
REMARK SMILES IDX 7 1 8 2 9 3 10 4 11 5 12 6 13 7 6 8 5 9 4 10 3 11 2 12 1 13
REMARK H PARENT
REMARK Flexibility Score: inf
ROOT
ATOM      1  C   UNL     1      -4.699  -2.871   4.497  1.00  0.00     0.000 C 
ENDROOT
BRANCH   1   2
ATOM      2  C   UNL     1      -4.212  -2.142   5.760  1.00  0.00     0.000 C 
BRANCH   2   3
ATOM      3  C   UNL     1      -3.718  -0.717   5.465  1.00  0.00     0.006 C 
BRANCH   3   4
ATOM      4  C   UNL     1      -2.438  -0.363   6.233  1.00  0.00     0.053 C 
BRANCH   4   5
ATOM      5  C   UNL     1      -1.499   0.405   5.358  1.00  0.00     0.041 C 
ATOM      6  O   UNL     1      -1.788   1.573   4.989  1.00  0.00    -0.550 OA
ATOM      7  O   UNL     1      -0.280  -0.151   4.990  1.00  0.00    -0.550 OA
ENDBRANCH   4   5
ENDBRANCH   3   4
ENDBRANCH   2   3
ENDBRANCH   1   2
BRANCH   1   8
ATOM      8  C   UNL     1      -4.658  -1.983   3.241  1.00  0.00     0.000 C 
BRANCH   8   9
ATOM      9  C   UNL     1      -5.312  -2.589   1.982  1.00  0.00    -0.000 C 
BRANCH   9  10
ATOM     10  C   UNL     1      -6.261  -3.773   2.240  1.00  0.00    -0.000 C 
BRANCH  10  11
ATOM     11  C   UNL     1      -5.665  -5.122   1.804  1.00  0.00    -0.000 C 
BRANCH  11  12
ATOM     12  C   UNL     1      -4.768  -4.996   0.563  1.00  0.00    -0.003 C 
ATOM     13  C   UNL     1      -5.493  -5.361  -0.733  1.00  0.00     0.004 C 
ENDBRANCH  11  12
ENDBRANCH  10  11
ENDBRANCH   9  10
ENDBRANCH   8   9
ENDBRANCH   1   8
TORSDOF 9
ENDMDL
MODEL 2
REMARK VINA RESULT:    -4.263      4.047      6.975
REMARK INTER + INTRA:          -7.014
REMARK INTER:                  -6.512
REMARK INTRA:                  -0.502
REMARK UNBOUND:                -0.509
REMARK SMILES CCCCCCCCCCC(=O)[O-]
REMARK SMILES IDX 7 1 8 2 9 3 10 4 11 5 12 6 13 7 6 8 5 9 4 10 3 11 2 12 1 13
REMARK H PARENT
REMARK Flexibility Score: inf
ROOT
ATOM      1  C   UNL     1      -5.408  -3.907   3.107  1.00  0.00     0.000 C 
ENDROOT
BRANCH   1   2
ATOM      2  C   UNL     1      -5.394  -2.876   1.966  1.00  0.00     0.000 C 
BRANCH   2   3
ATOM      3  C   UNL     1      -4.712  -3.411   0.696  1.00  0.00     0.006 C 
BRANCH   3   4
ATOM      4  C   UNL     1      -4.728  -4.944   0.616  1.00  0.00     0.053 C 
BRANCH   4   5
ATOM      5  C   UNL     1      -5.786  -5.405  -0.335  1.00  0.00     0.041 C 
ATOM      6  O   UNL     1      -5.495  -5.653  -1.535  1.00  0.00    -0.550 OA
ATOM      7  O   UNL     1      -7.084  -5.610   0.114  1.00  0.00    -0.550 OA
ENDBRANCH   4   5
ENDBRANCH   3   4
ENDBRANCH   2   3
ENDBRANCH   1   2
BRANCH   1   8
ATOM      8  C   UNL     1      -4.804  -3.361   4.413  1.00  0.00     0.000 C 
BRANCH   8   9
ATOM      9  C   UNL     1      -4.858  -1.828   4.574  1.00  0.00    -0.000 C 
BRANCH   9  10
ATOM     10  C   UNL     1      -3.494  -1.138   4.756  1.00  0.00    -0.000 C 
BRANCH  10  11
ATOM     11  C   UNL     1      -3.104  -0.967   6.234  1.00  0.00    -0.000 C 
BRANCH  11  12
ATOM     12  C   UNL     1      -1.887  -0.048   6.419  1.00  0.00    -0.003 C 
ATOM     13  C   UNL     1      -1.630   0.847   5.206  1.00  0.00     0.004 C 
ENDBRANCH  11  12
ENDBRANCH  10  11
ENDBRANCH   9  10
ENDBRANCH   8   9
ENDBRANCH   1   8
TORSDOF 9
ENDMDL
MODEL 3
REMARK VINA RESULT:    -4.239      4.227      7.324
REMARK INTER + INTRA:          -6.979
REMARK INTER:                  -6.700
REMARK INTRA:                  -0.279
REMARK UNBOUND:                -0.509
REMARK SMILES CCCCCCCCCCC(=O)[O-]
REMARK SMILES IDX 7 1 8 2 9 3 10 4 11 5 12 6 13 7 6 8 5 9 4 10 3 11 2 12 1 13
REMARK H PARENT
REMARK Flexibility Score: inf
ROOT
ATOM      1  C   UNL     1      -5.100  -3.357   2.351  1.00  0.00     0.000 C 
ENDROOT
BRANCH   1   2
ATOM      2  C   UNL     1      -4.756  -3.562   0.865  1.00  0.00     0.000 C 
BRANCH   2   3
ATOM      3  C   UNL     1      -4.778  -5.042   0.454  1.00  0.00     0.006 C 
BRANCH   3   4
ATOM      4  C   UNL     1      -6.067  -5.433  -0.282  1.00  0.00     0.053 C 
BRANCH   4   5
ATOM      5  C   UNL     1      -5.908  -5.233  -1.755  1.00  0.00     0.041 C 
ATOM      6  O   UNL     1      -6.321  -4.175  -2.299  1.00  0.00    -0.550 OA
ATOM      7  O   UNL     1      -5.259  -6.193  -2.522  1.00  0.00    -0.550 OA
ENDBRANCH   4   5
ENDBRANCH   3   4
ENDBRANCH   2   3
ENDBRANCH   1   2
BRANCH   1   8
ATOM      8  C   UNL     1      -4.769  -1.939   2.850  1.00  0.00     0.000 C 
BRANCH   8   9
ATOM      9  C   UNL     1      -5.054  -1.683   4.344  1.00  0.00    -0.000 C 
BRANCH   9  10
ATOM     10  C   UNL     1      -3.831  -1.793   5.274  1.00  0.00    -0.000 C 
BRANCH  10  11
ATOM     11  C   UNL     1      -3.272  -0.422   5.689  1.00  0.00    -0.000 C 
BRANCH  11  12
ATOM     12  C   UNL     1      -2.013  -0.035   4.898  1.00  0.00    -0.003 C 
ATOM     13  C   UNL     1      -0.765   0.057   5.776  1.00  0.00     0.004 C 
ENDBRANCH  11  12
ENDBRANCH  10  11
ENDBRANCH   9  10
ENDBRANCH   8   9
ENDBRANCH   1   8
TORSDOF 9
ENDMDL
MODEL 4
REMARK VINA RESULT:    -4.185      3.253      6.681
REMARK INTER + INTRA:          -6.897
REMARK INTER:                  -6.410
REMARK INTRA:                  -0.487
REMARK UNBOUND:                -0.509
REMARK SMILES CCCCCCCCCCC(=O)[O-]
REMARK SMILES IDX 7 1 8 2 9 3 10 4 11 5 12 6 13 7 6 8 5 9 4 10 3 11 2 12 1 13
REMARK H PARENT
REMARK Flexibility Score: inf
ROOT
ATOM      1  C   UNL     1      -4.419  -1.772   4.573  1.00  0.00     0.000 C 
ENDROOT
BRANCH   1   2
ATOM      2  C   UNL     1      -4.978  -3.185   4.811  1.00  0.00     0.000 C 
BRANCH   2   3
ATOM      3  C   UNL     1      -5.174  -3.969   3.504  1.00  0.00     0.006 C 
BRANCH   3   4
ATOM      4  C   UNL     1      -4.952  -3.104   2.255  1.00  0.00     0.053 C 
BRANCH   4   5
ATOM      5  C   UNL     1      -4.762  -3.967   1.049  1.00  0.00     0.041 C 
ATOM      6  O   UNL     1      -4.718  -5.220   1.167  1.00  0.00    -0.550 OA
ATOM      7  O   UNL     1      -4.682  -3.391  -0.213  1.00  0.00    -0.550 OA
ENDBRANCH   4   5
ENDBRANCH   3   4
ENDBRANCH   2   3
ENDBRANCH   1   2
BRANCH   1   8
ATOM      8  C   UNL     1      -3.363  -1.364   5.616  1.00  0.00     0.000 C 
BRANCH   8   9
ATOM      9  C   UNL     1      -3.229   0.153   5.861  1.00  0.00    -0.000 C 
BRANCH   9  10
ATOM     10  C   UNL     1      -1.980   0.810   5.245  1.00  0.00    -0.000 C 
BRANCH  10  11
ATOM     11  C   UNL     1      -0.678   0.075   5.608  1.00  0.00    -0.000 C 
BRANCH  11  12
ATOM     12  C   UNL     1      -0.338   0.183   7.103  1.00  0.00    -0.003 C 
ATOM     13  C   UNL     1      -0.330  -1.174   7.808  1.00  0.00     0.004 C 
ENDBRANCH  11  12
ENDBRANCH  10  11
ENDBRANCH   9  10
ENDBRANCH   8   9
ENDBRANCH   1   8
TORSDOF 9
ENDMDL
MODEL 5
REMARK VINA RESULT:    -4.169      3.360      6.656
REMARK INTER + INTRA:          -6.872
REMARK INTER:                  -6.508
REMARK INTRA:                  -0.363
REMARK UNBOUND:                -0.509
REMARK SMILES CCCCCCCCCCC(=O)[O-]
REMARK SMILES IDX 7 1 8 2 9 3 10 4 11 5 12 6 13 7 6 8 5 9 4 10 3 11 2 12 1 13
REMARK H PARENT
REMARK Flexibility Score: inf
ROOT
ATOM      1  C   UNL     1      -4.741  -3.309   5.272  1.00  0.00     0.000 C 
ENDROOT
BRANCH   1   2
ATOM      2  C   UNL     1      -5.143  -4.405   4.271  1.00  0.00     0.000 C 
BRANCH   2   3
ATOM      3  C   UNL     1      -5.229  -3.882   2.828  1.00  0.00     0.006 C 
BRANCH   3   4
ATOM      4  C   UNL     1      -5.540  -4.992   1.814  1.00  0.00     0.053 C 
BRANCH   4   5
ATOM      5  C   UNL     1      -5.023  -4.621   0.461  1.00  0.00     0.041 C 
ATOM      6  O   UNL     1      -4.494  -3.494   0.271  1.00  0.00    -0.550 OA
ATOM      7  O   UNL     1      -5.080  -5.539  -0.581  1.00  0.00    -0.550 OA
ENDBRANCH   4   5
ENDBRANCH   3   4
ENDBRANCH   2   3
ENDBRANCH   1   2
BRANCH   1   8
ATOM      8  C   UNL     1      -4.691  -1.908   4.637  1.00  0.00     0.000 C 
BRANCH   8   9
ATOM      9  C   UNL     1      -4.557  -0.737   5.631  1.00  0.00    -0.000 C 
BRANCH   9  10
ATOM     10  C   UNL     1      -3.145  -0.521   6.206  1.00  0.00    -0.000 C 
BRANCH  10  11
ATOM     11  C   UNL     1      -2.150   0.011   5.161  1.00  0.00    -0.000 C 
BRANCH  11  12
ATOM     12  C   UNL     1      -1.029   0.853   5.791  1.00  0.00    -0.003 C 
ATOM     13  C   UNL     1      -0.367   0.162   6.982  1.00  0.00     0.004 C 
ENDBRANCH  11  12
ENDBRANCH  10  11
ENDBRANCH   9  10
ENDBRANCH   8   9
ENDBRANCH   1   8
TORSDOF 9
ENDMDL
MODEL 6
REMARK VINA RESULT:    -4.031      4.902      6.850
REMARK INTER + INTRA:          -6.662
REMARK INTER:                  -5.452
REMARK INTRA:                  -1.209
REMARK UNBOUND:                -0.509
REMARK SMILES CCCCCCCCCCC(=O)[O-]
REMARK SMILES IDX 7 1 8 2 9 3 10 4 11 5 12 6 13 7 6 8 5 9 4 10 3 11 2 12 1 13
REMARK H PARENT
REMARK Flexibility Score: inf
ROOT
ATOM      1  C   UNL     1      -5.670  -2.781   0.263  1.00  0.00     0.000 C 
ENDROOT
BRANCH   1   2
ATOM      2  C   UNL     1      -4.620  -3.859   0.585  1.00  0.00     0.000 C 
BRANCH   2   3
ATOM      3  C   UNL     1      -5.076  -5.267   0.173  1.00  0.00     0.006 C 
BRANCH   3   4
ATOM      4  C   UNL     1      -6.499  -5.284  -0.403  1.00  0.00     0.053 C 
BRANCH   4   5
ATOM      5  C   UNL     1      -6.490  -5.831  -1.795  1.00  0.00     0.041 C 
ATOM      6  O   UNL     1      -7.574  -6.026  -2.406  1.00  0.00    -0.550 OA
ATOM      7  O   UNL     1      -5.284  -6.077  -2.439  1.00  0.00    -0.550 OA
ENDBRANCH   4   5
ENDBRANCH   3   4
ENDBRANCH   2   3
ENDBRANCH   1   2
BRANCH   1   8
ATOM      8  C   UNL     1      -5.775  -1.704   1.358  1.00  0.00     0.000 C 
BRANCH   8   9
ATOM      9  C   UNL     1      -4.913  -1.952   2.612  1.00  0.00    -0.000 C 
BRANCH   9  10
ATOM     10  C   UNL     1      -5.652  -2.595   3.801  1.00  0.00    -0.000 C 
BRANCH  10  11
ATOM     11  C   UNL     1      -4.927  -3.833   4.355  1.00  0.00    -0.000 C 
BRANCH  11  12
ATOM     12  C   UNL     1      -5.608  -5.148   3.944  1.00  0.00    -0.003 C 
ATOM     13  C   UNL     1      -6.985  -4.931   3.318  1.00  0.00     0.004 C 
ENDBRANCH  11  12
ENDBRANCH  10  11
ENDBRANCH   9  10
ENDBRANCH   8   9
ENDBRANCH   1   8
TORSDOF 9
ENDMDL
MODEL 7
REMARK VINA RESULT:    -3.978      4.169      5.296
REMARK INTER + INTRA:          -6.580
REMARK INTER:                  -5.425
REMARK INTRA:                  -1.155
REMARK UNBOUND:                -0.509
REMARK SMILES CCCCCCCCCCC(=O)[O-]
REMARK SMILES IDX 7 1 8 2 9 3 10 4 11 5 12 6 13 7 6 8 5 9 4 10 3 11 2 12 1 13
REMARK H PARENT
REMARK Flexibility Score: inf
ROOT
ATOM      1  C   UNL     1      -5.179  -2.213   1.808  1.00  0.00     0.000 C 
ENDROOT
BRANCH   1   2
ATOM      2  C   UNL     1      -6.598  -1.643   1.649  1.00  0.00     0.000 C 
BRANCH   2   3
ATOM      3  C   UNL     1      -6.738  -0.746   0.409  1.00  0.00     0.006 C 
BRANCH   3   4
ATOM      4  C   UNL     1      -6.052  -1.337  -0.830  1.00  0.00     0.053 C 
BRANCH   4   5
ATOM      5  C   UNL     1      -5.507  -0.246  -1.695  1.00  0.00     0.041 C 
ATOM      6  O   UNL     1      -5.703   0.961  -1.393  1.00  0.00    -0.550 OA
ATOM      7  O   UNL     1      -4.738  -0.560  -2.809  1.00  0.00    -0.550 OA
ENDBRANCH   4   5
ENDBRANCH   3   4
ENDBRANCH   2   3
ENDBRANCH   1   2
BRANCH   1   8
ATOM      8  C   UNL     1      -5.124  -3.426   2.754  1.00  0.00     0.000 C 
BRANCH   8   9
ATOM      9  C   UNL     1      -5.284  -4.801   2.073  1.00  0.00    -0.000 C 
BRANCH   9  10
ATOM     10  C   UNL     1      -4.647  -4.921   0.677  1.00  0.00    -0.000 C 
BRANCH  10  11
ATOM     11  C   UNL     1      -5.661  -5.314  -0.411  1.00  0.00    -0.000 C 
BRANCH  11  12
ATOM     12  C   UNL     1      -7.098  -5.399   0.127  1.00  0.00    -0.003 C 
ATOM     13  C   UNL     1      -8.107  -4.672  -0.762  1.00  0.00     0.004 C 
ENDBRANCH  11  12
ENDBRANCH  10  11
ENDBRANCH   9  10
ENDBRANCH   8   9
ENDBRANCH   1   8
TORSDOF 9
ENDMDL
MODEL 8
REMARK VINA RESULT:    -3.911      3.088      5.379
REMARK INTER + INTRA:          -6.478
REMARK INTER:                  -5.967
REMARK INTRA:                  -0.512
REMARK UNBOUND:                -0.509
REMARK SMILES CCCCCCCCCCC(=O)[O-]
REMARK SMILES IDX 7 1 8 2 9 3 10 4 11 5 12 6 13 7 6 8 5 9 4 10 3 11 2 12 1 13
REMARK H PARENT
REMARK Flexibility Score: inf
ROOT
ATOM      1  C   UNL     1      -0.355  -0.183   6.889  1.00  0.00     0.000 C 
ENDROOT
BRANCH   1   2
ATOM      2  C   UNL     1       0.801  -1.186   6.733  1.00  0.00     0.000 C 
BRANCH   2   3
ATOM      3  C   UNL     1       1.393  -1.188   5.315  1.00  0.00     0.006 C 
BRANCH   3   4
ATOM      4  C   UNL     1       2.569  -2.163   5.166  1.00  0.00     0.053 C 
BRANCH   4   5
ATOM      5  C   UNL     1       2.980  -2.269   3.732  1.00  0.00     0.041 C 
ATOM      6  O   UNL     1       2.126  -2.136   2.816  1.00  0.00    -0.550 OA
ATOM      7  O   UNL     1       4.316  -2.465   3.403  1.00  0.00    -0.550 OA
ENDBRANCH   4   5
ENDBRANCH   3   4
ENDBRANCH   2   3
ENDBRANCH   1   2
BRANCH   1   8
ATOM      8  C   UNL     1      -0.810   0.417   5.546  1.00  0.00     0.000 C 
BRANCH   8   9
ATOM      9  C   UNL     1      -2.263   0.098   5.140  1.00  0.00    -0.000 C 
BRANCH   9  10
ATOM     10  C   UNL     1      -3.011  -0.868   6.078  1.00  0.00    -0.000 C 
BRANCH  10  11
ATOM     11  C   UNL     1      -4.445  -1.165   5.609  1.00  0.00    -0.000 C 
BRANCH  11  12
ATOM     12  C   UNL     1      -4.527  -2.419   4.724  1.00  0.00    -0.003 C 
ATOM     13  C   UNL     1      -4.705  -2.088   3.243  1.00  0.00     0.004 C 
ENDBRANCH  11  12
ENDBRANCH  10  11
ENDBRANCH   9  10
ENDBRANCH   8   9
ENDBRANCH   1   8
TORSDOF 9
ENDMDL
MODEL 9
REMARK VINA RESULT:    -3.807      3.207      5.847
REMARK INTER + INTRA:          -6.320
REMARK INTER:                  -5.527
REMARK INTRA:                  -0.793
REMARK UNBOUND:                -0.509
REMARK SMILES CCCCCCCCCCC(=O)[O-]
REMARK SMILES IDX 7 1 8 2 9 3 10 4 11 5 12 6 13 7 6 8 5 9 4 10 3 11 2 12 1 13
REMARK H PARENT
REMARK Flexibility Score: inf
ROOT
ATOM      1  C   UNL     1      -6.029  -4.441   2.983  1.00  0.00     0.000 C 
ENDROOT
BRANCH   1   2
ATOM      2  C   UNL     1      -5.217  -4.762   1.717  1.00  0.00     0.000 C 
BRANCH   2   3
ATOM      3  C   UNL     1      -4.850  -3.503   0.916  1.00  0.00     0.006 C 
BRANCH   3   4
ATOM      4  C   UNL     1      -5.829  -2.345   1.153  1.00  0.00     0.053 C 
BRANCH   4   5
ATOM      5  C   UNL     1      -5.914  -1.477  -0.062  1.00  0.00     0.041 C 
ATOM      6  O   UNL     1      -6.306  -0.285   0.037  1.00  0.00    -0.550 OA
ATOM      7  O   UNL     1      -5.512  -1.969  -1.298  1.00  0.00    -0.550 OA
ENDBRANCH   4   5
ENDBRANCH   3   4
ENDBRANCH   2   3
ENDBRANCH   1   2
BRANCH   1   8
ATOM      8  C   UNL     1      -5.329  -4.900   4.275  1.00  0.00     0.000 C 
BRANCH   8   9
ATOM      9  C   UNL     1      -4.813  -3.766   5.184  1.00  0.00    -0.000 C 
BRANCH   9  10
ATOM     10  C   UNL     1      -5.183  -2.342   4.733  1.00  0.00    -0.000 C 
BRANCH  10  11
ATOM     11  C   UNL     1      -3.960  -1.515   4.302  1.00  0.00    -0.000 C 
BRANCH  11  12
ATOM     12  C   UNL     1      -3.286  -0.800   5.483  1.00  0.00    -0.003 C 
ATOM     13  C   UNL     1      -2.054   0.002   5.066  1.00  0.00     0.004 C 
ENDBRANCH  11  12
ENDBRANCH  10  11
ENDBRANCH   9  10
ENDBRANCH   8   9
ENDBRANCH   1   8
TORSDOF 9
ENDMDL
