MODEL 1
REMARK VINA RESULT:    -5.382      0.000      0.000
REMARK INTER + INTRA:         -17.779
REMARK INTER:                 -13.564
REMARK INTRA:                  -4.215
REMARK UNBOUND:                -4.215
REMARK SMILES CCCCCCCCCCCCCCCCCCCCCCCCCCCC(=O)[O-]
REMARK SMILES IDX 15 1 16 2 17 3 18 4 19 5 20 6 21 7 22 8 23 9 24 10 25 11
REMARK SMILES IDX 26 12 27 13 28 14 29 15 30 16 14 17 13 18 12 19 11 20 10 21
REMARK SMILES IDX 9 22 8 23 7 24 6 25 5 26 4 27 3 28 2 29 1 30
REMARK H PARENT
REMARK Flexibility Score: inf
ROOT
ATOM      1  C   UNL     1      15.373 -30.357  23.224  1.00  0.00     0.000 C 
ENDROOT
BRANCH   1   2
ATOM      2  C   UNL     1      15.795 -29.498  22.020  1.00  0.00     0.000 C 
BRANCH   2   3
ATOM      3  C   UNL     1      17.241 -29.777  21.568  1.00  0.00     0.000 C 
BRANCH   3   4
ATOM      4  C   UNL     1      17.336 -30.932  20.557  1.00  0.00     0.000 C 
BRANCH   4   5
ATOM      5  C   UNL     1      17.963 -32.199  21.167  1.00  0.00     0.000 C 
BRANCH   5   6
ATOM      6  C   UNL     1      19.394 -32.447  20.663  1.00  0.00     0.000 C 
BRANCH   6   7
ATOM      7  C   UNL     1      20.420 -32.513  21.807  1.00  0.00     0.000 C 
BRANCH   7   8
ATOM      8  C   UNL     1      21.470 -31.392  21.732  1.00  0.00     0.000 C 
BRANCH   8   9
ATOM      9  C   UNL     1      20.963 -29.987  22.109  1.00  0.00     0.000 C 
BRANCH   9  10
ATOM     10  C   UNL     1      20.759 -29.044  20.905  1.00  0.00     0.000 C 
BRANCH  10  11
ATOM     11  C   UNL     1      20.332 -27.632  21.331  1.00  0.00     0.000 C 
BRANCH  11  12
ATOM     12  C   UNL     1      20.406 -26.649  20.151  1.00  0.00     0.006 C 
BRANCH  12  13
ATOM     13  C   UNL     1      21.264 -25.413  20.479  1.00  0.00     0.053 C 
BRANCH  13  14
ATOM     14  C   UNL     1      22.564 -25.394  19.725  1.00  0.00     0.041 C 
ATOM     15  O   UNL     1      23.092 -26.466  19.327  1.00  0.00    -0.550 OA
ATOM     16  O   UNL     1      23.219 -24.189  19.507  1.00  0.00    -0.550 OA
ENDBRANCH  13  14
ENDBRANCH  12  13
ENDBRANCH  11  12
ENDBRANCH  10  11
ENDBRANCH   9  10
ENDBRANCH   8   9
ENDBRANCH   7   8
ENDBRANCH   6   7
ENDBRANCH   5   6
ENDBRANCH   4   5
ENDBRANCH   3   4
ENDBRANCH   2   3
ENDBRANCH   1   2
BRANCH   1  17
ATOM     17  C   UNL     1      14.110 -31.212  23.000  1.00  0.00     0.000 C 
BRANCH  17  18
ATOM     18  C   UNL     1      13.275 -30.792  21.769  1.00  0.00     0.000 C 
BRANCH  18  19
ATOM     19  C   UNL     1      13.425 -31.734  20.561  1.00  0.00     0.000 C 
BRANCH  19  20
ATOM     20  C   UNL     1      14.276 -32.975  20.878  1.00  0.00     0.000 C 
BRANCH  20  21
ATOM     21  C   UNL     1      14.762 -33.647  19.586  1.00  0.00     0.000 C 
BRANCH  21  22
ATOM     22  C   UNL     1      15.489 -34.982  19.830  1.00  0.00    -0.000 C 
BRANCH  22  23
ATOM     23  C   UNL     1      16.871 -35.104  19.163  1.00  0.00    -0.000 C 
BRANCH  23  24
ATOM     24  C   UNL     1      17.417 -36.541  19.179  1.00  0.00    -0.000 C 
BRANCH  24  25
ATOM     25  C   UNL     1      17.691 -37.059  20.603  1.00  0.00    -0.000 C 
BRANCH  25  26
ATOM     26  C   UNL     1      18.564 -36.141  21.481  1.00  0.00    -0.000 C 
BRANCH  26  27
ATOM     27  C   UNL     1      18.067 -35.954  22.928  1.00  0.00    -0.000 C 
BRANCH  27  28
ATOM     28  C   UNL     1      16.922 -34.935  23.099  1.00  0.00    -0.000 C 
BRANCH  28  29
ATOM     29  C   UNL     1      16.651 -34.506  24.551  1.00  0.00    -0.003 C 
ATOM     30  C   UNL     1      16.919 -35.620  25.563  1.00  0.00     0.004 C 
ENDBRANCH  28  29
ENDBRANCH  27  28
ENDBRANCH  26  27
ENDBRANCH  25  26
ENDBRANCH  24  25
ENDBRANCH  23  24
ENDBRANCH  22  23
ENDBRANCH  21  22
ENDBRANCH  20  21
ENDBRANCH  19  20
ENDBRANCH  18  19
ENDBRANCH  17  18
ENDBRANCH   1  17
TORSDOF 26
ENDMDL
MODEL 2
REMARK VINA RESULT:    -5.366      3.334      8.116
REMARK INTER + INTRA:         -17.737
REMARK INTER:                 -13.616
REMARK INTRA:                  -4.122
REMARK UNBOUND:                -4.215
REMARK SMILES CCCCCCCCCCCCCCCCCCCCCCCCCCCC(=O)[O-]
REMARK SMILES IDX 15 1 16 2 17 3 18 4 19 5 20 6 21 7 22 8 23 9 24 10 25 11
REMARK SMILES IDX 26 12 27 13 28 14 29 15 30 16 14 17 13 18 12 19 11 20 10 21
REMARK SMILES IDX 9 22 8 23 7 24 6 25 5 26 4 27 3 28 2 29 1 30
REMARK H PARENT
REMARK Flexibility Score: inf
ROOT
ATOM      1  C   UNL     1      14.283 -28.888  23.044  1.00  0.00     0.000 C 
ENDROOT
BRANCH   1   2
ATOM      2  C   UNL     1      12.889 -29.502  22.838  1.00  0.00     0.000 C 
BRANCH   2   3
ATOM      3  C   UNL     1      12.947 -30.973  22.385  1.00  0.00     0.000 C 
BRANCH   3   4
ATOM      4  C   UNL     1      12.614 -31.148  20.893  1.00  0.00     0.000 C 
BRANCH   4   5
ATOM      5  C   UNL     1      13.562 -32.136  20.190  1.00  0.00     0.000 C 
BRANCH   5   6
ATOM      6  C   UNL     1      14.456 -32.900  21.181  1.00  0.00     0.000 C 
BRANCH   6   7
ATOM      7  C   UNL     1      14.948 -34.245  20.619  1.00  0.00     0.000 C 
BRANCH   7   8
ATOM      8  C   UNL     1      16.034 -34.081  19.543  1.00  0.00     0.000 C 
BRANCH   8   9
ATOM      9  C   UNL     1      16.857 -35.347  19.237  1.00  0.00     0.000 C 
BRANCH   9  10
ATOM     10  C   UNL     1      17.222 -36.181  20.484  1.00  0.00     0.000 C 
BRANCH  10  11
ATOM     11  C   UNL     1      18.354 -35.545  21.304  1.00  0.00     0.000 C 
BRANCH  11  12
ATOM     12  C   UNL     1      18.166 -35.807  22.807  1.00  0.00     0.006 C 
BRANCH  12  13
ATOM     13  C   UNL     1      16.920 -35.098  23.368  1.00  0.00     0.053 C 
BRANCH  13  14
ATOM     14  C   UNL     1      16.894 -35.076  24.871  1.00  0.00     0.041 C 
ATOM     15  O   UNL     1      16.920 -33.984  25.498  1.00  0.00    -0.550 OA
ATOM     16  O   UNL     1      16.893 -36.270  25.580  1.00  0.00    -0.550 OA
ENDBRANCH  13  14
ENDBRANCH  12  13
ENDBRANCH  11  12
ENDBRANCH  10  11
ENDBRANCH   9  10
ENDBRANCH   8   9
ENDBRANCH   7   8
ENDBRANCH   6   7
ENDBRANCH   5   6
ENDBRANCH   4   5
ENDBRANCH   3   4
ENDBRANCH   2   3
ENDBRANCH   1   2
BRANCH   1  17
ATOM     17  C   UNL     1      15.146 -28.795  21.770  1.00  0.00     0.000 C 
BRANCH  17  18
ATOM     18  C   UNL     1      16.501 -29.532  21.873  1.00  0.00     0.000 C 
BRANCH  18  19
ATOM     19  C   UNL     1      16.595 -30.505  23.062  1.00  0.00     0.000 C 
BRANCH  19  20
ATOM     20  C   UNL     1      17.613 -31.633  22.826  1.00  0.00     0.000 C 
BRANCH  20  21
ATOM     21  C   UNL     1      18.106 -31.626  21.372  1.00  0.00     0.000 C 
BRANCH  21  22
ATOM     22  C   UNL     1      19.549 -32.140  21.216  1.00  0.00    -0.000 C 
BRANCH  22  23
ATOM     23  C   UNL     1      20.570 -31.086  20.749  1.00  0.00    -0.000 C 
BRANCH  23  24
ATOM     24  C   UNL     1      20.776 -29.958  21.773  1.00  0.00    -0.000 C 
BRANCH  24  25
ATOM     25  C   UNL     1      20.956 -28.579  21.112  1.00  0.00    -0.000 C 
BRANCH  25  26
ATOM     26  C   UNL     1      19.649 -27.819  20.809  1.00  0.00    -0.000 C 
BRANCH  26  27
ATOM     27  C   UNL     1      19.818 -26.314  20.526  1.00  0.00    -0.000 C 
BRANCH  27  28
ATOM     28  C   UNL     1      21.185 -25.909  19.936  1.00  0.00    -0.000 C 
BRANCH  28  29
ATOM     29  C   UNL     1      22.014 -24.960  20.819  1.00  0.00    -0.003 C 
ATOM     30  C   UNL     1      23.147 -24.273  20.056  1.00  0.00     0.004 C 
ENDBRANCH  28  29
ENDBRANCH  27  28
ENDBRANCH  26  27
ENDBRANCH  25  26
ENDBRANCH  24  25
ENDBRANCH  23  24
ENDBRANCH  22  23
ENDBRANCH  21  22
ENDBRANCH  20  21
ENDBRANCH  19  20
ENDBRANCH  18  19
ENDBRANCH  17  18
ENDBRANCH   1  17
TORSDOF 26
ENDMDL
MODEL 3
REMARK VINA RESULT:    -5.308      1.707      3.657
REMARK INTER + INTRA:         -17.591
REMARK INTER:                 -13.712
REMARK INTRA:                  -3.880
REMARK UNBOUND:                -4.215
REMARK SMILES CCCCCCCCCCCCCCCCCCCCCCCCCCCC(=O)[O-]
REMARK SMILES IDX 15 1 16 2 17 3 18 4 19 5 20 6 21 7 22 8 23 9 24 10 25 11
REMARK SMILES IDX 26 12 27 13 28 14 29 15 30 16 14 17 13 18 12 19 11 20 10 21
REMARK SMILES IDX 9 22 8 23 7 24 6 25 5 26 4 27 3 28 2 29 1 30
REMARK H PARENT
REMARK Flexibility Score: inf
ROOT
ATOM      1  C   UNL     1      13.108 -31.452  20.608  1.00  0.00     0.000 C 
ENDROOT
BRANCH   1   2
ATOM      2  C   UNL     1      13.643 -32.628  19.773  1.00  0.00     0.000 C 
BRANCH   2   3
ATOM      3  C   UNL     1      14.976 -33.181  20.311  1.00  0.00     0.000 C 
BRANCH   3   4
ATOM      4  C   UNL     1      15.090 -34.707  20.160  1.00  0.00     0.000 C 
BRANCH   4   5
ATOM      5  C   UNL     1      16.446 -35.142  19.574  1.00  0.00     0.000 C 
BRANCH   5   6
ATOM      6  C   UNL     1      17.387 -33.951  19.325  1.00  0.00     0.000 C 
BRANCH   6   7
ATOM      7  C   UNL     1      18.684 -34.040  20.148  1.00  0.00     0.000 C 
BRANCH   7   8
ATOM      8  C   UNL     1      19.158 -32.673  20.666  1.00  0.00     0.000 C 
BRANCH   8   9
ATOM      9  C   UNL     1      18.137 -31.526  20.531  1.00  0.00     0.000 C 
BRANCH   9  10
ATOM     10  C   UNL     1      18.465 -30.284  21.386  1.00  0.00     0.000 C 
BRANCH  10  11
ATOM     11  C   UNL     1      19.964 -30.170  21.705  1.00  0.00     0.000 C 
BRANCH  11  12
ATOM     12  C   UNL     1      20.634 -29.087  20.844  1.00  0.00     0.006 C 
BRANCH  12  13
ATOM     13  C   UNL     1      21.217 -27.946  21.697  1.00  0.00     0.053 C 
BRANCH  13  14
ATOM     14  C   UNL     1      21.971 -26.937  20.877  1.00  0.00     0.041 C 
ATOM     15  O   UNL     1      22.594 -27.287  19.840  1.00  0.00    -0.550 OA
ATOM     16  O   UNL     1      22.026 -25.612  21.292  1.00  0.00    -0.550 OA
ENDBRANCH  13  14
ENDBRANCH  12  13
ENDBRANCH  11  12
ENDBRANCH  10  11
ENDBRANCH   9  10
ENDBRANCH   8   9
ENDBRANCH   7   8
ENDBRANCH   6   7
ENDBRANCH   5   6
ENDBRANCH   4   5
ENDBRANCH   3   4
ENDBRANCH   2   3
ENDBRANCH   1   2
BRANCH   1  17
ATOM     17  C   UNL     1      14.185 -30.471  21.113  1.00  0.00     0.000 C 
BRANCH  17  18
ATOM     18  C   UNL     1      14.184 -30.270  22.645  1.00  0.00     0.000 C 
BRANCH  18  19
ATOM     19  C   UNL     1      13.524 -31.421  23.426  1.00  0.00     0.000 C 
BRANCH  19  20
ATOM     20  C   UNL     1      14.544 -32.445  23.950  1.00  0.00     0.000 C 
BRANCH  20  21
ATOM     21  C   UNL     1      15.979 -31.957  23.704  1.00  0.00     0.000 C 
BRANCH  21  22
ATOM     22  C   UNL     1      17.001 -33.103  23.592  1.00  0.00    -0.000 C 
BRANCH  22  23
ATOM     23  C   UNL     1      16.413 -34.518  23.738  1.00  0.00    -0.000 C 
BRANCH  23  24
ATOM     24  C   UNL     1      17.468 -35.624  23.571  1.00  0.00    -0.000 C 
BRANCH  24  25
ATOM     25  C   UNL     1      18.185 -35.968  24.890  1.00  0.00    -0.000 C 
BRANCH  25  26
ATOM     26  C   UNL     1      17.257 -36.238  26.092  1.00  0.00    -0.000 C 
BRANCH  26  27
ATOM     27  C   UNL     1      16.683 -37.666  26.167  1.00  0.00    -0.000 C 
BRANCH  27  28
ATOM     28  C   UNL     1      16.179 -38.095  27.560  1.00  0.00    -0.000 C 
BRANCH  28  29
ATOM     29  C   UNL     1      16.428 -37.070  28.681  1.00  0.00    -0.003 C 
ATOM     30  C   UNL     1      17.499 -37.522  29.675  1.00  0.00     0.004 C 
ENDBRANCH  28  29
ENDBRANCH  27  28
ENDBRANCH  26  27
ENDBRANCH  25  26
ENDBRANCH  24  25
ENDBRANCH  23  24
ENDBRANCH  22  23
ENDBRANCH  21  22
ENDBRANCH  20  21
ENDBRANCH  19  20
ENDBRANCH  18  19
ENDBRANCH  17  18
ENDBRANCH   1  17
TORSDOF 26
ENDMDL
MODEL 4
REMARK VINA RESULT:    -5.246      1.640      5.086
REMARK INTER + INTRA:         -17.436
REMARK INTER:                 -12.841
REMARK INTRA:                  -4.595
REMARK UNBOUND:                -4.215
REMARK SMILES CCCCCCCCCCCCCCCCCCCCCCCCCCCC(=O)[O-]
REMARK SMILES IDX 15 1 16 2 17 3 18 4 19 5 20 6 21 7 22 8 23 9 24 10 25 11
REMARK SMILES IDX 26 12 27 13 28 14 29 15 30 16 14 17 13 18 12 19 11 20 10 21
REMARK SMILES IDX 9 22 8 23 7 24 6 25 5 26 4 27 3 28 2 29 1 30
REMARK H PARENT
REMARK Flexibility Score: inf
ROOT
ATOM      1  C   UNL     1      16.435 -33.159  24.011  1.00  0.00     0.000 C 
ENDROOT
BRANCH   1   2
ATOM      2  C   UNL     1      15.108 -33.599  23.370  1.00  0.00     0.000 C 
BRANCH   2   3
ATOM      3  C   UNL     1      13.891 -32.855  23.951  1.00  0.00     0.000 C 
BRANCH   3   4
ATOM      4  C   UNL     1      13.802 -31.397  23.471  1.00  0.00     0.000 C 
BRANCH   4   5
ATOM      5  C   UNL     1      13.297 -31.284  22.021  1.00  0.00     0.000 C 
BRANCH   5   6
ATOM      6  C   UNL     1      14.251 -30.473  21.128  1.00  0.00     0.000 C 
BRANCH   6   7
ATOM      7  C   UNL     1      15.076 -29.446  21.923  1.00  0.00     0.000 C 
BRANCH   7   8
ATOM      8  C   UNL     1      16.578 -29.513  21.604  1.00  0.00     0.000 C 
BRANCH   8   9
ATOM      9  C   UNL     1      17.067 -30.843  20.998  1.00  0.00     0.000 C 
BRANCH   9  10
ATOM     10  C   UNL     1      18.283 -31.459  21.721  1.00  0.00     0.000 C 
BRANCH  10  11
ATOM     11  C   UNL     1      19.355 -31.961  20.742  1.00  0.00     0.000 C 
BRANCH  11  12
ATOM     12  C   UNL     1      20.587 -31.042  20.748  1.00  0.00     0.006 C 
BRANCH  12  13
ATOM     13  C   UNL     1      20.383 -29.803  21.638  1.00  0.00     0.053 C 
BRANCH  13  14
ATOM     14  C   UNL     1      20.436 -28.517  20.861  1.00  0.00     0.041 C 
ATOM     15  O   UNL     1      19.377 -27.923  20.527  1.00  0.00    -0.550 OA
ATOM     16  O   UNL     1      21.663 -28.001  20.462  1.00  0.00    -0.550 OA
ENDBRANCH  13  14
ENDBRANCH  12  13
ENDBRANCH  11  12
ENDBRANCH  10  11
ENDBRANCH   9  10
ENDBRANCH   8   9
ENDBRANCH   7   8
ENDBRANCH   6   7
ENDBRANCH   5   6
ENDBRANCH   4   5
ENDBRANCH   3   4
ENDBRANCH   2   3
ENDBRANCH   1   2
BRANCH   1  17
ATOM     17  C   UNL     1      16.867 -33.983  25.241  1.00  0.00     0.000 C 
BRANCH  17  18
ATOM     18  C   UNL     1      16.549 -35.492  25.132  1.00  0.00     0.000 C 
BRANCH  18  19
ATOM     19  C   UNL     1      17.261 -36.359  26.186  1.00  0.00     0.000 C 
BRANCH  19  20
ATOM     20  C   UNL     1      18.218 -37.387  25.561  1.00  0.00     0.000 C 
BRANCH  20  21
ATOM     21  C   UNL     1      19.448 -36.691  24.962  1.00  0.00     0.000 C 
BRANCH  21  22
ATOM     22  C   UNL     1      20.129 -37.510  23.850  1.00  0.00    -0.000 C 
BRANCH  22  23
ATOM     23  C   UNL     1      19.956 -36.948  22.427  1.00  0.00    -0.000 C 
BRANCH  23  24
ATOM     24  C   UNL     1      19.114 -35.662  22.391  1.00  0.00    -0.000 C 
BRANCH  24  25
ATOM     25  C   UNL     1      17.708 -35.887  21.803  1.00  0.00    -0.000 C 
BRANCH  25  26
ATOM     26  C   UNL     1      17.640 -36.866  20.614  1.00  0.00    -0.000 C 
BRANCH  26  27
ATOM     27  C   UNL     1      17.122 -36.260  19.296  1.00  0.00    -0.000 C 
BRANCH  27  28
ATOM     28  C   UNL     1      17.625 -34.834  18.991  1.00  0.00    -0.000 C 
BRANCH  28  29
ATOM     29  C   UNL     1      16.525 -33.759  18.938  1.00  0.00    -0.003 C 
ATOM     30  C   UNL     1      15.267 -34.153  19.712  1.00  0.00     0.004 C 
ENDBRANCH  28  29
ENDBRANCH  27  28
ENDBRANCH  26  27
ENDBRANCH  25  26
ENDBRANCH  24  25
ENDBRANCH  23  24
ENDBRANCH  22  23
ENDBRANCH  21  22
ENDBRANCH  20  21
ENDBRANCH  19  20
ENDBRANCH  18  19
ENDBRANCH  17  18
ENDBRANCH   1  17
TORSDOF 26
ENDMDL
MODEL 5
REMARK VINA RESULT:    -5.211      3.929      7.756
REMARK INTER + INTRA:         -17.346
REMARK INTER:                 -12.859
REMARK INTRA:                  -4.488
REMARK UNBOUND:                -4.215
REMARK SMILES CCCCCCCCCCCCCCCCCCCCCCCCCCCC(=O)[O-]
REMARK SMILES IDX 15 1 16 2 17 3 18 4 19 5 20 6 21 7 22 8 23 9 24 10 25 11
REMARK SMILES IDX 26 12 27 13 28 14 29 15 30 16 14 17 13 18 12 19 11 20 10 21
REMARK SMILES IDX 9 22 8 23 7 24 6 25 5 26 4 27 3 28 2 29 1 30
REMARK H PARENT
REMARK Flexibility Score: inf
ROOT
ATOM      1  C   UNL     1      20.457 -29.591  21.328  1.00  0.00     0.000 C 
ENDROOT
BRANCH   1   2
ATOM      2  C   UNL     1      20.484 -30.926  20.565  1.00  0.00     0.000 C 
BRANCH   2   3
ATOM      3  C   UNL     1      20.708 -32.136  21.491  1.00  0.00     0.000 C 
BRANCH   3   4
ATOM      4  C   UNL     1      19.649 -33.235  21.299  1.00  0.00     0.000 C 
BRANCH   4   5
ATOM      5  C   UNL     1      19.180 -33.353  19.838  1.00  0.00     0.000 C 
BRANCH   5   6
ATOM      6  C   UNL     1      17.657 -33.200  19.695  1.00  0.00     0.000 C 
BRANCH   6   7
ATOM      7  C   UNL     1      17.048 -34.227  18.724  1.00  0.00     0.000 C 
BRANCH   7   8
ATOM      8  C   UNL     1      16.497 -35.471  19.441  1.00  0.00     0.000 C 
BRANCH   8   9
ATOM      9  C   UNL     1      17.359 -36.742  19.313  1.00  0.00     0.000 C 
BRANCH   9  10
ATOM     10  C   UNL     1      17.803 -37.343  20.663  1.00  0.00     0.000 C 
BRANCH  10  11
ATOM     11  C   UNL     1      17.877 -36.290  21.778  1.00  0.00     0.000 C 
BRANCH  11  12
ATOM     12  C   UNL     1      19.122 -36.496  22.656  1.00  0.00     0.006 C 
BRANCH  12  13
ATOM     13  C   UNL     1      18.988 -35.804  24.024  1.00  0.00     0.053 C 
BRANCH  13  14
ATOM     14  C   UNL     1      17.854 -36.352  24.843  1.00  0.00     0.041 C 
ATOM     15  O   UNL     1      16.809 -35.674  25.030  1.00  0.00    -0.550 OA
ATOM     16  O   UNL     1      17.974 -37.598  25.444  1.00  0.00    -0.550 OA
ENDBRANCH  13  14
ENDBRANCH  12  13
ENDBRANCH  11  12
ENDBRANCH  10  11
ENDBRANCH   9  10
ENDBRANCH   8   9
ENDBRANCH   7   8
ENDBRANCH   6   7
ENDBRANCH   5   6
ENDBRANCH   4   5
ENDBRANCH   3   4
ENDBRANCH   2   3
ENDBRANCH   1   2
BRANCH   1  17
ATOM     17  C   UNL     1      19.063 -28.945  21.457  1.00  0.00     0.000 C 
BRANCH  17  18
ATOM     18  C   UNL     1      17.928 -29.762  20.798  1.00  0.00     0.000 C 
BRANCH  18  19
ATOM     19  C   UNL     1      16.939 -30.382  21.802  1.00  0.00     0.000 C 
BRANCH  19  20
ATOM     20  C   UNL     1      17.620 -30.822  23.109  1.00  0.00     0.000 C 
BRANCH  20  21
ATOM     21  C   UNL     1      16.844 -31.973  23.765  1.00  0.00     0.000 C 
BRANCH  21  22
ATOM     22  C   UNL     1      16.349 -33.026  22.757  1.00  0.00    -0.000 C 
BRANCH  22  23
ATOM     23  C   UNL     1      14.831 -33.281  22.772  1.00  0.00    -0.000 C 
BRANCH  23  24
ATOM     24  C   UNL     1      14.091 -32.422  23.810  1.00  0.00    -0.000 C 
BRANCH  24  25
ATOM     25  C   UNL     1      13.092 -31.441  23.168  1.00  0.00    -0.000 C 
BRANCH  25  26
ATOM     26  C   UNL     1      13.725 -30.307  22.337  1.00  0.00    -0.000 C 
BRANCH  26  27
ATOM     27  C   UNL     1      13.601 -28.899  22.951  1.00  0.00    -0.000 C 
BRANCH  27  28
ATOM     28  C   UNL     1      12.390 -28.697  23.885  1.00  0.00    -0.000 C 
BRANCH  28  29
ATOM     29  C   UNL     1      12.250 -27.279  24.464  1.00  0.00    -0.003 C 
ATOM     30  C   UNL     1      13.514 -26.436  24.291  1.00  0.00     0.004 C 
ENDBRANCH  28  29
ENDBRANCH  27  28
ENDBRANCH  26  27
ENDBRANCH  25  26
ENDBRANCH  24  25
ENDBRANCH  23  24
ENDBRANCH  22  23
ENDBRANCH  21  22
ENDBRANCH  20  21
ENDBRANCH  19  20
ENDBRANCH  18  19
ENDBRANCH  17  18
ENDBRANCH   1  17
TORSDOF 26
ENDMDL
MODEL 6
REMARK VINA RESULT:    -5.192      1.339      1.983
REMARK INTER + INTRA:         -17.299
REMARK INTER:                 -12.644
REMARK INTRA:                  -4.656
REMARK UNBOUND:                -4.215
REMARK SMILES CCCCCCCCCCCCCCCCCCCCCCCCCCCC(=O)[O-]
REMARK SMILES IDX 15 1 16 2 17 3 18 4 19 5 20 6 21 7 22 8 23 9 24 10 25 11
REMARK SMILES IDX 26 12 27 13 28 14 29 15 30 16 14 17 13 18 12 19 11 20 10 21
REMARK SMILES IDX 9 22 8 23 7 24 6 25 5 26 4 27 3 28 2 29 1 30
REMARK H PARENT
REMARK Flexibility Score: inf
ROOT
ATOM      1  C   UNL     1      13.574 -30.429  23.526  1.00  0.00     0.000 C 
ENDROOT
BRANCH   1   2
ATOM      2  C   UNL     1      14.003 -29.180  22.739  1.00  0.00     0.000 C 
BRANCH   2   3
ATOM      3  C   UNL     1      14.970 -29.506  21.584  1.00  0.00     0.000 C 
BRANCH   3   4
ATOM      4  C   UNL     1      16.390 -29.835  22.074  1.00  0.00     0.000 C 
BRANCH   4   5
ATOM      5  C   UNL     1      17.246 -30.512  20.988  1.00  0.00     0.000 C 
BRANCH   5   6
ATOM      6  C   UNL     1      18.057 -31.698  21.534  1.00  0.00     0.000 C 
BRANCH   6   7
ATOM      7  C   UNL     1      19.434 -31.833  20.861  1.00  0.00     0.000 C 
BRANCH   7   8
ATOM      8  C   UNL     1      20.493 -30.905  21.479  1.00  0.00     0.000 C 
BRANCH   8   9
ATOM      9  C   UNL     1      20.835 -29.650  20.652  1.00  0.00     0.000 C 
BRANCH   9  10
ATOM     10  C   UNL     1      20.716 -28.326  21.435  1.00  0.00     0.000 C 
BRANCH  10  11
ATOM     11  C   UNL     1      19.550 -27.456  20.944  1.00  0.00     0.000 C 
BRANCH  11  12
ATOM     12  C   UNL     1      20.059 -26.214  20.195  1.00  0.00     0.006 C 
BRANCH  12  13
ATOM     13  C   UNL     1      21.248 -25.551  20.912  1.00  0.00     0.053 C 
BRANCH  13  14
ATOM     14  C   UNL     1      22.453 -25.407  20.026  1.00  0.00     0.041 C 
ATOM     15  O   UNL     1      22.910 -26.398  19.395  1.00  0.00    -0.550 OA
ATOM     16  O   UNL     1      23.104 -24.183  19.937  1.00  0.00    -0.550 OA
ENDBRANCH  13  14
ENDBRANCH  12  13
ENDBRANCH  11  12
ENDBRANCH  10  11
ENDBRANCH   9  10
ENDBRANCH   8   9
ENDBRANCH   7   8
ENDBRANCH   6   7
ENDBRANCH   5   6
ENDBRANCH   4   5
ENDBRANCH   3   4
ENDBRANCH   2   3
ENDBRANCH   1   2
BRANCH   1  17
ATOM     17  C   UNL     1      13.527 -31.732  22.701  1.00  0.00     0.000 C 
BRANCH  17  18
ATOM     18  C   UNL     1      14.427 -32.860  23.254  1.00  0.00     0.000 C 
BRANCH  18  19
ATOM     19  C   UNL     1      15.023 -33.774  22.167  1.00  0.00     0.000 C 
BRANCH  19  20
ATOM     20  C   UNL     1      14.652 -33.323  20.745  1.00  0.00     0.000 C 
BRANCH  20  21
ATOM     21  C   UNL     1      15.660 -33.867  19.722  1.00  0.00     0.000 C 
BRANCH  21  22
ATOM     22  C   UNL     1      16.207 -35.259  20.088  1.00  0.00    -0.000 C 
BRANCH  22  23
ATOM     23  C   UNL     1      17.732 -35.331  20.283  1.00  0.00    -0.000 C 
BRANCH  23  24
ATOM     24  C   UNL     1      18.133 -35.826  21.682  1.00  0.00    -0.000 C 
BRANCH  24  25
ATOM     25  C   UNL     1      19.503 -35.288  22.135  1.00  0.00    -0.000 C 
BRANCH  25  26
ATOM     26  C   UNL     1      19.553 -34.743  23.576  1.00  0.00    -0.000 C 
BRANCH  26  27
ATOM     27  C   UNL     1      18.201 -34.724  24.315  1.00  0.00    -0.000 C 
BRANCH  27  28
ATOM     28  C   UNL     1      17.687 -33.322  24.700  1.00  0.00    -0.000 C 
BRANCH  28  29
ATOM     29  C   UNL     1      18.567 -32.566  25.711  1.00  0.00    -0.003 C 
ATOM     30  C   UNL     1      19.555 -31.609  25.042  1.00  0.00     0.004 C 
ENDBRANCH  28  29
ENDBRANCH  27  28
ENDBRANCH  26  27
ENDBRANCH  25  26
ENDBRANCH  24  25
ENDBRANCH  23  24
ENDBRANCH  22  23
ENDBRANCH  21  22
ENDBRANCH  20  21
ENDBRANCH  19  20
ENDBRANCH  18  19
ENDBRANCH  17  18
ENDBRANCH   1  17
TORSDOF 26
ENDMDL
MODEL 7
REMARK VINA RESULT:    -5.187      1.531      2.061
REMARK INTER + INTRA:         -17.286
REMARK INTER:                 -12.992
REMARK INTRA:                  -4.294
REMARK UNBOUND:                -4.215
REMARK SMILES CCCCCCCCCCCCCCCCCCCCCCCCCCCC(=O)[O-]
REMARK SMILES IDX 15 1 16 2 17 3 18 4 19 5 20 6 21 7 22 8 23 9 24 10 25 11
REMARK SMILES IDX 26 12 27 13 28 14 29 15 30 16 14 17 13 18 12 19 11 20 10 21
REMARK SMILES IDX 9 22 8 23 7 24 6 25 5 26 4 27 3 28 2 29 1 30
REMARK H PARENT
REMARK Flexibility Score: inf
ROOT
ATOM      1  C   UNL     1      16.285 -30.185  22.899  1.00  0.00     0.000 C 
ENDROOT
BRANCH   1   2
ATOM      2  C   UNL     1      16.618 -29.729  21.468  1.00  0.00     0.000 C 
BRANCH   2   3
ATOM      3  C   UNL     1      17.458 -30.763  20.694  1.00  0.00     0.000 C 
BRANCH   3   4
ATOM      4  C   UNL     1      17.930 -31.928  21.581  1.00  0.00     0.000 C 
BRANCH   4   5
ATOM      5  C   UNL     1      19.429 -32.232  21.406  1.00  0.00     0.000 C 
BRANCH   5   6
ATOM      6  C   UNL     1      20.203 -31.045  20.809  1.00  0.00     0.000 C 
BRANCH   6   7
ATOM      7  C   UNL     1      20.961 -30.235  21.875  1.00  0.00     0.000 C 
BRANCH   7   8
ATOM      8  C   UNL     1      21.090 -28.747  21.514  1.00  0.00     0.000 C 
BRANCH   8   9
ATOM      9  C   UNL     1      19.852 -28.120  20.843  1.00  0.00     0.000 C 
BRANCH   9  10
ATOM     10  C   UNL     1      19.771 -26.584  20.974  1.00  0.00     0.000 C 
BRANCH  10  11
ATOM     11  C   UNL     1      20.748 -25.863  20.034  1.00  0.00     0.000 C 
BRANCH  11  12
ATOM     12  C   UNL     1      21.958 -25.312  20.805  1.00  0.00     0.006 C 
BRANCH  12  13
ATOM     13  C   UNL     1      21.539 -24.344  21.926  1.00  0.00     0.053 C 
BRANCH  13  14
ATOM     14  C   UNL     1      22.041 -24.771  23.277  1.00  0.00     0.041 C 
ATOM     15  O   UNL     1      22.020 -25.984  23.618  1.00  0.00    -0.550 OA
ATOM     16  O   UNL     1      22.486 -23.816  24.182  1.00  0.00    -0.550 OA
ENDBRANCH  13  14
ENDBRANCH  12  13
ENDBRANCH  11  12
ENDBRANCH  10  11
ENDBRANCH   9  10
ENDBRANCH   8   9
ENDBRANCH   7   8
ENDBRANCH   6   7
ENDBRANCH   5   6
ENDBRANCH   4   5
ENDBRANCH   3   4
ENDBRANCH   2   3
ENDBRANCH   1   2
BRANCH   1  17
ATOM     17  C   UNL     1      14.866 -30.757  23.083  1.00  0.00     0.000 C 
BRANCH  17  18
ATOM     18  C   UNL     1      13.839 -30.241  22.050  1.00  0.00     0.000 C 
BRANCH  18  19
ATOM     19  C   UNL     1      13.437 -31.284  20.992  1.00  0.00     0.000 C 
BRANCH  19  20
ATOM     20  C   UNL     1      14.188 -32.616  21.157  1.00  0.00     0.000 C 
BRANCH  20  21
ATOM     21  C   UNL     1      14.274 -33.361  19.818  1.00  0.00     0.000 C 
BRANCH  21  22
ATOM     22  C   UNL     1      15.345 -34.468  19.805  1.00  0.00    -0.000 C 
BRANCH  22  23
ATOM     23  C   UNL     1      16.646 -34.109  19.063  1.00  0.00    -0.000 C 
BRANCH  23  24
ATOM     24  C   UNL     1      17.789 -35.095  19.350  1.00  0.00    -0.000 C 
BRANCH  24  25
ATOM     25  C   UNL     1      17.283 -36.487  19.774  1.00  0.00    -0.000 C 
BRANCH  25  26
ATOM     26  C   UNL     1      18.044 -37.135  20.948  1.00  0.00    -0.000 C 
BRANCH  26  27
ATOM     27  C   UNL     1      18.777 -36.147  21.877  1.00  0.00    -0.000 C 
BRANCH  27  28
ATOM     28  C   UNL     1      18.258 -36.108  23.329  1.00  0.00    -0.000 C 
BRANCH  28  29
ATOM     29  C   UNL     1      17.728 -34.738  23.788  1.00  0.00    -0.003 C 
ATOM     30  C   UNL     1      16.268 -34.503  23.400  1.00  0.00     0.004 C 
ENDBRANCH  28  29
ENDBRANCH  27  28
ENDBRANCH  26  27
ENDBRANCH  25  26
ENDBRANCH  24  25
ENDBRANCH  23  24
ENDBRANCH  22  23
ENDBRANCH  21  22
ENDBRANCH  20  21
ENDBRANCH  19  20
ENDBRANCH  18  19
ENDBRANCH  17  18
ENDBRANCH   1  17
TORSDOF 26
ENDMDL
MODEL 8
REMARK VINA RESULT:    -5.136      2.914      6.103
REMARK INTER + INTRA:         -17.159
REMARK INTER:                 -11.717
REMARK INTRA:                  -5.442
REMARK UNBOUND:                -4.215
REMARK SMILES CCCCCCCCCCCCCCCCCCCCCCCCCCCC(=O)[O-]
REMARK SMILES IDX 15 1 16 2 17 3 18 4 19 5 20 6 21 7 22 8 23 9 24 10 25 11
REMARK SMILES IDX 26 12 27 13 28 14 29 15 30 16 14 17 13 18 12 19 11 20 10 21
REMARK SMILES IDX 9 22 8 23 7 24 6 25 5 26 4 27 3 28 2 29 1 30
REMARK H PARENT
REMARK Flexibility Score: inf
ROOT
ATOM      1  C   UNL     1      16.327 -34.029  19.030  1.00  0.00     0.000 C 
ENDROOT
BRANCH   1   2
ATOM      2  C   UNL     1      17.481 -35.034  19.182  1.00  0.00     0.000 C 
BRANCH   2   3
ATOM      3  C   UNL     1      16.994 -36.494  19.249  1.00  0.00     0.000 C 
BRANCH   3   4
ATOM      4  C   UNL     1      17.628 -37.279  20.410  1.00  0.00     0.000 C 
BRANCH   4   5
ATOM      5  C   UNL     1      18.142 -36.359  21.532  1.00  0.00     0.000 C 
BRANCH   5   6
ATOM      6  C   UNL     1      19.253 -37.016  22.368  1.00  0.00     0.000 C 
BRANCH   6   7
ATOM      7  C   UNL     1      18.947 -37.000  23.876  1.00  0.00     0.000 C 
BRANCH   7   8
ATOM      8  C   UNL     1      17.719 -36.144  24.226  1.00  0.00     0.000 C 
BRANCH   8   9
ATOM      9  C   UNL     1      17.980 -34.985  25.207  1.00  0.00     0.000 C 
BRANCH   9  10
ATOM     10  C   UNL     1      18.685 -33.767  24.573  1.00  0.00     0.000 C 
BRANCH  10  11
ATOM     11  C   UNL     1      18.278 -32.443  25.237  1.00  0.00     0.000 C 
BRANCH  11  12
ATOM     12  C   UNL     1      19.440 -31.436  25.228  1.00  0.00     0.006 C 
BRANCH  12  13
ATOM     13  C   UNL     1      20.772 -32.084  25.644  1.00  0.00     0.053 C 
BRANCH  13  14
ATOM     14  C   UNL     1      21.941 -31.152  25.496  1.00  0.00     0.041 C 
ATOM     15  O   UNL     1      22.988 -31.319  26.177  1.00  0.00    -0.550 OA
ATOM     16  O   UNL     1      21.853 -30.062  24.639  1.00  0.00    -0.550 OA
ENDBRANCH  13  14
ENDBRANCH  12  13
ENDBRANCH  11  12
ENDBRANCH  10  11
ENDBRANCH   9  10
ENDBRANCH   8   9
ENDBRANCH   7   8
ENDBRANCH   6   7
ENDBRANCH   5   6
ENDBRANCH   4   5
ENDBRANCH   3   4
ENDBRANCH   2   3
ENDBRANCH   1   2
BRANCH   1  17
ATOM     17  C   UNL     1      15.038 -34.400  19.790  1.00  0.00     0.000 C 
BRANCH  17  18
ATOM     18  C   UNL     1      14.748 -33.503  21.014  1.00  0.00     0.000 C 
BRANCH  18  19
ATOM     19  C   UNL     1      15.357 -34.023  22.329  1.00  0.00     0.000 C 
BRANCH  19  20
ATOM     20  C   UNL     1      14.960 -33.170  23.545  1.00  0.00     0.000 C 
BRANCH  20  21
ATOM     21  C   UNL     1      13.831 -32.195  23.180  1.00  0.00     0.000 C 
BRANCH  21  22
ATOM     22  C   UNL     1      14.194 -30.720  23.436  1.00  0.00    -0.000 C 
BRANCH  22  23
ATOM     23  C   UNL     1      15.055 -30.062  22.343  1.00  0.00    -0.000 C 
BRANCH  23  24
ATOM     24  C   UNL     1      16.529 -29.909  22.755  1.00  0.00    -0.000 C 
BRANCH  24  25
ATOM     25  C   UNL     1      17.469 -29.728  21.548  1.00  0.00    -0.000 C 
BRANCH  25  26
ATOM     26  C   UNL     1      17.685 -30.989  20.686  1.00  0.00    -0.000 C 
BRANCH  26  27
ATOM     27  C   UNL     1      18.269 -32.201  21.437  1.00  0.00    -0.000 C 
BRANCH  27  28
ATOM     28  C   UNL     1      19.687 -32.620  20.999  1.00  0.00    -0.000 C 
BRANCH  28  29
ATOM     29  C   UNL     1      20.819 -31.727  21.537  1.00  0.00    -0.003 C 
ATOM     30  C   UNL     1      22.023 -32.526  22.036  1.00  0.00     0.004 C 
ENDBRANCH  28  29
ENDBRANCH  27  28
ENDBRANCH  26  27
ENDBRANCH  25  26
ENDBRANCH  24  25
ENDBRANCH  23  24
ENDBRANCH  22  23
ENDBRANCH  21  22
ENDBRANCH  20  21
ENDBRANCH  19  20
ENDBRANCH  18  19
ENDBRANCH  17  18
ENDBRANCH   1  17
TORSDOF 26
ENDMDL
MODEL 9
REMARK VINA RESULT:    -5.123      1.463      4.667
REMARK INTER + INTRA:         -17.124
REMARK INTER:                 -12.419
REMARK INTRA:                  -4.706
REMARK UNBOUND:                -4.215
REMARK SMILES CCCCCCCCCCCCCCCCCCCCCCCCCCCC(=O)[O-]
REMARK SMILES IDX 15 1 16 2 17 3 18 4 19 5 20 6 21 7 22 8 23 9 24 10 25 11
REMARK SMILES IDX 26 12 27 13 28 14 29 15 30 16 14 17 13 18 12 19 11 20 10 21
REMARK SMILES IDX 9 22 8 23 7 24 6 25 5 26 4 27 3 28 2 29 1 30
REMARK H PARENT
REMARK Flexibility Score: inf
ROOT
ATOM      1  C   UNL     1      15.475 -34.003  21.709  1.00  0.00     0.000 C 
ENDROOT
BRANCH   1   2
ATOM      2  C   UNL     1      15.718 -34.952  20.524  1.00  0.00     0.000 C 
BRANCH   2   3
ATOM      3  C   UNL     1      16.137 -34.208  19.242  1.00  0.00     0.000 C 
BRANCH   3   4
ATOM      4  C   UNL     1      17.354 -33.291  19.459  1.00  0.00     0.000 C 
BRANCH   4   5
ATOM      5  C   UNL     1      18.666 -34.081  19.617  1.00  0.00     0.000 C 
BRANCH   5   6
ATOM      6  C   UNL     1      19.552 -33.529  20.746  1.00  0.00     0.000 C 
BRANCH   6   7
ATOM      7  C   UNL     1      19.961 -32.065  20.514  1.00  0.00     0.000 C 
BRANCH   7   8
ATOM      8  C   UNL     1      21.110 -31.615  21.431  1.00  0.00     0.000 C 
BRANCH   8   9
ATOM      9  C   UNL     1      21.053 -30.144  21.888  1.00  0.00     0.000 C 
BRANCH   9  10
ATOM     10  C   UNL     1      20.736 -29.142  20.759  1.00  0.00     0.000 C 
BRANCH  10  11
ATOM     11  C   UNL     1      20.998 -27.687  21.174  1.00  0.00     0.000 C 
BRANCH  11  12
ATOM     12  C   UNL     1      19.909 -26.749  20.629  1.00  0.00     0.006 C 
BRANCH  12  13
ATOM     13  C   UNL     1      20.361 -25.278  20.623  1.00  0.00     0.053 C 
BRANCH  13  14
ATOM     14  C   UNL     1      21.833 -25.124  20.362  1.00  0.00     0.041 C 
ATOM     15  O   UNL     1      22.320 -25.410  19.236  1.00  0.00    -0.550 OA
ATOM     16  O   UNL     1      22.677 -24.712  21.385  1.00  0.00    -0.550 OA
ENDBRANCH  13  14
ENDBRANCH  12  13
ENDBRANCH  11  12
ENDBRANCH  10  11
ENDBRANCH   9  10
ENDBRANCH   8   9
ENDBRANCH   7   8
ENDBRANCH   6   7
ENDBRANCH   5   6
ENDBRANCH   4   5
ENDBRANCH   3   4
ENDBRANCH   2   3
ENDBRANCH   1   2
BRANCH   1  17
ATOM     17  C   UNL     1      16.273 -34.342  22.985  1.00  0.00     0.000 C 
BRANCH  17  18
ATOM     18  C   UNL     1      17.258 -35.521  22.817  1.00  0.00     0.000 C 
BRANCH  18  19
ATOM     19  C   UNL     1      18.628 -35.291  23.482  1.00  0.00     0.000 C 
BRANCH  19  20
ATOM     20  C   UNL     1      18.525 -34.487  24.789  1.00  0.00     0.000 C 
BRANCH  20  21
ATOM     21  C   UNL     1      19.583 -33.376  24.828  1.00  0.00     0.000 C 
BRANCH  21  22
ATOM     22  C   UNL     1      19.071 -32.028  24.287  1.00  0.00    -0.000 C 
BRANCH  22  23
ATOM     23  C   UNL     1      17.654 -31.638  24.743  1.00  0.00    -0.000 C 
BRANCH  23  24
ATOM     24  C   UNL     1      16.930 -30.731  23.735  1.00  0.00    -0.000 C 
BRANCH  24  25
ATOM     25  C   UNL     1      17.485 -30.867  22.305  1.00  0.00    -0.000 C 
BRANCH  25  26
ATOM     26  C   UNL     1      16.632 -30.210  21.201  1.00  0.00    -0.000 C 
BRANCH  26  27
ATOM     27  C   UNL     1      15.218 -29.780  21.638  1.00  0.00    -0.000 C 
BRANCH  27  28
ATOM     28  C   UNL     1      14.066 -30.609  21.034  1.00  0.00    -0.000 C 
BRANCH  28  29
ATOM     29  C   UNL     1      12.974 -31.024  22.035  1.00  0.00    -0.003 C 
ATOM     30  C   UNL     1      13.531 -31.359  23.419  1.00  0.00     0.004 C 
ENDBRANCH  28  29
ENDBRANCH  27  28
ENDBRANCH  26  27
ENDBRANCH  25  26
ENDBRANCH  24  25
ENDBRANCH  23  24
ENDBRANCH  22  23
ENDBRANCH  21  22
ENDBRANCH  20  21
ENDBRANCH  19  20
ENDBRANCH  18  19
ENDBRANCH  17  18
ENDBRANCH   1  17
TORSDOF 26
ENDMDL
