MODEL 1
REMARK VINA RESULT:    -5.276      0.000      0.000
REMARK INTER + INTRA:          -7.471
REMARK INTER:                  -8.052
REMARK INTRA:                   0.581
REMARK UNBOUND:                 0.581
REMARK SMILES CC1=CCC[C@H](C)C(=O)C[C@@H](C(C)C)C(=O)C1
REMARK SMILES IDX 8 1 9 2 6 3 7 4 5 5 4 6 3 7 2 8 1 9 10 11 11 12 15 13 16 14
REMARK SMILES IDX 17 15 12 17 13 18 14 19
REMARK H PARENT
REMARK Flexibility Score: 70.00
ROOT
ATOM      1  C   UNL     1       3.536  11.037  30.218  1.00  0.00     0.136 C 
ATOM      2  O   UNL     1       2.934  10.076  29.758  1.00  0.00    -0.299 OA
ENDROOT
BRANCH   1   3
ATOM      3  C   UNL     1       3.228  11.503  31.629  1.00  0.00     0.053 C 
ATOM      4  C   UNL     1       4.094  12.717  31.992  1.00  0.00     0.016 C 
BRANCH   3   5
ATOM      5  C   UNL     1       1.725  11.833  31.775  1.00  0.00     0.015 C 
BRANCH   5   6
ATOM      6  C   UNL     1       1.449  13.335  31.562  1.00  0.00     0.028 C 
BRANCH   6   7
ATOM      7  C   UNL     1       0.359  13.604  30.554  1.00  0.00    -0.028 C 
ATOM      8  C   UNL     1       0.559  14.001  29.271  1.00  0.00    -0.070 CG0
ATOM      9  C   UNL     1      -0.635  14.152  28.362  1.00  0.00     0.039 C 
ATOM     10  G   UNL     1       1.912  14.421  28.718  1.00  0.00     0.000 G0
ENDBRANCH   6   7
ENDBRANCH   5   6
ENDBRANCH   3   5
ENDBRANCH   1   3
BRANCH   1  11
ATOM     11  C   UNL     1       4.565  11.737  29.359  1.00  0.00     0.087 C 
BRANCH  11  12
ATOM     12  C   UNL     1       4.172  13.208  29.064  1.00  0.00     0.066 C 
BRANCH  12  13
ATOM     13  C   UNL     1       2.815  13.288  28.379  1.00  0.00     0.140 C 
ATOM     14  O   UNL     1       2.483  12.445  27.558  1.00  0.00    -0.299 OA
BRANCH  13  15
ATOM     15  C   UNL     1       1.883  14.432  28.693  1.00  0.00     0.106 CG0
ATOM     16  G   UNL     1       0.554  14.002  29.292  1.00  0.00     0.000 G0
ENDBRANCH  13  15
ENDBRANCH  12  13
BRANCH  12  17
ATOM     17  C   UNL     1       5.306  13.992  28.331  1.00  0.00    -0.006 C 
ATOM     18  C   UNL     1       4.875  14.661  27.013  1.00  0.00     0.008 C 
ATOM     19  C   UNL     1       5.975  15.018  29.258  1.00  0.00     0.008 C 
ENDBRANCH  12  17
ENDBRANCH  11  12
ENDBRANCH   1  11
TORSDOF 1
ENDMDL
MODEL 2
REMARK VINA RESULT:    -4.978      1.762      3.697
REMARK INTER + INTRA:          -7.015
REMARK INTER:                  -7.183
REMARK INTRA:                   0.168
REMARK UNBOUND:                 0.581
REMARK SMILES CC1=CCC[C@H](C)C(=O)C[C@@H](C(C)C)C(=O)C1
REMARK SMILES IDX 8 1 9 2 6 3 7 4 5 5 4 6 3 7 2 8 1 9 10 11 11 12 15 13 16 14
REMARK SMILES IDX 17 15 12 17 13 18 14 19
REMARK H PARENT
REMARK Flexibility Score: 70.00
ROOT
ATOM      1  C   UNL     1       4.268  13.398  29.155  1.00  0.00     0.136 C 
ATOM      2  O   UNL     1       4.741  12.278  29.029  1.00  0.00    -0.299 OA
ENDROOT
BRANCH   1   3
ATOM      3  C   UNL     1       3.374  13.957  28.063  1.00  0.00     0.053 C 
ATOM      4  C   UNL     1       4.059  13.833  26.696  1.00  0.00     0.016 C 
BRANCH   3   5
ATOM      5  C   UNL     1       2.005  13.239  28.063  1.00  0.00     0.015 C 
BRANCH   5   6
ATOM      6  C   UNL     1       0.917  14.089  28.748  1.00  0.00     0.028 C 
BRANCH   6   7
ATOM      7  C   UNL     1       0.134  13.329  29.790  1.00  0.00    -0.028 C 
ATOM      8  C   UNL     1       0.438  13.271  31.112  1.00  0.00    -0.070 CG0
ATOM      9  C   UNL     1      -0.492  12.530  32.040  1.00  0.00     0.039 C 
ATOM     10  G   UNL     1       1.729  13.812  31.706  1.00  0.00     0.000 G0
ENDBRANCH   6   7
ENDBRANCH   5   6
ENDBRANCH   3   5
ENDBRANCH   1   3
BRANCH   1  11
ATOM     11  C   UNL     1       4.598  14.199  30.396  1.00  0.00     0.087 C 
BRANCH  11  12
ATOM     12  C   UNL     1       4.317  13.400  31.695  1.00  0.00     0.066 C 
BRANCH  12  13
ATOM     13  C   UNL     1       2.897  12.850  31.705  1.00  0.00     0.140 C 
ATOM     14  O   UNL     1       2.697  11.645  31.666  1.00  0.00    -0.299 OA
BRANCH  13  15
ATOM     15  C   UNL     1       1.726  13.802  31.735  1.00  0.00     0.106 CG0
ATOM     16  G   UNL     1       0.459  13.245  31.105  1.00  0.00     0.000 G0
ENDBRANCH  13  15
ENDBRANCH  12  13
BRANCH  12  17
ATOM     17  C   UNL     1       4.703  14.199  32.980  1.00  0.00    -0.006 C 
ATOM     18  C   UNL     1       5.606  13.433  33.965  1.00  0.00     0.008 C 
ATOM     19  C   UNL     1       5.323  15.561  32.634  1.00  0.00     0.008 C 
ENDBRANCH  12  17
ENDBRANCH  11  12
ENDBRANCH   1  11
TORSDOF 1
ENDMDL
MODEL 3
REMARK VINA RESULT:    -4.810      1.984      3.907
REMARK INTER + INTRA:          -6.760
REMARK INTER:                  -7.234
REMARK INTRA:                   0.474
REMARK UNBOUND:                 0.581
REMARK SMILES CC1=CCC[C@H](C)C(=O)C[C@@H](C(C)C)C(=O)C1
REMARK SMILES IDX 8 1 9 2 6 3 7 4 5 5 4 6 3 7 2 8 1 9 10 11 11 12 15 13 16 14
REMARK SMILES IDX 17 15 12 17 13 18 14 19
REMARK H PARENT
REMARK Flexibility Score: 70.00
ROOT
ATOM      1  C   UNL     1       4.864  14.376  30.758  1.00  0.00     0.136 C 
ATOM      2  O   UNL     1       5.837  14.931  31.250  1.00  0.00    -0.299 OA
ENDROOT
BRANCH   1   3
ATOM      3  C   UNL     1       4.732  14.306  29.247  1.00  0.00     0.053 C 
ATOM      4  C   UNL     1       5.865  15.091  28.574  1.00  0.00     0.016 C 
BRANCH   3   5
ATOM      5  C   UNL     1       4.720  12.835  28.771  1.00  0.00     0.015 C 
BRANCH   5   6
ATOM      6  C   UNL     1       3.653  12.598  27.684  1.00  0.00     0.028 C 
BRANCH   6   7
ATOM      7  C   UNL     1       2.441  13.485  27.835  1.00  0.00    -0.028 C 
ATOM      8  C   UNL     1       1.456  13.317  28.753  1.00  0.00    -0.070 CG0
ATOM      9  C   UNL     1       0.349  14.338  28.828  1.00  0.00     0.039 C 
ATOM     10  G   UNL     1       1.331  12.090  29.643  1.00  0.00     0.000 G0
ENDBRANCH   6   7
ENDBRANCH   5   6
ENDBRANCH   3   5
ENDBRANCH   1   3
BRANCH   1  11
ATOM     11  C   UNL     1       3.816  13.783  31.673  1.00  0.00     0.087 C 
BRANCH  11  12
ATOM     12  C   UNL     1       3.392  12.359  31.227  1.00  0.00     0.066 C 
BRANCH  12  13
ATOM     13  C   UNL     1       1.884  12.271  31.033  1.00  0.00     0.140 C 
ATOM     14  O   UNL     1       1.130  12.320  31.994  1.00  0.00    -0.299 OA
BRANCH  13  15
ATOM     15  C   UNL     1       1.317  12.094  29.647  1.00  0.00     0.106 CG0
ATOM     16  G   UNL     1       1.454  13.321  28.759  1.00  0.00     0.000 G0
ENDBRANCH  13  15
ENDBRANCH  12  13
BRANCH  12  17
ATOM     17  C   UNL     1       3.985  11.246  32.147  1.00  0.00    -0.006 C 
ATOM     18  C   UNL     1       4.732  10.126  31.399  1.00  0.00     0.008 C 
ATOM     19  C   UNL     1       4.875  11.838  33.250  1.00  0.00     0.008 C 
ENDBRANCH  12  17
ENDBRANCH  11  12
ENDBRANCH   1  11
TORSDOF 1
ENDMDL
MODEL 4
REMARK VINA RESULT:    -4.546      1.832      4.003
REMARK INTER + INTRA:          -6.357
REMARK INTER:                  -7.205
REMARK INTRA:                   0.848
REMARK UNBOUND:                 0.581
REMARK SMILES CC1=CCC[C@H](C)C(=O)C[C@@H](C(C)C)C(=O)C1
REMARK SMILES IDX 8 1 9 2 6 3 7 4 5 5 4 6 3 7 2 8 1 9 10 11 11 12 15 13 16 14
REMARK SMILES IDX 17 15 12 17 13 18 14 19
REMARK H PARENT
REMARK Flexibility Score: 70.00
ROOT
ATOM      1  C   UNL     1       4.407  13.553  28.975  1.00  0.00     0.136 C 
ATOM      2  O   UNL     1       5.160  14.381  29.467  1.00  0.00    -0.299 OA
ENDROOT
BRANCH   1   3
ATOM      3  C   UNL     1       3.403  13.990  27.924  1.00  0.00     0.053 C 
ATOM      4  C   UNL     1       4.018  13.887  26.521  1.00  0.00     0.016 C 
BRANCH   3   5
ATOM      5  C   UNL     1       2.111  13.147  28.023  1.00  0.00     0.015 C 
BRANCH   5   6
ATOM      6  C   UNL     1       0.964  13.941  28.679  1.00  0.00     0.028 C 
BRANCH   6   7
ATOM      7  C   UNL     1       0.343  13.229  29.856  1.00  0.00    -0.028 C 
ATOM      8  C   UNL     1       0.816  13.258  31.129  1.00  0.00    -0.070 CG0
ATOM      9  C   UNL     1       0.035  12.556  32.211  1.00  0.00     0.039 C 
ATOM     10  G   UNL     1       2.156  13.860  31.518  1.00  0.00     0.000 G0
ENDBRANCH   6   7
ENDBRANCH   5   6
ENDBRANCH   3   5
ENDBRANCH   1   3
BRANCH   1  11
ATOM     11  C   UNL     1       4.493  12.116  29.438  1.00  0.00     0.087 C 
BRANCH  11  12
ATOM     12  C   UNL     1       3.389  11.770  30.471  1.00  0.00     0.066 C 
BRANCH  12  13
ATOM     13  C   UNL     1       3.302  12.833  31.558  1.00  0.00     0.140 C 
ATOM     14  O   UNL     1       4.126  12.867  32.461  1.00  0.00    -0.299 OA
BRANCH  13  15
ATOM     15  C   UNL     1       2.174  13.835  31.538  1.00  0.00     0.106 CG0
ATOM     16  G   UNL     1       0.828  13.244  31.150  1.00  0.00     0.000 G0
ENDBRANCH  13  15
ENDBRANCH  12  13
BRANCH  12  17
ATOM     17  C   UNL     1       3.514  10.311  31.011  1.00  0.00    -0.006 C 
ATOM     18  C   UNL     1       4.951   9.875  31.356  1.00  0.00     0.008 C 
ATOM     19  C   UNL     1       2.580  10.068  32.206  1.00  0.00     0.008 C 
ENDBRANCH  12  17
ENDBRANCH  11  12
ENDBRANCH   1  11
TORSDOF 1
ENDMDL
MODEL 5
REMARK VINA RESULT:    -4.210      2.019      3.084
REMARK INTER + INTRA:          -5.845
REMARK INTER:                  -6.048
REMARK INTRA:                   0.203
REMARK UNBOUND:                 0.581
REMARK SMILES CC1=CCC[C@H](C)C(=O)C[C@@H](C(C)C)C(=O)C1
REMARK SMILES IDX 8 1 9 2 6 3 7 4 5 5 4 6 3 7 2 8 1 9 10 11 11 12 15 13 16 14
REMARK SMILES IDX 17 15 12 17 13 18 14 19
REMARK H PARENT
REMARK Flexibility Score: 70.00
ROOT
ATOM      1  C   UNL     1       2.487  13.504  31.543  1.00  0.00     0.136 C 
ATOM      2  O   UNL     1       2.423  14.310  32.460  1.00  0.00    -0.299 OA
ENDROOT
BRANCH   1   3
ATOM      3  C   UNL     1       1.209  12.886  31.005  1.00  0.00     0.053 C 
ATOM      4  C   UNL     1       0.448  12.169  32.128  1.00  0.00     0.016 C 
BRANCH   3   5
ATOM      5  C   UNL     1       0.324  13.964  30.338  1.00  0.00     0.015 C 
BRANCH   5   6
ATOM      6  C   UNL     1       0.853  14.350  28.942  1.00  0.00     0.028 C 
BRANCH   6   7
ATOM      7  C   UNL     1       1.363  13.170  28.151  1.00  0.00    -0.028 C 
ATOM      8  C   UNL     1       2.625  13.035  27.671  1.00  0.00    -0.070 CG0
ATOM      9  C   UNL     1       3.002  11.756  26.965  1.00  0.00     0.039 C 
ATOM     10  G   UNL     1       3.662  14.147  27.696  1.00  0.00     0.000 G0
ENDBRANCH   6   7
ENDBRANCH   5   6
ENDBRANCH   3   5
ENDBRANCH   1   3
BRANCH   1  11
ATOM     11  C   UNL     1       3.842  13.140  30.978  1.00  0.00     0.087 C 
BRANCH  11  12
ATOM     12  C   UNL     1       4.483  14.318  30.199  1.00  0.00     0.066 C 
BRANCH  12  13
ATOM     13  C   UNL     1       4.744  13.937  28.747  1.00  0.00     0.140 C 
ATOM     14  O   UNL     1       5.829  13.488  28.409  1.00  0.00    -0.299 OA
BRANCH  13  15
ATOM     15  C   UNL     1       3.665  14.143  27.714  1.00  0.00     0.106 CG0
ATOM     16  G   UNL     1       2.638  13.022  27.658  1.00  0.00     0.000 G0
ENDBRANCH  13  15
ENDBRANCH  12  13
BRANCH  12  17
ATOM     17  C   UNL     1       5.721  14.916  30.937  1.00  0.00    -0.006 C 
ATOM     18  C   UNL     1       6.422  16.065  30.188  1.00  0.00     0.008 C 
ATOM     19  C   UNL     1       5.373  15.346  32.370  1.00  0.00     0.008 C 
ENDBRANCH  12  17
ENDBRANCH  11  12
ENDBRANCH   1  11
TORSDOF 1
ENDMDL
MODEL 6
REMARK VINA RESULT:    -4.181      2.128      3.688
REMARK INTER + INTRA:          -5.800
REMARK INTER:                  -6.510
REMARK INTRA:                   0.710
REMARK UNBOUND:                 0.581
REMARK SMILES CC1=CCC[C@H](C)C(=O)C[C@@H](C(C)C)C(=O)C1
REMARK SMILES IDX 8 1 9 2 6 3 7 4 5 5 4 6 3 7 2 8 1 9 10 11 11 12 15 13 16 14
REMARK SMILES IDX 17 15 12 17 13 18 14 19
REMARK H PARENT
REMARK Flexibility Score: 70.00
ROOT
ATOM      1  C   UNL     1       0.725  13.495  29.414  1.00  0.00     0.136 C 
ATOM      2  O   UNL     1      -0.374  13.429  28.882  1.00  0.00    -0.299 OA
ENDROOT
BRANCH   1   3
ATOM      3  C   UNL     1       0.938  12.839  30.766  1.00  0.00     0.053 C 
ATOM      4  C   UNL     1      -0.355  12.880  31.591  1.00  0.00     0.016 C 
BRANCH   3   5
ATOM      5  C   UNL     1       1.436  11.386  30.592  1.00  0.00     0.015 C 
BRANCH   5   6
ATOM      6  C   UNL     1       2.611  11.070  31.539  1.00  0.00     0.028 C 
BRANCH   6   7
ATOM      7  C   UNL     1       3.254  12.305  32.122  1.00  0.00    -0.028 C 
ATOM      8  C   UNL     1       4.142  13.105  31.478  1.00  0.00    -0.070 CG0
ATOM      9  C   UNL     1       4.635  14.350  32.172  1.00  0.00     0.039 C 
ATOM     10  G   UNL     1       4.767  12.764  30.135  1.00  0.00     0.000 G0
ENDBRANCH   6   7
ENDBRANCH   5   6
ENDBRANCH   3   5
ENDBRANCH   1   3
BRANCH   1  11
ATOM     11  C   UNL     1       1.838  14.239  28.711  1.00  0.00     0.087 C 
BRANCH  11  12
ATOM     12  C   UNL     1       2.987  13.292  28.276  1.00  0.00     0.066 C 
BRANCH  12  13
ATOM     13  C   UNL     1       4.285  13.641  28.992  1.00  0.00     0.140 C 
ATOM     14  O   UNL     1       4.947  14.607  28.643  1.00  0.00    -0.299 OA
BRANCH  13  15
ATOM     15  C   UNL     1       4.773  12.769  30.123  1.00  0.00     0.106 CG0
ATOM     16  G   UNL     1       4.152  13.099  31.471  1.00  0.00     0.000 G0
ENDBRANCH  13  15
ENDBRANCH  12  13
BRANCH  12  17
ATOM     17  C   UNL     1       3.119  13.190  26.724  1.00  0.00    -0.006 C 
ATOM     18  C   UNL     1       4.198  14.102  26.110  1.00  0.00     0.008 C 
ATOM     19  C   UNL     1       3.325  11.737  26.268  1.00  0.00     0.008 C 
ENDBRANCH  12  17
ENDBRANCH  11  12
ENDBRANCH   1  11
TORSDOF 1
ENDMDL
MODEL 7
REMARK VINA RESULT:    -3.955      2.033      4.590
REMARK INTER + INTRA:          -5.456
REMARK INTER:                  -6.531
REMARK INTRA:                   1.076
REMARK UNBOUND:                 0.581
REMARK SMILES CC1=CCC[C@H](C)C(=O)C[C@@H](C(C)C)C(=O)C1
REMARK SMILES IDX 8 1 9 2 6 3 7 4 5 5 4 6 3 7 2 8 1 9 10 11 11 12 15 13 16 14
REMARK SMILES IDX 17 15 12 17 13 18 14 19
REMARK H PARENT
REMARK Flexibility Score: 70.00
ROOT
ATOM      1  C   UNL     1       3.151  11.233  28.821  1.00  0.00     0.136 C 
ATOM      2  O   UNL     1       3.630  10.206  29.282  1.00  0.00    -0.299 OA
ENDROOT
BRANCH   1   3
ATOM      3  C   UNL     1       3.874  11.955  27.699  1.00  0.00     0.053 C 
ATOM      4  C   UNL     1       3.019  11.956  26.424  1.00  0.00     0.016 C 
BRANCH   3   5
ATOM      5  C   UNL     1       4.232  13.398  28.125  1.00  0.00     0.015 C 
BRANCH   5   6
ATOM      6  C   UNL     1       5.248  13.412  29.284  1.00  0.00     0.028 C 
BRANCH   6   7
ATOM      7  C   UNL     1       4.887  14.383  30.381  1.00  0.00    -0.028 C 
ATOM      8  C   UNL     1       4.509  14.039  31.639  1.00  0.00    -0.070 CG0
ATOM      9  C   UNL     1       4.256  15.132  32.647  1.00  0.00     0.039 C 
ATOM     10  G   UNL     1       4.209  12.612  32.071  1.00  0.00     0.000 G0
ENDBRANCH   6   7
ENDBRANCH   5   6
ENDBRANCH   3   5
ENDBRANCH   1   3
BRANCH   1  11
ATOM     11  C   UNL     1       1.852  11.757  29.392  1.00  0.00     0.087 C 
BRANCH  11  12
ATOM     12  C   UNL     1       2.089  12.759  30.552  1.00  0.00     0.066 C 
BRANCH  12  13
ATOM     13  C   UNL     1       2.843  12.102  31.700  1.00  0.00     0.140 C 
ATOM     14  O   UNL     1       2.342  11.178  32.325  1.00  0.00    -0.299 OA
BRANCH  13  15
ATOM     15  C   UNL     1       4.209  12.613  32.088  1.00  0.00     0.106 CG0
ATOM     16  G   UNL     1       4.490  14.036  31.634  1.00  0.00     0.000 G0
ENDBRANCH  13  15
ENDBRANCH  12  13
BRANCH  12  17
ATOM     17  C   UNL     1       0.780  13.491  30.983  1.00  0.00    -0.006 C 
ATOM     18  C   UNL     1       0.043  14.216  29.840  1.00  0.00     0.008 C 
ATOM     19  C   UNL     1      -0.180  12.546  31.723  1.00  0.00     0.008 C 
ENDBRANCH  12  17
ENDBRANCH  11  12
ENDBRANCH   1  11
TORSDOF 1
ENDMDL
MODEL 8
REMARK VINA RESULT:    -3.951      2.322      3.832
REMARK INTER + INTRA:          -5.449
REMARK INTER:                  -6.494
REMARK INTRA:                   1.046
REMARK UNBOUND:                 0.581
REMARK SMILES CC1=CCC[C@H](C)C(=O)C[C@@H](C(C)C)C(=O)C1
REMARK SMILES IDX 8 1 9 2 6 3 7 4 5 5 4 6 3 7 2 8 1 9 10 11 11 12 15 13 16 14
REMARK SMILES IDX 17 15 12 17 13 18 14 19
REMARK H PARENT
REMARK Flexibility Score: 70.00
ROOT
ATOM      1  C   UNL     1       5.215  14.336  30.129  1.00  0.00     0.136 C 
ATOM      2  O   UNL     1       5.892  15.353  30.066  1.00  0.00    -0.299 OA
ENDROOT
BRANCH   1   3
ATOM      3  C   UNL     1       4.363  14.082  31.359  1.00  0.00     0.053 C 
ATOM      4  C   UNL     1       4.685  15.109  32.454  1.00  0.00     0.016 C 
BRANCH   3   5
ATOM      5  C   UNL     1       2.861  14.116  30.995  1.00  0.00     0.015 C 
BRANCH   5   6
ATOM      6  C   UNL     1       2.071  13.023  31.742  1.00  0.00     0.028 C 
BRANCH   6   7
ATOM      7  C   UNL     1       2.945  11.910  32.268  1.00  0.00    -0.028 C 
ATOM      8  C   UNL     1       3.429  10.878  31.530  1.00  0.00    -0.070 CG0
ATOM      9  C   UNL     1       4.356   9.887  32.187  1.00  0.00     0.039 C 
ATOM     10  G   UNL     1       3.000  10.588  30.101  1.00  0.00     0.000 G0
ENDBRANCH   6   7
ENDBRANCH   5   6
ENDBRANCH   3   5
ENDBRANCH   1   3
BRANCH   1  11
ATOM     11  C   UNL     1       5.255  13.356  28.978  1.00  0.00     0.087 C 
BRANCH  11  12
ATOM     12  C   UNL     1       3.885  12.664  28.754  1.00  0.00     0.066 C 
BRANCH  12  13
ATOM     13  C   UNL     1       3.961  11.179  29.080  1.00  0.00     0.140 C 
ATOM     14  O   UNL     1       4.763  10.456  28.507  1.00  0.00    -0.299 OA
BRANCH  13  15
ATOM     15  C   UNL     1       3.019  10.588  30.100  1.00  0.00     0.106 CG0
ATOM     16  G   UNL     1       3.416  10.861  31.542  1.00  0.00     0.000 G0
ENDBRANCH  13  15
ENDBRANCH  12  13
BRANCH  12  17
ATOM     17  C   UNL     1       3.281  12.981  27.350  1.00  0.00    -0.006 C 
ATOM     18  C   UNL     1       4.071  14.018  26.529  1.00  0.00     0.008 C 
ATOM     19  C   UNL     1       3.063  11.702  26.527  1.00  0.00     0.008 C 
ENDBRANCH  12  17
ENDBRANCH  11  12
ENDBRANCH   1  11
TORSDOF 1
ENDMDL
MODEL 9
REMARK VINA RESULT:    -3.876      2.029      4.272
REMARK INTER + INTRA:          -5.334
REMARK INTER:                  -5.884
REMARK INTRA:                   0.550
REMARK UNBOUND:                 0.581
REMARK SMILES CC1=CCC[C@H](C)C(=O)C[C@@H](C(C)C)C(=O)C1
REMARK SMILES IDX 8 1 9 2 6 3 7 4 5 5 4 6 3 7 2 8 1 9 10 11 11 12 15 13 16 14
REMARK SMILES IDX 17 15 12 17 13 18 14 19
REMARK H PARENT
REMARK Flexibility Score: 70.00
ROOT
ATOM      1  C   UNL     1       4.022  13.783  32.059  1.00  0.00     0.136 C 
ATOM      2  O   UNL     1       4.494  12.762  32.540  1.00  0.00    -0.299 OA
ENDROOT
BRANCH   1   3
ATOM      3  C   UNL     1       4.848  15.056  32.058  1.00  0.00     0.053 C 
ATOM      4  C   UNL     1       5.793  15.083  33.267  1.00  0.00     0.016 C 
BRANCH   3   5
ATOM      5  C   UNL     1       5.639  15.189  30.736  1.00  0.00     0.015 C 
BRANCH   5   6
ATOM      6  C   UNL     1       5.423  13.967  29.820  1.00  0.00     0.028 C 
BRANCH   6   7
ATOM      7  C   UNL     1       5.196  14.338  28.375  1.00  0.00    -0.028 C 
ATOM      8  C   UNL     1       4.194  13.864  27.591  1.00  0.00    -0.070 CG0
ATOM      9  C   UNL     1       4.057  14.394  26.186  1.00  0.00     0.039 C 
ATOM     10  G   UNL     1       3.262  12.736  28.003  1.00  0.00     0.000 G0
ENDBRANCH   6   7
ENDBRANCH   5   6
ENDBRANCH   3   5
ENDBRANCH   1   3
BRANCH   1  11
ATOM     11  C   UNL     1       2.622  13.746  31.488  1.00  0.00     0.087 C 
BRANCH  11  12
ATOM     12  C   UNL     1       2.434  12.580  30.483  1.00  0.00     0.066 C 
BRANCH  12  13
ATOM     13  C   UNL     1       2.260  13.103  29.063  1.00  0.00     0.140 C 
ATOM     14  O   UNL     1       1.304  13.806  28.772  1.00  0.00    -0.299 OA
BRANCH  13  15
ATOM     15  C   UNL     1       3.262  12.726  28.000  1.00  0.00     0.106 CG0
ATOM     16  G   UNL     1       4.187  13.861  27.589  1.00  0.00     0.000 G0
ENDBRANCH  13  15
ENDBRANCH  12  13
BRANCH  12  17
ATOM     17  C   UNL     1       1.327  11.577  30.936  1.00  0.00    -0.006 C 
ATOM     18  C   UNL     1       1.857  10.292  31.598  1.00  0.00     0.008 C 
ATOM     19  C   UNL     1       0.285  12.254  31.840  1.00  0.00     0.008 C 
ENDBRANCH  12  17
ENDBRANCH  11  12
ENDBRANCH   1  11
TORSDOF 1
ENDMDL
