MODEL 1
REMARK VINA RESULT:    -4.444      0.000      0.000
REMARK INTER + INTRA:          -4.833
REMARK INTER:                  -4.833
REMARK INTRA:                   0.000
REMARK UNBOUND:                 0.000
REMARK SMILES Cc1cc(O)c2c(c1)C(=O)c1cc(O)cc(O)c1C2=O
REMARK SMILES IDX 1 1 2 2 8 3 7 4 6 5 4 6 3 7 19 8 20 9 18 10 11 11 9 12 10 13
REMARK SMILES IDX 12 14 13 15 15 16 16 17 5 18 17 20 14 22
REMARK H PARENT 5 19 17 21 14 23
REMARK Flexibility Score: inf
ROOT
ATOM      1  C   UNL     1      26.093  48.852  85.746  1.00  0.00     0.044 C 
ATOM      2  C   UNL     1      24.713  48.753  86.326  1.00  0.00    -0.047 A 
ATOM      3  C   UNL     1      24.045  49.905  86.756  1.00  0.00     0.016 A 
ATOM      4  C   UNL     1      22.737  49.828  87.267  1.00  0.00     0.038 A 
ATOM      5  C   UNL     1      22.086  48.579  87.341  1.00  0.00     0.076 A 
ATOM      6  C   UNL     1      22.755  47.421  86.881  1.00  0.00     0.127 A 
ATOM      7  C   UNL     1      24.057  47.518  86.374  1.00  0.00     0.050 A 
ATOM      8  C   UNL     1      20.719  48.509  87.922  1.00  0.00     0.201 C 
ATOM      9  O   UNL     1      20.275  47.402  88.329  1.00  0.00    -0.288 OA
ATOM     10  C   UNL     1      19.927  49.753  88.127  1.00  0.00     0.076 A 
ATOM     11  C   UNL     1      20.609  50.994  88.107  1.00  0.00     0.041 A 
ATOM     12  C   UNL     1      22.040  51.051  87.726  1.00  0.00     0.194 C 
ATOM     13  O   UNL     1      22.662  52.148  87.776  1.00  0.00    -0.289 OA
ATOM     14  C   UNL     1      19.922  52.175  88.440  1.00  0.00     0.059 A 
ATOM     15  C   UNL     1      18.568  52.137  88.775  1.00  0.00     0.120 A 
ATOM     16  C   UNL     1      17.881  50.926  88.750  1.00  0.00     0.093 A 
ATOM     17  C   UNL     1      18.531  49.740  88.397  1.00  0.00     0.131 A 
ENDROOT
BRANCH   6  18
ATOM     18  O   UNL     1      22.125  46.176  86.913  1.00  0.00    -0.507 OA
ATOM     19  H   UNL     1      21.648  45.799  86.104  1.00  0.00     0.293 HD
ENDBRANCH   6  18
BRANCH  17  20
ATOM     20  O   UNL     1      17.747  48.589  88.292  1.00  0.00    -0.507 OA
ATOM     21  H   UNL     1      16.742  48.584  88.395  1.00  0.00     0.293 HD
ENDBRANCH  17  20
BRANCH  15  22
ATOM     22  O   UNL     1      17.889  53.305  89.122  1.00  0.00    -0.508 OA
ATOM     23  H   UNL     1      17.000  53.277  89.607  1.00  0.00     0.293 HD
ENDBRANCH  15  22
TORSDOF 3
ENDMDL
MODEL 2
REMARK VINA RESULT:    -4.163      1.186      1.451
REMARK INTER + INTRA:          -4.528
REMARK INTER:                  -4.528
REMARK INTRA:                   0.000
REMARK UNBOUND:                 0.000
REMARK SMILES Cc1cc(O)c2c(c1)C(=O)c1cc(O)cc(O)c1C2=O
REMARK SMILES IDX 1 1 2 2 8 3 7 4 6 5 4 6 3 7 19 8 20 9 18 10 11 11 9 12 10 13
REMARK SMILES IDX 12 14 13 15 15 16 16 17 5 18 17 20 14 22
REMARK H PARENT 5 19 17 21 14 23
REMARK Flexibility Score: inf
ROOT
ATOM      1  C   UNL     1      26.826  47.847  85.386  1.00  0.00     0.044 C 
ATOM      2  C   UNL     1      25.448  48.104  85.919  1.00  0.00    -0.047 A 
ATOM      3  C   UNL     1      25.128  49.347  86.478  1.00  0.00     0.016 A 
ATOM      4  C   UNL     1      23.829  49.611  86.947  1.00  0.00     0.038 A 
ATOM      5  C   UNL     1      22.833  48.617  86.847  1.00  0.00     0.076 A 
ATOM      6  C   UNL     1      23.153  47.372  86.258  1.00  0.00     0.127 A 
ATOM      7  C   UNL     1      24.452  47.129  85.796  1.00  0.00     0.050 A 
ATOM      8  C   UNL     1      21.475  48.897  87.385  1.00  0.00     0.201 C 
ATOM      9  O   UNL     1      20.699  47.937  87.639  1.00  0.00    -0.288 OA
ATOM     10  C   UNL     1      21.079  50.291  87.730  1.00  0.00     0.076 A 
ATOM     11  C   UNL     1      22.098  51.261  87.882  1.00  0.00     0.041 A 
ATOM     12  C   UNL     1      23.501  50.926  87.542  1.00  0.00     0.194 C 
ATOM     13  O   UNL     1      24.418  51.770  87.744  1.00  0.00    -0.289 OA
ATOM     14  C   UNL     1      21.776  52.548  88.348  1.00  0.00     0.059 A 
ATOM     15  C   UNL     1      20.454  52.883  88.647  1.00  0.00     0.120 A 
ATOM     16  C   UNL     1      19.441  51.948  88.453  1.00  0.00     0.093 A 
ATOM     17  C   UNL     1      19.729  50.670  87.966  1.00  0.00     0.131 A 
ENDROOT
BRANCH   6  18
ATOM     18  O   UNL     1      22.180  46.381  86.119  1.00  0.00    -0.507 OA
ATOM     19  H   UNL     1      22.426  45.403  86.022  1.00  0.00     0.293 HD
ENDBRANCH   6  18
BRANCH  17  20
ATOM     20  O   UNL     1      18.645  49.830  87.699  1.00  0.00    -0.507 OA
ATOM     21  H   UNL     1      17.759  49.888  88.180  1.00  0.00     0.293 HD
ENDBRANCH  17  20
BRANCH  15  22
ATOM     22  O   UNL     1      20.135  54.154  89.125  1.00  0.00    -0.508 OA
ATOM     23  H   UNL     1      20.597  54.547  89.936  1.00  0.00     0.293 HD
ENDBRANCH  15  22
TORSDOF 3
ENDMDL
MODEL 3
REMARK VINA RESULT:    -4.130      2.252      4.771
REMARK INTER + INTRA:          -4.492
REMARK INTER:                  -4.492
REMARK INTRA:                   0.000
REMARK UNBOUND:                 0.000
REMARK SMILES Cc1cc(O)c2c(c1)C(=O)c1cc(O)cc(O)c1C2=O
REMARK SMILES IDX 1 1 2 2 8 3 7 4 6 5 4 6 3 7 19 8 20 9 18 10 11 11 9 12 10 13
REMARK SMILES IDX 12 14 13 15 15 16 16 17 5 18 17 20 14 22
REMARK H PARENT 5 19 17 21 14 23
REMARK Flexibility Score: inf
ROOT
ATOM      1  C   UNL     1      16.193  46.402  89.123  1.00  0.00     0.044 C 
ATOM      2  C   UNL     1      17.492  47.098  88.839  1.00  0.00    -0.047 A 
ATOM      3  C   UNL     1      17.568  48.495  88.884  1.00  0.00     0.016 A 
ATOM      4  C   UNL     1      18.789  49.155  88.656  1.00  0.00     0.038 A 
ATOM      5  C   UNL     1      19.951  48.404  88.387  1.00  0.00     0.076 A 
ATOM      6  C   UNL     1      19.876  46.992  88.369  1.00  0.00     0.127 A 
ATOM      7  C   UNL     1      18.652  46.353  88.600  1.00  0.00     0.050 A 
ATOM      8  C   UNL     1      21.225  49.118  88.108  1.00  0.00     0.201 C 
ATOM      9  O   UNL     1      22.160  48.511  87.520  1.00  0.00    -0.288 OA
ATOM     10  C   UNL     1      21.353  50.570  88.414  1.00  0.00     0.076 A 
ATOM     11  C   UNL     1      20.170  51.319  88.624  1.00  0.00     0.041 A 
ATOM     12  C   UNL     1      18.859  50.633  88.698  1.00  0.00     0.194 C 
ATOM     13  O   UNL     1      17.799  51.310  88.816  1.00  0.00    -0.289 OA
ATOM     14  C   UNL     1      20.243  52.715  88.771  1.00  0.00     0.059 A 
ATOM     15  C   UNL     1      21.475  53.370  88.728  1.00  0.00     0.120 A 
ATOM     16  C   UNL     1      22.646  52.633  88.570  1.00  0.00     0.093 A 
ATOM     17  C   UNL     1      22.606  51.241  88.448  1.00  0.00     0.131 A 
ENDROOT
BRANCH   6  18
ATOM     18  O   UNL     1      21.016  46.222  88.136  1.00  0.00    -0.507 OA
ATOM     19  H   UNL     1      21.085  45.262  88.453  1.00  0.00     0.293 HD
ENDBRANCH   6  18
BRANCH  17  20
ATOM     20  O   UNL     1      23.830  50.570  88.402  1.00  0.00    -0.507 OA
ATOM     21  H   UNL     1      23.923  49.586  88.189  1.00  0.00     0.293 HD
ENDBRANCH  17  20
BRANCH  15  22
ATOM     22  O   UNL     1      21.547  54.756  88.857  1.00  0.00    -0.508 OA
ATOM     23  H   UNL     1      20.824  55.362  88.488  1.00  0.00     0.293 HD
ENDBRANCH  15  22
TORSDOF 3
ENDMDL
MODEL 4
REMARK VINA RESULT:    -3.914      2.092      5.923
REMARK INTER + INTRA:          -4.257
REMARK INTER:                  -4.257
REMARK INTRA:                   0.000
REMARK UNBOUND:                 0.000
REMARK SMILES Cc1cc(O)c2c(c1)C(=O)c1cc(O)cc(O)c1C2=O
REMARK SMILES IDX 1 1 2 2 8 3 7 4 6 5 4 6 3 7 19 8 20 9 18 10 11 11 9 12 10 13
REMARK SMILES IDX 12 14 13 15 15 16 16 17 5 18 17 20 14 22
REMARK H PARENT 5 19 17 21 14 23
REMARK Flexibility Score: inf
ROOT
ATOM      1  C   UNL     1      21.546  54.323  89.125  1.00  0.00     0.044 C 
ATOM      2  C   UNL     1      21.743  53.023  88.402  1.00  0.00    -0.047 A 
ATOM      3  C   UNL     1      23.030  52.598  88.052  1.00  0.00     0.016 A 
ATOM      4  C   UNL     1      23.228  51.364  87.407  1.00  0.00     0.038 A 
ATOM      5  C   UNL     1      22.122  50.539  87.118  1.00  0.00     0.076 A 
ATOM      6  C   UNL     1      20.826  50.959  87.498  1.00  0.00     0.127 A 
ATOM      7  C   UNL     1      20.649  52.191  88.139  1.00  0.00     0.050 A 
ATOM      8  C   UNL     1      22.344  49.256  86.400  1.00  0.00     0.201 C 
ATOM      9  O   UNL     1      21.377  48.696  85.818  1.00  0.00    -0.288 OA
ATOM     10  C   UNL     1      23.719  48.699  86.270  1.00  0.00     0.076 A 
ATOM     11  C   UNL     1      24.818  49.559  86.509  1.00  0.00     0.041 A 
ATOM     12  C   UNL     1      24.592  50.926  87.034  1.00  0.00     0.194 C 
ATOM     13  O   UNL     1      25.568  51.714  87.180  1.00  0.00    -0.289 OA
ATOM     14  C   UNL     1      26.126  49.110  86.255  1.00  0.00     0.059 A 
ATOM     15  C   UNL     1      26.353  47.816  85.784  1.00  0.00     0.120 A 
ATOM     16  C   UNL     1      25.279  46.950  85.594  1.00  0.00     0.093 A 
ATOM     17  C   UNL     1      23.970  47.360  85.863  1.00  0.00     0.131 A 
ENDROOT
BRANCH   6  18
ATOM     18  O   UNL     1      19.716  50.150  87.251  1.00  0.00    -0.507 OA
ATOM     19  H   UNL     1      19.182  49.733  88.005  1.00  0.00     0.293 HD
ENDBRANCH   6  18
BRANCH  17  20
ATOM     20  O   UNL     1      22.964  46.398  85.748  1.00  0.00    -0.507 OA
ATOM     21  H   UNL     1      23.099  45.418  85.953  1.00  0.00     0.293 HD
ENDBRANCH  17  20
BRANCH  15  22
ATOM     22  O   UNL     1      27.648  47.375  85.516  1.00  0.00    -0.508 OA
ATOM     23  H   UNL     1      28.418  48.024  85.409  1.00  0.00     0.293 HD
ENDBRANCH  15  22
TORSDOF 3
ENDMDL
MODEL 5
REMARK VINA RESULT:    -3.872      2.834      5.016
REMARK INTER + INTRA:          -4.211
REMARK INTER:                  -4.211
REMARK INTRA:                   0.000
REMARK UNBOUND:                 0.000
REMARK SMILES Cc1cc(O)c2c(c1)C(=O)c1cc(O)cc(O)c1C2=O
REMARK SMILES IDX 1 1 2 2 8 3 7 4 6 5 4 6 3 7 19 8 20 9 18 10 11 11 9 12 10 13
REMARK SMILES IDX 12 14 13 15 15 16 16 17 5 18 17 20 14 22
REMARK H PARENT 5 19 17 21 14 23
REMARK Flexibility Score: inf
ROOT
ATOM      1  C   UNL     1      28.105  53.946  86.381  1.00  0.00     0.044 C 
ATOM      2  C   UNL     1      27.422  52.619  86.228  1.00  0.00    -0.047 A 
ATOM      3  C   UNL     1      26.167  52.401  86.808  1.00  0.00     0.016 A 
ATOM      4  C   UNL     1      25.501  51.174  86.640  1.00  0.00     0.038 A 
ATOM      5  C   UNL     1      26.097  50.153  85.871  1.00  0.00     0.076 A 
ATOM      6  C   UNL     1      27.353  50.386  85.264  1.00  0.00     0.127 A 
ATOM      7  C   UNL     1      28.000  51.615  85.443  1.00  0.00     0.050 A 
ATOM      8  C   UNL     1      25.399  48.847  85.737  1.00  0.00     0.201 C 
ATOM      9  O   UNL     1      26.052  47.829  85.382  1.00  0.00    -0.288 OA
ATOM     10  C   UNL     1      23.968  48.719  86.129  1.00  0.00     0.076 A 
ATOM     11  C   UNL     1      23.403  49.725  86.949  1.00  0.00     0.041 A 
ATOM     12  C   UNL     1      24.176  50.950  87.262  1.00  0.00     0.194 C 
ATOM     13  O   UNL     1      23.698  51.814  88.050  1.00  0.00    -0.289 OA
ATOM     14  C   UNL     1      22.103  49.565  87.458  1.00  0.00     0.059 A 
ATOM     15  C   UNL     1      21.355  48.428  87.149  1.00  0.00     0.120 A 
ATOM     16  C   UNL     1      21.888  47.457  86.304  1.00  0.00     0.093 A 
ATOM     17  C   UNL     1      23.168  47.603  85.762  1.00  0.00     0.131 A 
ENDROOT
BRANCH   6  18
ATOM     18  O   UNL     1      27.954  49.406  84.474  1.00  0.00    -0.507 OA
ATOM     19  H   UNL     1      28.429  48.610  84.881  1.00  0.00     0.293 HD
ENDBRANCH   6  18
BRANCH  17  20
ATOM     20  O   UNL     1      23.583  46.638  84.840  1.00  0.00    -0.507 OA
ATOM     21  H   UNL     1      22.965  45.956  84.425  1.00  0.00     0.293 HD
ENDBRANCH  17  20
BRANCH  15  22
ATOM     22  O   UNL     1      20.071  48.259  87.667  1.00  0.00    -0.508 OA
ATOM     23  H   UNL     1      19.818  48.613  88.581  1.00  0.00     0.293 HD
ENDBRANCH  15  22
TORSDOF 3
ENDMDL
MODEL 6
REMARK VINA RESULT:    -3.829      2.048      3.998
REMARK INTER + INTRA:          -4.164
REMARK INTER:                  -4.164
REMARK INTRA:                   0.000
REMARK UNBOUND:                 0.000
REMARK SMILES Cc1cc(O)c2c(c1)C(=O)c1cc(O)cc(O)c1C2=O
REMARK SMILES IDX 1 1 2 2 8 3 7 4 6 5 4 6 3 7 19 8 20 9 18 10 11 11 9 12 10 13
REMARK SMILES IDX 12 14 13 15 15 16 16 17 5 18 17 20 14 22
REMARK H PARENT 5 19 17 21 14 23
REMARK Flexibility Score: inf
ROOT
ATOM      1  C   UNL     1      22.830  54.438  88.067  1.00  0.00     0.044 C 
ATOM      2  C   UNL     1      22.531  52.974  88.202  1.00  0.00    -0.047 A 
ATOM      3  C   UNL     1      21.222  52.541  88.443  1.00  0.00     0.016 A 
ATOM      4  C   UNL     1      20.924  51.170  88.534  1.00  0.00     0.038 A 
ATOM      5  C   UNL     1      21.952  50.218  88.373  1.00  0.00     0.076 A 
ATOM      6  C   UNL     1      23.268  50.658  88.102  1.00  0.00     0.127 A 
ATOM      7  C   UNL     1      23.545  52.028  88.014  1.00  0.00     0.050 A 
ATOM      8  C   UNL     1      21.628  48.774  88.513  1.00  0.00     0.201 C 
ATOM      9  O   UNL     1      22.555  47.950  88.735  1.00  0.00    -0.288 OA
ATOM     10  C   UNL     1      20.210  48.319  88.506  1.00  0.00     0.076 A 
ATOM     11  C   UNL     1      19.195  49.282  88.728  1.00  0.00     0.041 A 
ATOM     12  C   UNL     1      19.538  50.722  88.797  1.00  0.00     0.194 C 
ATOM     13  O   UNL     1      18.642  51.571  89.064  1.00  0.00    -0.289 OA
ATOM     14  C   UNL     1      17.859  48.869  88.873  1.00  0.00     0.059 A 
ATOM     15  C   UNL     1      17.520  47.518  88.784  1.00  0.00     0.120 A 
ATOM     16  C   UNL     1      18.508  46.572  88.517  1.00  0.00     0.093 A 
ATOM     17  C   UNL     1      19.840  46.956  88.342  1.00  0.00     0.131 A 
ENDROOT
BRANCH   6  18
ATOM     18  O   UNL     1      24.299  49.738  87.907  1.00  0.00    -0.507 OA
ATOM     19  H   UNL     1      25.189  49.826  88.383  1.00  0.00     0.293 HD
ENDBRANCH   6  18
BRANCH  17  20
ATOM     20  O   UNL     1      20.748  45.961  87.973  1.00  0.00    -0.507 OA
ATOM     21  H   UNL     1      21.496  45.635  88.568  1.00  0.00     0.293 HD
ENDBRANCH  17  20
BRANCH  15  22
ATOM     22  O   UNL     1      16.198  47.105  88.944  1.00  0.00    -0.508 OA
ATOM     23  H   UNL     1      15.918  46.146  88.776  1.00  0.00     0.293 HD
ENDBRANCH  15  22
TORSDOF 3
ENDMDL
MODEL 7
REMARK VINA RESULT:    -3.814      2.013      3.825
REMARK INTER + INTRA:          -4.148
REMARK INTER:                  -4.148
REMARK INTRA:                   0.000
REMARK UNBOUND:                 0.000
REMARK SMILES Cc1cc(O)c2c(c1)C(=O)c1cc(O)cc(O)c1C2=O
REMARK SMILES IDX 1 1 2 2 8 3 7 4 6 5 4 6 3 7 19 8 20 9 18 10 11 11 9 12 10 13
REMARK SMILES IDX 12 14 13 15 15 16 16 17 5 18 17 20 14 22
REMARK H PARENT 5 19 17 21 14 23
REMARK Flexibility Score: inf
ROOT
ATOM      1  C   UNL     1      21.198  43.992  89.119  1.00  0.00     0.044 C 
ATOM      2  C   UNL     1      21.221  45.466  88.842  1.00  0.00    -0.047 A 
ATOM      3  C   UNL     1      20.048  46.222  88.947  1.00  0.00     0.016 A 
ATOM      4  C   UNL     1      20.065  47.610  88.726  1.00  0.00     0.038 A 
ATOM      5  C   UNL     1      21.278  48.253  88.404  1.00  0.00     0.076 A 
ATOM      6  C   UNL     1      22.466  47.491  88.325  1.00  0.00     0.127 A 
ATOM      7  C   UNL     1      22.429  46.109  88.549  1.00  0.00     0.050 A 
ATOM      8  C   UNL     1      21.273  49.715  88.133  1.00  0.00     0.201 C 
ATOM      9  O   UNL     1      22.234  50.232  87.503  1.00  0.00    -0.288 OA
ATOM     10  C   UNL     1      20.089  50.541  88.501  1.00  0.00     0.076 A 
ATOM     11  C   UNL     1      18.865  49.880  88.765  1.00  0.00     0.041 A 
ATOM     12  C   UNL     1      18.818  48.401  88.833  1.00  0.00     0.194 C 
ATOM     13  O   UNL     1      17.713  47.812  88.999  1.00  0.00    -0.289 OA
ATOM     14  C   UNL     1      17.695  50.631  88.972  1.00  0.00     0.059 A 
ATOM     15  C   UNL     1      17.732  52.026  88.936  1.00  0.00     0.120 A 
ATOM     16  C   UNL     1      18.942  52.682  88.725  1.00  0.00     0.093 A 
ATOM     17  C   UNL     1      20.126  51.961  88.542  1.00  0.00     0.131 A 
ENDROOT
BRANCH   6  18
ATOM     18  O   UNL     1      23.687  48.104  88.037  1.00  0.00    -0.507 OA
ATOM     19  H   UNL     1      24.556  47.583  88.025  1.00  0.00     0.293 HD
ENDBRANCH   6  18
BRANCH  17  20
ATOM     20  O   UNL     1      21.311  52.695  88.444  1.00  0.00    -0.507 OA
ATOM     21  H   UNL     1      21.432  53.619  88.833  1.00  0.00     0.293 HD
ENDBRANCH  17  20
BRANCH  15  22
ATOM     22  O   UNL     1      16.570  52.773  89.125  1.00  0.00    -0.508 OA
ATOM     23  H   UNL     1      15.946  52.595  89.903  1.00  0.00     0.293 HD
ENDBRANCH  15  22
TORSDOF 3
ENDMDL
MODEL 8
REMARK VINA RESULT:    -3.779      1.660      5.557
REMARK INTER + INTRA:          -4.110
REMARK INTER:                  -4.110
REMARK INTRA:                   0.000
REMARK UNBOUND:                 0.000
REMARK SMILES Cc1cc(O)c2c(c1)C(=O)c1cc(O)cc(O)c1C2=O
REMARK SMILES IDX 1 1 2 2 8 3 7 4 6 5 4 6 3 7 19 8 20 9 18 10 11 11 9 12 10 13
REMARK SMILES IDX 12 14 13 15 15 16 16 17 5 18 17 20 14 22
REMARK H PARENT 5 19 17 21 14 23
REMARK Flexibility Score: inf
ROOT
ATOM      1  C   UNL     1      17.840  53.100  89.125  1.00  0.00     0.044 C 
ATOM      2  C   UNL     1      18.426  51.743  88.869  1.00  0.00    -0.047 A 
ATOM      3  C   UNL     1      19.770  51.613  88.501  1.00  0.00     0.016 A 
ATOM      4  C   UNL     1      20.339  50.344  88.294  1.00  0.00     0.038 A 
ATOM      5  C   UNL     1      19.552  49.187  88.469  1.00  0.00     0.076 A 
ATOM      6  C   UNL     1      18.202  49.321  88.867  1.00  0.00     0.127 A 
ATOM      7  C   UNL     1      17.653  50.593  89.068  1.00  0.00     0.050 A 
ATOM      8  C   UNL     1      20.157  47.854  88.207  1.00  0.00     0.201 C 
ATOM      9  O   UNL     1      19.407  46.863  88.000  1.00  0.00    -0.288 OA
ATOM     10  C   UNL     1      21.634  47.714  88.076  1.00  0.00     0.076 A 
ATOM     11  C   UNL     1      22.401  48.881  87.844  1.00  0.00     0.041 A 
ATOM     12  C   UNL     1      21.760  50.216  87.898  1.00  0.00     0.194 C 
ATOM     13  O   UNL     1      22.431  51.249  87.622  1.00  0.00    -0.289 OA
ATOM     14  C   UNL     1      23.776  48.772  87.571  1.00  0.00     0.059 A 
ATOM     15  C   UNL     1      24.396  47.522  87.542  1.00  0.00     0.120 A 
ATOM     16  C   UNL     1      23.656  46.375  87.817  1.00  0.00     0.093 A 
ATOM     17  C   UNL     1      22.293  46.455  88.118  1.00  0.00     0.131 A 
ENDROOT
BRANCH   6  18
ATOM     18  O   UNL     1      17.407  48.193  89.076  1.00  0.00    -0.507 OA
ATOM     19  H   UNL     1      16.411  48.267  89.246  1.00  0.00     0.293 HD
ENDBRANCH   6  18
BRANCH  17  20
ATOM     20  O   UNL     1      21.650  45.271  88.487  1.00  0.00    -0.507 OA
ATOM     21  H   UNL     1      21.373  44.556  87.830  1.00  0.00     0.293 HD
ENDBRANCH  17  20
BRANCH  15  22
ATOM     22  O   UNL     1      25.756  47.410  87.255  1.00  0.00    -0.508 OA
ATOM     23  H   UNL     1      26.106  46.714  86.608  1.00  0.00     0.293 HD
ENDBRANCH  15  22
TORSDOF 3
ENDMDL
MODEL 9
REMARK VINA RESULT:    -3.760      2.646      6.268
REMARK INTER + INTRA:          -4.090
REMARK INTER:                  -4.090
REMARK INTRA:                   0.000
REMARK UNBOUND:                 0.000
REMARK SMILES Cc1cc(O)c2c(c1)C(=O)c1cc(O)cc(O)c1C2=O
REMARK SMILES IDX 1 1 2 2 8 3 7 4 6 5 4 6 3 7 19 8 20 9 18 10 11 11 9 12 10 13
REMARK SMILES IDX 12 14 13 15 15 16 16 17 5 18 17 20 14 22
REMARK H PARENT 5 19 17 21 14 23
REMARK Flexibility Score: inf
ROOT
ATOM      1  C   UNL     1      21.678  55.814  89.118  1.00  0.00     0.044 C 
ATOM      2  C   UNL     1      22.505  54.674  88.600  1.00  0.00    -0.047 A 
ATOM      3  C   UNL     1      21.942  53.400  88.461  1.00  0.00     0.016 A 
ATOM      4  C   UNL     1      22.697  52.334  87.942  1.00  0.00     0.038 A 
ATOM      5  C   UNL     1      24.034  52.549  87.549  1.00  0.00     0.076 A 
ATOM      6  C   UNL     1      24.591  53.843  87.666  1.00  0.00     0.127 A 
ATOM      7  C   UNL     1      23.823  54.893  88.184  1.00  0.00     0.050 A 
ATOM      8  C   UNL     1      24.832  51.402  87.040  1.00  0.00     0.201 C 
ATOM      9  O   UNL     1      26.090  51.478  87.032  1.00  0.00    -0.288 OA
ATOM     10  C   UNL     1      24.157  50.133  86.653  1.00  0.00     0.076 A 
ATOM     11  C   UNL     1      22.834  49.910  87.106  1.00  0.00     0.041 A 
ATOM     12  C   UNL     1      22.096  50.988  87.804  1.00  0.00     0.194 C 
ATOM     13  O   UNL     1      20.943  50.765  88.269  1.00  0.00    -0.289 OA
ATOM     14  C   UNL     1      22.219  48.666  86.884  1.00  0.00     0.059 A 
ATOM     15  C   UNL     1      22.895  47.651  86.205  1.00  0.00     0.120 A 
ATOM     16  C   UNL     1      24.178  47.881  85.715  1.00  0.00     0.093 A 
ATOM     17  C   UNL     1      24.804  49.117  85.897  1.00  0.00     0.131 A 
ENDROOT
BRANCH   6  18
ATOM     18  O   UNL     1      25.902  54.093  87.256  1.00  0.00    -0.507 OA
ATOM     19  H   UNL     1      26.415  53.437  86.680  1.00  0.00     0.293 HD
ENDBRANCH   6  18
BRANCH  17  20
ATOM     20  O   UNL     1      26.045  49.300  85.282  1.00  0.00    -0.507 OA
ATOM     21  H   UNL     1      26.651  48.541  85.005  1.00  0.00     0.293 HD
ENDBRANCH  17  20
BRANCH  15  22
ATOM     22  O   UNL     1      22.292  46.411  85.999  1.00  0.00    -0.508 OA
ATOM     23  H   UNL     1      21.792  46.200  85.144  1.00  0.00     0.293 HD
ENDBRANCH  15  22
TORSDOF 3
ENDMDL
