MODEL 1
REMARK VINA RESULT:    -4.074      0.000      0.000
REMARK INTER + INTRA:          -5.363
REMARK INTER:                  -5.027
REMARK INTRA:                  -0.337
REMARK UNBOUND:                -0.337
REMARK SMILES CC(C)=CCC[C@@H](C)c1ccc(C)cc1
REMARK SMILES IDX 6 1 7 2 8 3 9 4 13 5 12 6 11 7 14 8 10 9 15 10 5 11 4 12
REMARK SMILES IDX 2 13 1 14 3 15
REMARK H PARENT
REMARK Flexibility Score: inf
ROOT
ATOM      1  C   UNL     1      47.506  42.207  42.244  1.00  0.00     0.012 C 
ENDROOT
BRANCH   1   2
ATOM      2  C   UNL     1      48.996  41.909  42.546  1.00  0.00     0.016 C 
ATOM      3  C   UNL     1      49.908  43.101  42.218  1.00  0.00     0.013 C 
BRANCH   2   4
ATOM      4  C   UNL     1      49.168  41.500  43.998  1.00  0.00    -0.045 A 
ATOM      5  C   UNL     1      49.623  40.353  48.138  1.00  0.00     0.044 C 
ATOM      6  C   UNL     1      49.490  40.770  46.703  1.00  0.00    -0.051 A 
ATOM      7  C   UNL     1      50.124  40.035  45.691  1.00  0.00     0.004 A 
ATOM      8  C   UNL     1      48.675  41.857  46.356  1.00  0.00     0.004 A 
ATOM      9  C   UNL     1      49.971  40.400  44.351  1.00  0.00     0.004 A 
ATOM     10  C   UNL     1      48.521  42.224  45.016  1.00  0.00     0.004 A 
ENDBRANCH   2   4
ENDBRANCH   1   2
BRANCH   1  11
ATOM     11  C   UNL     1      47.076  41.834  40.815  1.00  0.00     0.028 C 
BRANCH  11  12
ATOM     12  C   UNL     1      48.247  41.751  39.864  1.00  0.00    -0.028 C 
ATOM     13  C   UNL     1      48.179  42.143  38.574  1.00  0.00    -0.080 C 
ATOM     14  C   UNL     1      46.908  42.705  37.985  1.00  0.00     0.039 C 
ATOM     15  C   UNL     1      49.408  42.010  37.711  1.00  0.00     0.039 C 
ENDBRANCH  11  12
ENDBRANCH   1  11
TORSDOF 4
ENDMDL
MODEL 2
REMARK VINA RESULT:    -3.942      1.360      6.804
REMARK INTER + INTRA:          -5.201
REMARK INTER:                  -4.554
REMARK INTRA:                  -0.647
REMARK UNBOUND:                -0.337
REMARK SMILES CC(C)=CCC[C@@H](C)c1ccc(C)cc1
REMARK SMILES IDX 6 1 7 2 8 3 9 4 13 5 12 6 11 7 14 8 10 9 15 10 5 11 4 12
REMARK SMILES IDX 2 13 1 14 3 15
REMARK H PARENT
REMARK Flexibility Score: inf
ROOT
ATOM      1  C   UNL     1      49.189  43.057  43.965  1.00  0.00     0.012 C 
ENDROOT
BRANCH   1   2
ATOM      2  C   UNL     1      48.071  42.075  43.532  1.00  0.00     0.016 C 
ATOM      3  C   UNL     1      46.759  42.313  44.295  1.00  0.00     0.013 C 
BRANCH   2   4
ATOM      4  C   UNL     1      47.833  42.174  42.036  1.00  0.00    -0.045 A 
ATOM      5  C   UNL     1      47.137  42.487  37.784  1.00  0.00     0.044 C 
ATOM      6  C   UNL     1      47.362  42.351  39.261  1.00  0.00    -0.051 A 
ATOM      7  C   UNL     1      48.501  41.691  39.745  1.00  0.00     0.004 A 
ATOM      8  C   UNL     1      46.472  42.943  40.169  1.00  0.00     0.004 A 
ATOM      9  C   UNL     1      48.731  41.597  41.119  1.00  0.00     0.004 A 
ATOM     10  C   UNL     1      46.700  42.849  41.545  1.00  0.00     0.004 A 
ENDBRANCH   2   4
ENDBRANCH   1   2
BRANCH   1  11
ATOM     11  C   UNL     1      50.124  42.495  45.049  1.00  0.00     0.028 C 
BRANCH  11  12
ATOM     12  C   UNL     1      49.578  42.702  46.443  1.00  0.00    -0.028 C 
ATOM     13  C   UNL     1      49.479  41.709  47.352  1.00  0.00    -0.080 C 
ATOM     14  C   UNL     1      49.920  40.300  47.033  1.00  0.00     0.039 C 
ATOM     15  C   UNL     1      48.914  42.025  48.712  1.00  0.00     0.039 C 
ENDBRANCH  11  12
ENDBRANCH   1  11
TORSDOF 4
ENDMDL
MODEL 3
REMARK VINA RESULT:    -3.767      1.586      3.431
REMARK INTER + INTRA:          -4.985
REMARK INTER:                  -4.337
REMARK INTRA:                  -0.648
REMARK UNBOUND:                -0.337
REMARK SMILES CC(C)=CCC[C@@H](C)c1ccc(C)cc1
REMARK SMILES IDX 6 1 7 2 8 3 9 4 13 5 12 6 11 7 14 8 10 9 15 10 5 11 4 12
REMARK SMILES IDX 2 13 1 14 3 15
REMARK H PARENT
REMARK Flexibility Score: inf
ROOT
ATOM      1  C   UNL     1      49.924  41.804  44.318  1.00  0.00     0.012 C 
ENDROOT
BRANCH   1   2
ATOM      2  C   UNL     1      49.170  40.776  45.199  1.00  0.00     0.016 C 
ATOM      3  C   UNL     1      49.759  39.363  45.078  1.00  0.00     0.013 C 
BRANCH   2   4
ATOM      4  C   UNL     1      49.171  41.224  46.650  1.00  0.00    -0.045 A 
ATOM      5  C   UNL     1      49.208  42.478  50.783  1.00  0.00     0.044 C 
ATOM      6  C   UNL     1      49.169  42.026  49.353  1.00  0.00    -0.051 A 
ATOM      7  C   UNL     1      48.530  42.810  48.382  1.00  0.00     0.004 A 
ATOM      8  C   UNL     1      49.830  40.853  48.965  1.00  0.00     0.004 A 
ATOM      9  C   UNL     1      48.524  42.410  47.043  1.00  0.00     0.004 A 
ATOM     10  C   UNL     1      49.825  40.450  47.626  1.00  0.00     0.004 A 
ENDBRANCH   2   4
ENDBRANCH   1   2
BRANCH   1  11
ATOM     11  C   UNL     1      48.999  42.795  43.591  1.00  0.00     0.028 C 
BRANCH  11  12
ATOM     12  C   UNL     1      47.951  42.097  42.756  1.00  0.00    -0.028 C 
ATOM     13  C   UNL     1      48.005  42.029  41.409  1.00  0.00    -0.080 C 
ATOM     14  C   UNL     1      49.140  42.651  40.632  1.00  0.00     0.039 C 
ATOM     15  C   UNL     1      46.901  41.312  40.675  1.00  0.00     0.039 C 
ENDBRANCH  11  12
ENDBRANCH   1  11
TORSDOF 4
ENDMDL
MODEL 4
REMARK VINA RESULT:    -3.225      1.201      2.223
REMARK INTER + INTRA:          -4.316
REMARK INTER:                  -4.163
REMARK INTRA:                  -0.153
REMARK UNBOUND:                -0.337
REMARK SMILES CC(C)=CCC[C@@H](C)c1ccc(C)cc1
REMARK SMILES IDX 6 1 7 2 8 3 9 4 13 5 12 6 11 7 14 8 10 9 15 10 5 11 4 12
REMARK SMILES IDX 2 13 1 14 3 15
REMARK H PARENT
REMARK Flexibility Score: inf
ROOT
ATOM      1  C   UNL     1      47.347  42.480  44.165  1.00  0.00     0.012 C 
ENDROOT
BRANCH   1   2
ATOM      2  C   UNL     1      48.792  41.944  44.322  1.00  0.00     0.016 C 
ATOM      3  C   UNL     1      49.841  42.934  43.794  1.00  0.00     0.013 C 
BRANCH   2   4
ATOM      4  C   UNL     1      49.073  41.607  45.776  1.00  0.00    -0.045 A 
ATOM      5  C   UNL     1      49.907  40.633  49.902  1.00  0.00     0.044 C 
ATOM      6  C   UNL     1      49.592  40.953  48.470  1.00  0.00    -0.051 A 
ATOM      7  C   UNL     1      48.821  42.081  48.151  1.00  0.00     0.004 A 
ATOM      8  C   UNL     1      50.122  40.168  47.437  1.00  0.00     0.004 A 
ATOM      9  C   UNL     1      48.558  42.402  46.817  1.00  0.00     0.004 A 
ATOM     10  C   UNL     1      49.859  40.487  46.101  1.00  0.00     0.004 A 
ENDBRANCH   2   4
ENDBRANCH   1   2
BRANCH   1  11
ATOM     11  C   UNL     1      46.893  42.620  42.702  1.00  0.00     0.028 C 
BRANCH  11  12
ATOM     12  C   UNL     1      47.839  41.942  41.738  1.00  0.00    -0.028 C 
ATOM     13  C   UNL     1      47.761  42.091  40.399  1.00  0.00    -0.080 C 
ATOM     14  C   UNL     1      46.708  42.966  39.762  1.00  0.00     0.039 C 
ATOM     15  C   UNL     1      48.752  41.361  39.530  1.00  0.00     0.039 C 
ENDBRANCH  11  12
ENDBRANCH   1  11
TORSDOF 4
ENDMDL
MODEL 5
REMARK VINA RESULT:    -2.840      1.540      7.167
REMARK INTER + INTRA:          -3.840
REMARK INTER:                  -3.185
REMARK INTRA:                  -0.656
REMARK UNBOUND:                -0.337
REMARK SMILES CC(C)=CCC[C@@H](C)c1ccc(C)cc1
REMARK SMILES IDX 6 1 7 2 8 3 9 4 13 5 12 6 11 7 14 8 10 9 15 10 5 11 4 12
REMARK SMILES IDX 2 13 1 14 3 15
REMARK H PARENT
REMARK Flexibility Score: inf
ROOT
ATOM      1  C   UNL     1      49.829  40.467  46.614  1.00  0.00     0.012 C 
ENDROOT
BRANCH   1   2
ATOM      2  C   UNL     1      49.143  41.812  46.264  1.00  0.00     0.016 C 
ATOM      3  C   UNL     1      50.046  43.020  46.558  1.00  0.00     0.013 C 
BRANCH   2   4
ATOM      4  C   UNL     1      48.712  41.821  44.808  1.00  0.00    -0.045 A 
ATOM      5  C   UNL     1      47.463  41.877  40.674  1.00  0.00     0.044 C 
ATOM      6  C   UNL     1      47.883  41.829  42.113  1.00  0.00    -0.051 A 
ATOM      7  C   UNL     1      49.135  41.305  42.467  1.00  0.00     0.004 A 
ATOM      8  C   UNL     1      47.058  42.371  43.108  1.00  0.00     0.004 A 
ATOM      9  C   UNL     1      49.543  41.294  43.803  1.00  0.00     0.004 A 
ATOM     10  C   UNL     1      47.464  42.361  44.446  1.00  0.00     0.004 A 
ENDBRANCH   2   4
ENDBRANCH   1   2
BRANCH   1  11
ATOM     11  C   UNL     1      49.307  39.822  47.909  1.00  0.00     0.028 C 
BRANCH  11  12
ATOM     12  C   UNL     1      49.950  40.409  49.144  1.00  0.00    -0.028 C 
ATOM     13  C   UNL     1      49.392  41.406  49.863  1.00  0.00    -0.080 C 
ATOM     14  C   UNL     1      48.063  42.010  49.479  1.00  0.00     0.039 C 
ATOM     15  C   UNL     1      50.124  41.921  51.076  1.00  0.00     0.039 C 
ENDBRANCH  11  12
ENDBRANCH   1  11
TORSDOF 4
ENDMDL
MODEL 6
REMARK VINA RESULT:    -2.503      1.335      6.546
REMARK INTER + INTRA:          -3.424
REMARK INTER:                  -3.467
REMARK INTRA:                   0.042
REMARK UNBOUND:                -0.337
REMARK SMILES CC(C)=CCC[C@@H](C)c1ccc(C)cc1
REMARK SMILES IDX 6 1 7 2 8 3 9 4 13 5 12 6 11 7 14 8 10 9 15 10 5 11 4 12
REMARK SMILES IDX 2 13 1 14 3 15
REMARK H PARENT
REMARK Flexibility Score: inf
ROOT
ATOM      1  C   UNL     1      47.248  41.822  42.528  1.00  0.00     0.012 C 
ENDROOT
BRANCH   1   2
ATOM      2  C   UNL     1      46.459  41.942  41.200  1.00  0.00     0.016 C 
ATOM      3  C   UNL     1      45.479  43.125  41.210  1.00  0.00     0.013 C 
BRANCH   2   4
ATOM      4  C   UNL     1      47.415  42.062  40.027  1.00  0.00    -0.045 A 
ATOM      5  C   UNL     1      50.124  42.438  36.683  1.00  0.00     0.044 C 
ATOM      6  C   UNL     1      49.169  42.284  37.830  1.00  0.00    -0.051 A 
ATOM      7  C   UNL     1      49.499  41.463  38.919  1.00  0.00     0.004 A 
ATOM      8  C   UNL     1      47.971  43.011  37.855  1.00  0.00     0.004 A 
ATOM      9  C   UNL     1      48.628  41.347  40.004  1.00  0.00     0.004 A 
ATOM     10  C   UNL     1      47.097  42.896  38.940  1.00  0.00     0.004 A 
ENDBRANCH   2   4
ENDBRANCH   1   2
BRANCH   1  11
ATOM     11  C   UNL     1      48.516  42.692  42.577  1.00  0.00     0.028 C 
BRANCH  11  12
ATOM     12  C   UNL     1      48.886  43.093  43.986  1.00  0.00    -0.028 C 
ATOM     13  C   UNL     1      49.468  42.249  44.864  1.00  0.00    -0.080 C 
ATOM     14  C   UNL     1      49.801  40.825  44.489  1.00  0.00     0.039 C 
ATOM     15  C   UNL     1      49.788  42.753  46.248  1.00  0.00     0.039 C 
ENDBRANCH  11  12
ENDBRANCH   1  11
TORSDOF 4
ENDMDL
MODEL 7
REMARK VINA RESULT:    -1.243      2.698      4.210
REMARK INTER + INTRA:          -1.870
REMARK INTER:                  -1.193
REMARK INTRA:                  -0.677
REMARK UNBOUND:                -0.337
REMARK SMILES CC(C)=CCC[C@@H](C)c1ccc(C)cc1
REMARK SMILES IDX 6 1 7 2 8 3 9 4 13 5 12 6 11 7 14 8 10 9 15 10 5 11 4 12
REMARK SMILES IDX 2 13 1 14 3 15
REMARK H PARENT
REMARK Flexibility Score: inf
ROOT
ATOM      1  C   UNL     1      47.118  40.480  40.244  1.00  0.00     0.012 C 
ENDROOT
BRANCH   1   2
ATOM      2  C   UNL     1      47.309  41.949  40.698  1.00  0.00     0.016 C 
ATOM      3  C   UNL     1      46.088  42.824  40.371  1.00  0.00     0.013 C 
BRANCH   2   4
ATOM      4  C   UNL     1      47.611  42.006  42.185  1.00  0.00    -0.045 A 
ATOM      5  C   UNL     1      48.508  42.174  46.407  1.00  0.00     0.044 C 
ATOM      6  C   UNL     1      48.187  42.086  44.944  1.00  0.00    -0.051 A 
ATOM      7  C   UNL     1      46.924  42.474  44.473  1.00  0.00     0.004 A 
ATOM      8  C   UNL     1      49.169  41.682  44.028  1.00  0.00     0.004 A 
ATOM      9  C   UNL     1      46.636  42.428  43.107  1.00  0.00     0.004 A 
ATOM     10  C   UNL     1      48.882  41.634  42.660  1.00  0.00     0.004 A 
ENDBRANCH   2   4
ENDBRANCH   1   2
BRANCH   1  11
ATOM     11  C   UNL     1      45.645  40.071  40.069  1.00  0.00     0.028 C 
BRANCH  11  12
ATOM     12  C   UNL     1      45.247  38.944  40.994  1.00  0.00    -0.028 C 
ATOM     13  C   UNL     1      44.068  38.294  40.900  1.00  0.00    -0.080 C 
ATOM     14  C   UNL     1      43.051  38.652  39.843  1.00  0.00     0.039 C 
ATOM     15  C   UNL     1      43.771  37.188  41.879  1.00  0.00     0.039 C 
ENDBRANCH  11  12
ENDBRANCH   1  11
TORSDOF 4
ENDMDL
