MODEL 1
REMARK VINA RESULT:    -6.562      0.000      0.000
REMARK INTER + INTRA:         -10.893
REMARK INTER:                 -10.206
REMARK INTRA:                  -0.687
REMARK UNBOUND:                -0.687
REMARK SMILES COc1cc(CNC(=O)CCCCC=CC(C)C)ccc1O
REMARK SMILES IDX 11 1 12 2 13 3 14 4 15 5 16 6 17 7 18 8 10 9 8 10 9 11 7 12
REMARK SMILES IDX 6 14 5 15 4 16 19 17 3 18 20 19 21 20 2 21 1 22 22 23
REMARK H PARENT 7 13 22 24
REMARK Flexibility Score: inf
ROOT
ATOM      1  C   UNL     1       9.948  14.676 -18.119  1.00  0.00     0.010 C 
ENDROOT
BRANCH   1   2
ATOM      2  C   UNL     1      10.276  16.110 -18.561  1.00  0.00     0.005 C 
BRANCH   2   3
ATOM      3  C   UNL     1       9.401  16.564 -19.743  1.00  0.00     0.027 C 
BRANCH   3   4
ATOM      4  C   UNL     1       8.886  15.395 -20.550  1.00  0.00    -0.031 C 
ATOM      5  C   UNL     1       8.805  15.359 -21.895  1.00  0.00    -0.028 C 
BRANCH   5   6
ATOM      6  C   UNL     1       9.285  16.455 -22.825  1.00  0.00     0.005 C 
ATOM      7  C   UNL     1       9.947  15.828 -24.054  1.00  0.00     0.012 C 
ATOM      8  C   UNL     1       8.102  17.339 -23.238  1.00  0.00     0.012 C 
ENDBRANCH   5   6
ENDBRANCH   3   4
ENDBRANCH   2   3
ENDBRANCH   1   2
BRANCH   1   9
ATOM      9  C   UNL     1      10.429  14.417 -16.685  1.00  0.00     0.100 C 
BRANCH   9  10
ATOM     10  C   UNL     1       9.302  13.915 -15.832  1.00  0.00     0.220 C 
ATOM     11  O   UNL     1       8.169  14.457 -15.921  1.00  0.00    -0.275 OA
ATOM     12  N   UNL     1       9.512  12.811 -14.932  1.00  0.00    -0.352 N 
ATOM     13  H   UNL     1      10.467  12.396 -14.846  1.00  0.00     0.163 HD
BRANCH  12  14
ATOM     14  C   UNL     1       8.432  12.219 -14.145  1.00  0.00     0.151 C 
BRANCH  14  15
ATOM     15  C   UNL     1       8.501  10.713 -14.191  1.00  0.00    -0.025 A 
ATOM     16  C   UNL     1       7.753   9.944 -13.282  1.00  0.00     0.056 A 
ATOM     17  C   UNL     1       9.306  10.067 -15.142  1.00  0.00     0.009 A 
ATOM     18  C   UNL     1       7.803   8.535 -13.322  1.00  0.00     0.160 A 
ATOM     19  C   UNL     1       9.362   8.672 -15.183  1.00  0.00     0.050 A 
ATOM     20  C   UNL     1       8.615   7.904 -14.278  1.00  0.00     0.157 A 
BRANCH  18  21
ATOM     21  O   UNL     1       7.064   7.731 -12.435  1.00  0.00    -0.493 OA
ATOM     22  C   UNL     1       6.970   7.960 -11.032  1.00  0.00     0.278 C 
ENDBRANCH  18  21
BRANCH  20  23
ATOM     23  O   UNL     1       8.670   6.512 -14.324  1.00  0.00    -0.504 OA
ATOM     24  H   UNL     1       8.685   5.957 -13.478  1.00  0.00     0.293 HD
ENDBRANCH  20  23
ENDBRANCH  14  15
ENDBRANCH  12  14
ENDBRANCH   9  10
ENDBRANCH   1   9
TORSDOF 10
ENDMDL
MODEL 2
REMARK VINA RESULT:    -6.348      2.554     10.448
REMARK INTER + INTRA:         -10.560
REMARK INTER:                 -10.068
REMARK INTRA:                  -0.492
REMARK UNBOUND:                -0.687
REMARK SMILES COc1cc(CNC(=O)CCCCC=CC(C)C)ccc1O
REMARK SMILES IDX 11 1 12 2 13 3 14 4 15 5 16 6 17 7 18 8 10 9 8 10 9 11 7 12
REMARK SMILES IDX 6 14 5 15 4 16 19 17 3 18 20 19 21 20 2 21 1 22 22 23
REMARK H PARENT 7 13 22 24
REMARK Flexibility Score: inf
ROOT
ATOM      1  C   UNL     1       6.997   9.611 -13.456  1.00  0.00     0.010 C 
ENDROOT
BRANCH   1   2
ATOM      2  C   UNL     1       7.533   8.711 -12.333  1.00  0.00     0.005 C 
BRANCH   2   3
ATOM      3  C   UNL     1       6.849   9.000 -10.985  1.00  0.00     0.027 C 
BRANCH   3   4
ATOM      4  C   UNL     1       6.344   7.740 -10.322  1.00  0.00    -0.031 C 
ATOM      5  C   UNL     1       6.270   7.542  -8.991  1.00  0.00    -0.028 C 
BRANCH   5   6
ATOM      6  C   UNL     1       6.608   8.578  -7.938  1.00  0.00     0.005 C 
ATOM      7  C   UNL     1       5.879   8.238  -6.635  1.00  0.00     0.012 C 
ATOM      8  C   UNL     1       8.125   8.615  -7.716  1.00  0.00     0.012 C 
ENDBRANCH   5   6
ENDBRANCH   3   4
ENDBRANCH   2   3
ENDBRANCH   1   2
BRANCH   1   9
ATOM      9  C   UNL     1       7.886  10.849 -13.642  1.00  0.00     0.100 C 
BRANCH   9  10
ATOM     10  C   UNL     1       8.683  10.742 -14.908  1.00  0.00     0.220 C 
ATOM     11  O   UNL     1       8.464   9.786 -15.699  1.00  0.00    -0.275 OA
ATOM     12  N   UNL     1       9.678  11.734 -15.223  1.00  0.00    -0.352 N 
ATOM     13  H   UNL     1       9.869  12.500 -14.539  1.00  0.00     0.163 HD
BRANCH  12  14
ATOM     14  C   UNL     1      10.419  11.735 -16.483  1.00  0.00     0.151 C 
BRANCH  14  15
ATOM     15  C   UNL     1      10.348  13.088 -17.144  1.00  0.00    -0.025 A 
ATOM     16  C   UNL     1       9.495  13.294 -18.243  1.00  0.00     0.056 A 
ATOM     17  C   UNL     1      11.125  14.155 -16.666  1.00  0.00     0.009 A 
ATOM     18  C   UNL     1       9.413  14.558 -18.863  1.00  0.00     0.160 A 
ATOM     19  C   UNL     1      11.051  15.407 -17.279  1.00  0.00     0.050 A 
ATOM     20  C   UNL     1      10.199  15.613 -18.375  1.00  0.00     0.157 A 
BRANCH  18  21
ATOM     21  O   UNL     1       8.567  14.804 -19.959  1.00  0.00    -0.493 OA
ATOM     22  C   UNL     1       7.389  14.057 -20.249  1.00  0.00     0.278 C 
ENDBRANCH  18  21
BRANCH  20  23
ATOM     23  O   UNL     1      10.125  16.865 -18.982  1.00  0.00    -0.504 OA
ATOM     24  H   UNL     1      10.950  17.436 -19.117  1.00  0.00     0.293 HD
ENDBRANCH  20  23
ENDBRANCH  14  15
ENDBRANCH  12  14
ENDBRANCH   9  10
ENDBRANCH   1   9
TORSDOF 10
ENDMDL
MODEL 3
REMARK VINA RESULT:    -6.271      2.482      9.243
REMARK INTER + INTRA:         -10.441
REMARK INTER:                  -9.340
REMARK INTRA:                  -1.100
REMARK UNBOUND:                -0.687
REMARK SMILES COc1cc(CNC(=O)CCCCC=CC(C)C)ccc1O
REMARK SMILES IDX 11 1 12 2 13 3 14 4 15 5 16 6 17 7 18 8 10 9 8 10 9 11 7 12
REMARK SMILES IDX 6 14 5 15 4 16 19 17 3 18 20 19 21 20 2 21 1 22 22 23
REMARK H PARENT 7 13 22 24
REMARK Flexibility Score: inf
ROOT
ATOM      1  C   UNL     1       8.467  12.024 -13.789  1.00  0.00     0.010 C 
ENDROOT
BRANCH   1   2
ATOM      2  C   UNL     1       7.716  11.428 -12.589  1.00  0.00     0.005 C 
BRANCH   2   3
ATOM      3  C   UNL     1       6.735  10.320 -13.014  1.00  0.00     0.027 C 
BRANCH   3   4
ATOM      4  C   UNL     1       6.985   9.026 -12.275  1.00  0.00    -0.031 C 
ATOM      5  C   UNL     1       7.521   7.916 -12.819  1.00  0.00    -0.028 C 
BRANCH   5   6
ATOM      6  C   UNL     1       8.033   7.803 -14.241  1.00  0.00     0.005 C 
ATOM      7  C   UNL     1       9.526   8.140 -14.275  1.00  0.00     0.012 C 
ATOM      8  C   UNL     1       7.786   6.385 -14.768  1.00  0.00     0.012 C 
ENDBRANCH   5   6
ENDBRANCH   3   4
ENDBRANCH   2   3
ENDBRANCH   1   2
BRANCH   1   9
ATOM      9  C   UNL     1       7.955  11.432 -15.109  1.00  0.00     0.100 C 
BRANCH   9  10
ATOM     10  C   UNL     1       8.972  11.612 -16.198  1.00  0.00     0.220 C 
ATOM     11  O   UNL     1      10.153  11.216 -16.014  1.00  0.00    -0.275 OA
ATOM     12  N   UNL     1       8.593  12.217 -17.448  1.00  0.00    -0.352 N 
ATOM     13  H   UNL     1       7.617  12.570 -17.570  1.00  0.00     0.163 HD
BRANCH  12  14
ATOM     14  C   UNL     1       9.513  12.335 -18.577  1.00  0.00     0.151 C 
BRANCH  14  15
ATOM     15  C   UNL     1       9.171  13.535 -19.423  1.00  0.00    -0.025 A 
ATOM     16  C   UNL     1       9.358  14.833 -18.916  1.00  0.00     0.056 A 
ATOM     17  C   UNL     1       8.668  13.369 -20.723  1.00  0.00     0.009 A 
ATOM     18  C   UNL     1       9.049  15.964 -19.701  1.00  0.00     0.160 A 
ATOM     19  C   UNL     1       8.358  14.485 -21.504  1.00  0.00     0.050 A 
ATOM     20  C   UNL     1       8.545  15.780 -20.999  1.00  0.00     0.157 A 
BRANCH  18  21
ATOM     21  O   UNL     1       9.229  17.277 -19.231  1.00  0.00    -0.493 OA
ATOM     22  C   UNL     1       8.224  18.038 -18.567  1.00  0.00     0.278 C 
ENDBRANCH  18  21
BRANCH  20  23
ATOM     23  O   UNL     1       8.238  16.891 -21.781  1.00  0.00    -0.504 OA
ATOM     24  H   UNL     1       8.774  17.119 -22.609  1.00  0.00     0.293 HD
ENDBRANCH  20  23
ENDBRANCH  14  15
ENDBRANCH  12  14
ENDBRANCH   9  10
ENDBRANCH   1   9
TORSDOF 10
ENDMDL
MODEL 4
REMARK VINA RESULT:    -6.232      1.801      3.040
REMARK INTER + INTRA:         -10.380
REMARK INTER:                  -9.440
REMARK INTRA:                  -0.940
REMARK UNBOUND:                -0.687
REMARK SMILES COc1cc(CNC(=O)CCCCC=CC(C)C)ccc1O
REMARK SMILES IDX 11 1 12 2 13 3 14 4 15 5 16 6 17 7 18 8 10 9 8 10 9 11 7 12
REMARK SMILES IDX 6 14 5 15 4 16 19 17 3 18 20 19 21 20 2 21 1 22 22 23
REMARK H PARENT 7 13 22 24
REMARK Flexibility Score: inf
ROOT
ATOM      1  C   UNL     1       8.916  12.913 -18.877  1.00  0.00     0.010 C 
ENDROOT
BRANCH   1   2
ATOM      2  C   UNL     1       8.897  13.036 -20.408  1.00  0.00     0.005 C 
BRANCH   2   3
ATOM      3  C   UNL     1       7.892  14.099 -20.888  1.00  0.00     0.027 C 
BRANCH   3   4
ATOM      4  C   UNL     1       8.583  15.303 -21.486  1.00  0.00    -0.031 C 
ATOM      5  C   UNL     1       8.908  16.423 -20.811  1.00  0.00    -0.028 C 
BRANCH   5   6
ATOM      6  C   UNL     1       8.706  16.632 -19.324  1.00  0.00     0.005 C 
ATOM      7  C   UNL     1      10.049  16.501 -18.602  1.00  0.00     0.012 C 
ATOM      8  C   UNL     1       8.090  18.015 -19.075  1.00  0.00     0.012 C 
ENDBRANCH   5   6
ENDBRANCH   3   4
ENDBRANCH   2   3
ENDBRANCH   1   2
BRANCH   1   9
ATOM      9  C   UNL     1       9.655  11.643 -18.435  1.00  0.00     0.100 C 
BRANCH   9  10
ATOM     10  C   UNL     1       9.878  11.649 -16.952  1.00  0.00     0.220 C 
ATOM     11  O   UNL     1      11.052  11.718 -16.501  1.00  0.00    -0.275 OA
ATOM     12  N   UNL     1       8.755  11.595 -16.052  1.00  0.00    -0.352 N 
ATOM     13  H   UNL     1       7.791  11.504 -16.443  1.00  0.00     0.163 HD
BRANCH  12  14
ATOM     14  C   UNL     1       8.903  11.692 -14.601  1.00  0.00     0.151 C 
BRANCH  14  15
ATOM     15  C   UNL     1       8.194  10.552 -13.914  1.00  0.00    -0.025 A 
ATOM     16  C   UNL     1       8.388   9.231 -14.357  1.00  0.00     0.056 A 
ATOM     17  C   UNL     1       7.341  10.796 -12.828  1.00  0.00     0.009 A 
ATOM     18  C   UNL     1       7.738   8.155 -13.716  1.00  0.00     0.160 A 
ATOM     19  C   UNL     1       6.691   9.735 -12.192  1.00  0.00     0.050 A 
ATOM     20  C   UNL     1       6.886   8.417 -12.632  1.00  0.00     0.157 A 
BRANCH  18  21
ATOM     21  O   UNL     1       7.912   6.821 -14.125  1.00  0.00    -0.493 OA
ATOM     22  C   UNL     1       7.148   6.187 -15.146  1.00  0.00     0.278 C 
ENDBRANCH  18  21
BRANCH  20  23
ATOM     23  O   UNL     1       6.239   7.361 -11.994  1.00  0.00    -0.504 OA
ATOM     24  H   UNL     1       5.599   7.520 -11.226  1.00  0.00     0.293 HD
ENDBRANCH  20  23
ENDBRANCH  14  15
ENDBRANCH  12  14
ENDBRANCH   9  10
ENDBRANCH   1   9
TORSDOF 10
ENDMDL
MODEL 5
REMARK VINA RESULT:    -6.161      2.656      8.936
REMARK INTER + INTRA:         -10.269
REMARK INTER:                  -9.148
REMARK INTRA:                  -1.121
REMARK UNBOUND:                -0.687
REMARK SMILES COc1cc(CNC(=O)CCCCC=CC(C)C)ccc1O
REMARK SMILES IDX 11 1 12 2 13 3 14 4 15 5 16 6 17 7 18 8 10 9 8 10 9 11 7 12
REMARK SMILES IDX 6 14 5 15 4 16 19 17 3 18 20 19 21 20 2 21 1 22 22 23
REMARK H PARENT 7 13 22 24
REMARK Flexibility Score: inf
ROOT
ATOM      1  C   UNL     1       8.009  11.655 -14.783  1.00  0.00     0.010 C 
ENDROOT
BRANCH   1   2
ATOM      2  C   UNL     1       7.876  11.272 -13.302  1.00  0.00     0.005 C 
BRANCH   2   3
ATOM      3  C   UNL     1       6.625  10.415 -13.039  1.00  0.00     0.027 C 
BRANCH   3   4
ATOM      4  C   UNL     1       6.938   9.196 -12.201  1.00  0.00    -0.031 C 
ATOM      5  C   UNL     1       7.252   7.981 -12.691  1.00  0.00    -0.028 C 
BRANCH   5   6
ATOM      6  C   UNL     1       7.417   7.651 -14.161  1.00  0.00     0.005 C 
ATOM      7  C   UNL     1       8.905   7.491 -14.484  1.00  0.00     0.012 C 
ATOM      8  C   UNL     1       6.650   6.365 -14.492  1.00  0.00     0.012 C 
ENDBRANCH   5   6
ENDBRANCH   3   4
ENDBRANCH   2   3
ENDBRANCH   1   2
BRANCH   1   9
ATOM      9  C   UNL     1       9.260  11.021 -15.407  1.00  0.00     0.100 C 
BRANCH   9  10
ATOM     10  C   UNL     1      10.158  12.076 -15.981  1.00  0.00     0.220 C 
ATOM     11  O   UNL     1      11.316  11.763 -16.365  1.00  0.00    -0.275 OA
ATOM     12  N   UNL     1       9.692  13.432 -16.108  1.00  0.00    -0.352 N 
ATOM     13  H   UNL     1       8.741  13.681 -15.754  1.00  0.00     0.163 HD
BRANCH  12  14
ATOM     14  C   UNL     1      10.485  14.483 -16.744  1.00  0.00     0.151 C 
BRANCH  14  15
ATOM     15  C   UNL     1       9.862  14.906 -18.050  1.00  0.00    -0.025 A 
ATOM     16  C   UNL     1       9.079  13.998 -18.786  1.00  0.00     0.056 A 
ATOM     17  C   UNL     1      10.051  16.207 -18.540  1.00  0.00     0.009 A 
ATOM     18  C   UNL     1       8.484  14.386 -20.005  1.00  0.00     0.160 A 
ATOM     19  C   UNL     1       9.467  16.595 -19.747  1.00  0.00     0.050 A 
ATOM     20  C   UNL     1       8.685  15.691 -20.482  1.00  0.00     0.157 A 
BRANCH  18  21
ATOM     21  O   UNL     1       7.690  13.510 -20.766  1.00  0.00    -0.493 OA
ATOM     22  C   UNL     1       6.332  13.194 -20.471  1.00  0.00     0.278 C 
ENDBRANCH  18  21
BRANCH  20  23
ATOM     23  O   UNL     1       8.101  16.082 -21.685  1.00  0.00    -0.504 OA
ATOM     24  H   UNL     1       8.421  15.712 -22.571  1.00  0.00     0.293 HD
ENDBRANCH  20  23
ENDBRANCH  14  15
ENDBRANCH  12  14
ENDBRANCH   9  10
ENDBRANCH   1   9
TORSDOF 10
ENDMDL
MODEL 6
REMARK VINA RESULT:    -6.154      1.619      2.824
REMARK INTER + INTRA:         -10.259
REMARK INTER:                  -9.096
REMARK INTRA:                  -1.163
REMARK UNBOUND:                -0.687
REMARK SMILES COc1cc(CNC(=O)CCCCC=CC(C)C)ccc1O
REMARK SMILES IDX 11 1 12 2 13 3 14 4 15 5 16 6 17 7 18 8 10 9 8 10 9 11 7 12
REMARK SMILES IDX 6 14 5 15 4 16 19 17 3 18 20 19 21 20 2 21 1 22 22 23
REMARK H PARENT 7 13 22 24
REMARK Flexibility Score: inf
ROOT
ATOM      1  C   UNL     1      10.323  15.944 -18.272  1.00  0.00     0.010 C 
ENDROOT
BRANCH   1   2
ATOM      2  C   UNL     1       9.613  17.137 -18.929  1.00  0.00     0.005 C 
BRANCH   2   3
ATOM      3  C   UNL     1       8.325  16.712 -19.657  1.00  0.00     0.027 C 
BRANCH   3   4
ATOM      4  C   UNL     1       8.611  16.109 -21.013  1.00  0.00    -0.031 C 
ATOM      5  C   UNL     1       8.577  14.793 -21.297  1.00  0.00    -0.028 C 
BRANCH   5   6
ATOM      6  C   UNL     1       8.172  13.703 -20.324  1.00  0.00     0.005 C 
ATOM      7  C   UNL     1       6.683  13.391 -20.498  1.00  0.00     0.012 C 
ATOM      8  C   UNL     1       9.020  12.449 -20.569  1.00  0.00     0.012 C 
ENDBRANCH   5   6
ENDBRANCH   3   4
ENDBRANCH   2   3
ENDBRANCH   1   2
BRANCH   1   9
ATOM      9  C   UNL     1       9.404  15.243 -17.262  1.00  0.00     0.100 C 
BRANCH   9  10
ATOM     10  C   UNL     1      10.079  14.034 -16.683  1.00  0.00     0.220 C 
ATOM     11  O   UNL     1      11.255  14.133 -16.244  1.00  0.00    -0.275 OA
ATOM     12  N   UNL     1       9.380  12.778 -16.616  1.00  0.00    -0.352 N 
ATOM     13  H   UNL     1       8.417  12.707 -17.016  1.00  0.00     0.163 HD
BRANCH  12  14
ATOM     14  C   UNL     1       9.950  11.592 -15.980  1.00  0.00     0.151 C 
BRANCH  14  15
ATOM     15  C   UNL     1       9.024  11.060 -14.915  1.00  0.00    -0.025 A 
ATOM     16  C   UNL     1       8.853   9.673 -14.756  1.00  0.00     0.056 A 
ATOM     17  C   UNL     1       8.331  11.941 -14.070  1.00  0.00     0.009 A 
ATOM     18  C   UNL     1       7.997   9.164 -13.757  1.00  0.00     0.160 A 
ATOM     19  C   UNL     1       7.480  11.443 -13.082  1.00  0.00     0.050 A 
ATOM     20  C   UNL     1       7.309  10.059 -12.922  1.00  0.00     0.157 A 
BRANCH  18  21
ATOM     21  O   UNL     1       7.805   7.784 -13.563  1.00  0.00    -0.493 OA
ATOM     22  C   UNL     1       8.138   6.784 -14.520  1.00  0.00     0.278 C 
ENDBRANCH  18  21
BRANCH  20  23
ATOM     23  O   UNL     1       6.462   9.565 -11.933  1.00  0.00    -0.504 OA
ATOM     24  H   UNL     1       6.181   8.593 -11.916  1.00  0.00     0.293 HD
ENDBRANCH  20  23
ENDBRANCH  14  15
ENDBRANCH  12  14
ENDBRANCH   9  10
ENDBRANCH   1   9
TORSDOF 10
ENDMDL
MODEL 7
REMARK VINA RESULT:    -6.138      2.641      9.278
REMARK INTER + INTRA:         -10.234
REMARK INTER:                  -9.246
REMARK INTRA:                  -0.988
REMARK UNBOUND:                -0.687
REMARK SMILES COc1cc(CNC(=O)CCCCC=CC(C)C)ccc1O
REMARK SMILES IDX 11 1 12 2 13 3 14 4 15 5 16 6 17 7 18 8 10 9 8 10 9 11 7 12
REMARK SMILES IDX 6 14 5 15 4 16 19 17 3 18 20 19 21 20 2 21 1 22 22 23
REMARK H PARENT 7 13 22 24
REMARK Flexibility Score: inf
ROOT
ATOM      1  C   UNL     1       8.607   9.935 -15.656  1.00  0.00     0.010 C 
ENDROOT
BRANCH   1   2
ATOM      2  C   UNL     1       9.398   8.635 -15.451  1.00  0.00     0.005 C 
BRANCH   2   3
ATOM      3  C   UNL     1       9.057   7.958 -14.111  1.00  0.00     0.027 C 
BRANCH   3   4
ATOM      4  C   UNL     1       7.644   7.422 -14.090  1.00  0.00    -0.031 C 
ATOM      5  C   UNL     1       6.807   7.488 -13.036  1.00  0.00    -0.028 C 
BRANCH   5   6
ATOM      6  C   UNL     1       7.116   8.178 -11.722  1.00  0.00     0.005 C 
ATOM      7  C   UNL     1       6.772   9.666 -11.833  1.00  0.00     0.012 C 
ATOM      8  C   UNL     1       6.315   7.520 -10.591  1.00  0.00     0.012 C 
ENDBRANCH   5   6
ENDBRANCH   3   4
ENDBRANCH   2   3
ENDBRANCH   1   2
BRANCH   1   9
ATOM      9  C   UNL     1       8.870  10.928 -14.515  1.00  0.00     0.100 C 
BRANCH   9  10
ATOM     10  C   UNL     1       9.152  12.297 -15.060  1.00  0.00     0.220 C 
ATOM     11  O   UNL     1       8.368  13.245 -14.789  1.00  0.00    -0.275 OA
ATOM     12  N   UNL     1      10.319  12.526 -15.871  1.00  0.00    -0.352 N 
ATOM     13  H   UNL     1      10.940  11.721 -16.113  1.00  0.00     0.163 HD
BRANCH  12  14
ATOM     14  C   UNL     1      10.696  13.854 -16.352  1.00  0.00     0.151 C 
BRANCH  14  15
ATOM     15  C   UNL     1       9.954  14.194 -17.619  1.00  0.00    -0.025 A 
ATOM     16  C   UNL     1       9.701  15.537 -17.951  1.00  0.00     0.056 A 
ATOM     17  C   UNL     1       9.514  13.177 -18.481  1.00  0.00     0.009 A 
ATOM     18  C   UNL     1       9.015  15.867 -19.138  1.00  0.00     0.160 A 
ATOM     19  C   UNL     1       8.832  13.498 -19.656  1.00  0.00     0.050 A 
ATOM     20  C   UNL     1       8.580  14.838 -19.988  1.00  0.00     0.157 A 
BRANCH  18  21
ATOM     21  O   UNL     1       8.749  17.198 -19.507  1.00  0.00    -0.493 OA
ATOM     22  C   UNL     1       8.457  18.245 -18.586  1.00  0.00     0.278 C 
ENDBRANCH  18  21
BRANCH  20  23
ATOM     23  O   UNL     1       7.902  15.156 -21.163  1.00  0.00    -0.504 OA
ATOM     24  H   UNL     1       7.349  14.466 -21.656  1.00  0.00     0.293 HD
ENDBRANCH  20  23
ENDBRANCH  14  15
ENDBRANCH  12  14
ENDBRANCH   9  10
ENDBRANCH   1   9
TORSDOF 10
ENDMDL
MODEL 8
REMARK VINA RESULT:    -6.099      2.267      9.257
REMARK INTER + INTRA:         -10.173
REMARK INTER:                  -9.074
REMARK INTRA:                  -1.099
REMARK UNBOUND:                -0.687
REMARK SMILES COc1cc(CNC(=O)CCCCC=CC(C)C)ccc1O
REMARK SMILES IDX 11 1 12 2 13 3 14 4 15 5 16 6 17 7 18 8 10 9 8 10 9 11 7 12
REMARK SMILES IDX 6 14 5 15 4 16 19 17 3 18 20 19 21 20 2 21 1 22 22 23
REMARK H PARENT 7 13 22 24
REMARK Flexibility Score: inf
ROOT
ATOM      1  C   UNL     1       8.603  11.985 -14.164  1.00  0.00     0.010 C 
ENDROOT
BRANCH   1   2
ATOM      2  C   UNL     1       7.729  11.582 -12.967  1.00  0.00     0.005 C 
BRANCH   2   3
ATOM      3  C   UNL     1       6.773  10.427 -13.314  1.00  0.00     0.027 C 
BRANCH   3   4
ATOM      4  C   UNL     1       6.951   9.245 -12.388  1.00  0.00    -0.031 C 
ATOM      5  C   UNL     1       7.221   7.986 -12.785  1.00  0.00    -0.028 C 
BRANCH   5   6
ATOM      6  C   UNL     1       7.467   7.559 -14.218  1.00  0.00     0.005 C 
ATOM      7  C   UNL     1       8.953   7.248 -14.410  1.00  0.00     0.012 C 
ATOM      8  C   UNL     1       6.610   6.330 -14.546  1.00  0.00     0.012 C 
ENDBRANCH   5   6
ENDBRANCH   3   4
ENDBRANCH   2   3
ENDBRANCH   1   2
BRANCH   1   9
ATOM      9  C   UNL     1       8.727  10.832 -15.170  1.00  0.00     0.100 C 
BRANCH   9  10
ATOM     10  C   UNL     1       8.373  11.296 -16.552  1.00  0.00     0.220 C 
ATOM     11  O   UNL     1       7.162  11.456 -16.861  1.00  0.00    -0.275 OA
ATOM     12  N   UNL     1       9.411  11.572 -17.511  1.00  0.00    -0.352 N 
ATOM     13  H   UNL     1      10.407  11.401 -17.247  1.00  0.00     0.163 HD
BRANCH  12  14
ATOM     14  C   UNL     1       9.133  12.114 -18.839  1.00  0.00     0.151 C 
BRANCH  14  15
ATOM     15  C   UNL     1       9.343  13.607 -18.861  1.00  0.00    -0.025 A 
ATOM     16  C   UNL     1       8.828  14.377 -19.919  1.00  0.00     0.056 A 
ATOM     17  C   UNL     1      10.048  14.242 -17.827  1.00  0.00     0.009 A 
ATOM     18  C   UNL     1       9.010  15.776 -19.945  1.00  0.00     0.160 A 
ATOM     19  C   UNL     1      10.235  15.625 -17.850  1.00  0.00     0.050 A 
ATOM     20  C   UNL     1       9.719  16.395 -18.904  1.00  0.00     0.157 A 
BRANCH  18  21
ATOM     21  O   UNL     1       8.503  16.580 -20.982  1.00  0.00    -0.493 OA
ATOM     22  C   UNL     1       8.917  16.493 -22.342  1.00  0.00     0.278 C 
ENDBRANCH  18  21
BRANCH  20  23
ATOM     23  O   UNL     1       9.904  17.775 -18.922  1.00  0.00    -0.504 OA
ATOM     24  H   UNL     1       9.977  18.287 -19.793  1.00  0.00     0.293 HD
ENDBRANCH  20  23
ENDBRANCH  14  15
ENDBRANCH  12  14
ENDBRANCH   9  10
ENDBRANCH   1   9
TORSDOF 10
ENDMDL
MODEL 9
REMARK VINA RESULT:    -6.071      2.525      9.900
REMARK INTER + INTRA:         -10.129
REMARK INTER:                  -9.248
REMARK INTRA:                  -0.881
REMARK UNBOUND:                -0.687
REMARK SMILES COc1cc(CNC(=O)CCCCC=CC(C)C)ccc1O
REMARK SMILES IDX 11 1 12 2 13 3 14 4 15 5 16 6 17 7 18 8 10 9 8 10 9 11 7 12
REMARK SMILES IDX 6 14 5 15 4 16 19 17 3 18 20 19 21 20 2 21 1 22 22 23
REMARK H PARENT 7 13 22 24
REMARK Flexibility Score: inf
ROOT
ATOM      1  C   UNL     1       8.051   9.989 -15.456  1.00  0.00     0.010 C 
ENDROOT
BRANCH   1   2
ATOM      2  C   UNL     1       8.839   8.678 -15.595  1.00  0.00     0.005 C 
BRANCH   2   3
ATOM      3  C   UNL     1       8.764   7.822 -14.319  1.00  0.00     0.027 C 
BRANCH   3   4
ATOM      4  C   UNL     1       7.396   7.210 -14.125  1.00  0.00    -0.031 C 
ATOM      5  C   UNL     1       6.677   7.267 -12.987  1.00  0.00    -0.028 C 
BRANCH   5   6
ATOM      6  C   UNL     1       7.086   8.018 -11.735  1.00  0.00     0.005 C 
ATOM      7  C   UNL     1       6.819   9.513 -11.926  1.00  0.00     0.012 C 
ATOM      8  C   UNL     1       6.308   7.478 -10.530  1.00  0.00     0.012 C 
ENDBRANCH   5   6
ENDBRANCH   3   4
ENDBRANCH   2   3
ENDBRANCH   1   2
BRANCH   1   9
ATOM      9  C   UNL     1       8.982  11.160 -15.113  1.00  0.00     0.100 C 
BRANCH   9  10
ATOM     10  C   UNL     1       9.614  11.714 -16.356  1.00  0.00     0.220 C 
ATOM     11  O   UNL     1      10.854  11.579 -16.533  1.00  0.00    -0.275 OA
ATOM     12  N   UNL     1       8.806  12.379 -17.344  1.00  0.00    -0.352 N 
ATOM     13  H   UNL     1       7.785  12.512 -17.163  1.00  0.00     0.163 HD
BRANCH  12  14
ATOM     14  C   UNL     1       9.347  12.857 -18.614  1.00  0.00     0.151 C 
BRANCH  14  15
ATOM     15  C   UNL     1       8.938  14.286 -18.866  1.00  0.00    -0.025 A 
ATOM     16  C   UNL     1       8.905  14.790 -20.179  1.00  0.00     0.056 A 
ATOM     17  C   UNL     1       8.583  15.123 -17.798  1.00  0.00     0.009 A 
ATOM     18  C   UNL     1       8.515  16.123 -20.427  1.00  0.00     0.160 A 
ATOM     19  C   UNL     1       8.200  16.444 -18.038  1.00  0.00     0.050 A 
ATOM     20  C   UNL     1       8.165  16.948 -19.347  1.00  0.00     0.157 A 
BRANCH  18  21
ATOM     21  O   UNL     1       8.463  16.661 -21.726  1.00  0.00    -0.493 OA
ATOM     22  C   UNL     1       8.861  15.963 -22.902  1.00  0.00     0.278 C 
ENDBRANCH  18  21
BRANCH  20  23
ATOM     23  O   UNL     1       7.779  18.265 -19.584  1.00  0.00    -0.504 OA
ATOM     24  H   UNL     1       7.356  18.542 -20.460  1.00  0.00     0.293 HD
ENDBRANCH  20  23
ENDBRANCH  14  15
ENDBRANCH  12  14
ENDBRANCH   9  10
ENDBRANCH   1   9
TORSDOF 10
ENDMDL
