MODEL 1
REMARK VINA RESULT:   124.932      0.000      0.000
REMARK INTER + INTRA:         135.950
REMARK INTER:                 135.887
REMARK INTRA:                   0.063
REMARK UNBOUND:                 0.063
REMARK SMILES C[C@H]1[C@H](C)CC[C@@]2(C(=O)[O-])CC[C@@]3(C)C(=CC[C@H]4[C@@]5(C)CC[C@@H](O)C(C)(C)[C@H]5CC[C@]43C)[C@@H]12
REMARK SMILES IDX 7 1 6 2 11 3 33 4 5 5 12 6 15 7 2 8 3 9 13 10 16 11 1 12
REMARK SMILES IDX 4 13 14 14 31 15 17 16 18 17 30 18 32 19 19 20 29 21 28 22
REMARK SMILES IDX 21 23 20 24 25 25 22 26 23 27 26 28 27 29 8 30 9 31 10 32
REMARK SMILES IDX 24 33
REMARK H PARENT 24 34
REMARK Flexibility Score: inf
ROOT
ATOM      1  C   UNL     1      11.319  76.951   4.382  1.00  0.00     0.017 C 
ATOM      2  C   UNL     1      10.356  78.173   4.574  1.00  0.00     0.014 C 
ATOM      3  C   UNL     1      11.618  76.332   5.766  1.00  0.00     0.014 C 
ATOM      4  C   UNL     1      10.737  75.835   3.435  1.00  0.00     0.030 C 
ATOM      5  C   UNL     1       9.672  78.676   3.302  1.00  0.00     0.004 C 
ATOM      6  C   UNL     1      10.390  75.771   6.489  1.00  0.00     0.013 C 
ATOM      7  C   UNL     1       9.871  74.760   4.156  1.00  0.00    -0.063 C 
ATOM      8  C   UNL     1      10.077  76.487   2.151  1.00  0.00    -0.003 C 
ATOM      9  C   UNL     1       8.998  77.530   2.528  1.00  0.00    -0.011 C 
ATOM     10  C   UNL     1       9.481  74.785   5.653  1.00  0.00    -0.006 C 
ATOM     11  C   UNL     1       9.558  73.652   3.465  1.00  0.00    -0.027 C 
ATOM     12  C   UNL     1       9.604  75.503   1.065  1.00  0.00     0.008 C 
ATOM     13  C   UNL     1       8.264  78.115   1.308  1.00  0.00     0.008 C 
ATOM     14  C   UNL     1       8.025  75.339   5.709  1.00  0.00     0.017 C 
ATOM     15  C   UNL     1       9.541  73.286   6.290  1.00  0.00    -0.020 C 
ATOM     16  C   UNL     1       8.561  72.644   3.931  1.00  0.00     0.032 C 
ATOM     17  C   UNL     1       8.710  72.223   5.421  1.00  0.00     0.006 C 
ATOM     18  C   UNL     1      11.031  72.768   6.418  1.00  0.00     0.008 C 
ATOM     19  C   UNL     1       8.909  73.358   7.738  1.00  0.00     0.012 C 
ATOM     20  C   UNL     1       9.128  70.682   5.607  1.00  0.00    -0.025 C 
ATOM     21  C   UNL     1      11.485  71.778   5.336  1.00  0.00     0.005 C 
ATOM     22  C   UNL     1      10.690  70.444   5.412  1.00  0.00     0.003 C 
ATOM     23  C   UNL     1       8.207  69.749   4.718  1.00  0.00     0.010 C 
ATOM     24  C   UNL     1       8.779  70.260   7.072  1.00  0.00     0.012 C 
ATOM     25  C   UNL     1      11.105  69.323   4.371  1.00  0.00    -0.006 C 
ATOM     26  C   UNL     1       8.715  69.241   3.348  1.00  0.00     0.033 C 
ATOM     27  C   UNL     1      10.229  69.330   3.080  1.00  0.00     0.120 C 
ATOM     28  C   UNL     1      10.961  67.931   5.049  1.00  0.00     0.014 C 
ATOM     29  C   UNL     1      12.597  69.436   3.961  1.00  0.00     0.014 C 
ENDROOT
BRANCH   1  30
ATOM     30  C   UNL     1      12.646  77.471   3.805  1.00  0.00     0.048 C 
ATOM     31  O   UNL     1      12.957  77.273   2.599  1.00  0.00    -0.550 OA
ATOM     32  O   UNL     1      13.551  78.166   4.598  1.00  0.00    -0.550 OA
ENDBRANCH   1  30
BRANCH  27  33
ATOM     33  O   UNL     1      10.510  70.378   2.181  1.00  0.00    -0.393 OA
ATOM     34  H   UNL     1      11.320  70.149   1.678  1.00  0.00     0.210 HD
ENDBRANCH  27  33
TORSDOF 2
ENDMDL
