MODEL 1
REMARK VINA RESULT:    -4.954      0.000      0.000
REMARK INTER + INTRA:          -6.181
REMARK INTER:                  -5.967
REMARK INTRA:                  -0.214
REMARK UNBOUND:                -0.214
REMARK SMILES O=c1c(O)c(-c2ccc(O)c(O)c2)oc2cc(O)cc(O)c12
REMARK SMILES IDX 5 1 3 2 2 3 1 4 22 5 20 6 19 7 17 8 16 9 15 10 14 11 6 12
REMARK SMILES IDX 7 13 8 14 9 15 13 16 11 17 10 18 12 20 4 22 21 24 18 26
REMARK H PARENT 10 19 12 21 4 23 21 25 18 27
REMARK Flexibility Score: inf
ROOT
ATOM      1  C   UNL     1      27.268  30.594  39.650  1.00  0.00     0.180 A 
ATOM      2  C   UNL     1      25.986  30.433  40.205  1.00  0.00     0.208 A 
ATOM      3  C   UNL     1      24.886  31.018  39.558  1.00  0.00     0.238 A 
ATOM      4  O   UNL     1      23.734  30.807  40.018  1.00  0.00    -0.285 OA
ATOM      5  C   UNL     1      25.086  31.802  38.396  1.00  0.00     0.111 A 
ATOM      6  C   UNL     1      24.050  32.478  37.683  1.00  0.00     0.134 A 
ATOM      7  C   UNL     1      24.351  33.137  36.485  1.00  0.00     0.093 A 
ATOM      8  C   UNL     1      25.659  33.201  36.007  1.00  0.00     0.123 A 
ATOM      9  C   UNL     1      26.689  32.591  36.724  1.00  0.00     0.094 A 
ATOM     10  C   UNL     1      26.414  31.892  37.902  1.00  0.00     0.146 A 
ATOM     11  O   UNL     1      27.420  31.308  38.542  1.00  0.00    -0.452 OA
ENDROOT
BRANCH   1  12
ATOM     12  C   UNL     1      28.474  29.997  40.267  1.00  0.00     0.025 A 
ATOM     13  C   UNL     1      28.968  30.527  41.467  1.00  0.00     0.016 A 
ATOM     14  C   UNL     1      30.116  29.993  42.056  1.00  0.00     0.051 A 
ATOM     15  C   UNL     1      30.800  28.932  41.452  1.00  0.00     0.157 A 
ATOM     16  C   UNL     1      29.172  28.948  39.645  1.00  0.00     0.062 A 
ATOM     17  C   UNL     1      30.327  28.407  40.226  1.00  0.00     0.158 A 
BRANCH  15  18
ATOM     18  O   UNL     1      31.938  28.439  42.096  1.00  0.00    -0.504 OA
ATOM     19  H   UNL     1      32.234  28.729  43.017  1.00  0.00     0.293 HD
ENDBRANCH  15  18
BRANCH  17  20
ATOM     20  O   UNL     1      30.968  27.365  39.555  1.00  0.00    -0.504 OA
ATOM     21  H   UNL     1      31.825  26.934  39.868  1.00  0.00     0.293 HD
ENDBRANCH  17  20
ENDBRANCH   1  12
BRANCH   2  22
ATOM     22  O   UNL     1      25.819  29.720  41.396  1.00  0.00    -0.502 OA
ATOM     23  H   UNL     1      26.018  28.730  41.469  1.00  0.00     0.293 HD
ENDBRANCH   2  22
BRANCH   6  24
ATOM     24  O   UNL     1      22.722  32.554  38.117  1.00  0.00    -0.507 OA
ATOM     25  H   UNL     1      22.264  31.870  38.700  1.00  0.00     0.293 HD
ENDBRANCH   6  24
BRANCH   8  26
ATOM     26  O   UNL     1      25.925  33.880  34.820  1.00  0.00    -0.508 OA
ATOM     27  H   UNL     1      25.434  33.660  33.962  1.00  0.00     0.293 HD
ENDBRANCH   8  26
TORSDOF 6
ENDMDL
MODEL 2
REMARK VINA RESULT:    -4.884     10.896     13.828
REMARK INTER + INTRA:          -6.097
REMARK INTER:                  -5.797
REMARK INTRA:                  -0.300
REMARK UNBOUND:                -0.214
REMARK SMILES O=c1c(O)c(-c2ccc(O)c(O)c2)oc2cc(O)cc(O)c12
REMARK SMILES IDX 5 1 3 2 2 3 1 4 22 5 20 6 19 7 17 8 16 9 15 10 14 11 6 12
REMARK SMILES IDX 7 13 8 14 9 15 13 16 11 17 10 18 12 20 4 22 21 24 18 26
REMARK H PARENT 10 19 12 21 4 23 21 25 18 27
REMARK Flexibility Score: inf
ROOT
ATOM      1  C   UNL     1      21.999  31.922  26.935  1.00  0.00     0.180 A 
ATOM      2  C   UNL     1      20.773  32.309  26.366  1.00  0.00     0.208 A 
ATOM      3  C   UNL     1      19.624  32.331  27.174  1.00  0.00     0.238 A 
ATOM      4  O   UNL     1      18.546  32.750  26.678  1.00  0.00    -0.285 OA
ATOM      5  C   UNL     1      19.704  31.912  28.524  1.00  0.00     0.111 A 
ATOM      6  C   UNL     1      18.596  31.850  29.423  1.00  0.00     0.134 A 
ATOM      7  C   UNL     1      18.813  31.522  30.767  1.00  0.00     0.093 A 
ATOM      8  C   UNL     1      20.085  31.191  31.231  1.00  0.00     0.123 A 
ATOM      9  C   UNL     1      21.167  31.194  30.350  1.00  0.00     0.094 A 
ATOM     10  C   UNL     1      20.988  31.555  29.012  1.00  0.00     0.146 A 
ATOM     11  O   UNL     1      22.048  31.566  28.212  1.00  0.00    -0.452 OA
ENDROOT
BRANCH   1  12
ATOM     12  C   UNL     1      23.254  31.888  26.151  1.00  0.00     0.025 A 
ATOM     13  C   UNL     1      23.529  30.779  25.339  1.00  0.00     0.016 A 
ATOM     14  C   UNL     1      24.716  30.716  24.607  1.00  0.00     0.051 A 
ATOM     15  C   UNL     1      25.657  31.748  24.683  1.00  0.00     0.157 A 
ATOM     16  C   UNL     1      24.207  32.916  26.248  1.00  0.00     0.062 A 
ATOM     17  C   UNL     1      25.403  32.860  25.521  1.00  0.00     0.158 A 
BRANCH  15  18
ATOM     18  O   UNL     1      26.822  31.627  23.920  1.00  0.00    -0.504 OA
ATOM     19  H   UNL     1      26.995  30.872  23.272  1.00  0.00     0.293 HD
ENDBRANCH  15  18
BRANCH  17  20
ATOM     20  O   UNL     1      26.303  33.918  25.664  1.00  0.00    -0.504 OA
ATOM     21  H   UNL     1      27.306  33.816  25.610  1.00  0.00     0.293 HD
ENDBRANCH  17  20
ENDBRANCH   1  12
BRANCH   2  22
ATOM     22  O   UNL     1      20.699  32.646  25.011  1.00  0.00    -0.502 OA
ATOM     23  H   UNL     1      21.490  33.018  24.500  1.00  0.00     0.293 HD
ENDBRANCH   2  22
BRANCH   6  24
ATOM     24  O   UNL     1      17.268  32.076  29.046  1.00  0.00    -0.507 OA
ATOM     25  H   UNL     1      16.515  32.289  29.682  1.00  0.00     0.293 HD
ENDBRANCH   6  24
BRANCH   8  26
ATOM     26  O   UNL     1      20.262  30.853  32.571  1.00  0.00    -0.508 OA
ATOM     27  H   UNL     1      21.145  31.006  33.044  1.00  0.00     0.293 HD
ENDBRANCH   8  26
TORSDOF 6
ENDMDL
MODEL 3
REMARK VINA RESULT:    -4.876      2.406      3.956
REMARK INTER + INTRA:          -6.087
REMARK INTER:                  -5.768
REMARK INTRA:                  -0.319
REMARK UNBOUND:                -0.214
REMARK SMILES O=c1c(O)c(-c2ccc(O)c(O)c2)oc2cc(O)cc(O)c12
REMARK SMILES IDX 5 1 3 2 2 3 1 4 22 5 20 6 19 7 17 8 16 9 15 10 14 11 6 12
REMARK SMILES IDX 7 13 8 14 9 15 13 16 11 17 10 18 12 20 4 22 21 24 18 26
REMARK H PARENT 10 19 12 21 4 23 21 25 18 27
REMARK Flexibility Score: inf
ROOT
ATOM      1  C   UNL     1      27.629  30.423  37.195  1.00  0.00     0.180 A 
ATOM      2  C   UNL     1      27.432  31.251  36.076  1.00  0.00     0.208 A 
ATOM      3  C   UNL     1      26.348  32.144  36.071  1.00  0.00     0.238 A 
ATOM      4  O   UNL     1      26.222  32.933  35.100  1.00  0.00    -0.285 OA
ATOM      5  C   UNL     1      25.442  32.158  37.159  1.00  0.00     0.111 A 
ATOM      6  C   UNL     1      24.283  32.989  37.241  1.00  0.00     0.134 A 
ATOM      7  C   UNL     1      23.519  32.995  38.414  1.00  0.00     0.093 A 
ATOM      8  C   UNL     1      23.830  32.156  39.482  1.00  0.00     0.123 A 
ATOM      9  C   UNL     1      24.928  31.299  39.392  1.00  0.00     0.094 A 
ATOM     10  C   UNL     1      25.733  31.298  38.251  1.00  0.00     0.146 A 
ATOM     11  O   UNL     1      26.781  30.483  38.215  1.00  0.00    -0.452 OA
ENDROOT
BRANCH   1  12
ATOM     12  C   UNL     1      28.755  29.467  37.280  1.00  0.00     0.025 A 
ATOM     13  C   UNL     1      28.531  28.111  37.010  1.00  0.00     0.016 A 
ATOM     14  C   UNL     1      29.574  27.188  37.104  1.00  0.00     0.051 A 
ATOM     15  C   UNL     1      30.857  27.598  37.483  1.00  0.00     0.157 A 
ATOM     16  C   UNL     1      30.037  29.879  37.684  1.00  0.00     0.062 A 
ATOM     17  C   UNL     1      31.091  28.961  37.784  1.00  0.00     0.158 A 
BRANCH  15  18
ATOM     18  O   UNL     1      31.859  26.627  37.550  1.00  0.00    -0.504 OA
ATOM     19  H   UNL     1      32.253  26.166  36.742  1.00  0.00     0.293 HD
ENDBRANCH  15  18
BRANCH  17  20
ATOM     20  O   UNL     1      32.337  29.441  38.189  1.00  0.00    -0.504 OA
ATOM     21  H   UNL     1      32.704  30.346  37.933  1.00  0.00     0.293 HD
ENDBRANCH  17  20
ENDBRANCH   1  12
BRANCH   2  22
ATOM     22  O   UNL     1      28.293  31.167  34.979  1.00  0.00    -0.502 OA
ATOM     23  H   UNL     1      28.262  31.825  34.211  1.00  0.00     0.293 HD
ENDBRANCH   2  22
BRANCH   6  24
ATOM     24  O   UNL     1      23.828  33.803  36.199  1.00  0.00    -0.507 OA
ATOM     25  H   UNL     1      24.401  34.154  35.447  1.00  0.00     0.293 HD
ENDBRANCH   6  24
BRANCH   8  26
ATOM     26  O   UNL     1      23.037  32.175  40.627  1.00  0.00    -0.508 OA
ATOM     27  H   UNL     1      23.355  31.768  41.499  1.00  0.00     0.293 HD
ENDBRANCH   8  26
TORSDOF 6
ENDMDL
MODEL 4
REMARK VINA RESULT:    -4.790     13.864     16.150
REMARK INTER + INTRA:          -5.984
REMARK INTER:                  -5.658
REMARK INTRA:                  -0.326
REMARK UNBOUND:                -0.214
REMARK SMILES O=c1c(O)c(-c2ccc(O)c(O)c2)oc2cc(O)cc(O)c12
REMARK SMILES IDX 5 1 3 2 2 3 1 4 22 5 20 6 19 7 17 8 16 9 15 10 14 11 6 12
REMARK SMILES IDX 7 13 8 14 9 15 13 16 11 17 10 18 12 20 4 22 21 24 18 26
REMARK H PARENT 10 19 12 21 4 23 21 25 18 27
REMARK Flexibility Score: inf
ROOT
ATOM      1  C   UNL     1      19.940  18.517  38.089  1.00  0.00     0.180 A 
ATOM      2  C   UNL     1      20.487  18.018  36.894  1.00  0.00     0.208 A 
ATOM      3  C   UNL     1      21.281  16.861  36.939  1.00  0.00     0.238 A 
ATOM      4  O   UNL     1      21.705  16.378  35.857  1.00  0.00    -0.285 OA
ATOM      5  C   UNL     1      21.565  16.249  38.184  1.00  0.00     0.111 A 
ATOM      6  C   UNL     1      22.395  15.099  38.354  1.00  0.00     0.134 A 
ATOM      7  C   UNL     1      22.518  14.517  39.622  1.00  0.00     0.093 A 
ATOM      8  C   UNL     1      21.896  15.079  40.736  1.00  0.00     0.123 A 
ATOM      9  C   UNL     1      21.128  16.234  40.591  1.00  0.00     0.094 A 
ATOM     10  C   UNL     1      20.954  16.816  39.333  1.00  0.00     0.146 A 
ATOM     11  O   UNL     1      20.197  17.903  39.237  1.00  0.00    -0.452 OA
ENDROOT
BRANCH   1  12
ATOM     12  C   UNL     1      19.082  19.723  38.119  1.00  0.00     0.025 A 
ATOM     13  C   UNL     1      19.672  20.985  38.271  1.00  0.00     0.016 A 
ATOM     14  C   UNL     1      18.882  22.134  38.323  1.00  0.00     0.051 A 
ATOM     15  C   UNL     1      17.488  22.045  38.241  1.00  0.00     0.157 A 
ATOM     16  C   UNL     1      17.681  19.628  38.060  1.00  0.00     0.062 A 
ATOM     17  C   UNL     1      16.878  20.774  38.115  1.00  0.00     0.158 A 
BRANCH  15  18
ATOM     18  O   UNL     1      16.754  23.233  38.292  1.00  0.00    -0.504 OA
ATOM     19  H   UNL     1      15.955  23.377  38.893  1.00  0.00     0.293 HD
ENDBRANCH  15  18
BRANCH  17  20
ATOM     20  O   UNL     1      15.494  20.605  38.048  1.00  0.00    -0.504 OA
ATOM     21  H   UNL     1      14.828  21.219  38.494  1.00  0.00     0.293 HD
ENDBRANCH  17  20
ENDBRANCH   1  12
BRANCH   2  22
ATOM     22  O   UNL     1      20.258  18.681  35.684  1.00  0.00    -0.502 OA
ATOM     23  H   UNL     1      19.358  19.076  35.442  1.00  0.00     0.293 HD
ENDBRANCH   2  22
BRANCH   6  24
ATOM     24  O   UNL     1      23.134  14.508  37.325  1.00  0.00    -0.507 OA
ATOM     25  H   UNL     1      23.691  13.672  37.420  1.00  0.00     0.293 HD
ENDBRANCH   6  24
BRANCH   8  26
ATOM     26  O   UNL     1      22.055  14.483  41.985  1.00  0.00    -0.508 OA
ATOM     27  H   UNL     1      22.222  13.488  42.081  1.00  0.00     0.293 HD
ENDBRANCH   8  26
TORSDOF 6
ENDMDL
MODEL 5
REMARK VINA RESULT:    -4.770     10.924     13.377
REMARK INTER + INTRA:          -5.960
REMARK INTER:                  -5.742
REMARK INTRA:                  -0.218
REMARK UNBOUND:                -0.214
REMARK SMILES O=c1c(O)c(-c2ccc(O)c(O)c2)oc2cc(O)cc(O)c12
REMARK SMILES IDX 5 1 3 2 2 3 1 4 22 5 20 6 19 7 17 8 16 9 15 10 14 11 6 12
REMARK SMILES IDX 7 13 8 14 9 15 13 16 11 17 10 18 12 20 4 22 21 24 18 26
REMARK H PARENT 10 19 12 21 4 23 21 25 18 27
REMARK Flexibility Score: inf
ROOT
ATOM      1  C   UNL     1      22.240  31.822  27.734  1.00  0.00     0.180 A 
ATOM      2  C   UNL     1      22.675  31.202  28.919  1.00  0.00     0.208 A 
ATOM      3  C   UNL     1      21.771  31.054  29.983  1.00  0.00     0.238 A 
ATOM      4  O   UNL     1      22.145  30.432  31.010  1.00  0.00    -0.285 OA
ATOM      5  C   UNL     1      20.460  31.578  29.871  1.00  0.00     0.111 A 
ATOM      6  C   UNL     1      19.473  31.526  30.902  1.00  0.00     0.134 A 
ATOM      7  C   UNL     1      18.176  31.982  30.641  1.00  0.00     0.093 A 
ATOM      8  C   UNL     1      17.844  32.547  29.411  1.00  0.00     0.123 A 
ATOM      9  C   UNL     1      18.815  32.654  28.414  1.00  0.00     0.094 A 
ATOM     10  C   UNL     1      20.108  32.172  28.631  1.00  0.00     0.146 A 
ATOM     11  O   UNL     1      20.995  32.274  27.648  1.00  0.00    -0.452 OA
ENDROOT
BRANCH   1  12
ATOM     12  C   UNL     1      23.130  32.001  26.566  1.00  0.00     0.025 A 
ATOM     13  C   UNL     1      22.933  31.216  25.422  1.00  0.00     0.016 A 
ATOM     14  C   UNL     1      23.774  31.353  24.316  1.00  0.00     0.051 A 
ATOM     15  C   UNL     1      24.836  32.264  24.336  1.00  0.00     0.157 A 
ATOM     16  C   UNL     1      24.210  32.900  26.598  1.00  0.00     0.062 A 
ATOM     17  C   UNL     1      25.062  33.043  25.495  1.00  0.00     0.158 A 
BRANCH  15  18
ATOM     18  O   UNL     1      25.635  32.358  23.194  1.00  0.00    -0.504 OA
ATOM     19  H   UNL     1      25.830  33.224  22.712  1.00  0.00     0.293 HD
ENDBRANCH  15  18
BRANCH  17  20
ATOM     20  O   UNL     1      26.112  33.957  25.596  1.00  0.00    -0.504 OA
ATOM     21  H   UNL     1      27.072  33.741  25.371  1.00  0.00     0.293 HD
ENDBRANCH  17  20
ENDBRANCH   1  12
BRANCH   2  22
ATOM     22  O   UNL     1      23.996  30.760  29.037  1.00  0.00    -0.502 OA
ATOM     23  H   UNL     1      24.285  29.829  28.764  1.00  0.00     0.293 HD
ENDBRANCH   2  22
BRANCH   6  24
ATOM     24  O   UNL     1      19.719  31.063  32.199  1.00  0.00    -0.507 OA
ATOM     25  H   UNL     1      20.332  31.508  32.865  1.00  0.00     0.293 HD
ENDBRANCH   6  24
BRANCH   8  26
ATOM     26  O   UNL     1      16.548  33.007  29.191  1.00  0.00    -0.508 OA
ATOM     27  H   UNL     1      15.904  32.510  28.586  1.00  0.00     0.293 HD
ENDBRANCH   8  26
TORSDOF 6
ENDMDL
MODEL 6
REMARK VINA RESULT:    -4.745     14.634     16.255
REMARK INTER + INTRA:          -5.930
REMARK INTER:                  -5.632
REMARK INTRA:                  -0.298
REMARK UNBOUND:                -0.214
REMARK SMILES O=c1c(O)c(-c2ccc(O)c(O)c2)oc2cc(O)cc(O)c12
REMARK SMILES IDX 5 1 3 2 2 3 1 4 22 5 20 6 19 7 17 8 16 9 15 10 14 11 6 12
REMARK SMILES IDX 7 13 8 14 9 15 13 16 11 17 10 18 12 20 4 22 21 24 18 26
REMARK H PARENT 10 19 12 21 4 23 21 25 18 27
REMARK Flexibility Score: inf
ROOT
ATOM      1  C   UNL     1      21.929  31.815  24.387  1.00  0.00     0.180 A 
ATOM      2  C   UNL     1      21.599  31.897  25.751  1.00  0.00     0.208 A 
ATOM      3  C   UNL     1      20.315  32.335  26.116  1.00  0.00     0.238 A 
ATOM      4  O   UNL     1      20.002  32.334  27.335  1.00  0.00    -0.285 OA
ATOM      5  C   UNL     1      19.397  32.737  25.116  1.00  0.00     0.111 A 
ATOM      6  C   UNL     1      18.085  33.240  25.372  1.00  0.00     0.134 A 
ATOM      7  C   UNL     1      17.226  33.507  24.299  1.00  0.00     0.093 A 
ATOM      8  C   UNL     1      17.650  33.352  22.980  1.00  0.00     0.123 A 
ATOM      9  C   UNL     1      18.948  32.914  22.717  1.00  0.00     0.094 A 
ATOM     10  C   UNL     1      19.816  32.603  23.766  1.00  0.00     0.146 A 
ATOM     11  O   UNL     1      21.036  32.168  23.472  1.00  0.00    -0.452 OA
ENDROOT
BRANCH   1  12
ATOM     12  C   UNL     1      23.256  31.350  23.925  1.00  0.00     0.025 A 
ATOM     13  C   UNL     1      23.421  30.015  23.531  1.00  0.00     0.016 A 
ATOM     14  C   UNL     1      24.668  29.550  23.112  1.00  0.00     0.051 A 
ATOM     15  C   UNL     1      25.778  30.402  23.092  1.00  0.00     0.157 A 
ATOM     16  C   UNL     1      24.374  32.203  23.929  1.00  0.00     0.062 A 
ATOM     17  C   UNL     1      25.631  31.745  23.513  1.00  0.00     0.158 A 
BRANCH  15  18
ATOM     18  O   UNL     1      26.996  29.877  22.654  1.00  0.00    -0.504 OA
ATOM     19  H   UNL     1      27.307  29.899  21.694  1.00  0.00     0.293 HD
ENDBRANCH  15  18
BRANCH  17  20
ATOM     20  O   UNL     1      26.695  32.648  23.540  1.00  0.00    -0.504 OA
ATOM     21  H   UNL     1      27.627  32.431  23.218  1.00  0.00     0.293 HD
ENDBRANCH  17  20
ENDBRANCH   1  12
BRANCH   2  22
ATOM     22  O   UNL     1      22.545  31.568  26.726  1.00  0.00    -0.502 OA
ATOM     23  H   UNL     1      22.862  32.231  27.422  1.00  0.00     0.293 HD
ENDBRANCH   2  22
BRANCH   6  24
ATOM     24  O   UNL     1      17.588  33.517  26.650  1.00  0.00    -0.507 OA
ATOM     25  H   UNL     1      17.845  33.022  27.490  1.00  0.00     0.293 HD
ENDBRANCH   6  24
BRANCH   8  26
ATOM     26  O   UNL     1      16.774  33.644  21.937  1.00  0.00    -0.508 OA
ATOM     27  H   UNL     1      15.931  34.186  22.088  1.00  0.00     0.293 HD
ENDBRANCH   8  26
TORSDOF 6
ENDMDL
MODEL 7
REMARK VINA RESULT:    -4.722      1.596      6.920
REMARK INTER + INTRA:          -5.902
REMARK INTER:                  -5.638
REMARK INTRA:                  -0.264
REMARK UNBOUND:                -0.214
REMARK SMILES O=c1c(O)c(-c2ccc(O)c(O)c2)oc2cc(O)cc(O)c12
REMARK SMILES IDX 5 1 3 2 2 3 1 4 22 5 20 6 19 7 17 8 16 9 15 10 14 11 6 12
REMARK SMILES IDX 7 13 8 14 9 15 13 16 11 17 10 18 12 20 4 22 21 24 18 26
REMARK H PARENT 10 19 12 21 4 23 21 25 18 27
REMARK Flexibility Score: inf
ROOT
ATOM      1  C   UNL     1      27.973  30.456  39.051  1.00  0.00     0.180 A 
ATOM      2  C   UNL     1      28.310  30.694  40.395  1.00  0.00     0.208 A 
ATOM      3  C   UNL     1      29.461  30.089  40.926  1.00  0.00     0.238 A 
ATOM      4  O   UNL     1      29.797  30.366  42.106  1.00  0.00    -0.285 OA
ATOM      5  C   UNL     1      30.229  29.210  40.125  1.00  0.00     0.111 A 
ATOM      6  C   UNL     1      31.389  28.507  40.572  1.00  0.00     0.134 A 
ATOM      7  C   UNL     1      32.131  27.747  39.660  1.00  0.00     0.093 A 
ATOM      8  C   UNL     1      31.722  27.611  38.334  1.00  0.00     0.123 A 
ATOM      9  C   UNL     1      30.559  28.249  37.899  1.00  0.00     0.094 A 
ATOM     10  C   UNL     1      29.819  29.046  38.776  1.00  0.00     0.146 A 
ATOM     11  O   UNL     1      28.731  29.652  38.315  1.00  0.00    -0.452 OA
ENDROOT
BRANCH   1  12
ATOM     12  C   UNL     1      26.784  31.067  38.417  1.00  0.00     0.025 A 
ATOM     13  C   UNL     1      25.511  30.552  38.697  1.00  0.00     0.016 A 
ATOM     14  C   UNL     1      24.378  31.100  38.094  1.00  0.00     0.051 A 
ATOM     15  C   UNL     1      24.493  32.161  37.189  1.00  0.00     0.157 A 
ATOM     16  C   UNL     1      26.906  32.118  37.490  1.00  0.00     0.062 A 
ATOM     17  C   UNL     1      25.775  32.673  36.877  1.00  0.00     0.158 A 
BRANCH  15  18
ATOM     18  O   UNL     1      23.320  32.669  36.626  1.00  0.00    -0.504 OA
ATOM     19  H   UNL     1      22.799  33.444  37.012  1.00  0.00     0.293 HD
ENDBRANCH  15  18
BRANCH  17  20
ATOM     20  O   UNL     1      25.971  33.715  35.969  1.00  0.00    -0.504 OA
ATOM     21  H   UNL     1      26.673  34.433  36.077  1.00  0.00     0.293 HD
ENDBRANCH  17  20
ENDBRANCH   1  12
BRANCH   2  22
ATOM     22  O   UNL     1      27.496  31.504  41.192  1.00  0.00    -0.502 OA
ATOM     23  H   UNL     1      26.550  31.751  40.928  1.00  0.00     0.293 HD
ENDBRANCH   2  22
BRANCH   6  24
ATOM     24  O   UNL     1      31.839  28.501  41.896  1.00  0.00    -0.507 OA
ATOM     25  H   UNL     1      32.575  29.087  42.259  1.00  0.00     0.293 HD
ENDBRANCH   6  24
BRANCH   8  26
ATOM     26  O   UNL     1      32.475  26.833  37.458  1.00  0.00    -0.508 OA
ATOM     27  H   UNL     1      32.056  26.388  36.650  1.00  0.00     0.293 HD
ENDBRANCH   8  26
TORSDOF 6
ENDMDL
MODEL 8
REMARK VINA RESULT:    -4.721     11.811     16.443
REMARK INTER + INTRA:          -5.901
REMARK INTER:                  -5.578
REMARK INTRA:                  -0.323
REMARK UNBOUND:                -0.214
REMARK SMILES O=c1c(O)c(-c2ccc(O)c(O)c2)oc2cc(O)cc(O)c12
REMARK SMILES IDX 5 1 3 2 2 3 1 4 22 5 20 6 19 7 17 8 16 9 15 10 14 11 6 12
REMARK SMILES IDX 7 13 8 14 9 15 13 16 11 17 10 18 12 20 4 22 21 24 18 26
REMARK H PARENT 10 19 12 21 4 23 21 25 18 27
REMARK Flexibility Score: inf
ROOT
ATOM      1  C   UNL     1      18.392  32.474  26.446  1.00  0.00     0.180 A 
ATOM      2  C   UNL     1      17.866  32.130  27.703  1.00  0.00     0.208 A 
ATOM      3  C   UNL     1      18.732  32.057  28.807  1.00  0.00     0.238 A 
ATOM      4  O   UNL     1      18.243  31.823  29.942  1.00  0.00    -0.285 OA
ATOM      5  C   UNL     1      20.120  32.274  28.629  1.00  0.00     0.111 A 
ATOM      6  C   UNL     1      21.096  32.181  29.667  1.00  0.00     0.134 A 
ATOM      7  C   UNL     1      22.428  32.521  29.396  1.00  0.00     0.093 A 
ATOM      8  C   UNL     1      22.831  32.887  28.113  1.00  0.00     0.123 A 
ATOM      9  C   UNL     1      21.896  32.927  27.078  1.00  0.00     0.094 A 
ATOM     10  C   UNL     1      20.554  32.631  27.326  1.00  0.00     0.146 A 
ATOM     11  O   UNL     1      19.693  32.703  26.317  1.00  0.00    -0.452 OA
ENDROOT
BRANCH   1  12
ATOM     12  C   UNL     1      17.541  32.584  25.240  1.00  0.00     0.025 A 
ATOM     13  C   UNL     1      16.941  33.812  24.929  1.00  0.00     0.016 A 
ATOM     14  C   UNL     1      16.118  33.933  23.808  1.00  0.00     0.051 A 
ATOM     15  C   UNL     1      15.865  32.830  22.985  1.00  0.00     0.157 A 
ATOM     16  C   UNL     1      17.270  31.468  24.429  1.00  0.00     0.062 A 
ATOM     17  C   UNL     1      16.443  31.578  23.304  1.00  0.00     0.158 A 
BRANCH  15  18
ATOM     18  O   UNL     1      15.038  33.020  21.875  1.00  0.00    -0.504 OA
ATOM     19  H   UNL     1      14.171  32.525  21.727  1.00  0.00     0.293 HD
ENDBRANCH  15  18
BRANCH  17  20
ATOM     20  O   UNL     1      16.220  30.429  22.543  1.00  0.00    -0.504 OA
ATOM     21  H   UNL     1      16.436  30.353  21.560  1.00  0.00     0.293 HD
ENDBRANCH  17  20
ENDBRANCH   1  12
BRANCH   2  22
ATOM     22  O   UNL     1      16.505  31.845  27.843  1.00  0.00    -0.502 OA
ATOM     23  H   UNL     1      15.782  32.482  27.534  1.00  0.00     0.293 HD
ENDBRANCH   2  22
BRANCH   6  24
ATOM     24  O   UNL     1      20.820  31.741  30.966  1.00  0.00    -0.507 OA
ATOM     25  H   UNL     1      20.976  30.804  31.304  1.00  0.00     0.293 HD
ENDBRANCH   6  24
BRANCH   8  26
ATOM     26  O   UNL     1      24.167  33.201  27.876  1.00  0.00    -0.508 OA
ATOM     27  H   UNL     1      24.539  33.261  26.935  1.00  0.00     0.293 HD
ENDBRANCH   8  26
TORSDOF 6
ENDMDL
MODEL 9
REMARK VINA RESULT:    -4.685     13.325     15.628
REMARK INTER + INTRA:          -5.858
REMARK INTER:                  -5.545
REMARK INTRA:                  -0.313
REMARK UNBOUND:                -0.214
REMARK SMILES O=c1c(O)c(-c2ccc(O)c(O)c2)oc2cc(O)cc(O)c12
REMARK SMILES IDX 5 1 3 2 2 3 1 4 22 5 20 6 19 7 17 8 16 9 15 10 14 11 6 12
REMARK SMILES IDX 7 13 8 14 9 15 13 16 11 17 10 18 12 20 4 22 21 24 18 26
REMARK H PARENT 10 19 12 21 4 23 21 25 18 27
REMARK Flexibility Score: inf
ROOT
ATOM      1  C   UNL     1      19.588  19.305  38.213  1.00  0.00     0.180 A 
ATOM      2  C   UNL     1      20.184  19.553  39.462  1.00  0.00     0.208 A 
ATOM      3  C   UNL     1      21.206  18.701  39.911  1.00  0.00     0.238 A 
ATOM      4  O   UNL     1      21.785  18.973  40.994  1.00  0.00    -0.285 OA
ATOM      5  C   UNL     1      21.580  17.579  39.133  1.00  0.00     0.111 A 
ATOM      6  C   UNL     1      22.572  16.623  39.510  1.00  0.00     0.134 A 
ATOM      7  C   UNL     1      22.935  15.612  38.611  1.00  0.00     0.093 A 
ATOM      8  C   UNL     1      22.300  15.483  37.377  1.00  0.00     0.123 A 
ATOM      9  C   UNL     1      21.291  16.379  37.020  1.00  0.00     0.094 A 
ATOM     10  C   UNL     1      20.934  17.421  37.879  1.00  0.00     0.146 A 
ATOM     11  O   UNL     1      19.983  18.263  37.491  1.00  0.00    -0.452 OA
ENDROOT
BRANCH   1  12
ATOM     12  C   UNL     1      18.516  20.166  37.667  1.00  0.00     0.025 A 
ATOM     13  C   UNL     1      18.856  21.343  36.986  1.00  0.00     0.016 A 
ATOM     14  C   UNL     1      17.860  22.181  36.481  1.00  0.00     0.051 A 
ATOM     15  C   UNL     1      16.508  21.869  36.658  1.00  0.00     0.157 A 
ATOM     16  C   UNL     1      17.158  19.862  37.867  1.00  0.00     0.062 A 
ATOM     17  C   UNL     1      16.151  20.698  37.367  1.00  0.00     0.158 A 
BRANCH  15  18
ATOM     18  O   UNL     1      15.561  22.746  36.121  1.00  0.00    -0.504 OA
ATOM     19  H   UNL     1      15.781  23.666  35.769  1.00  0.00     0.293 HD
ENDBRANCH  15  18
BRANCH  17  20
ATOM     20  O   UNL     1      14.824  20.332  37.600  1.00  0.00    -0.504 OA
ATOM     21  H   UNL     1      14.526  19.390  37.807  1.00  0.00     0.293 HD
ENDBRANCH  17  20
ENDBRANCH   1  12
BRANCH   2  22
ATOM     22  O   UNL     1      19.747  20.622  40.250  1.00  0.00    -0.502 OA
ATOM     23  H   UNL     1      19.704  21.572  39.904  1.00  0.00     0.293 HD
ENDBRANCH   2  22
BRANCH   6  24
ATOM     24  O   UNL     1      23.208  16.604  40.755  1.00  0.00    -0.507 OA
ATOM     25  H   UNL     1      22.742  16.479  41.641  1.00  0.00     0.293 HD
ENDBRANCH   6  24
BRANCH   8  26
ATOM     26  O   UNL     1      22.675  14.455  36.515  1.00  0.00    -0.508 OA
ATOM     27  H   UNL     1      22.903  13.531  36.860  1.00  0.00     0.293 HD
ENDBRANCH   8  26
TORSDOF 6
ENDMDL
