MODEL 1
REMARK VINA RESULT:    -8.099      0.000      0.000
REMARK INTER + INTRA:         -10.085
REMARK INTER:                  -9.756
REMARK INTRA:                  -0.328
REMARK UNBOUND:                -0.328
REMARK SMILES O=c1c(O)c(-c2ccc(O)c(O)c2)oc2cc(O)cc(O)c12
REMARK SMILES IDX 5 1 3 2 2 3 1 4 22 5 20 6 19 7 17 8 16 9 15 10 14 11 6 12
REMARK SMILES IDX 7 13 8 14 9 15 13 16 11 17 10 18 12 20 4 22 21 24 18 26
REMARK H PARENT 10 19 12 21 4 23 21 25 18 27
REMARK Flexibility Score: inf
ROOT
ATOM      1  C   UNL     1     -18.551  58.612  -4.782  1.00  0.00     0.180 A 
ATOM      2  C   UNL     1     -17.713  58.479  -5.905  1.00  0.00     0.208 A 
ATOM      3  C   UNL     1     -16.430  59.045  -5.865  1.00  0.00     0.238 A 
ATOM      4  O   UNL     1     -15.666  58.923  -6.862  1.00  0.00    -0.285 OA
ATOM      5  C   UNL     1     -16.014  59.750  -4.717  1.00  0.00     0.111 A 
ATOM      6  C   UNL     1     -14.740  60.354  -4.597  1.00  0.00     0.134 A 
ATOM      7  C   UNL     1     -14.405  61.047  -3.424  1.00  0.00     0.093 A 
ATOM      8  C   UNL     1     -15.319  61.146  -2.369  1.00  0.00     0.123 A 
ATOM      9  C   UNL     1     -16.578  60.552  -2.483  1.00  0.00     0.094 A 
ATOM     10  C   UNL     1     -16.930  59.857  -3.643  1.00  0.00     0.146 A 
ATOM     11  O   UNL     1     -18.132  59.296  -3.721  1.00  0.00    -0.452 OA
ENDROOT
BRANCH   1  12
ATOM     12  C   UNL     1     -19.910  58.027  -4.741  1.00  0.00     0.025 A 
ATOM     13  C   UNL     1     -21.003  58.786  -5.188  1.00  0.00     0.016 A 
ATOM     14  C   UNL     1     -22.298  58.261  -5.140  1.00  0.00     0.051 A 
ATOM     15  C   UNL     1     -22.522  56.979  -4.630  1.00  0.00     0.157 A 
ATOM     16  C   UNL     1     -20.141  56.745  -4.209  1.00  0.00     0.062 A 
ATOM     17  C   UNL     1     -21.440  56.218  -4.157  1.00  0.00     0.158 A 
BRANCH  15  18
ATOM     18  O   UNL     1     -23.824  56.481  -4.595  1.00  0.00    -0.504 OA
ATOM     19  H   UNL     1     -24.456  56.574  -5.381  1.00  0.00     0.293 HD
ENDBRANCH  15  18
BRANCH  17  20
ATOM     20  O   UNL     1     -21.658  54.944  -3.633  1.00  0.00    -0.504 OA
ATOM     21  H   UNL     1     -22.389  54.767  -2.954  1.00  0.00     0.293 HD
ENDBRANCH  17  20
ENDBRANCH   1  12
BRANCH   2  22
ATOM     22  O   UNL     1     -18.167  57.818  -7.050  1.00  0.00    -0.502 OA
ATOM     23  H   UNL     1     -19.073  57.368  -7.094  1.00  0.00     0.293 HD
ENDBRANCH   2  22
BRANCH   6  24
ATOM     24  O   UNL     1     -13.806  60.271  -5.632  1.00  0.00    -0.507 OA
ATOM     25  H   UNL     1     -13.099  60.984  -5.769  1.00  0.00     0.293 HD
ENDBRANCH   6  24
BRANCH   8  26
ATOM     26  O   UNL     1     -14.988  61.834  -1.205  1.00  0.00    -0.508 OA
ATOM     27  H   UNL     1     -14.023  61.971  -0.926  1.00  0.00     0.293 HD
ENDBRANCH   8  26
TORSDOF 6
ENDMDL
MODEL 2
REMARK VINA RESULT:    -7.536      3.641      5.850
REMARK INTER + INTRA:          -9.406
REMARK INTER:                  -9.261
REMARK INTRA:                  -0.145
REMARK UNBOUND:                -0.328
REMARK SMILES O=c1c(O)c(-c2ccc(O)c(O)c2)oc2cc(O)cc(O)c12
REMARK SMILES IDX 5 1 3 2 2 3 1 4 22 5 20 6 19 7 17 8 16 9 15 10 14 11 6 12
REMARK SMILES IDX 7 13 8 14 9 15 13 16 11 17 10 18 12 20 4 22 21 24 18 26
REMARK H PARENT 10 19 12 21 4 23 21 25 18 27
REMARK Flexibility Score: inf
ROOT
ATOM      1  C   UNL     1     -18.275  59.597  -1.272  1.00  0.00     0.180 A 
ATOM      2  C   UNL     1     -17.072  60.233  -1.633  1.00  0.00     0.208 A 
ATOM      3  C   UNL     1     -16.648  60.175  -2.969  1.00  0.00     0.238 A 
ATOM      4  O   UNL     1     -15.577  60.750  -3.307  1.00  0.00    -0.285 OA
ATOM      5  C   UNL     1     -17.420  59.469  -3.915  1.00  0.00     0.111 A 
ATOM      6  C   UNL     1     -17.062  59.359  -5.280  1.00  0.00     0.134 A 
ATOM      7  C   UNL     1     -17.878  58.631  -6.158  1.00  0.00     0.093 A 
ATOM      8  C   UNL     1     -19.045  58.010  -5.696  1.00  0.00     0.123 A 
ATOM      9  C   UNL     1     -19.402  58.116  -4.351  1.00  0.00     0.094 A 
ATOM     10  C   UNL     1     -18.602  58.839  -3.461  1.00  0.00     0.146 A 
ATOM     11  O   UNL     1     -18.970  58.928  -2.187  1.00  0.00    -0.452 OA
ENDROOT
BRANCH   1  12
ATOM     12  C   UNL     1     -18.797  59.630   0.113  1.00  0.00     0.025 A 
ATOM     13  C   UNL     1     -18.073  59.000   1.138  1.00  0.00     0.016 A 
ATOM     14  C   UNL     1     -18.557  59.001   2.450  1.00  0.00     0.051 A 
ATOM     15  C   UNL     1     -19.776  59.614   2.753  1.00  0.00     0.157 A 
ATOM     16  C   UNL     1     -20.033  60.228   0.417  1.00  0.00     0.062 A 
ATOM     17  C   UNL     1     -20.522  60.227   1.733  1.00  0.00     0.158 A 
BRANCH  15  18
ATOM     18  O   UNL     1     -20.232  59.601   4.071  1.00  0.00    -0.504 OA
ATOM     19  H   UNL     1     -21.114  60.021   4.340  1.00  0.00     0.293 HD
ENDBRANCH  15  18
BRANCH  17  20
ATOM     20  O   UNL     1     -21.745  60.828   2.025  1.00  0.00    -0.504 OA
ATOM     21  H   UNL     1     -22.591  60.282   2.140  1.00  0.00     0.293 HD
ENDBRANCH  17  20
ENDBRANCH   1  12
BRANCH   2  22
ATOM     22  O   UNL     1     -16.300  60.884  -0.667  1.00  0.00    -0.502 OA
ATOM     23  H   UNL     1     -15.377  61.250  -0.866  1.00  0.00     0.293 HD
ENDBRANCH   2  22
BRANCH   6  24
ATOM     24  O   UNL     1     -15.904  59.967  -5.770  1.00  0.00    -0.507 OA
ATOM     25  H   UNL     1     -15.546  60.827  -5.373  1.00  0.00     0.293 HD
ENDBRANCH   6  24
BRANCH   8  26
ATOM     26  O   UNL     1     -19.856  57.286  -6.567  1.00  0.00    -0.508 OA
ATOM     27  H   UNL     1     -19.654  57.231  -7.558  1.00  0.00     0.293 HD
ENDBRANCH   8  26
TORSDOF 6
ENDMDL
MODEL 3
REMARK VINA RESULT:    -7.252      2.602      6.298
REMARK INTER + INTRA:          -9.064
REMARK INTER:                  -9.046
REMARK INTRA:                  -0.019
REMARK UNBOUND:                -0.328
REMARK SMILES O=c1c(O)c(-c2ccc(O)c(O)c2)oc2cc(O)cc(O)c12
REMARK SMILES IDX 5 1 3 2 2 3 1 4 22 5 20 6 19 7 17 8 16 9 15 10 14 11 6 12
REMARK SMILES IDX 7 13 8 14 9 15 13 16 11 17 10 18 12 20 4 22 21 24 18 26
REMARK H PARENT 10 19 12 21 4 23 21 25 18 27
REMARK Flexibility Score: inf
ROOT
ATOM      1  C   UNL     1     -17.262  59.874  -2.095  1.00  0.00     0.180 A 
ATOM      2  C   UNL     1     -16.349  60.244  -3.101  1.00  0.00     0.208 A 
ATOM      3  C   UNL     1     -16.615  59.874  -4.428  1.00  0.00     0.238 A 
ATOM      4  O   UNL     1     -15.809  60.208  -5.339  1.00  0.00    -0.285 OA
ATOM      5  C   UNL     1     -17.773  59.127  -4.725  1.00  0.00     0.111 A 
ATOM      6  C   UNL     1     -18.112  58.711  -6.035  1.00  0.00     0.134 A 
ATOM      7  C   UNL     1     -19.279  57.962  -6.247  1.00  0.00     0.093 A 
ATOM      8  C   UNL     1     -20.112  57.621  -5.176  1.00  0.00     0.123 A 
ATOM      9  C   UNL     1     -19.782  58.029  -3.882  1.00  0.00     0.094 A 
ATOM     10  C   UNL     1     -18.624  58.778  -3.650  1.00  0.00     0.146 A 
ATOM     11  O   UNL     1     -18.337  59.158  -2.410  1.00  0.00    -0.452 OA
ENDROOT
BRANCH   1  12
ATOM     12  C   UNL     1     -17.061  60.244  -0.676  1.00  0.00     0.025 A 
ATOM     13  C   UNL     1     -16.830  61.586  -0.338  1.00  0.00     0.016 A 
ATOM     14  C   UNL     1     -16.617  61.956   0.993  1.00  0.00     0.051 A 
ATOM     15  C   UNL     1     -16.616  60.989   2.003  1.00  0.00     0.157 A 
ATOM     16  C   UNL     1     -17.039  59.270   0.339  1.00  0.00     0.062 A 
ATOM     17  C   UNL     1     -16.823  59.639   1.676  1.00  0.00     0.158 A 
BRANCH  15  18
ATOM     18  O   UNL     1     -16.403  61.387   3.322  1.00  0.00    -0.504 OA
ATOM     19  H   UNL     1     -16.811  62.233   3.702  1.00  0.00     0.293 HD
ENDBRANCH  15  18
BRANCH  17  20
ATOM     20  O   UNL     1     -16.809  58.668   2.676  1.00  0.00    -0.504 OA
ATOM     21  H   UNL     1     -17.162  58.859   3.607  1.00  0.00     0.293 HD
ENDBRANCH  17  20
ENDBRANCH   1  12
BRANCH   2  22
ATOM     22  O   UNL     1     -15.183  60.942  -2.774  1.00  0.00    -0.502 OA
ATOM     23  H   UNL     1     -14.339  60.878  -3.330  1.00  0.00     0.293 HD
ENDBRANCH   2  22
BRANCH   6  24
ATOM     24  O   UNL     1     -17.301  59.036  -7.124  1.00  0.00    -0.507 OA
ATOM     25  H   UNL     1     -16.301  58.873  -7.110  1.00  0.00     0.293 HD
ENDBRANCH   6  24
BRANCH   8  26
ATOM     26  O   UNL     1     -21.270  56.876  -5.385  1.00  0.00    -0.508 OA
ATOM     27  H   UNL     1     -21.484  56.059  -4.825  1.00  0.00     0.293 HD
ENDBRANCH   8  26
TORSDOF 6
ENDMDL
MODEL 4
REMARK VINA RESULT:    -7.164      9.394     11.924
REMARK INTER + INTRA:          -8.958
REMARK INTER:                  -8.860
REMARK INTRA:                  -0.098
REMARK UNBOUND:                -0.328
REMARK SMILES O=c1c(O)c(-c2ccc(O)c(O)c2)oc2cc(O)cc(O)c12
REMARK SMILES IDX 5 1 3 2 2 3 1 4 22 5 20 6 19 7 17 8 16 9 15 10 14 11 6 12
REMARK SMILES IDX 7 13 8 14 9 15 13 16 11 17 10 18 12 20 4 22 21 24 18 26
REMARK H PARENT 10 19 12 21 4 23 21 25 18 27
REMARK Flexibility Score: inf
ROOT
ATOM      1  C   UNL     1     -20.033  58.561   5.172  1.00  0.00     0.180 A 
ATOM      2  C   UNL     1     -19.448  58.979   6.382  1.00  0.00     0.208 A 
ATOM      3  C   UNL     1     -20.003  58.537   7.593  1.00  0.00     0.238 A 
ATOM      4  O   UNL     1     -19.482  58.897   8.684  1.00  0.00    -0.285 OA
ATOM      5  C   UNL     1     -21.140  57.704   7.575  1.00  0.00     0.111 A 
ATOM      6  C   UNL     1     -21.764  57.218   8.750  1.00  0.00     0.134 A 
ATOM      7  C   UNL     1     -22.899  56.401   8.648  1.00  0.00     0.093 A 
ATOM      8  C   UNL     1     -23.423  56.060   7.396  1.00  0.00     0.123 A 
ATOM      9  C   UNL     1     -22.811  56.537   6.234  1.00  0.00     0.094 A 
ATOM     10  C   UNL     1     -21.678  57.352   6.314  1.00  0.00     0.146 A 
ATOM     11  O   UNL     1     -21.114  57.786   5.193  1.00  0.00    -0.452 OA
ENDROOT
BRANCH   1  12
ATOM     12  C   UNL     1     -19.493  58.969   3.855  1.00  0.00     0.025 A 
ATOM     13  C   UNL     1     -20.347  59.568   2.916  1.00  0.00     0.016 A 
ATOM     14  C   UNL     1     -19.864  59.943   1.658  1.00  0.00     0.051 A 
ATOM     15  C   UNL     1     -18.529  59.710   1.316  1.00  0.00     0.157 A 
ATOM     16  C   UNL     1     -18.155  58.717   3.501  1.00  0.00     0.062 A 
ATOM     17  C   UNL     1     -17.670  59.090   2.238  1.00  0.00     0.158 A 
BRANCH  15  18
ATOM     18  O   UNL     1     -18.075  60.097   0.055  1.00  0.00    -0.504 OA
ATOM     19  H   UNL     1     -17.091  60.212  -0.151  1.00  0.00     0.293 HD
ENDBRANCH  15  18
BRANCH  17  20
ATOM     20  O   UNL     1     -16.341  58.842   1.898  1.00  0.00    -0.504 OA
ATOM     21  H   UNL     1     -15.597  58.910   2.582  1.00  0.00     0.293 HD
ENDBRANCH  17  20
ENDBRANCH   1  12
BRANCH   2  22
ATOM     22  O   UNL     1     -18.351  59.845   6.374  1.00  0.00    -0.502 OA
ATOM     23  H   UNL     1     -18.347  60.720   6.883  1.00  0.00     0.293 HD
ENDBRANCH   2  22
BRANCH   6  24
ATOM     24  O   UNL     1     -21.265  57.541  10.013  1.00  0.00    -0.507 OA
ATOM     25  H   UNL     1     -20.654  58.337  10.157  1.00  0.00     0.293 HD
ENDBRANCH   6  24
BRANCH   8  26
ATOM     26  O   UNL     1     -24.550  55.249   7.294  1.00  0.00    -0.508 OA
ATOM     27  H   UNL     1     -24.756  54.539   7.987  1.00  0.00     0.293 HD
ENDBRANCH   8  26
TORSDOF 6
ENDMDL
MODEL 5
REMARK VINA RESULT:    -7.108      8.149      9.794
REMARK INTER + INTRA:          -8.890
REMARK INTER:                  -8.801
REMARK INTRA:                  -0.090
REMARK UNBOUND:                -0.328
REMARK SMILES O=c1c(O)c(-c2ccc(O)c(O)c2)oc2cc(O)cc(O)c12
REMARK SMILES IDX 5 1 3 2 2 3 1 4 22 5 20 6 19 7 17 8 16 9 15 10 14 11 6 12
REMARK SMILES IDX 7 13 8 14 9 15 13 16 11 17 10 18 12 20 4 22 21 24 18 26
REMARK H PARENT 10 19 12 21 4 23 21 25 18 27
REMARK Flexibility Score: inf
ROOT
ATOM      1  C   UNL     1     -19.959  58.954   4.207  1.00  0.00     0.180 A 
ATOM      2  C   UNL     1     -18.625  58.898   3.760  1.00  0.00     0.208 A 
ATOM      3  C   UNL     1     -18.325  59.345   2.464  1.00  0.00     0.238 A 
ATOM      4  O   UNL     1     -17.132  59.309   2.055  1.00  0.00    -0.285 OA
ATOM      5  C   UNL     1     -19.360  59.821   1.633  1.00  0.00     0.111 A 
ATOM      6  C   UNL     1     -19.143  60.285   0.314  1.00  0.00     0.134 A 
ATOM      7  C   UNL     1     -20.228  60.734  -0.454  1.00  0.00     0.093 A 
ATOM      8  C   UNL     1     -21.525  60.727   0.073  1.00  0.00     0.123 A 
ATOM      9  C   UNL     1     -21.744  60.269   1.373  1.00  0.00     0.094 A 
ATOM     10  C   UNL     1     -20.676  59.819   2.155  1.00  0.00     0.146 A 
ATOM     11  O   UNL     1     -20.912  59.395   3.391  1.00  0.00    -0.452 OA
ENDROOT
BRANCH   1  12
ATOM     12  C   UNL     1     -20.352  58.518   5.566  1.00  0.00     0.025 A 
ATOM     13  C   UNL     1     -21.389  57.585   5.719  1.00  0.00     0.016 A 
ATOM     14  C   UNL     1     -21.791  57.175   6.994  1.00  0.00     0.051 A 
ATOM     15  C   UNL     1     -21.174  57.702   8.133  1.00  0.00     0.157 A 
ATOM     16  C   UNL     1     -19.747  59.062   6.714  1.00  0.00     0.062 A 
ATOM     17  C   UNL     1     -20.151  58.654   7.994  1.00  0.00     0.158 A 
BRANCH  15  18
ATOM     18  O   UNL     1     -21.594  57.272   9.391  1.00  0.00    -0.504 OA
ATOM     19  H   UNL     1     -22.331  57.743   9.902  1.00  0.00     0.293 HD
ENDBRANCH  15  18
BRANCH  17  20
ATOM     20  O   UNL     1     -19.542  59.194   9.126  1.00  0.00    -0.504 OA
ATOM     21  H   UNL     1     -18.819  59.901   9.053  1.00  0.00     0.293 HD
ENDBRANCH  17  20
ENDBRANCH   1  12
BRANCH   2  22
ATOM     22  O   UNL     1     -17.625  58.376   4.585  1.00  0.00    -0.502 OA
ATOM     23  H   UNL     1     -16.640  58.487   4.379  1.00  0.00     0.293 HD
ENDBRANCH   2  22
BRANCH   6  24
ATOM     24  O   UNL     1     -17.861  60.305  -0.239  1.00  0.00    -0.507 OA
ATOM     25  H   UNL     1     -17.693  60.044  -1.204  1.00  0.00     0.293 HD
ENDBRANCH   6  24
BRANCH   8  26
ATOM     26  O   UNL     1     -22.603  61.171  -0.689  1.00  0.00    -0.508 OA
ATOM     27  H   UNL     1     -22.907  62.138  -0.664  1.00  0.00     0.293 HD
ENDBRANCH   8  26
TORSDOF 6
ENDMDL
MODEL 6
REMARK VINA RESULT:    -6.996      9.509     11.431
REMARK INTER + INTRA:          -8.755
REMARK INTER:                  -8.769
REMARK INTRA:                   0.014
REMARK UNBOUND:                -0.328
REMARK SMILES O=c1c(O)c(-c2ccc(O)c(O)c2)oc2cc(O)cc(O)c12
REMARK SMILES IDX 5 1 3 2 2 3 1 4 22 5 20 6 19 7 17 8 16 9 15 10 14 11 6 12
REMARK SMILES IDX 7 13 8 14 9 15 13 16 11 17 10 18 12 20 4 22 21 24 18 26
REMARK H PARENT 10 19 12 21 4 23 21 25 18 27
REMARK Flexibility Score: inf
ROOT
ATOM      1  C   UNL     1     -21.278  58.360   4.652  1.00  0.00     0.180 A 
ATOM      2  C   UNL     1     -22.324  57.427   4.787  1.00  0.00     0.208 A 
ATOM      3  C   UNL     1     -22.561  56.851   6.045  1.00  0.00     0.238 A 
ATOM      4  O   UNL     1     -23.502  56.022   6.181  1.00  0.00    -0.285 OA
ATOM      5  C   UNL     1     -21.740  57.200   7.137  1.00  0.00     0.111 A 
ATOM      6  C   UNL     1     -21.909  56.663   8.436  1.00  0.00     0.134 A 
ATOM      7  C   UNL     1     -21.045  57.053   9.469  1.00  0.00     0.093 A 
ATOM      8  C   UNL     1     -20.015  57.971   9.228  1.00  0.00     0.123 A 
ATOM      9  C   UNL     1     -19.845  58.504   7.949  1.00  0.00     0.094 A 
ATOM     10  C   UNL     1     -20.697  58.127   6.906  1.00  0.00     0.146 A 
ATOM     11  O   UNL     1     -20.515  58.655   5.701  1.00  0.00    -0.452 OA
ENDROOT
BRANCH   1  12
ATOM     12  C   UNL     1     -20.979  59.025   3.363  1.00  0.00     0.025 A 
ATOM     13  C   UNL     1     -19.647  59.132   2.935  1.00  0.00     0.016 A 
ATOM     14  C   UNL     1     -19.338  59.773   1.732  1.00  0.00     0.051 A 
ATOM     15  C   UNL     1     -20.353  60.330   0.948  1.00  0.00     0.157 A 
ATOM     16  C   UNL     1     -21.996  59.605   2.583  1.00  0.00     0.062 A 
ATOM     17  C   UNL     1     -21.688  60.251   1.377  1.00  0.00     0.158 A 
BRANCH  15  18
ATOM     18  O   UNL     1     -20.015  60.962  -0.248  1.00  0.00    -0.504 OA
ATOM     19  H   UNL     1     -20.626  60.947  -1.056  1.00  0.00     0.293 HD
ENDBRANCH  15  18
BRANCH  17  20
ATOM     20  O   UNL     1     -22.703  60.817   0.607  1.00  0.00    -0.504 OA
ATOM     21  H   UNL     1     -23.372  60.244   0.106  1.00  0.00     0.293 HD
ENDBRANCH  17  20
ENDBRANCH   1  12
BRANCH   2  22
ATOM     22  O   UNL     1     -23.091  57.061   3.678  1.00  0.00    -0.502 OA
ATOM     23  H   UNL     1     -24.032  57.406   3.531  1.00  0.00     0.293 HD
ENDBRANCH   2  22
BRANCH   6  24
ATOM     24  O   UNL     1     -22.927  55.746   8.706  1.00  0.00    -0.507 OA
ATOM     25  H   UNL     1     -23.509  55.825   9.532  1.00  0.00     0.293 HD
ENDBRANCH   6  24
BRANCH   8  26
ATOM     26  O   UNL     1     -19.156  58.359  10.253  1.00  0.00    -0.508 OA
ATOM     27  H   UNL     1     -19.376  58.180  11.226  1.00  0.00     0.293 HD
ENDBRANCH   8  26
TORSDOF 6
ENDMDL
MODEL 7
REMARK VINA RESULT:    -6.925      4.154      7.702
REMARK INTER + INTRA:          -8.671
REMARK INTER:                  -8.463
REMARK INTRA:                  -0.208
REMARK UNBOUND:                -0.328
REMARK SMILES O=c1c(O)c(-c2ccc(O)c(O)c2)oc2cc(O)cc(O)c12
REMARK SMILES IDX 5 1 3 2 2 3 1 4 22 5 20 6 19 7 17 8 16 9 15 10 14 11 6 12
REMARK SMILES IDX 7 13 8 14 9 15 13 16 11 17 10 18 12 20 4 22 21 24 18 26
REMARK H PARENT 10 19 12 21 4 23 21 25 18 27
REMARK Flexibility Score: inf
ROOT
ATOM      1  C   UNL     1     -17.206  60.626  -0.530  1.00  0.00     0.180 A 
ATOM      2  C   UNL     1     -16.519  60.224   0.631  1.00  0.00     0.208 A 
ATOM      3  C   UNL     1     -17.259  59.846   1.762  1.00  0.00     0.238 A 
ATOM      4  O   UNL     1     -16.655  59.474   2.805  1.00  0.00    -0.285 OA
ATOM      5  C   UNL     1     -18.668  59.895   1.720  1.00  0.00     0.111 A 
ATOM      6  C   UNL     1     -19.489  59.535   2.816  1.00  0.00     0.134 A 
ATOM      7  C   UNL     1     -20.884  59.620   2.698  1.00  0.00     0.093 A 
ATOM      8  C   UNL     1     -21.474  60.057   1.507  1.00  0.00     0.123 A 
ATOM      9  C   UNL     1     -20.668  60.413   0.423  1.00  0.00     0.094 A 
ATOM     10  C   UNL     1     -19.276  60.335   0.520  1.00  0.00     0.146 A 
ATOM     11  O   UNL     1     -18.535  60.674  -0.529  1.00  0.00    -0.452 OA
ENDROOT
BRANCH   1  12
ATOM     12  C   UNL     1     -16.495  61.021  -1.768  1.00  0.00     0.025 A 
ATOM     13  C   UNL     1     -15.788  62.232  -1.800  1.00  0.00     0.016 A 
ATOM     14  C   UNL     1     -15.126  62.635  -2.964  1.00  0.00     0.051 A 
ATOM     15  C   UNL     1     -15.175  61.843  -4.115  1.00  0.00     0.157 A 
ATOM     16  C   UNL     1     -16.561  60.235  -2.933  1.00  0.00     0.062 A 
ATOM     17  C   UNL     1     -15.900  60.640  -4.103  1.00  0.00     0.158 A 
BRANCH  15  18
ATOM     18  O   UNL     1     -14.504  62.269  -5.260  1.00  0.00    -0.504 OA
ATOM     19  H   UNL     1     -13.772  61.718  -5.692  1.00  0.00     0.293 HD
ENDBRANCH  15  18
BRANCH  17  20
ATOM     20  O   UNL     1     -15.965  59.852  -5.251  1.00  0.00    -0.504 OA
ATOM     21  H   UNL     1     -15.443  58.986  -5.331  1.00  0.00     0.293 HD
ENDBRANCH  17  20
ENDBRANCH   1  12
BRANCH   2  22
ATOM     22  O   UNL     1     -15.121  60.231   0.663  1.00  0.00    -0.502 OA
ATOM     23  H   UNL     1     -14.589  59.598   1.247  1.00  0.00     0.293 HD
ENDBRANCH   2  22
BRANCH   6  24
ATOM     24  O   UNL     1     -18.930  59.095   4.017  1.00  0.00    -0.507 OA
ATOM     25  H   UNL     1     -17.926  59.040   4.149  1.00  0.00     0.293 HD
ENDBRANCH   6  24
BRANCH   8  26
ATOM     26  O   UNL     1     -22.859  60.143   1.390  1.00  0.00    -0.508 OA
ATOM     27  H   UNL     1     -23.457  59.345   1.573  1.00  0.00     0.293 HD
ENDBRANCH   8  26
TORSDOF 6
ENDMDL
MODEL 8
REMARK VINA RESULT:    -6.808      8.022      9.307
REMARK INTER + INTRA:          -8.530
REMARK INTER:                  -8.565
REMARK INTRA:                   0.035
REMARK UNBOUND:                -0.328
REMARK SMILES O=c1c(O)c(-c2ccc(O)c(O)c2)oc2cc(O)cc(O)c12
REMARK SMILES IDX 5 1 3 2 2 3 1 4 22 5 20 6 19 7 17 8 16 9 15 10 14 11 6 12
REMARK SMILES IDX 7 13 8 14 9 15 13 16 11 17 10 18 12 20 4 22 21 24 18 26
REMARK H PARENT 10 19 12 21 4 23 21 25 18 27
REMARK Flexibility Score: inf
ROOT
ATOM      1  C   UNL     1     -21.007  58.712   3.935  1.00  0.00     0.180 A 
ATOM      2  C   UNL     1     -21.916  59.284   3.025  1.00  0.00     0.208 A 
ATOM      3  C   UNL     1     -21.420  59.881   1.855  1.00  0.00     0.238 A 
ATOM      4  O   UNL     1     -22.225  60.387   1.027  1.00  0.00    -0.285 OA
ATOM      5  C   UNL     1     -20.029  59.913   1.626  1.00  0.00     0.111 A 
ATOM      6  C   UNL     1     -19.448  60.499   0.475  1.00  0.00     0.134 A 
ATOM      7  C   UNL     1     -18.053  60.500   0.324  1.00  0.00     0.093 A 
ATOM      8  C   UNL     1     -17.230  59.927   1.301  1.00  0.00     0.123 A 
ATOM      9  C   UNL     1     -17.799  59.349   2.437  1.00  0.00     0.094 A 
ATOM     10  C   UNL     1     -19.187  59.337   2.606  1.00  0.00     0.146 A 
ATOM     11  O   UNL     1     -19.701  58.774   3.693  1.00  0.00    -0.452 OA
ENDROOT
BRANCH   1  12
ATOM     12  C   UNL     1     -21.455  58.048   5.181  1.00  0.00     0.025 A 
ATOM     13  C   UNL     1     -20.762  58.287   6.377  1.00  0.00     0.016 A 
ATOM     14  C   UNL     1     -21.153  57.656   7.561  1.00  0.00     0.051 A 
ATOM     15  C   UNL     1     -22.231  56.765   7.564  1.00  0.00     0.157 A 
ATOM     16  C   UNL     1     -22.525  57.135   5.182  1.00  0.00     0.062 A 
ATOM     17  C   UNL     1     -22.918  56.498   6.368  1.00  0.00     0.158 A 
BRANCH  15  18
ATOM     18  O   UNL     1     -22.600  56.151   8.760  1.00  0.00    -0.504 OA
ATOM     19  H   UNL     1     -22.708  56.672   9.622  1.00  0.00     0.293 HD
ENDBRANCH  15  18
BRANCH  17  20
ATOM     20  O   UNL     1     -23.984  55.600   6.361  1.00  0.00    -0.504 OA
ATOM     21  H   UNL     1     -23.938  54.718   6.857  1.00  0.00     0.293 HD
ENDBRANCH  17  20
ENDBRANCH   1  12
BRANCH   2  22
ATOM     22  O   UNL     1     -23.287  59.282   3.299  1.00  0.00    -0.502 OA
ATOM     23  H   UNL     1     -23.817  58.426   3.406  1.00  0.00     0.293 HD
ENDBRANCH   2  22
BRANCH   6  24
ATOM     24  O   UNL     1     -20.243  61.078  -0.516  1.00  0.00    -0.507 OA
ATOM     25  H   UNL     1     -21.078  60.621  -0.862  1.00  0.00     0.293 HD
ENDBRANCH   6  24
BRANCH   8  26
ATOM     26  O   UNL     1     -15.845  59.929   1.152  1.00  0.00    -0.508 OA
ATOM     27  H   UNL     1     -15.373  59.241   0.577  1.00  0.00     0.293 HD
ENDBRANCH   8  26
TORSDOF 6
ENDMDL
MODEL 9
REMARK VINA RESULT:    -6.735     15.454     17.039
REMARK INTER + INTRA:          -8.441
REMARK INTER:                  -8.243
REMARK INTRA:                  -0.198
REMARK UNBOUND:                -0.328
REMARK SMILES O=c1c(O)c(-c2ccc(O)c(O)c2)oc2cc(O)cc(O)c12
REMARK SMILES IDX 5 1 3 2 2 3 1 4 22 5 20 6 19 7 17 8 16 9 15 10 14 11 6 12
REMARK SMILES IDX 7 13 8 14 9 15 13 16 11 17 10 18 12 20 4 22 21 24 18 26
REMARK H PARENT 10 19 12 21 4 23 21 25 18 27
REMARK Flexibility Score: inf
ROOT
ATOM      1  C   UNL     1     -19.702  49.137   9.238  1.00  0.00     0.180 A 
ATOM      2  C   UNL     1     -19.653  49.293   7.840  1.00  0.00     0.208 A 
ATOM      3  C   UNL     1     -18.402  49.336   7.205  1.00  0.00     0.238 A 
ATOM      4  O   UNL     1     -18.345  49.467   5.952  1.00  0.00    -0.285 OA
ATOM      5  C   UNL     1     -17.226  49.242   7.977  1.00  0.00     0.111 A 
ATOM      6  C   UNL     1     -15.926  49.282   7.417  1.00  0.00     0.134 A 
ATOM      7  C   UNL     1     -14.804  49.191   8.254  1.00  0.00     0.093 A 
ATOM      8  C   UNL     1     -14.957  49.063   9.639  1.00  0.00     0.123 A 
ATOM      9  C   UNL     1     -16.236  49.024  10.196  1.00  0.00     0.094 A 
ATOM     10  C   UNL     1     -17.367  49.111   9.379  1.00  0.00     0.146 A 
ATOM     11  O   UNL     1     -18.572  49.066   9.936  1.00  0.00    -0.452 OA
ENDROOT
BRANCH   1  12
ATOM     12  C   UNL     1     -20.983  49.063   9.977  1.00  0.00     0.025 A 
ATOM     13  C   UNL     1     -21.826  47.956   9.788  1.00  0.00     0.016 A 
ATOM     14  C   UNL     1     -23.049  47.875  10.459  1.00  0.00     0.051 A 
ATOM     15  C   UNL     1     -23.456  48.904  11.314  1.00  0.00     0.157 A 
ATOM     16  C   UNL     1     -21.404  50.107  10.821  1.00  0.00     0.062 A 
ATOM     17  C   UNL     1     -22.633  50.028  11.493  1.00  0.00     0.158 A 
BRANCH  15  18
ATOM     18  O   UNL     1     -24.681  48.795  11.971  1.00  0.00    -0.504 OA
ATOM     19  H   UNL     1     -25.562  48.954  11.498  1.00  0.00     0.293 HD
ENDBRANCH  15  18
BRANCH  17  20
ATOM     20  O   UNL     1     -23.039  51.065  12.333  1.00  0.00    -0.504 OA
ATOM     21  H   UNL     1     -22.473  51.364  13.118  1.00  0.00     0.293 HD
ENDBRANCH  17  20
ENDBRANCH   1  12
BRANCH   2  22
ATOM     22  O   UNL     1     -20.832  49.434   7.103  1.00  0.00    -0.502 OA
ATOM     23  H   UNL     1     -20.831  49.642   6.112  1.00  0.00     0.293 HD
ENDBRANCH   2  22
BRANCH   6  24
ATOM     24  O   UNL     1     -15.742  49.409   6.039  1.00  0.00    -0.507 OA
ATOM     25  H   UNL     1     -16.412  49.036   5.376  1.00  0.00     0.293 HD
ENDBRANCH   6  24
BRANCH   8  26
ATOM     26  O   UNL     1     -13.843  48.974  10.471  1.00  0.00    -0.508 OA
ATOM     27  H   UNL     1     -13.669  48.153  11.038  1.00  0.00     0.293 HD
ENDBRANCH   8  26
TORSDOF 6
ENDMDL
