MODEL 1
REMARK VINA RESULT:    -3.297      0.000      0.000
REMARK INTER + INTRA:          -4.474
REMARK INTER:                  -4.646
REMARK INTRA:                   0.172
REMARK UNBOUND:                 0.172
REMARK SMILES CC1=CCC(=C(C)C)C(=O)CC(C)=CCC1
REMARK SMILES IDX 12 1 14 2 13 3 15 4 16 5 2 6 1 7 3 8 11 10 9 11 10 12 5 13
REMARK SMILES IDX 6 14 7 15 8 16 4 17
REMARK H PARENT
REMARK Flexibility Score: 60.00
ROOT
ATOM      1  C   UNL     1     150.282 160.450 201.681  1.00  0.00    -0.070 C 
ATOM      2  C   UNL     1     149.327 160.462 200.713  1.00  0.00    -0.027 C 
ATOM      3  C   UNL     1     149.850 160.536 203.123  1.00  0.00     0.039 C 
ENDROOT
BRANCH   2   4
ATOM      4  C   UNL     1     149.575 160.480 199.224  1.00  0.00     0.032 C 
BRANCH   4   5
ATOM      5  C   UNL     1     149.705 159.078 198.614  1.00  0.00     0.034 C 
BRANCH   5   6
ATOM      6  C   UNL     1     150.941 159.000 197.739  1.00  0.00    -0.077 C 
ATOM      7  C   UNL     1     150.974 159.816 196.473  1.00  0.00     0.039 C 
ATOM      8  C   UNL     1     152.051 158.298 198.074  1.00  0.00    -0.023 CG0
ATOM      9  G   UNL     1     152.200 157.414 199.290  1.00  0.00     0.000 G0
ENDBRANCH   5   6
ENDBRANCH   4   5
ENDBRANCH   2   4
BRANCH   1  10
ATOM     10  C   UNL     1     151.764 160.209 201.422  1.00  0.00     0.111 C 
BRANCH  10  11
ATOM     11  C   UNL     1     152.171 158.759 201.502  1.00  0.00     0.163 C 
ATOM     12  O   UNL     1     151.780 158.097 202.502  1.00  0.00    -0.294 OA
BRANCH  11  13
ATOM     13  C   UNL     1     152.961 158.078 200.423  1.00  0.00    -0.002 C 
ATOM     14  C   UNL     1     154.331 158.109 200.433  1.00  0.00    -0.069 C 
ATOM     15  C   UNL     1     155.148 157.516 199.307  1.00  0.00     0.039 C 
ATOM     16  C   UNL     1     155.105 158.693 201.595  1.00  0.00     0.039 C 
BRANCH  13  17
ATOM     17  C   UNL     1     152.209 157.399 199.281  1.00  0.00     0.066 CG0
ATOM     18  G   UNL     1     152.058 158.304 198.081  1.00  0.00     0.000 G0
ENDBRANCH  13  17
ENDBRANCH  11  13
ENDBRANCH  10  11
ENDBRANCH   1  10
TORSDOF 0
ENDMDL
MODEL 2
REMARK VINA RESULT:    -3.182      7.436      9.254
REMARK INTER + INTRA:          -4.313
REMARK INTER:                  -4.452
REMARK INTRA:                   0.140
REMARK UNBOUND:                 0.172
REMARK SMILES CC1=CCC(=C(C)C)C(=O)CC(C)=CCC1
REMARK SMILES IDX 12 1 14 2 13 3 15 4 16 5 2 6 1 7 3 8 11 10 9 11 10 12 5 13
REMARK SMILES IDX 6 14 7 15 8 16 4 17
REMARK H PARENT
REMARK Flexibility Score: 60.00
ROOT
ATOM      1  C   UNL     1     159.595 163.393 196.593  1.00  0.00    -0.070 C 
ATOM      2  C   UNL     1     159.816 162.108 196.976  1.00  0.00    -0.027 C 
ATOM      3  C   UNL     1     160.777 164.322 196.466  1.00  0.00     0.039 C 
ENDROOT
BRANCH   2   4
ATOM      4  C   UNL     1     158.754 161.069 197.246  1.00  0.00     0.032 C 
BRANCH   4   5
ATOM      5  C   UNL     1     158.385 160.950 198.730  1.00  0.00     0.034 C 
BRANCH   5   6
ATOM      6  C   UNL     1     157.041 161.601 198.991  1.00  0.00    -0.077 C 
ATOM      7  C   UNL     1     155.799 160.759 198.844  1.00  0.00     0.039 C 
ATOM      8  C   UNL     1     156.900 162.876 199.426  1.00  0.00    -0.023 CG0
ATOM      9  G   UNL     1     158.020 163.871 199.618  1.00  0.00     0.000 G0
ENDBRANCH   5   6
ENDBRANCH   4   5
ENDBRANCH   2   4
BRANCH   1  10
ATOM     10  C   UNL     1     158.245 163.934 196.139  1.00  0.00     0.111 C 
BRANCH  10  11
ATOM     11  C   UNL     1     157.494 164.682 197.212  1.00  0.00     0.163 C 
ATOM     12  O   UNL     1     156.306 165.026 196.961  1.00  0.00    -0.294 OA
BRANCH  11  13
ATOM     13  C   UNL     1     158.082 164.971 198.562  1.00  0.00    -0.002 C 
ATOM     14  C   UNL     1     158.704 166.165 198.812  1.00  0.00    -0.069 C 
ATOM     15  C   UNL     1     159.390 166.443 200.131  1.00  0.00     0.039 C 
ATOM     16  C   UNL     1     158.696 167.293 197.804  1.00  0.00     0.039 C 
BRANCH  13  17
ATOM     17  C   UNL     1     158.026 163.885 199.634  1.00  0.00     0.066 CG0
ATOM     18  G   UNL     1     156.904 162.903 199.392  1.00  0.00     0.000 G0
ENDBRANCH  13  17
ENDBRANCH  11  13
ENDBRANCH  10  11
ENDBRANCH   1  10
TORSDOF 0
ENDMDL
MODEL 3
REMARK VINA RESULT:    -3.174      1.674      3.960
REMARK INTER + INTRA:          -4.301
REMARK INTER:                  -4.529
REMARK INTRA:                   0.229
REMARK UNBOUND:                 0.172
REMARK SMILES CC1=CCC(=C(C)C)C(=O)CC(C)=CCC1
REMARK SMILES IDX 12 1 14 2 13 3 15 4 16 5 2 6 1 7 3 8 11 10 9 11 10 12 5 13
REMARK SMILES IDX 6 14 7 15 8 16 4 17
REMARK H PARENT
REMARK Flexibility Score: 60.00
ROOT
ATOM      1  C   UNL     1     151.057 160.421 201.345  1.00  0.00    -0.070 C 
ATOM      2  C   UNL     1     152.326 160.045 201.657  1.00  0.00    -0.027 C 
ATOM      3  C   UNL     1     150.071 160.633 202.466  1.00  0.00     0.039 C 
ENDROOT
BRANCH   2   4
ATOM      4  C   UNL     1     153.415 159.697 200.670  1.00  0.00     0.032 C 
BRANCH   4   5
ATOM      5  C   UNL     1     153.234 158.315 200.030  1.00  0.00     0.034 C 
BRANCH   5   6
ATOM      6  C   UNL     1     153.308 158.423 198.519  1.00  0.00    -0.077 C 
ATOM      7  C   UNL     1     154.639 158.749 197.891  1.00  0.00     0.039 C 
ATOM      8  C   UNL     1     152.261 158.164 197.699  1.00  0.00    -0.023 CG0
ATOM      9  G   UNL     1     150.855 157.835 198.142  1.00  0.00     0.000 G0
ENDBRANCH   5   6
ENDBRANCH   4   5
ENDBRANCH   2   4
BRANCH   1  10
ATOM     10  C   UNL     1     150.591 160.785 199.941  1.00  0.00     0.111 C 
BRANCH  10  11
ATOM     11  C   UNL     1     149.625 159.794 199.341  1.00  0.00     0.163 C 
ATOM     12  O   UNL     1     148.513 159.640 199.915  1.00  0.00    -0.294 OA
BRANCH  11  13
ATOM     13  C   UNL     1     149.917 159.045 198.073  1.00  0.00    -0.002 C 
ATOM     14  C   UNL     1     149.321 159.407 196.894  1.00  0.00    -0.069 C 
ATOM     15  C   UNL     1     149.520 158.609 195.625  1.00  0.00     0.039 C 
ATOM     16  C   UNL     1     148.469 160.653 196.783  1.00  0.00     0.039 C 
BRANCH  13  17
ATOM     17  C   UNL     1     150.845 157.835 198.134  1.00  0.00     0.066 CG0
ATOM     18  G   UNL     1     152.254 158.176 197.708  1.00  0.00     0.000 G0
ENDBRANCH  13  17
ENDBRANCH  11  13
ENDBRANCH  10  11
ENDBRANCH   1  10
TORSDOF 0
ENDMDL
MODEL 4
REMARK VINA RESULT:    -2.999      7.050      8.363
REMARK INTER + INTRA:          -4.054
REMARK INTER:                  -4.281
REMARK INTRA:                   0.227
REMARK UNBOUND:                 0.172
REMARK SMILES CC1=CCC(=C(C)C)C(=O)CC(C)=CCC1
REMARK SMILES IDX 12 1 14 2 13 3 15 4 16 5 2 6 1 7 3 8 11 10 9 11 10 12 5 13
REMARK SMILES IDX 6 14 7 15 8 16 4 17
REMARK H PARENT
REMARK Flexibility Score: 60.00
ROOT
ATOM      1  C   UNL     1     156.015 163.692 196.061  1.00  0.00    -0.070 C 
ATOM      2  C   UNL     1     155.754 164.973 196.432  1.00  0.00    -0.027 C 
ATOM      3  C   UNL     1     154.978 162.947 195.257  1.00  0.00     0.039 C 
ENDROOT
BRANCH   2   4
ATOM      4  C   UNL     1     156.626 165.836 197.312  1.00  0.00     0.032 C 
BRANCH   4   5
ATOM      5  C   UNL     1     156.727 165.323 198.755  1.00  0.00     0.034 C 
BRANCH   5   6
ATOM      6  C   UNL     1     158.180 165.213 199.172  1.00  0.00    -0.077 C 
ATOM      7  C   UNL     1     159.020 166.465 199.173  1.00  0.00     0.039 C 
ATOM      8  C   UNL     1     158.744 164.066 199.621  1.00  0.00    -0.023 CG0
ATOM      9  G   UNL     1     158.069 162.716 199.679  1.00  0.00     0.000 G0
ENDBRANCH   5   6
ENDBRANCH   4   5
ENDBRANCH   2   4
BRANCH   1  10
ATOM     10  C   UNL     1     157.350 162.990 196.277  1.00  0.00     0.111 C 
BRANCH  10  11
ATOM     11  C   UNL     1     157.315 161.923 197.343  1.00  0.00     0.163 C 
ATOM     12  O   UNL     1     156.433 161.027 197.244  1.00  0.00    -0.294 OA
BRANCH  11  13
ATOM     13  C   UNL     1     158.314 161.862 198.461  1.00  0.00    -0.002 C 
ATOM     14  C   UNL     1     159.391 161.019 198.391  1.00  0.00    -0.069 C 
ATOM     15  C   UNL     1     160.357 160.865 199.544  1.00  0.00     0.039 C 
ATOM     16  C   UNL     1     159.705 160.230 197.138  1.00  0.00     0.039 C 
BRANCH  13  17
ATOM     17  C   UNL     1     158.076 162.714 199.705  1.00  0.00     0.066 CG0
ATOM     18  G   UNL     1     158.750 164.063 199.609  1.00  0.00     0.000 G0
ENDBRANCH  13  17
ENDBRANCH  11  13
ENDBRANCH  10  11
ENDBRANCH   1  10
TORSDOF 0
ENDMDL
MODEL 5
REMARK VINA RESULT:    -2.938      1.726      2.332
REMARK INTER + INTRA:          -3.968
REMARK INTER:                  -4.128
REMARK INTRA:                   0.159
REMARK UNBOUND:                 0.172
REMARK SMILES CC1=CCC(=C(C)C)C(=O)CC(C)=CCC1
REMARK SMILES IDX 12 1 14 2 13 3 15 4 16 5 2 6 1 7 3 8 11 10 9 11 10 12 5 13
REMARK SMILES IDX 6 14 7 15 8 16 4 17
REMARK H PARENT
REMARK Flexibility Score: 60.00
ROOT
ATOM      1  C   UNL     1     149.354 159.758 199.463  1.00  0.00    -0.070 C 
ATOM      2  C   UNL     1     149.169 159.813 198.117  1.00  0.00    -0.027 C 
ATOM      3  C   UNL     1     148.342 160.428 200.359  1.00  0.00     0.039 C 
ENDROOT
BRANCH   2   4
ATOM      4  C   UNL     1     150.120 159.286 197.070  1.00  0.00     0.032 C 
BRANCH   4   5
ATOM      5  C   UNL     1     151.422 160.092 196.971  1.00  0.00     0.034 C 
BRANCH   5   6
ATOM      6  C   UNL     1     152.617 159.159 196.963  1.00  0.00    -0.077 C 
ATOM      7  C   UNL     1     152.756 158.187 195.820  1.00  0.00     0.039 C 
ATOM      8  C   UNL     1     153.609 159.207 197.884  1.00  0.00    -0.023 CG0
ATOM      9  G   UNL     1     153.639 160.101 199.101  1.00  0.00     0.000 G0
ENDBRANCH   5   6
ENDBRANCH   4   5
ENDBRANCH   2   4
BRANCH   1  10
ATOM     10  C   UNL     1     150.441 158.939 200.147  1.00  0.00     0.111 C 
BRANCH  10  11
ATOM     11  C   UNL     1     151.596 159.762 200.660  1.00  0.00     0.163 C 
ATOM     12  O   UNL     1     151.331 160.723 201.434  1.00  0.00    -0.294 OA
BRANCH  11  13
ATOM     13  C   UNL     1     153.026 159.445 200.333  1.00  0.00    -0.002 C 
ATOM     14  C   UNL     1     153.764 158.626 201.145  1.00  0.00    -0.069 C 
ATOM     15  C   UNL     1     155.233 158.370 200.893  1.00  0.00     0.039 C 
ATOM     16  C   UNL     1     153.141 157.892 202.312  1.00  0.00     0.039 C 
BRANCH  13  17
ATOM     17  C   UNL     1     153.661 160.100 199.108  1.00  0.00     0.066 CG0
ATOM     18  G   UNL     1     153.585 159.215 197.886  1.00  0.00     0.000 G0
ENDBRANCH  13  17
ENDBRANCH  11  13
ENDBRANCH  10  11
ENDBRANCH   1  10
TORSDOF 0
ENDMDL
MODEL 6
REMARK VINA RESULT:    -2.931      1.920      3.897
REMARK INTER + INTRA:          -3.959
REMARK INTER:                  -4.174
REMARK INTRA:                   0.215
REMARK UNBOUND:                 0.172
REMARK SMILES CC1=CCC(=C(C)C)C(=O)CC(C)=CCC1
REMARK SMILES IDX 12 1 14 2 13 3 15 4 16 5 2 6 1 7 3 8 11 10 9 11 10 12 5 13
REMARK SMILES IDX 6 14 7 15 8 16 4 17
REMARK H PARENT
REMARK Flexibility Score: 60.00
ROOT
ATOM      1  C   UNL     1     149.792 159.729 200.347  1.00  0.00    -0.070 C 
ATOM      2  C   UNL     1     150.583 160.283 201.304  1.00  0.00    -0.027 C 
ATOM      3  C   UNL     1     148.418 160.308 200.122  1.00  0.00     0.039 C 
ENDROOT
BRANCH   2   4
ATOM      4  C   UNL     1     151.941 159.780 201.731  1.00  0.00     0.032 C 
BRANCH   4   5
ATOM      5  C   UNL     1     153.059 160.139 200.744  1.00  0.00     0.034 C 
BRANCH   5   6
ATOM      6  C   UNL     1     153.877 158.907 200.408  1.00  0.00    -0.077 C 
ATOM      7  C   UNL     1     154.501 158.133 201.540  1.00  0.00     0.039 C 
ATOM      8  C   UNL     1     154.010 158.418 199.151  1.00  0.00    -0.023 CG0
ATOM      9  G   UNL     1     153.470 159.060 197.894  1.00  0.00     0.000 G0
ENDBRANCH   5   6
ENDBRANCH   4   5
ENDBRANCH   2   4
BRANCH   1  10
ATOM     10  C   UNL     1     150.249 158.647 199.377  1.00  0.00     0.111 C 
BRANCH  10  11
ATOM     11  C   UNL     1     150.903 159.182 198.128  1.00  0.00     0.163 C 
ATOM     12  O   UNL     1     150.434 160.242 197.630  1.00  0.00    -0.294 OA
BRANCH  11  13
ATOM     13  C   UNL     1     152.107 158.538 197.504  1.00  0.00    -0.002 C 
ATOM     14  C   UNL     1     151.969 157.474 196.652  1.00  0.00    -0.069 C 
ATOM     15  C   UNL     1     153.168 156.746 196.088  1.00  0.00     0.039 C 
ATOM     16  C   UNL     1     150.609 156.999 196.187  1.00  0.00     0.039 C 
BRANCH  13  17
ATOM     17  C   UNL     1     153.493 159.053 197.883  1.00  0.00     0.066 CG0
ATOM     18  G   UNL     1     154.000 158.436 199.165  1.00  0.00     0.000 G0
ENDBRANCH  13  17
ENDBRANCH  11  13
ENDBRANCH  10  11
ENDBRANCH   1  10
TORSDOF 0
ENDMDL
MODEL 7
REMARK VINA RESULT:    -2.872      7.927      9.247
REMARK INTER + INTRA:          -3.875
REMARK INTER:                  -4.560
REMARK INTRA:                   0.685
REMARK UNBOUND:                 0.172
REMARK SMILES CC1=CCC(=C(C)C)C(=O)CC(C)=CCC1
REMARK SMILES IDX 12 1 14 2 13 3 15 4 16 5 2 6 1 7 3 8 11 10 9 11 10 12 5 13
REMARK SMILES IDX 6 14 7 15 8 16 4 17
REMARK H PARENT
REMARK Flexibility Score: 60.00
ROOT
ATOM      1  C   UNL     1     156.147 164.068 197.087  1.00  0.00    -0.070 C 
ATOM      2  C   UNL     1     156.502 165.136 197.850  1.00  0.00    -0.027 C 
ATOM      3  C   UNL     1     155.559 164.321 195.721  1.00  0.00     0.039 C 
ENDROOT
BRANCH   2   4
ATOM      4  C   UNL     1     157.014 165.078 199.269  1.00  0.00     0.032 C 
BRANCH   4   5
ATOM      5  C   UNL     1     158.535 165.252 199.374  1.00  0.00     0.034 C 
BRANCH   5   6
ATOM      6  C   UNL     1     159.090 165.802 198.074  1.00  0.00    -0.077 C 
ATOM      7  C   UNL     1     158.875 167.261 197.766  1.00  0.00     0.039 C 
ATOM      8  C   UNL     1     159.839 165.071 197.213  1.00  0.00    -0.023 CG0
ATOM      9  G   UNL     1     160.148 163.599 197.345  1.00  0.00     0.000 G0
ENDBRANCH   5   6
ENDBRANCH   4   5
ENDBRANCH   2   4
BRANCH   1  10
ATOM     10  C   UNL     1     156.433 162.617 197.454  1.00  0.00     0.111 C 
BRANCH  10  11
ATOM     11  C   UNL     1     157.887 162.333 197.738  1.00  0.00     0.163 C 
ATOM     12  O   UNL     1     158.163 161.696 198.792  1.00  0.00    -0.294 OA
BRANCH  11  13
ATOM     13  C   UNL     1     158.988 162.724 196.797  1.00  0.00    -0.002 C 
ATOM     14  C   UNL     1     158.995 162.275 195.503  1.00  0.00    -0.069 C 
ATOM     15  C   UNL     1     160.142 162.573 194.564  1.00  0.00     0.039 C 
ATOM     16  C   UNL     1     157.833 161.497 194.925  1.00  0.00     0.039 C 
BRANCH  13  17
ATOM     17  C   UNL     1     160.133 163.586 197.325  1.00  0.00     0.066 CG0
ATOM     18  G   UNL     1     159.825 165.061 197.233  1.00  0.00     0.000 G0
ENDBRANCH  13  17
ENDBRANCH  11  13
ENDBRANCH  10  11
ENDBRANCH   1  10
TORSDOF 0
ENDMDL
MODEL 8
REMARK VINA RESULT:    -2.858      7.873      9.714
REMARK INTER + INTRA:          -3.855
REMARK INTER:                  -4.027
REMARK INTRA:                   0.172
REMARK UNBOUND:                 0.172
REMARK SMILES CC1=CCC(=C(C)C)C(=O)CC(C)=CCC1
REMARK SMILES IDX 12 1 14 2 13 3 15 4 16 5 2 6 1 7 3 8 11 10 9 11 10 12 5 13
REMARK SMILES IDX 6 14 7 15 8 16 4 17
REMARK H PARENT
REMARK Flexibility Score: 60.00
ROOT
ATOM      1  C   UNL     1     158.511 162.207 199.135  1.00  0.00    -0.070 C 
ATOM      2  C   UNL     1     159.410 161.270 198.732  1.00  0.00    -0.027 C 
ATOM      3  C   UNL     1     157.106 161.766 199.461  1.00  0.00     0.039 C 
ENDROOT
BRANCH   2   4
ATOM      4  C   UNL     1     160.824 161.538 198.276  1.00  0.00     0.032 C 
BRANCH   4   5
ATOM      5  C   UNL     1     160.985 161.515 196.750  1.00  0.00     0.034 C 
BRANCH   5   6
ATOM      6  C   UNL     1     161.180 162.923 196.222  1.00  0.00    -0.077 C 
ATOM      7  C   UNL     1     162.588 163.432 196.050  1.00  0.00     0.039 C 
ATOM      8  C   UNL     1     160.160 163.720 195.822  1.00  0.00    -0.023 CG0
ATOM      9  G   UNL     1     158.690 163.390 195.930  1.00  0.00     0.000 G0
ENDBRANCH   5   6
ENDBRANCH   4   5
ENDBRANCH   2   4
BRANCH   1  10
ATOM     10  C   UNL     1     158.858 163.662 199.422  1.00  0.00     0.111 C 
BRANCH  10  11
ATOM     11  C   UNL     1     158.723 164.571 198.226  1.00  0.00     0.163 C 
ATOM     12  O   UNL     1     159.324 165.680 198.264  1.00  0.00    -0.294 OA
BRANCH  11  13
ATOM     13  C   UNL     1     157.962 164.180 196.993  1.00  0.00    -0.002 C 
ATOM     14  C   UNL     1     156.631 164.479 196.869  1.00  0.00    -0.069 C 
ATOM     15  C   UNL     1     155.819 164.011 195.682  1.00  0.00     0.039 C 
ATOM     16  C   UNL     1     155.909 165.336 197.887  1.00  0.00     0.039 C 
BRANCH  13  17
ATOM     17  C   UNL     1     158.685 163.392 195.904  1.00  0.00     0.066 CG0
ATOM     18  G   UNL     1     160.157 163.724 195.842  1.00  0.00     0.000 G0
ENDBRANCH  13  17
ENDBRANCH  11  13
ENDBRANCH  10  11
ENDBRANCH   1  10
TORSDOF 0
ENDMDL
MODEL 9
REMARK VINA RESULT:    -2.785      7.106      8.991
REMARK INTER + INTRA:          -3.753
REMARK INTER:                  -4.100
REMARK INTRA:                   0.347
REMARK UNBOUND:                 0.172
REMARK SMILES CC1=CCC(=C(C)C)C(=O)CC(C)=CCC1
REMARK SMILES IDX 12 1 14 2 13 3 15 4 16 5 2 6 1 7 3 8 11 10 9 11 10 12 5 13
REMARK SMILES IDX 6 14 7 15 8 16 4 17
REMARK H PARENT
REMARK Flexibility Score: 60.00
ROOT
ATOM      1  C   UNL     1     159.746 162.167 197.160  1.00  0.00    -0.070 C 
ATOM      2  C   UNL     1     160.291 163.321 196.689  1.00  0.00    -0.027 C 
ATOM      3  C   UNL     1     159.645 160.985 196.229  1.00  0.00     0.039 C 
ENDROOT
BRANCH   2   4
ATOM      4  C   UNL     1     160.387 164.626 197.442  1.00  0.00     0.032 C 
BRANCH   4   5
ATOM      5  C   UNL     1     159.245 165.599 197.119  1.00  0.00     0.034 C 
BRANCH   5   6
ATOM      6  C   UNL     1     158.298 165.706 198.298  1.00  0.00    -0.077 C 
ATOM      7  C   UNL     1     158.630 166.686 199.394  1.00  0.00     0.039 C 
ATOM      8  C   UNL     1     157.128 165.028 198.381  1.00  0.00    -0.023 CG0
ATOM      9  G   UNL     1     156.634 163.998 197.392  1.00  0.00     0.000 G0
ENDBRANCH   5   6
ENDBRANCH   4   5
ENDBRANCH   2   4
BRANCH   1  10
ATOM     10  C   UNL     1     159.358 161.932 198.614  1.00  0.00     0.111 C 
BRANCH  10  11
ATOM     11  C   UNL     1     157.946 162.348 198.945  1.00  0.00     0.163 C 
ATOM     12  O   UNL     1     157.671 162.569 200.156  1.00  0.00    -0.294 OA
BRANCH  11  13
ATOM     13  C   UNL     1     156.896 162.559 197.894  1.00  0.00    -0.002 C 
ATOM     14  C   UNL     1     156.226 161.495 197.350  1.00  0.00    -0.069 C 
ATOM     15  C   UNL     1     155.235 161.672 196.222  1.00  0.00     0.039 C 
ATOM     16  C   UNL     1     156.402 160.089 197.881  1.00  0.00     0.039 C 
BRANCH  13  17
ATOM     17  C   UNL     1     156.629 163.979 197.399  1.00  0.00     0.066 CG0
ATOM     18  G   UNL     1     157.119 165.023 198.373  1.00  0.00     0.000 G0
ENDBRANCH  13  17
ENDBRANCH  11  13
ENDBRANCH  10  11
ENDBRANCH   1  10
TORSDOF 0
ENDMDL
