MODEL 1
REMARK VINA RESULT:    -4.865      0.000      0.000
REMARK INTER + INTRA:          -5.173
REMARK INTER:                  -5.149
REMARK INTRA:                  -0.024
REMARK UNBOUND:                -0.024
REMARK SMILES O=C([O-])c1cccnc1
REMARK SMILES IDX 4 1 5 2 9 3 6 4 8 5 7 6 2 7 1 8 3 9
REMARK H PARENT
REMARK Flexibility Score: inf
ROOT
ATOM      1  C   UNL     1      76.644  20.468  31.261  1.00  0.00     0.016 A 
ATOM      2  C   UNL     1      77.118  21.067  32.440  1.00  0.00     0.013 A 
ATOM      3  C   UNL     1      75.623  19.508  31.361  1.00  0.00     0.120 A 
ATOM      4  C   UNL     1      76.577  20.705  33.676  1.00  0.00     0.021 A 
ATOM      5  N   UNL     1      75.114  19.174  32.578  1.00  0.00    -0.264 NA
ATOM      6  C   UNL     1      75.566  19.746  33.725  1.00  0.00     0.111 A 
ENDROOT
BRANCH   1   7
ATOM      7  C   UNL     1      77.203  20.838  29.943  1.00  0.00     0.073 C 
ATOM      8  O   UNL     1      78.125  21.692  29.854  1.00  0.00    -0.545 OA
ATOM      9  O   UNL     1      76.719  20.246  28.781  1.00  0.00    -0.545 OA
ENDBRANCH   1   7
TORSDOF 1
ENDMDL
MODEL 2
REMARK VINA RESULT:    -4.655     11.612     12.312
REMARK INTER + INTRA:          -4.951
REMARK INTER:                  -4.932
REMARK INTRA:                  -0.018
REMARK UNBOUND:                -0.024
REMARK SMILES O=C([O-])c1cccnc1
REMARK SMILES IDX 4 1 5 2 9 3 6 4 8 5 7 6 2 7 1 8 3 9
REMARK H PARENT
REMARK Flexibility Score: inf
ROOT
ATOM      1  C   UNL     1      70.743   9.971  32.859  1.00  0.00     0.016 A 
ATOM      2  C   UNL     1      70.580  11.077  32.009  1.00  0.00     0.013 A 
ATOM      3  C   UNL     1      69.594   9.349  33.376  1.00  0.00     0.120 A 
ATOM      4  C   UNL     1      69.299  11.538  31.697  1.00  0.00     0.021 A 
ATOM      5  N   UNL     1      68.358   9.818  33.056  1.00  0.00    -0.264 NA
ATOM      6  C   UNL     1      68.188  10.889  32.236  1.00  0.00     0.111 A 
ENDROOT
BRANCH   1   7
ATOM      7  C   UNL     1      72.091   9.467  33.201  1.00  0.00     0.073 C 
ATOM      8  O   UNL     1      72.429   9.310  34.404  1.00  0.00    -0.545 OA
ATOM      9  O   UNL     1      73.003   9.159  32.198  1.00  0.00    -0.545 OA
ENDBRANCH   1   7
TORSDOF 1
ENDMDL
MODEL 3
REMARK VINA RESULT:    -4.581     11.419     12.365
REMARK INTER + INTRA:          -4.873
REMARK INTER:                  -4.855
REMARK INTRA:                  -0.018
REMARK UNBOUND:                -0.024
REMARK SMILES O=C([O-])c1cccnc1
REMARK SMILES IDX 4 1 5 2 9 3 6 4 8 5 7 6 2 7 1 8 3 9
REMARK H PARENT
REMARK Flexibility Score: inf
ROOT
ATOM      1  C   UNL     1      70.783   9.933  32.895  1.00  0.00     0.016 A 
ATOM      2  C   UNL     1      69.629   9.302  33.390  1.00  0.00     0.013 A 
ATOM      3  C   UNL     1      70.627  11.058  32.069  1.00  0.00     0.120 A 
ATOM      4  C   UNL     1      68.365   9.793  33.058  1.00  0.00     0.021 A 
ATOM      5  N   UNL     1      69.384  11.517  31.761  1.00  0.00    -0.264 NA
ATOM      6  C   UNL     1      68.261  10.913  32.233  1.00  0.00     0.111 A 
ENDROOT
BRANCH   1   7
ATOM      7  C   UNL     1      72.130   9.428  33.236  1.00  0.00     0.073 C 
ATOM      8  O   UNL     1      72.476   9.285  34.439  1.00  0.00    -0.545 OA
ATOM      9  O   UNL     1      73.036   9.104  32.231  1.00  0.00    -0.545 OA
ENDBRANCH   1   7
TORSDOF 1
ENDMDL
MODEL 4
REMARK VINA RESULT:    -4.261     12.659     13.544
REMARK INTER + INTRA:          -4.534
REMARK INTER:                  -4.518
REMARK INTRA:                  -0.016
REMARK UNBOUND:                -0.024
REMARK SMILES O=C([O-])c1cccnc1
REMARK SMILES IDX 4 1 5 2 9 3 6 4 8 5 7 6 2 7 1 8 3 9
REMARK H PARENT
REMARK Flexibility Score: inf
ROOT
ATOM      1  C   UNL     1      70.611   8.757  33.320  1.00  0.00     0.016 A 
ATOM      2  C   UNL     1      69.575   9.706  33.339  1.00  0.00     0.013 A 
ATOM      3  C   UNL     1      70.270   7.396  33.263  1.00  0.00     0.120 A 
ATOM      4  C   UNL     1      68.243   9.289  33.304  1.00  0.00     0.021 A 
ATOM      5  N   UNL     1      68.964   7.016  33.230  1.00  0.00    -0.264 NA
ATOM      6  C   UNL     1      67.954   7.926  33.249  1.00  0.00     0.111 A 
ENDROOT
BRANCH   1   7
ATOM      7  C   UNL     1      72.028   9.178  33.356  1.00  0.00     0.073 C 
ATOM      8  O   UNL     1      72.585   9.460  34.450  1.00  0.00    -0.545 OA
ATOM      9  O   UNL     1      72.767   9.267  32.182  1.00  0.00    -0.545 OA
ENDBRANCH   1   7
TORSDOF 1
ENDMDL
MODEL 5
REMARK VINA RESULT:    -4.198     13.636     14.663
REMARK INTER + INTRA:          -4.467
REMARK INTER:                  -4.445
REMARK INTRA:                  -0.022
REMARK UNBOUND:                -0.024
REMARK SMILES O=C([O-])c1cccnc1
REMARK SMILES IDX 4 1 5 2 9 3 6 4 8 5 7 6 2 7 1 8 3 9
REMARK H PARENT
REMARK Flexibility Score: inf
ROOT
ATOM      1  C   UNL     1      69.120   8.021  33.432  1.00  0.00     0.016 A 
ATOM      2  C   UNL     1      68.182   9.058  33.291  1.00  0.00     0.013 A 
ATOM      3  C   UNL     1      70.486   8.339  33.345  1.00  0.00     0.120 A 
ATOM      4  C   UNL     1      68.613  10.368  33.069  1.00  0.00     0.021 A 
ATOM      5  N   UNL     1      70.879   9.623  33.128  1.00  0.00    -0.264 NA
ATOM      6  C   UNL     1      69.980  10.634  32.990  1.00  0.00     0.111 A 
ENDROOT
BRANCH   1   7
ATOM      7  C   UNL     1      68.683   6.628  33.667  1.00  0.00     0.073 C 
ATOM      8  O   UNL     1      67.568   6.226  33.242  1.00  0.00    -0.545 OA
ATOM      9  O   UNL     1      69.500   5.743  34.362  1.00  0.00    -0.545 OA
ENDBRANCH   1   7
TORSDOF 1
ENDMDL
MODEL 6
REMARK VINA RESULT:    -4.169     12.903     13.874
REMARK INTER + INTRA:          -4.436
REMARK INTER:                  -4.413
REMARK INTRA:                  -0.024
REMARK UNBOUND:                -0.024
REMARK SMILES O=C([O-])c1cccnc1
REMARK SMILES IDX 4 1 5 2 9 3 6 4 8 5 7 6 2 7 1 8 3 9
REMARK H PARENT
REMARK Flexibility Score: inf
ROOT
ATOM      1  C   UNL     1      69.348   9.178  33.126  1.00  0.00     0.016 A 
ATOM      2  C   UNL     1      68.096   8.548  33.212  1.00  0.00     0.013 A 
ATOM      3  C   UNL     1      70.499   8.416  33.387  1.00  0.00     0.120 A 
ATOM      4  C   UNL     1      68.013   7.196  33.552  1.00  0.00     0.021 A 
ATOM      5  N   UNL     1      70.391   7.100  33.716  1.00  0.00    -0.264 NA
ATOM      6  C   UNL     1      69.184   6.481  33.803  1.00  0.00     0.111 A 
ENDROOT
BRANCH   1   7
ATOM      7  C   UNL     1      69.457  10.608  32.767  1.00  0.00     0.073 C 
ATOM      8  O   UNL     1      68.438  11.350  32.774  1.00  0.00    -0.545 OA
ATOM      9  O   UNL     1      70.686  11.155  32.417  1.00  0.00    -0.545 OA
ENDBRANCH   1   7
TORSDOF 1
ENDMDL
MODEL 7
REMARK VINA RESULT:    -4.062      2.666      3.550
REMARK INTER + INTRA:          -4.324
REMARK INTER:                  -4.300
REMARK INTRA:                  -0.024
REMARK UNBOUND:                -0.024
REMARK SMILES O=C([O-])c1cccnc1
REMARK SMILES IDX 4 1 5 2 9 3 6 4 8 5 7 6 2 7 1 8 3 9
REMARK H PARENT
REMARK Flexibility Score: inf
ROOT
ATOM      1  C   UNL     1      76.608  20.497  31.968  1.00  0.00     0.016 A 
ATOM      2  C   UNL     1      77.804  21.125  31.583  1.00  0.00     0.013 A 
ATOM      3  C   UNL     1      75.757  20.006  30.964  1.00  0.00     0.120 A 
ATOM      4  C   UNL     1      78.125  21.252  30.231  1.00  0.00     0.021 A 
ATOM      5  N   UNL     1      76.094  20.143  29.653  1.00  0.00    -0.264 NA
ATOM      6  C   UNL     1      77.248  20.750  29.269  1.00  0.00     0.111 A 
ENDROOT
BRANCH   1   7
ATOM      7  C   UNL     1      76.250  20.352  33.396  1.00  0.00     0.073 C 
ATOM      8  O   UNL     1      76.958  20.885  34.291  1.00  0.00    -0.545 OA
ATOM      9  O   UNL     1      75.125  19.625  33.769  1.00  0.00    -0.545 OA
ENDBRANCH   1   7
TORSDOF 1
ENDMDL
MODEL 8
REMARK VINA RESULT:    -3.995     11.761     12.534
REMARK INTER + INTRA:          -4.253
REMARK INTER:                  -4.231
REMARK INTRA:                  -0.022
REMARK UNBOUND:                -0.024
REMARK SMILES O=C([O-])c1cccnc1
REMARK SMILES IDX 4 1 5 2 9 3 6 4 8 5 7 6 2 7 1 8 3 9
REMARK H PARENT
REMARK Flexibility Score: inf
ROOT
ATOM      1  C   UNL     1      70.472   9.895  32.687  1.00  0.00     0.016 A 
ATOM      2  C   UNL     1      71.724  10.090  32.079  1.00  0.00     0.013 A 
ATOM      3  C   UNL     1      70.279   8.739  33.463  1.00  0.00     0.120 A 
ATOM      4  C   UNL     1      72.741   9.148  32.250  1.00  0.00     0.021 A 
ATOM      5  N   UNL     1      71.287   7.838  33.614  1.00  0.00    -0.264 NA
ATOM      6  C   UNL     1      72.501   8.016  33.029  1.00  0.00     0.111 A 
ENDROOT
BRANCH   1   7
ATOM      7  C   UNL     1      69.383  10.880  32.519  1.00  0.00     0.073 C 
ATOM      8  O   UNL     1      68.488  11.001  33.397  1.00  0.00    -0.545 OA
ATOM      9  O   UNL     1      69.332  11.688  31.388  1.00  0.00    -0.545 OA
ENDBRANCH   1   7
TORSDOF 1
ENDMDL
MODEL 9
REMARK VINA RESULT:    -3.986     12.308     13.260
REMARK INTER + INTRA:          -4.243
REMARK INTER:                  -4.223
REMARK INTRA:                  -0.020
REMARK UNBOUND:                -0.024
REMARK SMILES O=C([O-])c1cccnc1
REMARK SMILES IDX 4 1 5 2 9 3 6 4 8 5 7 6 2 7 1 8 3 9
REMARK H PARENT
REMARK Flexibility Score: inf
ROOT
ATOM      1  C   UNL     1      70.483   9.247  33.300  1.00  0.00     0.016 A 
ATOM      2  C   UNL     1      69.696   8.084  33.334  1.00  0.00     0.013 A 
ATOM      3  C   UNL     1      71.853   9.136  33.593  1.00  0.00     0.120 A 
ATOM      4  C   UNL     1      70.275   6.854  33.654  1.00  0.00     0.021 A 
ATOM      5  N   UNL     1      72.392   7.926  33.903  1.00  0.00    -0.264 NA
ATOM      6  C   UNL     1      71.639   6.794  33.939  1.00  0.00     0.111 A 
ENDROOT
BRANCH   1   7
ATOM      7  C   UNL     1      69.889  10.558  32.962  1.00  0.00     0.073 C 
ATOM      8  O   UNL     1      70.501  11.365  32.213  1.00  0.00    -0.545 OA
ATOM      9  O   UNL     1      68.645  10.919  33.467  1.00  0.00    -0.545 OA
ENDBRANCH   1   7
TORSDOF 1
ENDMDL
