MODEL 1
REMARK VINA RESULT:    -7.572      0.000      0.000
REMARK INTER + INTRA:          -8.182
REMARK INTER:                  -8.236
REMARK INTRA:                   0.053
REMARK UNBOUND:                 0.053
REMARK SMILES CC1(C)CC[C@@]2(C(=O)[O-])CC[C@@]3(C)C(=CC[C@@H]4[C@]5(C)CC[C@H](O)C(C)(C)[C@@H]5CC[C@@]43C)[C@@H]2C1
REMARK SMILES IDX 6 1 5 2 10 3 32 4 4 5 11 6 14 7 33 8 2 9 12 10 15 11 1 12
REMARK SMILES IDX 3 13 13 14 30 15 16 16 17 17 29 18 31 19 18 20 28 21 27 22
REMARK SMILES IDX 20 23 19 24 24 25 21 26 22 27 25 28 26 29 7 30 8 31 9 32
REMARK SMILES IDX 23 33
REMARK H PARENT 23 34
REMARK Flexibility Score: inf
ROOT
ATOM      1  C   UNL     1     108.786 100.704  97.178  1.00  0.00     0.017 C 
ATOM      2  C   UNL     1     110.282 101.120  97.390  1.00  0.00     0.014 C 
ATOM      3  C   UNL     1     108.609  99.949  95.820  1.00  0.00     0.014 C 
ATOM      4  C   UNL     1     108.334  99.699  98.282  1.00  0.00     0.028 C 
ATOM      5  C   UNL     1     111.039 100.246  98.407  1.00  0.00     0.007 C 
ATOM      6  C   UNL     1     107.167  99.394  95.600  1.00  0.00     0.013 C 
ATOM      7  C   UNL     1     106.871  99.335  98.063  1.00  0.00    -0.064 C 
ATOM      8  C   UNL     1     108.780 100.116  99.699  1.00  0.00     0.015 C 
ATOM      9  C   UNL     1     110.345 100.182  99.810  1.00  0.00    -0.035 C 
ATOM     10  C   UNL     1     106.571  98.531  96.786  1.00  0.00    -0.006 C 
ATOM     11  C   UNL     1     105.919 100.028  98.708  1.00  0.00    -0.027 C 
ATOM     12  C   UNL     1     110.750 101.418 100.643  1.00  0.00     0.011 C 
ATOM     13  C   UNL     1     110.860  98.925 100.544  1.00  0.00     0.011 C 
ATOM     14  C   UNL     1     107.357  97.173  96.849  1.00  0.00     0.017 C 
ATOM     15  C   UNL     1     104.990  98.224  96.587  1.00  0.00    -0.020 C 
ATOM     16  C   UNL     1     104.465  99.941  98.407  1.00  0.00     0.032 C 
ATOM     17  C   UNL     1     104.108  99.471  96.966  1.00  0.00     0.006 C 
ATOM     18  C   UNL     1     104.529  97.043  97.513  1.00  0.00     0.008 C 
ATOM     19  C   UNL     1     104.774  97.825  95.086  1.00  0.00     0.012 C 
ATOM     20  C   UNL     1     102.513  99.260  96.735  1.00  0.00    -0.025 C 
ATOM     21  C   UNL     1     103.036  97.015  97.938  1.00  0.00     0.005 C 
ATOM     22  C   UNL     1     102.066  97.738  96.967  1.00  0.00     0.003 C 
ATOM     23  C   UNL     1     101.701 100.232  97.669  1.00  0.00     0.010 C 
ATOM     24  C   UNL     1     102.189  99.684  95.262  1.00  0.00     0.012 C 
ATOM     25  C   UNL     1     100.514  97.483  97.275  1.00  0.00    -0.006 C 
ATOM     26  C   UNL     1     100.195  99.976  97.724  1.00  0.00     0.033 C 
ATOM     27  C   UNL     1      99.910  98.561  98.222  1.00  0.00     0.120 C 
ATOM     28  C   UNL     1     100.254  96.087  97.915  1.00  0.00     0.014 C 
ATOM     29  C   UNL     1      99.699  97.459  95.947  1.00  0.00     0.014 C 
ENDROOT
BRANCH   1  30
ATOM     30  C   UNL     1     107.950 101.990  97.159  1.00  0.00     0.048 C 
ATOM     31  O   UNL     1     107.266 102.303  96.148  1.00  0.00    -0.550 OA
ATOM     32  O   UNL     1     108.031 102.906  98.200  1.00  0.00    -0.550 OA
ENDBRANCH   1  30
BRANCH  27  33
ATOM     33  O   UNL     1     100.417  98.422  99.530  1.00  0.00    -0.393 OA
ATOM     34  H   UNL     1      99.645  98.413 100.155  1.00  0.00     0.210 HD
ENDBRANCH  27  33
TORSDOF 2
ENDMDL
MODEL 2
REMARK VINA RESULT:    -6.992      2.599      8.557
REMARK INTER + INTRA:          -7.552
REMARK INTER:                  -7.602
REMARK INTRA:                   0.050
REMARK UNBOUND:                 0.053
REMARK SMILES CC1(C)CC[C@@]2(C(=O)[O-])CC[C@@]3(C)C(=CC[C@@H]4[C@]5(C)CC[C@H](O)C(C)(C)[C@@H]5CC[C@@]43C)[C@@H]2C1
REMARK SMILES IDX 6 1 5 2 10 3 32 4 4 5 11 6 14 7 33 8 2 9 12 10 15 11 1 12
REMARK SMILES IDX 3 13 13 14 30 15 16 16 17 17 29 18 31 19 18 20 28 21 27 22
REMARK SMILES IDX 20 23 19 24 24 25 21 26 22 27 25 28 26 29 7 30 8 31 9 32
REMARK SMILES IDX 23 33
REMARK H PARENT 23 34
REMARK Flexibility Score: inf
ROOT
ATOM      1  C   UNL     1      98.528  98.930  98.871  1.00  0.00     0.017 C 
ATOM      2  C   UNL     1      97.052  98.622  99.299  1.00  0.00     0.014 C 
ATOM      3  C   UNL     1      99.330  99.552 100.060  1.00  0.00     0.014 C 
ATOM      4  C   UNL     1      99.277  97.613  98.498  1.00  0.00     0.028 C 
ATOM      5  C   UNL     1      96.770  97.130  99.552  1.00  0.00     0.007 C 
ATOM      6  C   UNL     1     100.844  99.769  99.744  1.00  0.00     0.013 C 
ATOM      7  C   UNL     1     100.698  97.949  98.063  1.00  0.00    -0.064 C 
ATOM      8  C   UNL     1      98.441  96.673  97.606  1.00  0.00     0.015 C 
ATOM      9  C   UNL     1      97.126  96.214  98.332  1.00  0.00    -0.035 C 
ATOM     10  C   UNL     1     101.613  98.514  99.163  1.00  0.00    -0.006 C 
ATOM     11  C   UNL     1     100.959  98.128  96.758  1.00  0.00    -0.027 C 
ATOM     12  C   UNL     1      95.956  96.216  97.325  1.00  0.00     0.011 C 
ATOM     13  C   UNL     1      97.305  94.770  98.849  1.00  0.00     0.011 C 
ATOM     14  C   UNL     1     101.745  97.446 100.307  1.00  0.00     0.017 C 
ATOM     15  C   UNL     1     103.094  98.899  98.619  1.00  0.00    -0.020 C 
ATOM     16  C   UNL     1     102.229  98.689  96.223  1.00  0.00     0.032 C 
ATOM     17  C   UNL     1     103.028  99.592  97.209  1.00  0.00     0.006 C 
ATOM     18  C   UNL     1     103.981  97.615  98.454  1.00  0.00     0.008 C 
ATOM     19  C   UNL     1     103.749  99.853  99.678  1.00  0.00     0.012 C 
ATOM     20  C   UNL     1     104.469 100.063  96.624  1.00  0.00    -0.025 C 
ATOM     21  C   UNL     1     105.125  97.673  97.407  1.00  0.00     0.005 C 
ATOM     22  C   UNL     1     105.658  99.096  97.096  1.00  0.00     0.003 C 
ATOM     23  C   UNL     1     104.410 100.154  95.054  1.00  0.00     0.010 C 
ATOM     24  C   UNL     1     104.737 101.517  97.144  1.00  0.00     0.012 C 
ATOM     25  C   UNL     1     106.998  99.122  96.219  1.00  0.00    -0.006 C 
ATOM     26  C   UNL     1     105.757 100.358  94.361  1.00  0.00     0.033 C 
ATOM     27  C   UNL     1     106.708  99.211  94.692  1.00  0.00     0.120 C 
ATOM     28  C   UNL     1     107.894  97.872  96.462  1.00  0.00     0.014 C 
ATOM     29  C   UNL     1     107.892 100.328  96.638  1.00  0.00     0.014 C 
ENDROOT
BRANCH   1  30
ATOM     30  C   UNL     1      98.470  99.935  97.713  1.00  0.00     0.048 C 
ATOM     31  O   UNL     1      98.935 101.099  97.843  1.00  0.00    -0.550 OA
ATOM     32  O   UNL     1      97.786  99.633  96.543  1.00  0.00    -0.550 OA
ENDBRANCH   1  30
BRANCH  27  33
ATOM     33  O   UNL     1     106.159  98.004  94.214  1.00  0.00    -0.393 OA
ATOM     34  H   UNL     1     105.321  97.831  94.717  1.00  0.00     0.210 HD
ENDBRANCH  27  33
TORSDOF 2
ENDMDL
MODEL 3
REMARK VINA RESULT:    -6.980      2.219      8.098
REMARK INTER + INTRA:          -7.539
REMARK INTER:                  -7.606
REMARK INTRA:                   0.067
REMARK UNBOUND:                 0.053
REMARK SMILES CC1(C)CC[C@@]2(C(=O)[O-])CC[C@@]3(C)C(=CC[C@@H]4[C@]5(C)CC[C@H](O)C(C)(C)[C@@H]5CC[C@@]43C)[C@@H]2C1
REMARK SMILES IDX 6 1 5 2 10 3 32 4 4 5 11 6 14 7 33 8 2 9 12 10 15 11 1 12
REMARK SMILES IDX 3 13 13 14 30 15 16 16 17 17 29 18 31 19 18 20 28 21 27 22
REMARK SMILES IDX 20 23 19 24 24 25 21 26 22 27 25 28 26 29 7 30 8 31 9 32
REMARK SMILES IDX 23 33
REMARK H PARENT 23 34
REMARK Flexibility Score: inf
ROOT
ATOM      1  C   UNL     1     103.267  99.220  98.094  1.00  0.00     0.017 C 
ATOM      2  C   UNL     1     101.831  98.644  98.342  1.00  0.00     0.014 C 
ATOM      3  C   UNL     1     104.272  98.072  97.751  1.00  0.00     0.014 C 
ATOM      4  C   UNL     1     103.270 100.169  96.855  1.00  0.00     0.028 C 
ATOM      5  C   UNL     1     100.850  98.877  97.178  1.00  0.00     0.007 C 
ATOM      6  C   UNL     1     105.696  98.586  97.367  1.00  0.00     0.013 C 
ATOM      7  C   UNL     1     104.672 100.732  96.656  1.00  0.00    -0.064 C 
ATOM      8  C   UNL     1     102.079 101.150  96.840  1.00  0.00     0.015 C 
ATOM      9  C   UNL     1     100.709 100.384  96.776  1.00  0.00    -0.035 C 
ATOM     10  C   UNL     1     105.747  99.708  96.252  1.00  0.00    -0.006 C 
ATOM     11  C   UNL     1     104.987 101.916  97.204  1.00  0.00    -0.027 C 
ATOM     12  C   UNL     1      99.691 101.075  97.710  1.00  0.00     0.011 C 
ATOM     13  C   UNL     1     100.153 100.449  95.337  1.00  0.00     0.011 C 
ATOM     14  C   UNL     1     105.336  99.058  94.883  1.00  0.00     0.017 C 
ATOM     15  C   UNL     1     107.225 100.364  96.110  1.00  0.00    -0.020 C 
ATOM     16  C   UNL     1     106.369 102.461  97.293  1.00  0.00     0.032 C 
ATOM     17  C   UNL     1     107.509 101.401  97.258  1.00  0.00     0.006 C 
ATOM     18  C   UNL     1     107.364 101.138  94.751  1.00  0.00     0.008 C 
ATOM     19  C   UNL     1     108.266  99.190  96.150  1.00  0.00     0.012 C 
ATOM     20  C   UNL     1     108.995 102.057  97.217  1.00  0.00    -0.025 C 
ATOM     21  C   UNL     1     108.388 102.304  94.701  1.00  0.00     0.005 C 
ATOM     22  C   UNL     1     109.553 102.197  95.720  1.00  0.00     0.003 C 
ATOM     23  C   UNL     1     108.987 103.453  97.945  1.00  0.00     0.010 C 
ATOM     24  C   UNL     1     109.944 101.127  98.047  1.00  0.00     0.012 C 
ATOM     25  C   UNL     1     110.732 103.256  95.487  1.00  0.00    -0.006 C 
ATOM     26  C   UNL     1     110.261 104.282  97.777  1.00  0.00     0.033 C 
ATOM     27  C   UNL     1     110.523 104.567  96.301  1.00  0.00     0.120 C 
ATOM     28  C   UNL     1     110.896 103.647  93.989  1.00  0.00     0.014 C 
ATOM     29  C   UNL     1     112.104 102.628  95.878  1.00  0.00     0.014 C 
ENDROOT
BRANCH   1  30
ATOM     30  C   UNL     1     103.712  99.919  99.385  1.00  0.00     0.048 C 
ATOM     31  O   UNL     1     104.769  99.573  99.977  1.00  0.00    -0.550 OA
ATOM     32  O   UNL     1     102.893 100.855 100.005  1.00  0.00    -0.550 OA
ENDBRANCH   1  30
BRANCH  27  33
ATOM     33  O   UNL     1     109.451 105.318  95.778  1.00  0.00    -0.393 OA
ATOM     34  H   UNL     1     109.508 105.279  94.787  1.00  0.00     0.210 HD
ENDBRANCH  27  33
TORSDOF 2
ENDMDL
MODEL 4
REMARK VINA RESULT:    -6.824      1.589      7.937
REMARK INTER + INTRA:          -7.369
REMARK INTER:                  -7.485
REMARK INTRA:                   0.117
REMARK UNBOUND:                 0.053
REMARK SMILES CC1(C)CC[C@@]2(C(=O)[O-])CC[C@@]3(C)C(=CC[C@@H]4[C@]5(C)CC[C@H](O)C(C)(C)[C@@H]5CC[C@@]43C)[C@@H]2C1
REMARK SMILES IDX 6 1 5 2 10 3 32 4 4 5 11 6 14 7 33 8 2 9 12 10 15 11 1 12
REMARK SMILES IDX 3 13 13 14 30 15 16 16 17 17 29 18 31 19 18 20 28 21 27 22
REMARK SMILES IDX 20 23 19 24 24 25 21 26 22 27 25 28 26 29 7 30 8 31 9 32
REMARK SMILES IDX 23 33
REMARK H PARENT 23 34
REMARK Flexibility Score: inf
ROOT
ATOM      1  C   UNL     1     102.201  98.217  98.135  1.00  0.00     0.017 C 
ATOM      2  C   UNL     1     100.745  97.659  98.279  1.00  0.00     0.014 C 
ATOM      3  C   UNL     1     103.196  97.074  97.745  1.00  0.00     0.014 C 
ATOM      4  C   UNL     1     102.278  99.257  96.974  1.00  0.00     0.028 C 
ATOM      5  C   UNL     1      99.819  98.004  97.097  1.00  0.00     0.007 C 
ATOM      6  C   UNL     1     104.645  97.580  97.461  1.00  0.00     0.013 C 
ATOM      7  C   UNL     1     103.699  99.799  96.877  1.00  0.00    -0.064 C 
ATOM      8  C   UNL     1     101.110 100.265  96.987  1.00  0.00     0.015 C 
ATOM      9  C   UNL     1      99.728  99.541  96.808  1.00  0.00    -0.035 C 
ATOM     10  C   UNL     1     104.768  98.783  96.439  1.00  0.00    -0.006 C 
ATOM     11  C   UNL     1     104.015 100.930  97.528  1.00  0.00    -0.027 C 
ATOM     12  C   UNL     1      98.686 100.183  97.750  1.00  0.00     0.011 C 
ATOM     13  C   UNL     1      99.236  99.730  95.357  1.00  0.00     0.011 C 
ATOM     14  C   UNL     1     104.402  98.251  95.008  1.00  0.00     0.017 C 
ATOM     15  C   UNL     1     106.264  99.411  96.409  1.00  0.00    -0.020 C 
ATOM     16  C   UNL     1     105.403 101.433  97.715  1.00  0.00     0.032 C 
ATOM     17  C   UNL     1     106.521 100.351  97.644  1.00  0.00     0.006 C 
ATOM     18  C   UNL     1     106.478 100.284  95.121  1.00  0.00     0.008 C 
ATOM     19  C   UNL     1     107.277  98.213  96.400  1.00  0.00     0.012 C 
ATOM     20  C   UNL     1     108.021 100.971  97.715  1.00  0.00    -0.025 C 
ATOM     21  C   UNL     1     107.528 101.425  95.204  1.00  0.00     0.005 C 
ATOM     22  C   UNL     1     108.645 101.212  96.258  1.00  0.00     0.003 C 
ATOM     23  C   UNL     1     108.013 102.307  98.549  1.00  0.00     0.010 C 
ATOM     24  C   UNL     1     108.914  99.957  98.508  1.00  0.00     0.012 C 
ATOM     25  C   UNL     1     109.856 102.256  96.157  1.00  0.00    -0.006 C 
ATOM     26  C   UNL     1     109.309 103.115  98.498  1.00  0.00     0.033 C 
ATOM     27  C   UNL     1     109.640 103.506  97.061  1.00  0.00     0.120 C 
ATOM     28  C   UNL     1     110.092 102.757  94.701  1.00  0.00     0.014 C 
ATOM     29  C   UNL     1     111.196 101.567  96.553  1.00  0.00     0.014 C 
ENDROOT
BRANCH   1  30
ATOM     30  C   UNL     1     102.606  98.803  99.493  1.00  0.00     0.048 C 
ATOM     31  O   UNL     1     103.701  98.492 100.032  1.00  0.00    -0.550 OA
ATOM     32  O   UNL     1     101.718  99.584 100.223  1.00  0.00    -0.550 OA
ENDBRANCH   1  30
BRANCH  27  33
ATOM     33  O   UNL     1     108.608 104.320  96.554  1.00  0.00    -0.393 OA
ATOM     34  H   UNL     1     108.833 105.264  96.767  1.00  0.00     0.210 HD
ENDBRANCH  27  33
TORSDOF 2
ENDMDL
MODEL 5
REMARK VINA RESULT:    -6.808      1.127      1.276
REMARK INTER + INTRA:          -7.352
REMARK INTER:                  -7.401
REMARK INTRA:                   0.050
REMARK UNBOUND:                 0.053
REMARK SMILES CC1(C)CC[C@@]2(C(=O)[O-])CC[C@@]3(C)C(=CC[C@@H]4[C@]5(C)CC[C@H](O)C(C)(C)[C@@H]5CC[C@@]43C)[C@@H]2C1
REMARK SMILES IDX 6 1 5 2 10 3 32 4 4 5 11 6 14 7 33 8 2 9 12 10 15 11 1 12
REMARK SMILES IDX 3 13 13 14 30 15 16 16 17 17 29 18 31 19 18 20 28 21 27 22
REMARK SMILES IDX 20 23 19 24 24 25 21 26 22 27 25 28 26 29 7 30 8 31 9 32
REMARK SMILES IDX 23 33
REMARK H PARENT 23 34
REMARK Flexibility Score: inf
ROOT
ATOM      1  C   UNL     1     108.228 101.359  97.717  1.00  0.00     0.017 C 
ATOM      2  C   UNL     1     109.732 101.629  98.061  1.00  0.00     0.014 C 
ATOM      3  C   UNL     1     108.017 101.298  96.169  1.00  0.00     0.014 C 
ATOM      4  C   UNL     1     107.783  99.965  98.259  1.00  0.00     0.028 C 
ATOM      5  C   UNL     1     110.496 100.388  98.558  1.00  0.00     0.007 C 
ATOM      6  C   UNL     1     106.564 100.907  95.753  1.00  0.00     0.013 C 
ATOM      7  C   UNL     1     106.312  99.744  97.931  1.00  0.00    -0.064 C 
ATOM      8  C   UNL     1     108.260  99.696  99.702  1.00  0.00     0.015 C 
ATOM      9  C   UNL     1     109.827  99.700  99.796  1.00  0.00    -0.035 C 
ATOM     10  C   UNL     1     105.979  99.604  96.436  1.00  0.00    -0.006 C 
ATOM     11  C   UNL     1     105.380 100.074  98.840  1.00  0.00    -0.027 C 
ATOM     12  C   UNL     1     110.262 100.425 101.088  1.00  0.00     0.011 C 
ATOM     13  C   UNL     1     110.339  98.245  99.873  1.00  0.00     0.011 C 
ATOM     14  C   UNL     1     106.748  98.361  95.862  1.00  0.00     0.017 C 
ATOM     15  C   UNL     1     104.390  99.425  96.154  1.00  0.00    -0.020 C 
ATOM     16  C   UNL     1     103.920 100.138  98.563  1.00  0.00     0.032 C 
ATOM     17  C   UNL     1     103.531 100.370  97.074  1.00  0.00     0.006 C 
ATOM     18  C   UNL     1     103.931  97.955  96.458  1.00  0.00     0.008 C 
ATOM     19  C   UNL     1     104.142  99.747  94.639  1.00  0.00     0.012 C 
ATOM     20  C   UNL     1     101.930 100.291  96.807  1.00  0.00    -0.025 C 
ATOM     21  C   UNL     1     102.445  97.743  96.857  1.00  0.00     0.005 C 
ATOM     22  C   UNL     1     101.467  98.829  96.338  1.00  0.00     0.003 C 
ATOM     23  C   UNL     1     101.147 100.740  98.097  1.00  0.00     0.010 C 
ATOM     24  C   UNL     1     101.585 101.335  95.691  1.00  0.00     0.012 C 
ATOM     25  C   UNL     1      99.918  98.469  96.531  1.00  0.00    -0.006 C 
ATOM     26  C   UNL     1      99.639 100.492  98.063  1.00  0.00     0.033 C 
ATOM     27  C   UNL     1      99.345  99.006  97.876  1.00  0.00     0.120 C 
ATOM     28  C   UNL     1      99.652  96.935  96.479  1.00  0.00     0.014 C 
ATOM     29  C   UNL     1      99.079  99.049  95.353  1.00  0.00     0.014 C 
ENDROOT
BRANCH   1  30
ATOM     30  C   UNL     1     107.408 102.517  98.298  1.00  0.00     0.048 C 
ATOM     31  O   UNL     1     106.746 103.282  97.547  1.00  0.00    -0.550 OA
ATOM     32  O   UNL     1     107.483 102.834  99.649  1.00  0.00    -0.550 OA
ENDBRANCH   1  30
BRANCH  27  33
ATOM     33  O   UNL     1      99.873  98.289  98.969  1.00  0.00    -0.393 OA
ATOM     34  H   UNL     1      99.333  98.517  99.771  1.00  0.00     0.210 HD
ENDBRANCH  27  33
TORSDOF 2
ENDMDL
MODEL 6
REMARK VINA RESULT:    -6.797      2.436      4.521
REMARK INTER + INTRA:          -7.340
REMARK INTER:                  -7.462
REMARK INTRA:                   0.122
REMARK UNBOUND:                 0.053
REMARK SMILES CC1(C)CC[C@@]2(C(=O)[O-])CC[C@@]3(C)C(=CC[C@@H]4[C@]5(C)CC[C@H](O)C(C)(C)[C@@H]5CC[C@@]43C)[C@@H]2C1
REMARK SMILES IDX 6 1 5 2 10 3 32 4 4 5 11 6 14 7 33 8 2 9 12 10 15 11 1 12
REMARK SMILES IDX 3 13 13 14 30 15 16 16 17 17 29 18 31 19 18 20 28 21 27 22
REMARK SMILES IDX 20 23 19 24 24 25 21 26 22 27 25 28 26 29 7 30 8 31 9 32
REMARK SMILES IDX 23 33
REMARK H PARENT 23 34
REMARK Flexibility Score: inf
ROOT
ATOM      1  C   UNL     1     105.509  98.559  96.673  1.00  0.00     0.017 C 
ATOM      2  C   UNL     1     107.004  99.023  96.616  1.00  0.00     0.014 C 
ATOM      3  C   UNL     1     105.392  97.154  97.352  1.00  0.00     0.014 C 
ATOM      4  C   UNL     1     104.667  99.528  97.560  1.00  0.00     0.028 C 
ATOM      5  C   UNL     1     107.368 100.102  97.653  1.00  0.00     0.007 C 
ATOM      6  C   UNL     1     103.918  96.684  97.558  1.00  0.00     0.013 C 
ATOM      7  C   UNL     1     103.216  99.064  97.575  1.00  0.00    -0.064 C 
ATOM      8  C   UNL     1     104.957 101.016  97.273  1.00  0.00     0.015 C 
ATOM      9  C   UNL     1     106.457 101.374  97.571  1.00  0.00    -0.035 C 
ATOM     10  C   UNL     1     102.957  97.718  98.273  1.00  0.00    -0.006 C 
ATOM     11  C   UNL     1     102.352  99.585  96.689  1.00  0.00    -0.027 C 
ATOM     12  C   UNL     1     106.987 102.320  96.471  1.00  0.00     0.011 C 
ATOM     13  C   UNL     1     106.547 102.119  98.921  1.00  0.00     0.011 C 
ATOM     14  C   UNL     1     103.395  97.837  99.777  1.00  0.00     0.017 C 
ATOM     15  C   UNL     1     101.401  97.258  98.206  1.00  0.00    -0.020 C 
ATOM     16  C   UNL     1     100.985  99.054  96.435  1.00  0.00     0.032 C 
ATOM     17  C   UNL     1     100.773  97.554  96.794  1.00  0.00     0.006 C 
ATOM     18  C   UNL     1     100.541  98.041  99.260  1.00  0.00     0.008 C 
ATOM     19  C   UNL     1     101.350  95.724  98.527  1.00  0.00     0.012 C 
ATOM     20  C   UNL     1      99.232  97.065  96.629  1.00  0.00    -0.025 C 
ATOM     21  C   UNL     1      99.031  98.224  98.948  1.00  0.00     0.005 C 
ATOM     22  C   UNL     1      98.421  97.150  98.010  1.00  0.00     0.003 C 
ATOM     23  C   UNL     1      98.518  97.907  95.506  1.00  0.00     0.010 C 
ATOM     24  C   UNL     1      99.259  95.582  96.125  1.00  0.00     0.012 C 
ATOM     25  C   UNL     1      96.823  97.196  97.904  1.00  0.00    -0.006 C 
ATOM     26  C   UNL     1      97.005  97.712  95.410  1.00  0.00     0.033 C 
ATOM     27  C   UNL     1      96.331  98.089  96.726  1.00  0.00     0.120 C 
ATOM     28  C   UNL     1      96.154  97.719  99.209  1.00  0.00     0.014 C 
ATOM     29  C   UNL     1      96.253  95.757  97.724  1.00  0.00     0.014 C 
ENDROOT
BRANCH   1  30
ATOM     30  C   UNL     1     104.999  98.471  95.230  1.00  0.00     0.048 C 
ATOM     31  O   UNL     1     104.887  97.359  94.649  1.00  0.00    -0.550 OA
ATOM     32  O   UNL     1     104.776  99.622  94.483  1.00  0.00    -0.550 OA
ENDBRANCH   1  30
BRANCH  27  33
ATOM     33  O   UNL     1      96.571  99.452  96.994  1.00  0.00    -0.393 OA
ATOM     34  H   UNL     1      96.745  99.905  96.127  1.00  0.00     0.210 HD
ENDBRANCH  27  33
TORSDOF 2
ENDMDL
MODEL 7
REMARK VINA RESULT:    -6.783      2.457      4.349
REMARK INTER + INTRA:          -7.325
REMARK INTER:                  -7.384
REMARK INTRA:                   0.060
REMARK UNBOUND:                 0.053
REMARK SMILES CC1(C)CC[C@@]2(C(=O)[O-])CC[C@@]3(C)C(=CC[C@@H]4[C@]5(C)CC[C@H](O)C(C)(C)[C@@H]5CC[C@@]43C)[C@@H]2C1
REMARK SMILES IDX 6 1 5 2 10 3 32 4 4 5 11 6 14 7 33 8 2 9 12 10 15 11 1 12
REMARK SMILES IDX 3 13 13 14 30 15 16 16 17 17 29 18 31 19 18 20 28 21 27 22
REMARK SMILES IDX 20 23 19 24 24 25 21 26 22 27 25 28 26 29 7 30 8 31 9 32
REMARK SMILES IDX 23 33
REMARK H PARENT 23 34
REMARK Flexibility Score: inf
ROOT
ATOM      1  C   UNL     1     105.797  98.243  96.710  1.00  0.00     0.017 C 
ATOM      2  C   UNL     1     107.286  97.754  96.719  1.00  0.00     0.014 C 
ATOM      3  C   UNL     1     104.833  97.088  97.137  1.00  0.00     0.014 C 
ATOM      4  C   UNL     1     105.587  99.378  97.760  1.00  0.00     0.028 C 
ATOM      5  C   UNL     1     108.105  98.255  97.923  1.00  0.00     0.007 C 
ATOM      6  C   UNL     1     103.344  97.538  97.273  1.00  0.00     0.013 C 
ATOM      7  C   UNL     1     104.138  99.848  97.709  1.00  0.00    -0.064 C 
ATOM      8  C   UNL     1     106.703 100.443  97.732  1.00  0.00     0.015 C 
ATOM      9  C   UNL     1     108.101  99.814  98.072  1.00  0.00    -0.035 C 
ATOM     10  C   UNL     1     103.090  98.819  98.166  1.00  0.00    -0.006 C 
ATOM     11  C   UNL     1     103.816 100.897  96.935  1.00  0.00    -0.027 C 
ATOM     12  C   UNL     1     109.177 100.424  97.147  1.00  0.00     0.011 C 
ATOM     13  C   UNL     1     108.477 100.160  99.529  1.00  0.00     0.011 C 
ATOM     14  C   UNL     1     103.376  98.439  99.663  1.00  0.00     0.017 C 
ATOM     15  C   UNL     1     101.567  99.365  98.036  1.00  0.00    -0.020 C 
ATOM     16  C   UNL     1     102.423 101.304  96.607  1.00  0.00     0.032 C 
ATOM     17  C   UNL     1     101.356 100.174  96.703  1.00  0.00     0.006 C 
ATOM     18  C   UNL     1     101.219 100.338  99.218  1.00  0.00     0.008 C 
ATOM     19  C   UNL     1     100.615  98.119  98.088  1.00  0.00     0.012 C 
ATOM     20  C   UNL     1      99.837 100.703  96.472  1.00  0.00    -0.025 C 
ATOM     21  C   UNL     1     100.124 101.407  98.958  1.00  0.00     0.005 C 
ATOM     22  C   UNL     1      99.098 101.039  97.855  1.00  0.00     0.003 C 
ATOM     23  C   UNL     1      99.842 101.956  95.519  1.00  0.00     0.010 C 
ATOM     24  C   UNL     1      99.054  99.574  95.719  1.00  0.00     0.012 C 
ATOM     25  C   UNL     1      97.834 102.021  97.775  1.00  0.00    -0.006 C 
ATOM     26  C   UNL     1      98.508 102.693  95.406  1.00  0.00     0.033 C 
ATOM     27  C   UNL     1      98.055 103.194  96.774  1.00  0.00     0.120 C 
ATOM     28  C   UNL     1      97.469 102.637  99.158  1.00  0.00     0.014 C 
ATOM     29  C   UNL     1      96.561 101.226  97.354  1.00  0.00     0.014 C 
ENDROOT
BRANCH   1  30
ATOM     30  C   UNL     1     105.465  98.681  95.279  1.00  0.00     0.048 C 
ATOM     31  O   UNL     1     104.536  98.128  94.631  1.00  0.00    -0.550 OA
ATOM     32  O   UNL     1     106.265  99.602  94.613  1.00  0.00    -0.550 OA
ENDBRANCH   1  30
BRANCH  27  33
ATOM     33  O   UNL     1      99.008 104.106  97.271  1.00  0.00    -0.393 OA
ATOM     34  H   UNL     1      99.248 104.726  96.533  1.00  0.00     0.210 HD
ENDBRANCH  27  33
TORSDOF 2
ENDMDL
MODEL 8
REMARK VINA RESULT:    -6.667      2.312      8.395
REMARK INTER + INTRA:          -7.199
REMARK INTER:                  -7.251
REMARK INTRA:                   0.052
REMARK UNBOUND:                 0.053
REMARK SMILES CC1(C)CC[C@@]2(C(=O)[O-])CC[C@@]3(C)C(=CC[C@@H]4[C@]5(C)CC[C@H](O)C(C)(C)[C@@H]5CC[C@@]43C)[C@@H]2C1
REMARK SMILES IDX 6 1 5 2 10 3 32 4 4 5 11 6 14 7 33 8 2 9 12 10 15 11 1 12
REMARK SMILES IDX 3 13 13 14 30 15 16 16 17 17 29 18 31 19 18 20 28 21 27 22
REMARK SMILES IDX 20 23 19 24 24 25 21 26 22 27 25 28 26 29 7 30 8 31 9 32
REMARK SMILES IDX 23 33
REMARK H PARENT 23 34
REMARK Flexibility Score: inf
ROOT
ATOM      1  C   UNL     1     105.707 101.003  97.099  1.00  0.00     0.017 C 
ATOM      2  C   UNL     1     104.372 101.114  96.286  1.00  0.00     0.014 C 
ATOM      3  C   UNL     1     105.782 102.118  98.194  1.00  0.00     0.014 C 
ATOM      4  C   UNL     1     105.767  99.648  97.871  1.00  0.00     0.028 C 
ATOM      5  C   UNL     1     103.319 100.054  96.658  1.00  0.00     0.007 C 
ATOM      6  C   UNL     1     107.028 101.991  99.126  1.00  0.00     0.013 C 
ATOM      7  C   UNL     1     107.086  99.560  98.630  1.00  0.00    -0.064 C 
ATOM      8  C   UNL     1     105.336  98.442  97.012  1.00  0.00     0.015 C 
ATOM      9  C   UNL     1     103.846  98.584  96.534  1.00  0.00    -0.035 C 
ATOM     10  C   UNL     1     107.259 100.568  99.780  1.00  0.00    -0.006 C 
ATOM     11  C   UNL     1     108.134  98.949  98.055  1.00  0.00    -0.027 C 
ATOM     12  C   UNL     1     103.731  98.115  95.068  1.00  0.00     0.011 C 
ATOM     13  C   UNL     1     102.944  97.674  97.396  1.00  0.00     0.011 C 
ATOM     14  C   UNL     1     106.125 100.324 100.839  1.00  0.00     0.017 C 
ATOM     15  C   UNL     1     108.704 100.455 100.509  1.00  0.00    -0.020 C 
ATOM     16  C   UNL     1     109.528  99.004  98.573  1.00  0.00     0.032 C 
ATOM     17  C   UNL     1     109.861 100.235  99.466  1.00  0.00     0.006 C 
ATOM     18  C   UNL     1     108.740  99.232 101.494  1.00  0.00     0.008 C 
ATOM     19  C   UNL     1     108.928 101.781 101.317  1.00  0.00     0.012 C 
ATOM     20  C   UNL     1     111.349 100.172 100.118  1.00  0.00    -0.025 C 
ATOM     21  C   UNL     1     110.125  98.594 101.782  1.00  0.00     0.005 C 
ATOM     22  C   UNL     1     111.336  99.544 101.593  1.00  0.00     0.003 C 
ATOM     23  C   UNL     1     112.316  99.366  99.173  1.00  0.00     0.010 C 
ATOM     24  C   UNL     1     111.901 101.637 100.175  1.00  0.00     0.012 C 
ATOM     25  C   UNL     1     112.725  98.960 102.138  1.00  0.00    -0.006 C 
ATOM     26  C   UNL     1     113.682  99.031  99.772  1.00  0.00     0.033 C 
ATOM     27  C   UNL     1     113.521  98.195 101.039  1.00  0.00     0.120 C 
ATOM     28  C   UNL     1     112.533  97.994 103.345  1.00  0.00     0.014 C 
ATOM     29  C   UNL     1     113.611 100.112 102.699  1.00  0.00     0.014 C 
ENDROOT
BRANCH   1  30
ATOM     30  C   UNL     1     106.865 101.180  96.110  1.00  0.00     0.048 C 
ATOM     31  O   UNL     1     107.627 102.181  96.178  1.00  0.00    -0.550 OA
ATOM     32  O   UNL     1     107.019 100.316  95.033  1.00  0.00    -0.550 OA
ENDBRANCH   1  30
BRANCH  27  33
ATOM     33  O   UNL     1     112.887  96.980 100.713  1.00  0.00    -0.393 OA
ATOM     34  H   UNL     1     112.670  97.001  99.743  1.00  0.00     0.210 HD
ENDBRANCH  27  33
TORSDOF 2
ENDMDL
MODEL 9
REMARK VINA RESULT:    -6.632      2.025      3.782
REMARK INTER + INTRA:          -7.161
REMARK INTER:                  -7.237
REMARK INTRA:                   0.076
REMARK UNBOUND:                 0.053
REMARK SMILES CC1(C)CC[C@@]2(C(=O)[O-])CC[C@@]3(C)C(=CC[C@@H]4[C@]5(C)CC[C@H](O)C(C)(C)[C@@H]5CC[C@@]43C)[C@@H]2C1
REMARK SMILES IDX 6 1 5 2 10 3 32 4 4 5 11 6 14 7 33 8 2 9 12 10 15 11 1 12
REMARK SMILES IDX 3 13 13 14 30 15 16 16 17 17 29 18 31 19 18 20 28 21 27 22
REMARK SMILES IDX 20 23 19 24 24 25 21 26 22 27 25 28 26 29 7 30 8 31 9 32
REMARK SMILES IDX 23 33
REMARK H PARENT 23 34
REMARK Flexibility Score: inf
ROOT
ATOM      1  C   UNL     1     108.336 100.594  97.768  1.00  0.00     0.017 C 
ATOM      2  C   UNL     1     109.819 101.089  97.666  1.00  0.00     0.014 C 
ATOM      3  C   UNL     1     107.931 100.362  99.260  1.00  0.00     0.014 C 
ATOM      4  C   UNL     1     107.356 101.682  97.228  1.00  0.00     0.028 C 
ATOM      5  C   UNL     1     109.960 102.593  97.366  1.00  0.00     0.007 C 
ATOM      6  C   UNL     1     106.427  99.988  99.447  1.00  0.00     0.013 C 
ATOM      7  C   UNL     1     105.927 101.160  97.317  1.00  0.00    -0.064 C 
ATOM      8  C   UNL     1     107.824 102.313  95.901  1.00  0.00     0.015 C 
ATOM      9  C   UNL     1     109.205 103.041  96.069  1.00  0.00    -0.035 C 
ATOM     10  C   UNL     1     105.385 100.948  98.741  1.00  0.00    -0.006 C 
ATOM     11  C   UNL     1     105.384 100.552  96.251  1.00  0.00    -0.027 C 
ATOM     12  C   UNL     1     110.087 102.760  94.833  1.00  0.00     0.011 C 
ATOM     13  C   UNL     1     108.972 104.566  96.149  1.00  0.00     0.011 C 
ATOM     14  C   UNL     1     105.398 102.325  99.496  1.00  0.00     0.017 C 
ATOM     15  C   UNL     1     103.880 100.341  98.763  1.00  0.00    -0.020 C 
ATOM     16  C   UNL     1     104.105  99.791  96.277  1.00  0.00     0.032 C 
ATOM     17  C   UNL     1     103.691  99.227  97.668  1.00  0.00     0.006 C 
ATOM     18  C   UNL     1     102.821 101.461  98.460  1.00  0.00     0.008 C 
ATOM     19  C   UNL     1     103.628  99.760 100.198  1.00  0.00     0.012 C 
ATOM     20  C   UNL     1     102.224  98.529  97.667  1.00  0.00    -0.025 C 
ATOM     21  C   UNL     1     101.475 101.013  97.830  1.00  0.00     0.005 C 
ATOM     22  C   UNL     1     101.071  99.545  98.124  1.00  0.00     0.003 C 
ATOM     23  C   UNL     1     101.913  97.931  96.244  1.00  0.00     0.010 C 
ATOM     24  C   UNL     1     102.279  97.316  98.658  1.00  0.00     0.012 C 
ATOM     25  C   UNL     1      99.573  99.174  97.694  1.00  0.00    -0.006 C 
ATOM     26  C   UNL     1     100.476  97.452  96.038  1.00  0.00     0.033 C 
ATOM     27  C   UNL     1      99.494  98.602  96.248  1.00  0.00     0.120 C 
ATOM     28  C   UNL     1      98.609 100.394  97.776  1.00  0.00     0.014 C 
ATOM     29  C   UNL     1      98.970  98.134  98.686  1.00  0.00     0.014 C 
ENDROOT
BRANCH   1  30
ATOM     30  C   UNL     1     108.240  99.268  97.002  1.00  0.00     0.048 C 
ATOM     31  O   UNL     1     108.111  98.175  97.614  1.00  0.00    -0.550 OA
ATOM     32  O   UNL     1     108.430  99.227  95.626  1.00  0.00    -0.550 OA
ENDBRANCH   1  30
BRANCH  27  33
ATOM     33  O   UNL     1      99.751  99.608  95.295  1.00  0.00    -0.393 OA
ATOM     34  H   UNL     1      99.387 100.462  95.648  1.00  0.00     0.210 HD
ENDBRANCH  27  33
TORSDOF 2
ENDMDL
