MODEL 1
REMARK VINA RESULT:    -6.598      0.000      0.000
REMARK INTER + INTRA:          -8.029
REMARK INTER:                  -7.755
REMARK INTRA:                  -0.275
REMARK UNBOUND:                -0.275
REMARK SMILES O=c1cc(-c2ccc(O)c(O)c2)oc2cc(O)cc(O)c12
REMARK SMILES IDX 4 1 3 2 2 3 1 4 21 5 19 6 18 7 16 8 15 9 14 10 13 11 5 12
REMARK SMILES IDX 6 13 7 14 8 15 12 16 10 17 9 18 11 20 20 22 17 24
REMARK H PARENT 9 19 11 21 20 23 17 25
REMARK Flexibility Score: inf
ROOT
ATOM      1  C   UNL     1     -17.135  -1.247 -16.541  1.00  0.00     0.138 A 
ATOM      2  C   UNL     1     -18.261  -2.069 -16.678  1.00  0.00     0.100 A 
ATOM      3  C   UNL     1     -18.095  -3.434 -16.916  1.00  0.00     0.197 A 
ATOM      4  O   UNL     1     -19.125  -4.135 -17.089  1.00  0.00    -0.289 OA
ATOM      5  C   UNL     1     -16.792  -3.984 -16.980  1.00  0.00     0.107 A 
ATOM      6  C   UNL     1     -16.501  -5.366 -17.184  1.00  0.00     0.134 A 
ATOM      7  C   UNL     1     -15.169  -5.777 -17.328  1.00  0.00     0.093 A 
ATOM      8  C   UNL     1     -14.118  -4.868 -17.220  1.00  0.00     0.123 A 
ATOM      9  C   UNL     1     -14.389  -3.522 -16.971  1.00  0.00     0.094 A 
ATOM     10  C   UNL     1     -15.707  -3.075 -16.857  1.00  0.00     0.146 A 
ATOM     11  O   UNL     1     -15.922  -1.782 -16.638  1.00  0.00    -0.456 OA
ENDROOT
BRANCH   1  12
ATOM     12  C   UNL     1     -17.253   0.211 -16.284  1.00  0.00     0.021 A 
ATOM     13  C   UNL     1     -17.838   0.656 -15.089  1.00  0.00     0.016 A 
ATOM     14  C   UNL     1     -17.955   2.020 -14.820  1.00  0.00     0.051 A 
ATOM     15  C   UNL     1     -17.483   2.970 -15.731  1.00  0.00     0.157 A 
ATOM     16  C   UNL     1     -16.763   1.167 -17.195  1.00  0.00     0.062 A 
ATOM     17  C   UNL     1     -16.874   2.538 -16.933  1.00  0.00     0.158 A 
BRANCH  15  18
ATOM     18  O   UNL     1     -17.636   4.320 -15.404  1.00  0.00    -0.504 OA
ATOM     19  H   UNL     1     -18.504   4.730 -15.090  1.00  0.00     0.293 HD
ENDBRANCH  15  18
BRANCH  17  20
ATOM     20  O   UNL     1     -16.365   3.427 -17.880  1.00  0.00    -0.504 OA
ATOM     21  H   UNL     1     -16.020   3.149 -18.788  1.00  0.00     0.293 HD
ENDBRANCH  17  20
ENDBRANCH   1  12
BRANCH   6  22
ATOM     22  O   UNL     1     -17.469  -6.374 -17.229  1.00  0.00    -0.507 OA
ATOM     23  H   UNL     1     -17.652  -6.966 -18.024  1.00  0.00     0.293 HD
ENDBRANCH   6  22
BRANCH   8  24
ATOM     24  O   UNL     1     -12.805  -5.315 -17.353  1.00  0.00    -0.508 OA
ATOM     25  H   UNL     1     -12.174  -4.909 -18.034  1.00  0.00     0.293 HD
ENDBRANCH   8  24
TORSDOF 5
ENDMDL
MODEL 2
REMARK VINA RESULT:    -6.272      1.437      2.581
REMARK INTER + INTRA:          -7.647
REMARK INTER:                  -7.353
REMARK INTRA:                  -0.294
REMARK UNBOUND:                -0.275
REMARK SMILES O=c1cc(-c2ccc(O)c(O)c2)oc2cc(O)cc(O)c12
REMARK SMILES IDX 4 1 3 2 2 3 1 4 21 5 19 6 18 7 16 8 15 9 14 10 13 11 5 12
REMARK SMILES IDX 6 13 7 14 8 15 12 16 10 17 9 18 11 20 20 22 17 24
REMARK H PARENT 9 19 11 21 20 23 17 25
REMARK Flexibility Score: inf
ROOT
ATOM      1  C   UNL     1     -17.013  -1.507 -16.681  1.00  0.00     0.138 A 
ATOM      2  C   UNL     1     -16.138  -1.949 -17.682  1.00  0.00     0.100 A 
ATOM      3  C   UNL     1     -16.022  -3.315 -17.944  1.00  0.00     0.197 A 
ATOM      4  O   UNL     1     -15.188  -3.683 -18.811  1.00  0.00    -0.289 OA
ATOM      5  C   UNL     1     -16.813  -4.240 -17.222  1.00  0.00     0.107 A 
ATOM      6  C   UNL     1     -16.804  -5.653 -17.426  1.00  0.00     0.134 A 
ATOM      7  C   UNL     1     -17.559  -6.476 -16.582  1.00  0.00     0.093 A 
ATOM      8  C   UNL     1     -18.365  -5.938 -15.580  1.00  0.00     0.123 A 
ATOM      9  C   UNL     1     -18.421  -4.554 -15.404  1.00  0.00     0.094 A 
ATOM     10  C   UNL     1     -17.653  -3.708 -16.207  1.00  0.00     0.146 A 
ATOM     11  O   UNL     1     -17.721  -2.398 -15.995  1.00  0.00    -0.456 OA
ENDROOT
BRANCH   1  12
ATOM     12  C   UNL     1     -17.179  -0.066 -16.363  1.00  0.00     0.021 A 
ATOM     13  C   UNL     1     -17.794   0.309 -15.159  1.00  0.00     0.016 A 
ATOM     14  C   UNL     1     -17.956   1.656 -14.833  1.00  0.00     0.051 A 
ATOM     15  C   UNL     1     -17.500   2.658 -15.695  1.00  0.00     0.157 A 
ATOM     16  C   UNL     1     -16.705   0.942 -17.224  1.00  0.00     0.062 A 
ATOM     17  C   UNL     1     -16.861   2.297 -16.904  1.00  0.00     0.158 A 
BRANCH  15  18
ATOM     18  O   UNL     1     -17.698   3.987 -15.313  1.00  0.00    -0.504 OA
ATOM     19  H   UNL     1     -18.543   4.509 -15.501  1.00  0.00     0.293 HD
ENDBRANCH  15  18
BRANCH  17  20
ATOM     20  O   UNL     1     -16.365   3.241 -17.805  1.00  0.00    -0.504 OA
ATOM     21  H   UNL     1     -15.386   3.349 -18.028  1.00  0.00     0.293 HD
ENDBRANCH  17  20
ENDBRANCH   1  12
BRANCH   6  22
ATOM     22  O   UNL     1     -16.096  -6.294 -18.448  1.00  0.00    -0.507 OA
ATOM     23  H   UNL     1     -16.505  -6.898 -19.144  1.00  0.00     0.293 HD
ENDBRANCH   6  22
BRANCH   8  24
ATOM     24  O   UNL     1     -19.115  -6.787 -14.769  1.00  0.00    -0.508 OA
ATOM     25  H   UNL     1     -18.880  -6.934 -13.794  1.00  0.00     0.293 HD
ENDBRANCH   8  24
TORSDOF 5
ENDMDL
MODEL 3
REMARK VINA RESULT:    -5.920      4.168      6.765
REMARK INTER + INTRA:          -7.233
REMARK INTER:                  -6.945
REMARK INTRA:                  -0.288
REMARK UNBOUND:                -0.275
REMARK SMILES O=c1cc(-c2ccc(O)c(O)c2)oc2cc(O)cc(O)c12
REMARK SMILES IDX 4 1 3 2 2 3 1 4 21 5 19 6 18 7 16 8 15 9 14 10 13 11 5 12
REMARK SMILES IDX 6 13 7 14 8 15 12 16 10 17 9 18 11 20 20 22 17 24
REMARK H PARENT 9 19 11 21 20 23 17 25
REMARK Flexibility Score: inf
ROOT
ATOM      1  C   UNL     1     -12.459  -2.636 -18.744  1.00  0.00     0.138 A 
ATOM      2  C   UNL     1     -12.507  -3.914 -18.171  1.00  0.00     0.100 A 
ATOM      3  C   UNL     1     -13.669  -4.336 -17.522  1.00  0.00     0.197 A 
ATOM      4  O   UNL     1     -13.661  -5.467 -16.971  1.00  0.00    -0.289 OA
ATOM      5  C   UNL     1     -14.799  -3.486 -17.480  1.00  0.00     0.107 A 
ATOM      6  C   UNL     1     -16.048  -3.823 -16.876  1.00  0.00     0.134 A 
ATOM      7  C   UNL     1     -17.064  -2.860 -16.809  1.00  0.00     0.093 A 
ATOM      8  C   UNL     1     -16.898  -1.596 -17.373  1.00  0.00     0.123 A 
ATOM      9  C   UNL     1     -15.699  -1.273 -18.010  1.00  0.00     0.094 A 
ATOM     10  C   UNL     1     -14.655  -2.199 -18.063  1.00  0.00     0.146 A 
ATOM     11  O   UNL     1     -13.523  -1.845 -18.663  1.00  0.00    -0.456 OA
ENDROOT
BRANCH   1  12
ATOM     12  C   UNL     1     -11.251  -2.138 -19.450  1.00  0.00     0.021 A 
ATOM     13  C   UNL     1     -10.656  -2.929 -20.443  1.00  0.00     0.016 A 
ATOM     14  C   UNL     1      -9.524  -2.481 -21.126  1.00  0.00     0.051 A 
ATOM     15  C   UNL     1      -8.967  -1.230 -20.840  1.00  0.00     0.157 A 
ATOM     16  C   UNL     1     -10.700  -0.872 -19.172  1.00  0.00     0.062 A 
ATOM     17  C   UNL     1      -9.566  -0.412 -19.854  1.00  0.00     0.158 A 
BRANCH  15  18
ATOM     18  O   UNL     1      -7.831  -0.843 -21.555  1.00  0.00    -0.504 OA
ATOM     19  H   UNL     1      -7.526   0.115 -21.655  1.00  0.00     0.293 HD
ENDBRANCH  15  18
BRANCH  17  20
ATOM     20  O   UNL     1      -9.078   0.854 -19.527  1.00  0.00    -0.504 OA
ATOM     21  H   UNL     1      -8.096   1.083 -19.467  1.00  0.00     0.293 HD
ENDBRANCH  17  20
ENDBRANCH   1  12
BRANCH   6  22
ATOM     22  O   UNL     1     -16.352  -5.083 -16.351  1.00  0.00    -0.507 OA
ATOM     23  H   UNL     1     -16.441  -5.929 -16.892  1.00  0.00     0.293 HD
ENDBRANCH   6  22
BRANCH   8  24
ATOM     24  O   UNL     1     -17.936  -0.669 -17.301  1.00  0.00    -0.508 OA
ATOM     25  H   UNL     1     -17.833   0.204 -16.796  1.00  0.00     0.293 HD
ENDBRANCH   8  24
TORSDOF 5
ENDMDL
MODEL 4
REMARK VINA RESULT:    -5.757      5.080      8.445
REMARK INTER + INTRA:          -7.041
REMARK INTER:                  -6.725
REMARK INTRA:                  -0.316
REMARK UNBOUND:                -0.275
REMARK SMILES O=c1cc(-c2ccc(O)c(O)c2)oc2cc(O)cc(O)c12
REMARK SMILES IDX 4 1 3 2 2 3 1 4 21 5 19 6 18 7 16 8 15 9 14 10 13 11 5 12
REMARK SMILES IDX 6 13 7 14 8 15 12 16 10 17 9 18 11 20 20 22 17 24
REMARK H PARENT 9 19 11 21 20 23 17 25
REMARK Flexibility Score: inf
ROOT
ATOM      1  C   UNL     1     -11.688  -2.769 -19.278  1.00  0.00     0.138 A 
ATOM      2  C   UNL     1     -10.729  -3.351 -20.118  1.00  0.00     0.100 A 
ATOM      3  C   UNL     1      -9.791  -2.540 -20.761  1.00  0.00     0.197 A 
ATOM      4  O   UNL     1      -8.978  -3.087 -21.550  1.00  0.00    -0.289 OA
ATOM      5  C   UNL     1      -9.794  -1.144 -20.532  1.00  0.00     0.107 A 
ATOM      6  C   UNL     1      -8.866  -0.223 -21.105  1.00  0.00     0.134 A 
ATOM      7  C   UNL     1      -9.030   1.150 -20.883  1.00  0.00     0.093 A 
ATOM      8  C   UNL     1     -10.050   1.632 -20.064  1.00  0.00     0.123 A 
ATOM      9  C   UNL     1     -10.933   0.737 -19.458  1.00  0.00     0.094 A 
ATOM     10  C   UNL     1     -10.817  -0.636 -19.688  1.00  0.00     0.146 A 
ATOM     11  O   UNL     1     -11.689  -1.452 -19.105  1.00  0.00    -0.456 OA
ENDROOT
BRANCH   1  12
ATOM     12  C   UNL     1     -12.706  -3.584 -18.567  1.00  0.00     0.021 A 
ATOM     13  C   UNL     1     -12.878  -4.932 -18.915  1.00  0.00     0.016 A 
ATOM     14  C   UNL     1     -13.823  -5.720 -18.258  1.00  0.00     0.051 A 
ATOM     15  C   UNL     1     -14.609  -5.186 -17.232  1.00  0.00     0.157 A 
ATOM     16  C   UNL     1     -13.486  -3.049 -17.524  1.00  0.00     0.062 A 
ATOM     17  C   UNL     1     -14.436  -3.834 -16.857  1.00  0.00     0.158 A 
BRANCH  15  18
ATOM     18  O   UNL     1     -15.540  -6.027 -16.619  1.00  0.00    -0.504 OA
ATOM     19  H   UNL     1     -15.407  -6.452 -15.712  1.00  0.00     0.293 HD
ENDBRANCH  15  18
BRANCH  17  20
ATOM     20  O   UNL     1     -15.171  -3.236 -15.832  1.00  0.00    -0.504 OA
ATOM     21  H   UNL     1     -14.780  -2.599 -15.154  1.00  0.00     0.293 HD
ENDBRANCH  17  20
ENDBRANCH   1  12
BRANCH   6  22
ATOM     22  O   UNL     1      -7.761  -0.600 -21.875  1.00  0.00    -0.507 OA
ATOM     23  H   UNL     1      -6.816  -0.283 -21.725  1.00  0.00     0.293 HD
ENDBRANCH   6  22
BRANCH   8  24
ATOM     24  O   UNL     1     -10.173   3.004 -19.853  1.00  0.00    -0.508 OA
ATOM     25  H   UNL     1     -10.997   3.514 -20.148  1.00  0.00     0.293 HD
ENDBRANCH   8  24
TORSDOF 5
ENDMDL
MODEL 5
REMARK VINA RESULT:    -5.685      3.492      5.667
REMARK INTER + INTRA:          -6.957
REMARK INTER:                  -6.669
REMARK INTRA:                  -0.288
REMARK UNBOUND:                -0.275
REMARK SMILES O=c1cc(-c2ccc(O)c(O)c2)oc2cc(O)cc(O)c12
REMARK SMILES IDX 4 1 3 2 2 3 1 4 21 5 19 6 18 7 16 8 15 9 14 10 13 11 5 12
REMARK SMILES IDX 6 13 7 14 8 15 12 16 10 17 9 18 11 20 20 22 17 24
REMARK H PARENT 9 19 11 21 20 23 17 25
REMARK Flexibility Score: inf
ROOT
ATOM      1  C   UNL     1     -13.812  -3.037 -18.068  1.00  0.00     0.138 A 
ATOM      2  C   UNL     1     -13.394  -4.359 -17.864  1.00  0.00     0.100 A 
ATOM      3  C   UNL     1     -12.281  -4.846 -18.553  1.00  0.00     0.197 A 
ATOM      4  O   UNL     1     -11.965  -6.053 -18.390  1.00  0.00    -0.289 OA
ATOM      5  C   UNL     1     -11.564  -3.991 -19.424  1.00  0.00     0.107 A 
ATOM      6  C   UNL     1     -10.396  -4.368 -20.153  1.00  0.00     0.134 A 
ATOM      7  C   UNL     1      -9.828  -3.464 -21.060  1.00  0.00     0.093 A 
ATOM      8  C   UNL     1     -10.350  -2.182 -21.224  1.00  0.00     0.123 A 
ATOM      9  C   UNL     1     -11.462  -1.786 -20.479  1.00  0.00     0.094 A 
ATOM     10  C   UNL     1     -12.072  -2.676 -19.591  1.00  0.00     0.146 A 
ATOM     11  O   UNL     1     -13.139  -2.265 -18.915  1.00  0.00    -0.456 OA
ENDROOT
BRANCH   1  12
ATOM     12  C   UNL     1     -14.985  -2.467 -17.359  1.00  0.00     0.021 A 
ATOM     13  C   UNL     1     -15.748  -1.467 -17.981  1.00  0.00     0.016 A 
ATOM     14  C   UNL     1     -16.859  -0.919 -17.339  1.00  0.00     0.051 A 
ATOM     15  C   UNL     1     -17.240  -1.362 -16.069  1.00  0.00     0.157 A 
ATOM     16  C   UNL     1     -15.377  -2.925 -16.087  1.00  0.00     0.062 A 
ATOM     17  C   UNL     1     -16.493  -2.383 -15.436  1.00  0.00     0.158 A 
BRANCH  15  18
ATOM     18  O   UNL     1     -18.359  -0.768 -15.479  1.00  0.00    -0.504 OA
ATOM     19  H   UNL     1     -18.650  -0.934 -14.526  1.00  0.00     0.293 HD
ENDBRANCH  15  18
BRANCH  17  20
ATOM     20  O   UNL     1     -16.823  -2.888 -14.178  1.00  0.00    -0.504 OA
ATOM     21  H   UNL     1     -17.402  -2.402 -13.507  1.00  0.00     0.293 HD
ENDBRANCH  17  20
ENDBRANCH   1  12
BRANCH   6  22
ATOM     22  O   UNL     1      -9.742  -5.595 -20.009  1.00  0.00    -0.507 OA
ATOM     23  H   UNL     1      -9.198  -6.049 -20.727  1.00  0.00     0.293 HD
ENDBRANCH   6  22
BRANCH   8  24
ATOM     24  O   UNL     1      -9.750  -1.304 -22.124  1.00  0.00    -0.508 OA
ATOM     25  H   UNL     1      -9.582  -1.567 -23.089  1.00  0.00     0.293 HD
ENDBRANCH   8  24
TORSDOF 5
ENDMDL
MODEL 6
REMARK VINA RESULT:    -5.666      3.701      6.060
REMARK INTER + INTRA:          -6.935
REMARK INTER:                  -6.671
REMARK INTRA:                  -0.263
REMARK UNBOUND:                -0.275
REMARK SMILES O=c1cc(-c2ccc(O)c(O)c2)oc2cc(O)cc(O)c12
REMARK SMILES IDX 4 1 3 2 2 3 1 4 21 5 19 6 18 7 16 8 15 9 14 10 13 11 5 12
REMARK SMILES IDX 6 13 7 14 8 15 12 16 10 17 9 18 11 20 20 22 17 24
REMARK H PARENT 9 19 11 21 20 23 17 25
REMARK Flexibility Score: inf
ROOT
ATOM      1  C   UNL     1     -14.171  -2.782 -18.396  1.00  0.00     0.138 A 
ATOM      2  C   UNL     1     -13.572  -4.009 -18.708  1.00  0.00     0.100 A 
ATOM      3  C   UNL     1     -12.382  -4.031 -19.438  1.00  0.00     0.197 A 
ATOM      4  O   UNL     1     -11.898  -5.150 -19.750  1.00  0.00    -0.289 OA
ATOM      5  C   UNL     1     -11.771  -2.814 -19.823  1.00  0.00     0.107 A 
ATOM      6  C   UNL     1     -10.540  -2.712 -20.539  1.00  0.00     0.134 A 
ATOM      7  C   UNL     1     -10.084  -1.454 -20.952  1.00  0.00     0.093 A 
ATOM      8  C   UNL     1     -10.781  -0.291 -20.627  1.00  0.00     0.123 A 
ATOM      9  C   UNL     1     -11.960  -0.375 -19.884  1.00  0.00     0.094 A 
ATOM     10  C   UNL     1     -12.459  -1.618 -19.488  1.00  0.00     0.146 A 
ATOM     11  O   UNL     1     -13.594  -1.655 -18.797  1.00  0.00    -0.456 OA
ENDROOT
BRANCH   1  12
ATOM     12  C   UNL     1     -15.434  -2.700 -17.620  1.00  0.00     0.021 A 
ATOM     13  C   UNL     1     -16.654  -2.564 -18.299  1.00  0.00     0.016 A 
ATOM     14  C   UNL     1     -17.856  -2.491 -17.594  1.00  0.00     0.051 A 
ATOM     15  C   UNL     1     -17.870  -2.564 -16.198  1.00  0.00     0.157 A 
ATOM     16  C   UNL     1     -15.449  -2.789 -16.215  1.00  0.00     0.062 A 
ATOM     17  C   UNL     1     -16.651  -2.720 -15.498  1.00  0.00     0.158 A 
BRANCH  15  18
ATOM     18  O   UNL     1     -19.106  -2.479 -15.553  1.00  0.00    -0.504 OA
ATOM     19  H   UNL     1     -19.974  -2.259 -16.021  1.00  0.00     0.293 HD
ENDBRANCH  15  18
BRANCH  17  20
ATOM     20  O   UNL     1     -16.587  -2.817 -14.108  1.00  0.00    -0.504 OA
ATOM     21  H   UNL     1     -17.348  -2.577 -13.489  1.00  0.00     0.293 HD
ENDBRANCH  17  20
ENDBRANCH   1  12
BRANCH   6  22
ATOM     22  O   UNL     1      -9.720  -3.802 -20.849  1.00  0.00    -0.507 OA
ATOM     23  H   UNL     1      -9.639  -4.224 -21.761  1.00  0.00     0.293 HD
ENDBRANCH   6  22
BRANCH   8  24
ATOM     24  O   UNL     1     -10.290   0.945 -21.041  1.00  0.00    -0.508 OA
ATOM     25  H   UNL     1      -9.721   1.521 -20.431  1.00  0.00     0.293 HD
ENDBRANCH   8  24
TORSDOF 5
ENDMDL
MODEL 7
REMARK VINA RESULT:    -5.662      3.366      5.686
REMARK INTER + INTRA:          -6.930
REMARK INTER:                  -6.664
REMARK INTRA:                  -0.266
REMARK UNBOUND:                -0.275
REMARK SMILES O=c1cc(-c2ccc(O)c(O)c2)oc2cc(O)cc(O)c12
REMARK SMILES IDX 4 1 3 2 2 3 1 4 21 5 19 6 18 7 16 8 15 9 14 10 13 11 5 12
REMARK SMILES IDX 6 13 7 14 8 15 12 16 10 17 9 18 11 20 20 22 17 24
REMARK H PARENT 9 19 11 21 20 23 17 25
REMARK Flexibility Score: inf
ROOT
ATOM      1  C   UNL     1     -13.763  -3.151 -18.109  1.00  0.00     0.138 A 
ATOM      2  C   UNL     1     -14.130  -4.392 -18.645  1.00  0.00     0.100 A 
ATOM      3  C   UNL     1     -15.295  -5.019 -18.200  1.00  0.00     0.197 A 
ATOM      4  O   UNL     1     -15.568  -6.157 -18.662  1.00  0.00    -0.289 OA
ATOM      5  C   UNL     1     -16.114  -4.381 -17.238  1.00  0.00     0.107 A 
ATOM      6  C   UNL     1     -17.341  -4.910 -16.735  1.00  0.00     0.134 A 
ATOM      7  C   UNL     1     -18.015  -4.233 -15.711  1.00  0.00     0.093 A 
ATOM      8  C   UNL     1     -17.539  -3.021 -15.212  1.00  0.00     0.123 A 
ATOM      9  C   UNL     1     -16.367  -2.470 -15.731  1.00  0.00     0.094 A 
ATOM     10  C   UNL     1     -15.653  -3.138 -16.729  1.00  0.00     0.146 A 
ATOM     11  O   UNL     1     -14.533  -2.588 -17.183  1.00  0.00    -0.456 OA
ENDROOT
BRANCH   1  12
ATOM     12  C   UNL     1     -12.537  -2.437 -18.548  1.00  0.00     0.021 A 
ATOM     13  C   UNL     1     -11.294  -2.807 -18.013  1.00  0.00     0.016 A 
ATOM     14  C   UNL     1     -10.126  -2.157 -18.413  1.00  0.00     0.051 A 
ATOM     15  C   UNL     1     -10.170  -1.132 -19.364  1.00  0.00     0.157 A 
ATOM     16  C   UNL     1     -12.580  -1.416 -19.516  1.00  0.00     0.062 A 
ATOM     17  C   UNL     1     -11.413  -0.760 -19.927  1.00  0.00     0.158 A 
BRANCH  15  18
ATOM     18  O   UNL     1      -8.966  -0.518 -19.717  1.00  0.00    -0.504 OA
ATOM     19  H   UNL     1      -8.369  -0.836 -20.468  1.00  0.00     0.293 HD
ENDBRANCH  15  18
BRANCH  17  20
ATOM     20  O   UNL     1     -11.533   0.241 -20.892  1.00  0.00    -0.504 OA
ATOM     21  H   UNL     1     -12.351   0.822 -21.006  1.00  0.00     0.293 HD
ENDBRANCH  17  20
ENDBRANCH   1  12
BRANCH   6  22
ATOM     22  O   UNL     1     -17.951  -6.073 -17.216  1.00  0.00    -0.507 OA
ATOM     23  H   UNL     1     -18.081  -6.920 -16.686  1.00  0.00     0.293 HD
ENDBRANCH   6  22
BRANCH   8  24
ATOM     24  O   UNL     1     -18.245  -2.368 -14.203  1.00  0.00    -0.508 OA
ATOM     25  H   UNL     1     -17.828  -1.617 -13.666  1.00  0.00     0.293 HD
ENDBRANCH   8  24
TORSDOF 5
ENDMDL
MODEL 8
REMARK VINA RESULT:    -5.654      3.168      5.510
REMARK INTER + INTRA:          -6.921
REMARK INTER:                  -6.617
REMARK INTRA:                  -0.303
REMARK UNBOUND:                -0.275
REMARK SMILES O=c1cc(-c2ccc(O)c(O)c2)oc2cc(O)cc(O)c12
REMARK SMILES IDX 4 1 3 2 2 3 1 4 21 5 19 6 18 7 16 8 15 9 14 10 13 11 5 12
REMARK SMILES IDX 6 13 7 14 8 15 12 16 10 17 9 18 11 20 20 22 17 24
REMARK H PARENT 9 19 11 21 20 23 17 25
REMARK Flexibility Score: inf
ROOT
ATOM      1  C   UNL     1     -13.801  -2.817 -18.223  1.00  0.00     0.138 A 
ATOM      2  C   UNL     1     -13.122  -1.974 -19.113  1.00  0.00     0.100 A 
ATOM      3  C   UNL     1     -12.025  -2.462 -19.825  1.00  0.00     0.197 A 
ATOM      4  O   UNL     1     -11.403  -1.664 -20.574  1.00  0.00    -0.289 OA
ATOM      5  C   UNL     1     -11.630  -3.812 -19.672  1.00  0.00     0.107 A 
ATOM      6  C   UNL     1     -10.549  -4.428 -20.371  1.00  0.00     0.134 A 
ATOM      7  C   UNL     1     -10.190  -5.747 -20.062  1.00  0.00     0.093 A 
ATOM      8  C   UNL     1     -10.906  -6.489 -19.124  1.00  0.00     0.123 A 
ATOM      9  C   UNL     1     -11.996  -5.912 -18.470  1.00  0.00     0.094 A 
ATOM     10  C   UNL     1     -12.357  -4.589 -18.730  1.00  0.00     0.146 A 
ATOM     11  O   UNL     1     -13.391  -4.072 -18.074  1.00  0.00    -0.456 OA
ENDROOT
BRANCH   1  12
ATOM     12  C   UNL     1     -14.976  -2.353 -17.443  1.00  0.00     0.021 A 
ATOM     13  C   UNL     1     -15.852  -1.414 -18.008  1.00  0.00     0.016 A 
ATOM     14  C   UNL     1     -16.967  -0.966 -17.298  1.00  0.00     0.051 A 
ATOM     15  C   UNL     1     -17.239  -1.451 -16.015  1.00  0.00     0.157 A 
ATOM     16  C   UNL     1     -15.257  -2.853 -16.158  1.00  0.00     0.062 A 
ATOM     17  C   UNL     1     -16.375  -2.412 -15.439  1.00  0.00     0.158 A 
BRANCH  15  18
ATOM     18  O   UNL     1     -18.368  -0.958 -15.357  1.00  0.00    -0.504 OA
ATOM     19  H   UNL     1     -18.860  -0.120 -15.631  1.00  0.00     0.293 HD
ENDBRANCH  15  18
BRANCH  17  20
ATOM     20  O   UNL     1     -16.591  -2.954 -14.171  1.00  0.00    -0.504 OA
ATOM     21  H   UNL     1     -17.055  -2.465 -13.419  1.00  0.00     0.293 HD
ENDBRANCH  17  20
ENDBRANCH   1  12
BRANCH   6  22
ATOM     22  O   UNL     1      -9.815  -3.807 -21.386  1.00  0.00    -0.507 OA
ATOM     23  H   UNL     1      -8.830  -3.595 -21.341  1.00  0.00     0.293 HD
ENDBRANCH   6  22
BRANCH   8  24
ATOM     24  O   UNL     1     -10.529  -7.803 -18.853  1.00  0.00    -0.508 OA
ATOM     25  H   UNL     1     -10.461  -8.497 -19.588  1.00  0.00     0.293 HD
ENDBRANCH   8  24
TORSDOF 5
ENDMDL
MODEL 9
REMARK VINA RESULT:    -5.651      4.529      6.583
REMARK INTER + INTRA:          -6.917
REMARK INTER:                  -6.629
REMARK INTRA:                  -0.288
REMARK UNBOUND:                -0.275
REMARK SMILES O=c1cc(-c2ccc(O)c(O)c2)oc2cc(O)cc(O)c12
REMARK SMILES IDX 4 1 3 2 2 3 1 4 21 5 19 6 18 7 16 8 15 9 14 10 13 11 5 12
REMARK SMILES IDX 6 13 7 14 8 15 12 16 10 17 9 18 11 20 20 22 17 24
REMARK H PARENT 9 19 11 21 20 23 17 25
REMARK Flexibility Score: inf
ROOT
ATOM      1  C   UNL     1     -11.937  -2.047 -18.811  1.00  0.00     0.138 A 
ATOM      2  C   UNL     1     -11.452  -3.268 -18.323  1.00  0.00     0.100 A 
ATOM      3  C   UNL     1     -12.339  -4.193 -17.770  1.00  0.00     0.197 A 
ATOM      4  O   UNL     1     -11.864  -5.255 -17.290  1.00  0.00    -0.289 OA
ATOM      5  C   UNL     1     -13.725  -3.908 -17.740  1.00  0.00     0.107 A 
ATOM      6  C   UNL     1     -14.726  -4.789 -17.232  1.00  0.00     0.134 A 
ATOM      7  C   UNL     1     -16.056  -4.355 -17.165  1.00  0.00     0.093 A 
ATOM      8  C   UNL     1     -16.431  -3.099 -17.638  1.00  0.00     0.123 A 
ATOM      9  C   UNL     1     -15.468  -2.248 -18.182  1.00  0.00     0.094 A 
ATOM     10  C   UNL     1     -14.127  -2.637 -18.232  1.00  0.00     0.146 A 
ATOM     11  O   UNL     1     -13.239  -1.791 -18.742  1.00  0.00    -0.456 OA
ENDROOT
BRANCH   1  12
ATOM     12  C   UNL     1     -11.040  -1.029 -19.412  1.00  0.00     0.021 A 
ATOM     13  C   UNL     1     -11.363   0.331 -19.297  1.00  0.00     0.016 A 
ATOM     14  C   UNL     1     -10.533   1.308 -19.847  1.00  0.00     0.051 A 
ATOM     15  C   UNL     1      -9.358   0.953 -20.515  1.00  0.00     0.157 A 
ATOM     16  C   UNL     1      -9.848  -1.387 -20.071  1.00  0.00     0.062 A 
ATOM     17  C   UNL     1      -9.007  -0.414 -20.625  1.00  0.00     0.158 A 
BRANCH  15  18
ATOM     18  O   UNL     1      -8.574   1.979 -21.048  1.00  0.00    -0.504 OA
ATOM     19  H   UNL     1      -7.689   2.273 -20.661  1.00  0.00     0.293 HD
ENDBRANCH  15  18
BRANCH  17  20
ATOM     20  O   UNL     1      -7.842  -0.843 -21.262  1.00  0.00    -0.504 OA
ATOM     21  H   UNL     1      -6.970  -0.335 -21.249  1.00  0.00     0.293 HD
ENDBRANCH  17  20
ENDBRANCH   1  12
BRANCH   6  22
ATOM     22  O   UNL     1     -14.478  -6.097 -16.805  1.00  0.00    -0.507 OA
ATOM     23  H   UNL     1     -15.024  -6.597 -16.122  1.00  0.00     0.293 HD
ENDBRANCH   6  22
BRANCH   8  24
ATOM     24  O   UNL     1     -17.766  -2.707 -17.569  1.00  0.00    -0.508 OA
ATOM     25  H   UNL     1     -18.154  -2.030 -18.215  1.00  0.00     0.293 HD
ENDBRANCH   8  24
TORSDOF 5
ENDMDL
