MODEL 1
REMARK VINA RESULT:    -4.164      0.000      0.000
REMARK INTER + INTRA:          -5.520
REMARK INTER:                  -5.381
REMARK INTRA:                  -0.139
REMARK UNBOUND:                -0.139
REMARK SMILES CCCCCCC(=O)[O-]
REMARK SMILES IDX 5 1 6 2 7 3 8 4 9 5 4 6 3 7 2 8 1 9
REMARK H PARENT
REMARK Flexibility Score: inf
ROOT
ATOM      1  C   UNL     1      47.735  33.631  15.677  1.00  0.00     0.006 C 
ENDROOT
BRANCH   1   2
ATOM      2  C   UNL     1      48.699  33.931  16.832  1.00  0.00     0.053 C 
BRANCH   2   3
ATOM      3  C   UNL     1      48.974  32.689  17.619  1.00  0.00     0.041 C 
ATOM      4  O   UNL     1      50.153  32.265  17.741  1.00  0.00    -0.550 OA
ATOM      5  O   UNL     1      47.923  31.971  18.176  1.00  0.00    -0.550 OA
ENDBRANCH   2   3
ENDBRANCH   1   2
BRANCH   1   6
ATOM      6  C   UNL     1      48.459  33.192  14.392  1.00  0.00     0.000 C 
BRANCH   6   7
ATOM      7  C   UNL     1      48.797  34.333  13.410  1.00  0.00    -0.000 C 
BRANCH   7   8
ATOM      8  C   UNL     1      49.191  33.876  11.994  1.00  0.00    -0.003 C 
ATOM      9  C   UNL     1      47.983  33.572  11.109  1.00  0.00     0.004 C 
ENDBRANCH   7   8
ENDBRANCH   6   7
ENDBRANCH   1   6
TORSDOF 5
ENDMDL
MODEL 2
REMARK VINA RESULT:    -4.119      3.160      5.175
REMARK INTER + INTRA:          -5.462
REMARK INTER:                  -5.308
REMARK INTRA:                  -0.154
REMARK UNBOUND:                -0.139
REMARK SMILES CCCCCCC(=O)[O-]
REMARK SMILES IDX 5 1 6 2 7 3 8 4 9 5 4 6 3 7 2 8 1 9
REMARK H PARENT
REMARK Flexibility Score: inf
ROOT
ATOM      1  C   UNL     1      48.437  33.233  14.419  1.00  0.00     0.006 C 
ENDROOT
BRANCH   1   2
ATOM      2  C   UNL     1      48.809  34.336  13.419  1.00  0.00     0.053 C 
BRANCH   2   3
ATOM      3  C   UNL     1      49.133  33.743  12.084  1.00  0.00     0.041 C 
ATOM      4  O   UNL     1      48.264  33.082  11.457  1.00  0.00    -0.550 OA
ATOM      5  O   UNL     1      50.410  33.877  11.555  1.00  0.00    -0.550 OA
ENDBRANCH   2   3
ENDBRANCH   1   2
BRANCH   1   6
ATOM      6  C   UNL     1      47.828  33.786  15.720  1.00  0.00     0.000 C 
BRANCH   6   7
ATOM      7  C   UNL     1      48.824  33.963  16.884  1.00  0.00    -0.000 C 
BRANCH   7   8
ATOM      8  C   UNL     1      49.208  32.663  17.615  1.00  0.00    -0.003 C 
ATOM      9  C   UNL     1      47.999  31.791  17.951  1.00  0.00     0.004 C 
ENDBRANCH   7   8
ENDBRANCH   6   7
ENDBRANCH   1   6
TORSDOF 5
ENDMDL
MODEL 3
REMARK VINA RESULT:    -4.024     10.902     12.364
REMARK INTER + INTRA:          -5.339
REMARK INTER:                  -5.067
REMARK INTRA:                  -0.272
REMARK UNBOUND:                -0.139
REMARK SMILES CCCCCCC(=O)[O-]
REMARK SMILES IDX 5 1 6 2 7 3 8 4 9 5 4 6 3 7 2 8 1 9
REMARK H PARENT
REMARK Flexibility Score: inf
ROOT
ATOM      1  C   UNL     1      40.937  37.023  23.935  1.00  0.00     0.006 C 
ENDROOT
BRANCH   1   2
ATOM      2  C   UNL     1      41.824  36.929  22.686  1.00  0.00     0.053 C 
BRANCH   2   3
ATOM      3  C   UNL     1      42.716  38.126  22.587  1.00  0.00     0.041 C 
ATOM      4  O   UNL     1      43.950  38.016  22.810  1.00  0.00    -0.550 OA
ATOM      5  O   UNL     1      42.176  39.373  22.297  1.00  0.00    -0.550 OA
ENDBRANCH   2   3
ENDBRANCH   1   2
BRANCH   1   6
ATOM      6  C   UNL     1      39.661  36.169  23.828  1.00  0.00     0.000 C 
BRANCH   6   7
ATOM      7  C   UNL     1      38.406  36.926  23.347  1.00  0.00    -0.000 C 
BRANCH   7   8
ATOM      8  C   UNL     1      38.624  38.419  23.042  1.00  0.00    -0.003 C 
ATOM      9  C   UNL     1      38.732  38.709  21.545  1.00  0.00     0.004 C 
ENDBRANCH   7   8
ENDBRANCH   6   7
ENDBRANCH   1   6
TORSDOF 5
ENDMDL
MODEL 4
REMARK VINA RESULT:    -3.904     13.863     14.791
REMARK INTER + INTRA:          -5.184
REMARK INTER:                  -5.042
REMARK INTRA:                  -0.142
REMARK UNBOUND:                -0.139
REMARK SMILES CCCCCCC(=O)[O-]
REMARK SMILES IDX 5 1 6 2 7 3 8 4 9 5 4 6 3 7 2 8 1 9
REMARK H PARENT
REMARK Flexibility Score: inf
ROOT
ATOM      1  C   UNL     1      44.768  36.056  28.895  1.00  0.00     0.006 C 
ENDROOT
BRANCH   1   2
ATOM      2  C   UNL     1      44.304  37.508  29.075  1.00  0.00     0.053 C 
BRANCH   2   3
ATOM      3  C   UNL     1      44.558  38.296  27.829  1.00  0.00     0.041 C 
ATOM      4  O   UNL     1      43.723  38.276  26.887  1.00  0.00    -0.550 OA
ATOM      5  O   UNL     1      45.740  39.011  27.686  1.00  0.00    -0.550 OA
ENDBRANCH   2   3
ENDBRANCH   1   2
BRANCH   1   6
ATOM      6  C   UNL     1      44.344  35.144  30.060  1.00  0.00     0.000 C 
BRANCH   6   7
ATOM      7  C   UNL     1      44.484  33.632  29.791  1.00  0.00    -0.000 C 
BRANCH   7   8
ATOM      8  C   UNL     1      45.078  33.267  28.418  1.00  0.00    -0.003 C 
ATOM      9  C   UNL     1      44.552  31.939  27.877  1.00  0.00     0.004 C 
ENDBRANCH   7   8
ENDBRANCH   6   7
ENDBRANCH   1   6
TORSDOF 5
ENDMDL
MODEL 5
REMARK VINA RESULT:    -3.892     11.834     12.813
REMARK INTER + INTRA:          -5.168
REMARK INTER:                  -4.810
REMARK INTRA:                  -0.358
REMARK UNBOUND:                -0.139
REMARK SMILES CCCCCCC(=O)[O-]
REMARK SMILES IDX 5 1 6 2 7 3 8 4 9 5 4 6 3 7 2 8 1 9
REMARK H PARENT
REMARK Flexibility Score: inf
ROOT
ATOM      1  C   UNL     1      40.888  36.840  23.998  1.00  0.00     0.006 C 
ENDROOT
BRANCH   1   2
ATOM      2  C   UNL     1      39.407  36.565  23.708  1.00  0.00     0.053 C 
BRANCH   2   3
ATOM      3  C   UNL     1      38.570  37.740  24.104  1.00  0.00     0.041 C 
ATOM      4  O   UNL     1      37.314  37.656  24.089  1.00  0.00    -0.550 OA
ATOM      5  O   UNL     1      39.176  38.944  24.441  1.00  0.00    -0.550 OA
ENDBRANCH   2   3
ENDBRANCH   1   2
BRANCH   1   6
ATOM      6  C   UNL     1      41.748  36.894  22.723  1.00  0.00     0.000 C 
BRANCH   6   7
ATOM      7  C   UNL     1      42.766  38.051  22.668  1.00  0.00    -0.000 C 
BRANCH   7   8
ATOM      8  C   UNL     1      42.164  39.432  22.350  1.00  0.00    -0.003 C 
ATOM      9  C   UNL     1      41.081  39.375  21.274  1.00  0.00     0.004 C 
ENDBRANCH   7   8
ENDBRANCH   6   7
ENDBRANCH   1   6
TORSDOF 5
ENDMDL
MODEL 6
REMARK VINA RESULT:    -3.889     11.243     12.886
REMARK INTER + INTRA:          -5.164
REMARK INTER:                  -4.757
REMARK INTRA:                  -0.408
REMARK UNBOUND:                -0.139
REMARK SMILES CCCCCCC(=O)[O-]
REMARK SMILES IDX 5 1 6 2 7 3 8 4 9 5 4 6 3 7 2 8 1 9
REMARK H PARENT
REMARK Flexibility Score: inf
ROOT
ATOM      1  C   UNL     1      42.205  37.409  23.305  1.00  0.00     0.006 C 
ENDROOT
BRANCH   1   2
ATOM      2  C   UNL     1      41.875  37.904  21.891  1.00  0.00     0.053 C 
BRANCH   2   3
ATOM      3  C   UNL     1      41.386  39.318  21.933  1.00  0.00     0.041 C 
ATOM      4  O   UNL     1      40.211  39.592  21.573  1.00  0.00    -0.550 OA
ATOM      5  O   UNL     1      42.243  40.339  22.321  1.00  0.00    -0.550 OA
ENDBRANCH   2   3
ENDBRANCH   1   2
BRANCH   1   6
ATOM      6  C   UNL     1      40.971  37.352  24.222  1.00  0.00     0.000 C 
BRANCH   6   7
ATOM      7  C   UNL     1      39.999  36.188  23.939  1.00  0.00    -0.000 C 
BRANCH   7   8
ATOM      8  C   UNL     1      38.590  36.611  23.488  1.00  0.00    -0.003 C 
ATOM      9  C   UNL     1      38.170  37.970  24.047  1.00  0.00     0.004 C 
ENDBRANCH   7   8
ENDBRANCH   6   7
ENDBRANCH   1   6
TORSDOF 5
ENDMDL
MODEL 7
REMARK VINA RESULT:    -3.869     13.609     14.573
REMARK INTER + INTRA:          -5.139
REMARK INTER:                  -5.012
REMARK INTRA:                  -0.127
REMARK UNBOUND:                -0.139
REMARK SMILES CCCCCCC(=O)[O-]
REMARK SMILES IDX 5 1 6 2 7 3 8 4 9 5 4 6 3 7 2 8 1 9
REMARK H PARENT
REMARK Flexibility Score: inf
ROOT
ATOM      1  C   UNL     1      44.809  34.552  29.066  1.00  0.00     0.006 C 
ENDROOT
BRANCH   1   2
ATOM      2  C   UNL     1      44.399  33.096  29.327  1.00  0.00     0.053 C 
BRANCH   2   3
ATOM      3  C   UNL     1      44.749  32.237  28.153  1.00  0.00     0.041 C 
ATOM      4  O   UNL     1      44.364  31.039  28.109  1.00  0.00    -0.550 OA
ATOM      5  O   UNL     1      45.543  32.743  27.132  1.00  0.00    -0.550 OA
ENDBRANCH   2   3
ENDBRANCH   1   2
BRANCH   1   6
ATOM      6  C   UNL     1      44.257  35.527  30.121  1.00  0.00     0.000 C 
BRANCH   6   7
ATOM      7  C   UNL     1      44.030  36.969  29.624  1.00  0.00    -0.000 C 
BRANCH   7   8
ATOM      8  C   UNL     1      45.073  37.480  28.614  1.00  0.00    -0.003 C 
ATOM      9  C   UNL     1      44.631  38.755  27.897  1.00  0.00     0.004 C 
ENDBRANCH   7   8
ENDBRANCH   6   7
ENDBRANCH   1   6
TORSDOF 5
ENDMDL
MODEL 8
REMARK VINA RESULT:    -3.858      3.254      4.355
REMARK INTER + INTRA:          -5.125
REMARK INTER:                  -4.764
REMARK INTRA:                  -0.361
REMARK UNBOUND:                -0.139
REMARK SMILES CCCCCCC(=O)[O-]
REMARK SMILES IDX 5 1 6 2 7 3 8 4 9 5 4 6 3 7 2 8 1 9
REMARK H PARENT
REMARK Flexibility Score: inf
ROOT
ATOM      1  C   UNL     1      47.915  30.611  17.203  1.00  0.00     0.006 C 
ENDROOT
BRANCH   1   2
ATOM      2  C   UNL     1      49.058  30.442  16.194  1.00  0.00     0.053 C 
BRANCH   2   3
ATOM      3  C   UNL     1      48.551  30.609  14.797  1.00  0.00     0.041 C 
ATOM      4  O   UNL     1      48.758  31.683  14.173  1.00  0.00    -0.550 OA
ATOM      5  O   UNL     1      47.807  29.599  14.201  1.00  0.00    -0.550 OA
ENDBRANCH   2   3
ENDBRANCH   1   2
BRANCH   1   6
ATOM      6  C   UNL     1      48.114  31.818  18.136  1.00  0.00     0.000 C 
BRANCH   6   7
ATOM      7  C   UNL     1      49.329  32.709  17.803  1.00  0.00    -0.000 C 
BRANCH   7   8
ATOM      8  C   UNL     1      48.987  34.051  17.132  1.00  0.00    -0.003 C 
ATOM      9  C   UNL     1      47.504  34.181  16.786  1.00  0.00     0.004 C 
ENDBRANCH   7   8
ENDBRANCH   6   7
ENDBRANCH   1   6
TORSDOF 5
ENDMDL
MODEL 9
REMARK VINA RESULT:    -3.759     11.585     13.162
REMARK INTER + INTRA:          -4.997
REMARK INTER:                  -4.671
REMARK INTRA:                  -0.326
REMARK UNBOUND:                -0.139
REMARK SMILES CCCCCCC(=O)[O-]
REMARK SMILES IDX 5 1 6 2 7 3 8 4 9 5 4 6 3 7 2 8 1 9
REMARK H PARENT
REMARK Flexibility Score: inf
ROOT
ATOM      1  C   UNL     1      38.652  38.345  23.053  1.00  0.00     0.006 C 
ENDROOT
BRANCH   1   2
ATOM      2  C   UNL     1      38.789  38.742  21.577  1.00  0.00     0.053 C 
BRANCH   2   3
ATOM      3  C   UNL     1      39.760  39.869  21.427  1.00  0.00     0.041 C 
ATOM      4  O   UNL     1      39.482  41.009  21.883  1.00  0.00    -0.550 OA
ATOM      5  O   UNL     1      40.951  39.675  20.738  1.00  0.00    -0.550 OA
ENDBRANCH   2   3
ENDBRANCH   1   2
BRANCH   1   6
ATOM      6  C   UNL     1      38.648  36.821  23.265  1.00  0.00     0.000 C 
BRANCH   6   7
ATOM      7  C   UNL     1      39.891  36.258  23.984  1.00  0.00    -0.000 C 
BRANCH   7   8
ATOM      8  C   UNL     1      41.133  37.167  23.945  1.00  0.00    -0.003 C 
ATOM      9  C   UNL     1      42.014  36.918  22.722  1.00  0.00     0.004 C 
ENDBRANCH   7   8
ENDBRANCH   6   7
ENDBRANCH   1   6
TORSDOF 5
ENDMDL
