MODEL 1
REMARK VINA RESULT:    -4.798      0.000      0.000
REMARK INTER + INTRA:          -7.348
REMARK INTER:                  -7.322
REMARK INTRA:                  -0.025
REMARK UNBOUND:                -0.025
REMARK SMILES CC1=CCC[C@@H](C)C(=O)C[C@H](C(C)C)C(=O)C1
REMARK SMILES IDX 8 1 9 2 6 3 7 4 5 5 4 6 3 7 2 8 1 9 10 11 11 12 15 13 16 14
REMARK SMILES IDX 17 15 12 17 13 18 14 19
REMARK H PARENT
REMARK Flexibility Score: 70.00
ROOT
ATOM      1  C   UNL     1       0.672  14.740  46.428  1.00  0.00     0.136 C 
ATOM      2  O   UNL     1       0.656  14.879  47.643  1.00  0.00    -0.299 OA
ENDROOT
BRANCH   1   3
ATOM      3  C   UNL     1      -0.434  15.409  45.625  1.00  0.00     0.053 C 
ATOM      4  C   UNL     1      -0.488  16.938  45.775  1.00  0.00     0.016 C 
BRANCH   3   5
ATOM      5  C   UNL     1      -1.778  14.635  45.803  1.00  0.00     0.015 C 
BRANCH   5   6
ATOM      6  C   UNL     1      -1.901  13.187  45.282  1.00  0.00     0.028 C 
BRANCH   6   7
ATOM      7  C   UNL     1      -1.697  12.057  46.269  1.00  0.00    -0.028 C 
ATOM      8  C   UNL     1      -0.733  11.108  46.229  1.00  0.00    -0.070 CG0
ATOM      9  C   UNL     1      -0.812   9.976  47.224  1.00  0.00     0.039 C 
ATOM     10  G   UNL     1       0.480  11.187  45.325  1.00  0.00     0.000 G0
ENDBRANCH   6   7
ENDBRANCH   5   6
ENDBRANCH   3   5
ENDBRANCH   1   3
BRANCH   1  11
ATOM     11  C   UNL     1       1.813  13.942  45.825  1.00  0.00     0.087 C 
BRANCH  11  12
ATOM     12  C   UNL     1       2.243  12.703  46.658  1.00  0.00     0.066 C 
BRANCH  12  13
ATOM     13  C   UNL     1       1.802  11.376  46.038  1.00  0.00     0.140 C 
ATOM     14  O   UNL     1       2.537  10.404  46.137  1.00  0.00    -0.299 OA
BRANCH  13  15
ATOM     15  C   UNL     1       0.478  11.191  45.314  1.00  0.00     0.106 CG0
ATOM     16  G   UNL     1      -0.720  11.130  46.240  1.00  0.00     0.000 G0
ENDBRANCH  13  15
ENDBRANCH  12  13
BRANCH  12  17
ATOM     17  C   UNL     1       3.759  12.678  47.024  1.00  0.00    -0.006 C 
ATOM     18  C   UNL     1       4.439  14.059  47.045  1.00  0.00     0.008 C 
ATOM     19  C   UNL     1       4.012  11.951  48.354  1.00  0.00     0.008 C 
ENDBRANCH  12  17
ENDBRANCH  11  12
ENDBRANCH   1  11
TORSDOF 1
ENDMDL
MODEL 2
REMARK VINA RESULT:    -4.206      1.701      3.834
REMARK INTER + INTRA:          -6.444
REMARK INTER:                  -7.114
REMARK INTRA:                   0.670
REMARK UNBOUND:                -0.025
REMARK SMILES CC1=CCC[C@@H](C)C(=O)C[C@H](C(C)C)C(=O)C1
REMARK SMILES IDX 8 1 9 2 6 3 7 4 5 5 4 6 3 7 2 8 1 9 10 11 11 12 15 13 16 14
REMARK SMILES IDX 17 15 12 17 13 18 14 19
REMARK H PARENT
REMARK Flexibility Score: 70.00
ROOT
ATOM      1  C   UNL     1       2.606  11.079  47.611  1.00  0.00     0.136 C 
ATOM      2  O   UNL     1       2.095  11.254  48.710  1.00  0.00    -0.299 OA
ENDROOT
BRANCH   1   3
ATOM      3  C   UNL     1       1.775  10.373  46.550  1.00  0.00     0.053 C 
ATOM      4  C   UNL     1       2.399  10.386  45.145  1.00  0.00     0.016 C 
BRANCH   3   5
ATOM      5  C   UNL     1       0.277  10.799  46.660  1.00  0.00     0.015 C 
BRANCH   5   6
ATOM      6  C   UNL     1      -0.346  11.690  45.564  1.00  0.00     0.028 C 
BRANCH   6   7
ATOM      7  C   UNL     1      -0.588  13.149  45.887  1.00  0.00    -0.028 C 
ATOM      8  C   UNL     1       0.349  14.115  46.031  1.00  0.00    -0.070 CG0
ATOM      9  C   UNL     1      -0.102  15.472  46.517  1.00  0.00     0.039 C 
ATOM     10  G   UNL     1       1.796  13.945  45.617  1.00  0.00     0.000 G0
ENDBRANCH   6   7
ENDBRANCH   5   6
ENDBRANCH   3   5
ENDBRANCH   1   3
BRANCH   1  11
ATOM     11  C   UNL     1       4.009  11.613  47.393  1.00  0.00     0.087 C 
BRANCH  11  12
ATOM     12  C   UNL     1       4.067  13.011  46.717  1.00  0.00     0.066 C 
BRANCH  12  13
ATOM     13  C   UNL     1       2.749  13.782  46.809  1.00  0.00     0.140 C 
ATOM     14  O   UNL     1       2.448  14.313  47.868  1.00  0.00    -0.299 OA
BRANCH  13  15
ATOM     15  C   UNL     1       1.791  13.942  45.639  1.00  0.00     0.106 CG0
ATOM     16  G   UNL     1       0.345  14.117  46.055  1.00  0.00     0.000 G0
ENDBRANCH  13  15
ENDBRANCH  12  13
BRANCH  12  17
ATOM     17  C   UNL     1       5.269  13.891  47.180  1.00  0.00    -0.006 C 
ATOM     18  C   UNL     1       5.810  13.554  48.581  1.00  0.00     0.008 C 
ATOM     19  C   UNL     1       6.415  13.873  46.158  1.00  0.00     0.008 C 
ENDBRANCH  12  17
ENDBRANCH  11  12
ENDBRANCH   1  11
TORSDOF 1
ENDMDL
MODEL 3
REMARK VINA RESULT:    -3.951      1.589      4.229
REMARK INTER + INTRA:          -6.055
REMARK INTER:                  -5.886
REMARK INTRA:                  -0.169
REMARK UNBOUND:                -0.025
REMARK SMILES CC1=CCC[C@@H](C)C(=O)C[C@H](C(C)C)C(=O)C1
REMARK SMILES IDX 8 1 9 2 6 3 7 4 5 5 4 6 3 7 2 8 1 9 10 11 11 12 15 13 16 14
REMARK SMILES IDX 17 15 12 17 13 18 14 19
REMARK H PARENT
REMARK Flexibility Score: 70.00
ROOT
ATOM      1  C   UNL     1       1.491  14.197  46.193  1.00  0.00     0.136 C 
ATOM      2  O   UNL     1       1.800  14.695  45.119  1.00  0.00    -0.299 OA
ENDROOT
BRANCH   1   3
ATOM      3  C   UNL     1       2.588  13.515  46.998  1.00  0.00     0.053 C 
ATOM      4  C   UNL     1       3.920  14.284  47.028  1.00  0.00     0.016 C 
BRANCH   3   5
ATOM      5  C   UNL     1       2.658  11.997  46.644  1.00  0.00     0.015 C 
BRANCH   5   6
ATOM      6  C   UNL     1       1.521  11.350  45.825  1.00  0.00     0.028 C 
BRANCH   6   7
ATOM      7  C   UNL     1       0.397  10.674  46.580  1.00  0.00    -0.028 C 
ATOM      8  C   UNL     1      -0.931  10.888  46.423  1.00  0.00    -0.070 CG0
ATOM      9  C   UNL     1      -1.875  10.225  47.397  1.00  0.00     0.039 C 
ATOM     10  G   UNL     1      -1.522  11.652  45.256  1.00  0.00     0.000 G0
ENDBRANCH   6   7
ENDBRANCH   5   6
ENDBRANCH   3   5
ENDBRANCH   1   3
BRANCH   1  11
ATOM     11  C   UNL     1       0.049  14.331  46.644  1.00  0.00     0.087 C 
BRANCH  11  12
ATOM     12  C   UNL     1      -0.993  14.278  45.493  1.00  0.00     0.066 C 
BRANCH  12  13
ATOM     13  C   UNL     1      -1.946  13.085  45.595  1.00  0.00     0.140 C 
ATOM     14  O   UNL     1      -3.100  13.279  45.948  1.00  0.00    -0.299 OA
BRANCH  13  15
ATOM     15  C   UNL     1      -1.537  11.659  45.260  1.00  0.00     0.106 CG0
ATOM     16  G   UNL     1      -0.924  10.911  46.426  1.00  0.00     0.000 G0
ENDBRANCH  13  15
ENDBRANCH  12  13
BRANCH  12  17
ATOM     17  C   UNL     1      -1.779  15.610  45.284  1.00  0.00    -0.006 C 
ATOM     18  C   UNL     1      -1.619  16.636  46.421  1.00  0.00     0.008 C 
ATOM     19  C   UNL     1      -1.439  16.266  43.936  1.00  0.00     0.008 C 
ENDBRANCH  12  17
ENDBRANCH  11  12
ENDBRANCH   1  11
TORSDOF 1
ENDMDL
MODEL 4
REMARK VINA RESULT:    -3.877      1.822      4.291
REMARK INTER + INTRA:          -5.942
REMARK INTER:                  -6.119
REMARK INTRA:                   0.177
REMARK UNBOUND:                -0.025
REMARK SMILES CC1=CCC[C@@H](C)C(=O)C[C@H](C(C)C)C(=O)C1
REMARK SMILES IDX 8 1 9 2 6 3 7 4 5 5 4 6 3 7 2 8 1 9 10 11 11 12 15 13 16 14
REMARK SMILES IDX 17 15 12 17 13 18 14 19
REMARK H PARENT
REMARK Flexibility Score: 70.00
ROOT
ATOM      1  C   UNL     1       3.459  14.191  47.013  1.00  0.00     0.136 C 
ATOM      2  O   UNL     1       3.742  15.007  46.146  1.00  0.00    -0.299 OA
ENDROOT
BRANCH   1   3
ATOM      3  C   UNL     1       4.602  13.422  47.659  1.00  0.00     0.053 C 
ATOM      4  C   UNL     1       5.979  13.685  47.028  1.00  0.00     0.016 C 
BRANCH   3   5
ATOM      5  C   UNL     1       4.198  11.929  47.874  1.00  0.00     0.015 C 
BRANCH   5   6
ATOM      6  C   UNL     1       3.663  11.104  46.685  1.00  0.00     0.028 C 
BRANCH   6   7
ATOM      7  C   UNL     1       2.269  10.523  46.793  1.00  0.00    -0.028 C 
ATOM      8  C   UNL     1       1.140  11.012  46.230  1.00  0.00    -0.070 CG0
ATOM      9  C   UNL     1      -0.174  10.368  46.602  1.00  0.00     0.039 C 
ATOM     10  G   UNL     1       1.136  12.083  45.159  1.00  0.00     0.000 G0
ENDBRANCH   6   7
ENDBRANCH   5   6
ENDBRANCH   3   5
ENDBRANCH   1   3
BRANCH   1  11
ATOM     11  C   UNL     1       1.998  14.044  47.392  1.00  0.00     0.087 C 
BRANCH  11  12
ATOM     12  C   UNL     1       0.999  14.506  46.295  1.00  0.00     0.066 C 
BRANCH  12  13
ATOM     13  C   UNL     1       0.376  13.345  45.518  1.00  0.00     0.140 C 
ATOM     14  O   UNL     1      -0.788  13.432  45.157  1.00  0.00    -0.299 OA
BRANCH  13  15
ATOM     15  C   UNL     1       1.139  12.081  45.150  1.00  0.00     0.106 CG0
ATOM     16  G   UNL     1       1.136  11.028  46.239  1.00  0.00     0.000 G0
ENDBRANCH  13  15
ENDBRANCH  12  13
BRANCH  12  17
ATOM     17  C   UNL     1      -0.096  15.493  46.807  1.00  0.00    -0.006 C 
ATOM     18  C   UNL     1       0.200  16.125  48.180  1.00  0.00     0.008 C 
ATOM     19  C   UNL     1      -0.396  16.593  45.778  1.00  0.00     0.008 C 
ENDBRANCH  12  17
ENDBRANCH  11  12
ENDBRANCH   1  11
TORSDOF 1
ENDMDL
MODEL 5
REMARK VINA RESULT:    -3.743      2.217      4.989
REMARK INTER + INTRA:          -5.737
REMARK INTER:                  -5.704
REMARK INTRA:                  -0.033
REMARK UNBOUND:                -0.025
REMARK SMILES CC1=CCC[C@@H](C)C(=O)C[C@H](C(C)C)C(=O)C1
REMARK SMILES IDX 8 1 9 2 6 3 7 4 5 5 4 6 3 7 2 8 1 9 10 11 11 12 15 13 16 14
REMARK SMILES IDX 17 15 12 17 13 18 14 19
REMARK H PARENT
REMARK Flexibility Score: 70.00
ROOT
ATOM      1  C   UNL     1       1.676  12.999  46.381  1.00  0.00     0.136 C 
ATOM      2  O   UNL     1       2.002  12.042  47.070  1.00  0.00    -0.299 OA
ENDROOT
BRANCH   1   3
ATOM      3  C   UNL     1       2.374  14.327  46.639  1.00  0.00     0.053 C 
ATOM      4  C   UNL     1       3.909  14.241  46.655  1.00  0.00     0.016 C 
BRANCH   3   5
ATOM      5  C   UNL     1       1.697  15.073  47.831  1.00  0.00     0.015 C 
BRANCH   5   6
ATOM      6  C   UNL     1       0.216  15.494  47.727  1.00  0.00     0.028 C 
BRANCH   6   7
ATOM      7  C   UNL     1      -0.155  16.537  46.695  1.00  0.00    -0.028 C 
ATOM      8  C   UNL     1      -1.086  16.419  45.719  1.00  0.00    -0.070 CG0
ATOM      9  C   UNL     1      -1.180  17.522  44.693  1.00  0.00     0.039 C 
ATOM     10  G   UNL     1      -2.113  15.306  45.674  1.00  0.00     0.000 G0
ENDBRANCH   6   7
ENDBRANCH   5   6
ENDBRANCH   3   5
ENDBRANCH   1   3
BRANCH   1  11
ATOM     11  C   UNL     1       0.631  12.771  45.306  1.00  0.00     0.087 C 
BRANCH  11  12
ATOM     12  C   UNL     1      -0.836  12.939  45.790  1.00  0.00     0.066 C 
BRANCH  12  13
ATOM     13  C   UNL     1      -1.604  14.020  45.025  1.00  0.00     0.140 C 
ATOM     14  O   UNL     1      -1.834  13.853  43.837  1.00  0.00    -0.299 OA
BRANCH  13  15
ATOM     15  C   UNL     1      -2.119  15.295  45.674  1.00  0.00     0.106 CG0
ATOM     16  G   UNL     1      -1.099  16.414  45.712  1.00  0.00     0.000 G0
ENDBRANCH  13  15
ENDBRANCH  12  13
BRANCH  12  17
ATOM     17  C   UNL     1      -1.645  11.606  45.844  1.00  0.00    -0.006 C 
ATOM     18  C   UNL     1      -1.021  10.511  46.729  1.00  0.00     0.008 C 
ATOM     19  C   UNL     1      -3.106  11.843  46.258  1.00  0.00     0.008 C 
ENDBRANCH  12  17
ENDBRANCH  11  12
ENDBRANCH   1  11
TORSDOF 1
ENDMDL
MODEL 6
REMARK VINA RESULT:    -3.421      2.034      5.003
REMARK INTER + INTRA:          -5.246
REMARK INTER:                  -5.758
REMARK INTRA:                   0.512
REMARK UNBOUND:                -0.025
REMARK SMILES CC1=CCC[C@@H](C)C(=O)C[C@H](C(C)C)C(=O)C1
REMARK SMILES IDX 8 1 9 2 6 3 7 4 5 5 4 6 3 7 2 8 1 9 10 11 11 12 15 13 16 14
REMARK SMILES IDX 17 15 12 17 13 18 14 19
REMARK H PARENT
REMARK Flexibility Score: 70.00
ROOT
ATOM      1  C   UNL     1      -1.785  13.264  45.343  1.00  0.00     0.136 C 
ATOM      2  O   UNL     1      -1.447  13.478  44.186  1.00  0.00    -0.299 OA
ENDROOT
BRANCH   1   3
ATOM      3  C   UNL     1      -1.667  11.838  45.861  1.00  0.00     0.053 C 
ATOM      4  C   UNL     1      -2.949  11.294  46.514  1.00  0.00     0.016 C 
BRANCH   3   5
ATOM      5  C   UNL     1      -0.338  11.660  46.661  1.00  0.00     0.015 C 
BRANCH   5   6
ATOM      6  C   UNL     1       1.013  11.697  45.917  1.00  0.00     0.028 C 
BRANCH   6   7
ATOM      7  C   UNL     1       2.129  12.529  46.511  1.00  0.00    -0.028 C 
ATOM      8  C   UNL     1       2.315  13.862  46.365  1.00  0.00    -0.070 CG0
ATOM      9  C   UNL     1       3.588  14.463  46.909  1.00  0.00     0.039 C 
ATOM     10  G   UNL     1       1.264  14.794  45.798  1.00  0.00     0.000 G0
ENDBRANCH   6   7
ENDBRANCH   5   6
ENDBRANCH   3   5
ENDBRANCH   1   3
BRANCH   1  11
ATOM     11  C   UNL     1      -2.259  14.445  46.169  1.00  0.00     0.087 C 
BRANCH  11  12
ATOM     12  C   UNL     1      -1.245  15.619  46.253  1.00  0.00     0.066 C 
BRANCH  12  13
ATOM     13  C   UNL     1       0.142  15.187  46.732  1.00  0.00     0.140 C 
ATOM     14  O   UNL     1       0.358  15.118  47.933  1.00  0.00    -0.299 OA
BRANCH  13  15
ATOM     15  C   UNL     1       1.274  14.815  45.787  1.00  0.00     0.106 CG0
ATOM     16  G   UNL     1       2.297  13.880  46.399  1.00  0.00     0.000 G0
ENDBRANCH  13  15
ENDBRANCH  12  13
BRANCH  12  17
ATOM     17  C   UNL     1      -1.150  16.471  44.949  1.00  0.00    -0.006 C 
ATOM     18  C   UNL     1      -2.481  16.640  44.193  1.00  0.00     0.008 C 
ATOM     19  C   UNL     1      -0.520  17.848  45.213  1.00  0.00     0.008 C 
ENDBRANCH  12  17
ENDBRANCH  11  12
ENDBRANCH   1  11
TORSDOF 1
ENDMDL
MODEL 7
REMARK VINA RESULT:    -3.314      1.980      4.984
REMARK INTER + INTRA:          -5.083
REMARK INTER:                  -5.463
REMARK INTRA:                   0.380
REMARK UNBOUND:                -0.025
REMARK SMILES CC1=CCC[C@@H](C)C(=O)C[C@H](C(C)C)C(=O)C1
REMARK SMILES IDX 8 1 9 2 6 3 7 4 5 5 4 6 3 7 2 8 1 9 10 11 11 12 15 13 16 14
REMARK SMILES IDX 17 15 12 17 13 18 14 19
REMARK H PARENT
REMARK Flexibility Score: 70.00
ROOT
ATOM      1  C   UNL     1       2.364  11.256  47.645  1.00  0.00     0.136 C 
ATOM      2  O   UNL     1       2.479  11.293  48.862  1.00  0.00    -0.299 OA
ENDROOT
BRANCH   1   3
ATOM      3  C   UNL     1       3.558  11.690  46.808  1.00  0.00     0.053 C 
ATOM      4  C   UNL     1       4.607  10.589  46.583  1.00  0.00     0.016 C 
BRANCH   3   5
ATOM      5  C   UNL     1       4.086  13.077  47.293  1.00  0.00     0.015 C 
BRANCH   5   6
ATOM      6  C   UNL     1       3.440  14.371  46.754  1.00  0.00     0.028 C 
BRANCH   6   7
ATOM      7  C   UNL     1       2.166  14.858  47.411  1.00  0.00    -0.028 C 
ATOM      8  C   UNL     1       0.940  14.936  46.846  1.00  0.00    -0.070 CG0
ATOM      9  C   UNL     1      -0.161  15.606  47.631  1.00  0.00     0.039 C 
ATOM     10  G   UNL     1       0.585  14.282  45.526  1.00  0.00     0.000 G0
ENDBRANCH   6   7
ENDBRANCH   5   6
ENDBRANCH   3   5
ENDBRANCH   1   3
BRANCH   1  11
ATOM     11  C   UNL     1       1.053  10.747  47.075  1.00  0.00     0.087 C 
BRANCH  11  12
ATOM     12  C   UNL     1       0.090  11.863  46.582  1.00  0.00     0.066 C 
BRANCH  12  13
ATOM     13  C   UNL     1       0.710  12.769  45.517  1.00  0.00     0.140 C 
ATOM     14  O   UNL     1       1.341  12.260  44.602  1.00  0.00    -0.299 OA
BRANCH  13  15
ATOM     15  C   UNL     1       0.569  14.283  45.522  1.00  0.00     0.106 CG0
ATOM     16  G   UNL     1       0.929  14.923  46.847  1.00  0.00     0.000 G0
ENDBRANCH  13  15
ENDBRANCH  12  13
BRANCH  12  17
ATOM     17  C   UNL     1      -1.310  11.341  46.132  1.00  0.00    -0.006 C 
ATOM     18  C   UNL     1      -1.969  10.346  47.105  1.00  0.00     0.008 C 
ATOM     19  C   UNL     1      -2.278  12.496  45.829  1.00  0.00     0.008 C 
ENDBRANCH  12  17
ENDBRANCH  11  12
ENDBRANCH   1  11
TORSDOF 1
ENDMDL
MODEL 8
REMARK VINA RESULT:    -3.281      1.606      3.738
REMARK INTER + INTRA:          -5.033
REMARK INTER:                  -6.522
REMARK INTRA:                   1.489
REMARK UNBOUND:                -0.025
REMARK SMILES CC1=CCC[C@@H](C)C(=O)C[C@H](C(C)C)C(=O)C1
REMARK SMILES IDX 8 1 9 2 6 3 7 4 5 5 4 6 3 7 2 8 1 9 10 11 11 12 15 13 16 14
REMARK SMILES IDX 17 15 12 17 13 18 14 19
REMARK H PARENT
REMARK Flexibility Score: 70.00
ROOT
ATOM      1  C   UNL     1       0.310  11.273  46.475  1.00  0.00     0.136 C 
ATOM      2  O   UNL     1       0.699  10.531  47.366  1.00  0.00    -0.299 OA
ENDROOT
BRANCH   1   3
ATOM      3  C   UNL     1      -1.158  11.677  46.481  1.00  0.00     0.053 C 
ATOM      4  C   UNL     1      -2.121  10.551  46.891  1.00  0.00     0.016 C 
BRANCH   3   5
ATOM      5  C   UNL     1      -1.509  12.468  45.182  1.00  0.00     0.015 C 
BRANCH   5   6
ATOM      6  C   UNL     1      -2.621  13.538  45.216  1.00  0.00     0.028 C 
BRANCH   6   7
ATOM      7  C   UNL     1      -2.270  14.910  45.750  1.00  0.00    -0.028 C 
ATOM      8  C   UNL     1      -1.030  15.438  45.882  1.00  0.00    -0.070 CG0
ATOM      9  C   UNL     1      -0.896  16.763  46.592  1.00  0.00     0.039 C 
ATOM     10  G   UNL     1       0.207  14.833  45.251  1.00  0.00     0.000 G0
ENDBRANCH   6   7
ENDBRANCH   5   6
ENDBRANCH   3   5
ENDBRANCH   1   3
BRANCH   1  11
ATOM     11  C   UNL     1       1.331  11.755  45.462  1.00  0.00     0.087 C 
BRANCH  11  12
ATOM     12  C   UNL     1       2.104  13.034  45.886  1.00  0.00     0.066 C 
BRANCH  12  13
ATOM     13  C   UNL     1       1.185  14.204  46.243  1.00  0.00     0.140 C 
ATOM     14  O   UNL     1       1.225  14.663  47.375  1.00  0.00    -0.299 OA
BRANCH  13  15
ATOM     15  C   UNL     1       0.228  14.848  45.251  1.00  0.00     0.106 CG0
ATOM     16  G   UNL     1      -1.021  15.417  45.892  1.00  0.00     0.000 G0
ENDBRANCH  13  15
ENDBRANCH  12  13
BRANCH  12  17
ATOM     17  C   UNL     1       3.168  12.794  47.001  1.00  0.00    -0.006 C 
ATOM     18  C   UNL     1       3.826  11.402  46.972  1.00  0.00     0.008 C 
ATOM     19  C   UNL     1       4.251  13.884  46.999  1.00  0.00     0.008 C 
ENDBRANCH  12  17
ENDBRANCH  11  12
ENDBRANCH   1  11
TORSDOF 1
ENDMDL
MODEL 9
REMARK VINA RESULT:    -3.236      1.351      2.084
REMARK INTER + INTRA:          -4.964
REMARK INTER:                  -5.864
REMARK INTRA:                   0.900
REMARK UNBOUND:                -0.025
REMARK SMILES CC1=CCC[C@@H](C)C(=O)C[C@H](C(C)C)C(=O)C1
REMARK SMILES IDX 8 1 9 2 6 3 7 4 5 5 4 6 3 7 2 8 1 9 10 11 11 12 15 13 16 14
REMARK SMILES IDX 17 15 12 17 13 18 14 19
REMARK H PARENT
REMARK Flexibility Score: 70.00
ROOT
ATOM      1  C   UNL     1       1.321  14.583  46.569  1.00  0.00     0.136 C 
ATOM      2  O   UNL     1       0.984  14.698  47.740  1.00  0.00    -0.299 OA
ENDROOT
BRANCH   1   3
ATOM      3  C   UNL     1       0.280  14.886  45.501  1.00  0.00     0.053 C 
ATOM      4  C   UNL     1      -0.390  16.262  45.643  1.00  0.00     0.016 C 
BRANCH   3   5
ATOM      5  C   UNL     1      -0.664  13.659  45.300  1.00  0.00     0.015 C 
BRANCH   5   6
ATOM      6  C   UNL     1      -0.459  12.389  46.152  1.00  0.00     0.028 C 
BRANCH   6   7
ATOM      7  C   UNL     1       0.328  11.246  45.547  1.00  0.00    -0.028 C 
ATOM      8  C   UNL     1       1.503  10.744  45.993  1.00  0.00    -0.070 CG0
ATOM      9  C   UNL     1       2.200   9.710  45.143  1.00  0.00     0.039 C 
ATOM     10  G   UNL     1       2.090  11.071  47.351  1.00  0.00     0.000 G0
ENDBRANCH   6   7
ENDBRANCH   5   6
ENDBRANCH   3   5
ENDBRANCH   1   3
BRANCH   1  11
ATOM     11  C   UNL     1       2.756  14.183  46.285  1.00  0.00     0.087 C 
BRANCH  11  12
ATOM     12  C   UNL     1       3.444  13.396  47.434  1.00  0.00     0.066 C 
BRANCH  12  13
ATOM     13  C   UNL     1       3.386  11.879  47.246  1.00  0.00     0.140 C 
ATOM     14  O   UNL     1       4.422  11.270  47.025  1.00  0.00    -0.299 OA
BRANCH  13  15
ATOM     15  C   UNL     1       2.099  11.074  47.340  1.00  0.00     0.106 CG0
ATOM     16  G   UNL     1       1.493  10.735  45.993  1.00  0.00     0.000 G0
ENDBRANCH  13  15
ENDBRANCH  12  13
BRANCH  12  17
ATOM     17  C   UNL     1       4.898  13.869  47.747  1.00  0.00    -0.006 C 
ATOM     18  C   UNL     1       5.598  13.092  48.877  1.00  0.00     0.008 C 
ATOM     19  C   UNL     1       5.780  13.870  46.489  1.00  0.00     0.008 C 
ENDBRANCH  12  17
ENDBRANCH  11  12
ENDBRANCH   1  11
TORSDOF 1
ENDMDL
