MODEL 1
REMARK VINA RESULT:    -5.326      0.000      0.000
REMARK INTER + INTRA:         -11.517
REMARK INTER:                  -9.374
REMARK INTRA:                  -2.144
REMARK UNBOUND:                -2.144
REMARK SMILES CCCCCCC=CCCCCCCCC(=O)[O-]
REMARK SMILES IDX 10 1 11 2 12 3 13 4 14 5 15 6 16 7 17 8 18 9 9 10 8 11 7 12
REMARK SMILES IDX 6 13 5 14 4 15 3 16 2 17 1 18
REMARK H PARENT
REMARK Flexibility Score: inf
ROOT
ATOM      1  C   UNL     1     -44.685  12.769   0.626  1.00  0.00     0.004 C 
ENDROOT
BRANCH   1   2
ATOM      2  C   UNL     1     -44.824  13.327  -0.803  1.00  0.00     0.000 C 
BRANCH   2   3
ATOM      3  C   UNL     1     -43.809  14.437  -1.111  1.00  0.00     0.000 C 
BRANCH   3   4
ATOM      4  C   UNL     1     -42.830  13.997  -2.209  1.00  0.00     0.000 C 
BRANCH   4   5
ATOM      5  C   UNL     1     -41.361  14.122  -1.777  1.00  0.00     0.006 C 
BRANCH   5   6
ATOM      6  C   UNL     1     -40.495  12.958  -2.275  1.00  0.00     0.053 C 
BRANCH   6   7
ATOM      7  C   UNL     1     -39.550  13.426  -3.336  1.00  0.00     0.041 C 
ATOM      8  O   UNL     1     -39.549  14.632  -3.697  1.00  0.00    -0.550 OA
ATOM      9  O   UNL     1     -38.705  12.519  -3.963  1.00  0.00    -0.550 OA
ENDBRANCH   6   7
ENDBRANCH   5   6
ENDBRANCH   4   5
ENDBRANCH   3   4
ENDBRANCH   2   3
ENDBRANCH   1   2
BRANCH   1  10
ATOM     10  C   UNL     1     -44.007  11.390   0.704  1.00  0.00     0.027 C 
BRANCH  10  11
ATOM     11  C   UNL     1     -42.514  11.485   0.869  1.00  0.00    -0.031 C 
ATOM     12  C   UNL     1     -41.947  12.468   1.583  1.00  0.00    -0.031 C 
BRANCH  12  13
ATOM     13  C   UNL     1     -40.453  12.566   1.744  1.00  0.00     0.027 C 
BRANCH  13  14
ATOM     14  C   UNL     1     -40.016  13.905   2.357  1.00  0.00     0.004 C 
BRANCH  14  15
ATOM     15  C   UNL     1     -39.390  14.844   1.311  1.00  0.00     0.000 C 
BRANCH  15  16
ATOM     16  C   UNL     1     -38.411  14.106   0.375  1.00  0.00    -0.000 C 
BRANCH  16  17
ATOM     17  C   UNL     1     -37.627  15.043  -0.558  1.00  0.00    -0.003 C 
ATOM     18  C   UNL     1     -36.557  14.318  -1.373  1.00  0.00     0.004 C 
ENDBRANCH  16  17
ENDBRANCH  15  16
ENDBRANCH  14  15
ENDBRANCH  13  14
ENDBRANCH  12  13
ENDBRANCH  10  11
ENDBRANCH   1  10
TORSDOF 13
ENDMDL
MODEL 2
REMARK VINA RESULT:    -5.262      1.390      4.539
REMARK INTER + INTRA:         -11.404
REMARK INTER:                  -9.684
REMARK INTRA:                  -1.720
REMARK UNBOUND:                -2.144
REMARK SMILES CCCCCCC=CCCCCCCCC(=O)[O-]
REMARK SMILES IDX 10 1 11 2 12 3 13 4 14 5 15 6 16 7 17 8 18 9 9 10 8 11 7 12
REMARK SMILES IDX 6 13 5 14 4 15 3 16 2 17 1 18
REMARK H PARENT
REMARK Flexibility Score: inf
ROOT
ATOM      1  C   UNL     1     -40.003  13.664   2.317  1.00  0.00     0.004 C 
ENDROOT
BRANCH   1   2
ATOM      2  C   UNL     1     -39.490  14.583   1.193  1.00  0.00     0.000 C 
BRANCH   2   3
ATOM      3  C   UNL     1     -38.409  13.920   0.327  1.00  0.00     0.000 C 
BRANCH   3   4
ATOM      4  C   UNL     1     -37.971  14.851  -0.813  1.00  0.00     0.000 C 
BRANCH   4   5
ATOM      5  C   UNL     1     -36.540  14.565  -1.294  1.00  0.00     0.006 C 
BRANCH   5   6
ATOM      6  C   UNL     1     -36.504  13.749  -2.593  1.00  0.00     0.053 C 
BRANCH   6   7
ATOM      7  C   UNL     1     -36.414  14.658  -3.779  1.00  0.00     0.041 C 
ATOM      8  O   UNL     1     -36.555  14.197  -4.942  1.00  0.00    -0.550 OA
ATOM      9  O   UNL     1     -36.125  16.005  -3.601  1.00  0.00    -0.550 OA
ENDBRANCH   6   7
ENDBRANCH   5   6
ENDBRANCH   4   5
ENDBRANCH   3   4
ENDBRANCH   2   3
ENDBRANCH   1   2
BRANCH   1  10
ATOM     10  C   UNL     1     -40.808  12.449   1.823  1.00  0.00     0.027 C 
BRANCH  10  11
ATOM     11  C   UNL     1     -42.284  12.727   1.736  1.00  0.00    -0.031 C 
ATOM     12  C   UNL     1     -43.100  11.971   0.987  1.00  0.00    -0.031 C 
BRANCH  12  13
ATOM     13  C   UNL     1     -44.576  12.254   0.896  1.00  0.00     0.027 C 
BRANCH  13  14
ATOM     14  C   UNL     1     -44.900  13.360  -0.119  1.00  0.00     0.004 C 
BRANCH  14  15
ATOM     15  C   UNL     1     -44.134  13.176  -1.441  1.00  0.00     0.000 C 
BRANCH  15  16
ATOM     16  C   UNL     1     -43.443  14.477  -1.901  1.00  0.00    -0.000 C 
BRANCH  16  17
ATOM     17  C   UNL     1     -41.931  14.502  -1.621  1.00  0.00    -0.003 C 
ATOM     18  C   UNL     1     -41.231  13.198  -2.000  1.00  0.00     0.004 C 
ENDBRANCH  16  17
ENDBRANCH  15  16
ENDBRANCH  14  15
ENDBRANCH  13  14
ENDBRANCH  12  13
ENDBRANCH  10  11
ENDBRANCH   1  10
TORSDOF 13
ENDMDL
MODEL 3
REMARK VINA RESULT:    -5.162      2.282      4.321
REMARK INTER + INTRA:         -11.229
REMARK INTER:                  -9.623
REMARK INTRA:                  -1.606
REMARK UNBOUND:                -2.144
REMARK SMILES CCCCCCC=CCCCCCCCC(=O)[O-]
REMARK SMILES IDX 10 1 11 2 12 3 13 4 14 5 15 6 16 7 17 8 18 9 9 10 8 11 7 12
REMARK SMILES IDX 6 13 5 14 4 15 3 16 2 17 1 18
REMARK H PARENT
REMARK Flexibility Score: inf
ROOT
ATOM      1  C   UNL     1     -44.255  13.455  -1.508  1.00  0.00     0.004 C 
ENDROOT
BRANCH   1   2
ATOM      2  C   UNL     1     -45.122  13.641  -0.249  1.00  0.00     0.000 C 
BRANCH   2   3
ATOM      3  C   UNL     1     -44.773  12.646   0.868  1.00  0.00     0.000 C 
BRANCH   3   4
ATOM      4  C   UNL     1     -43.846  11.538   0.346  1.00  0.00     0.000 C 
BRANCH   4   5
ATOM      5  C   UNL     1     -42.488  11.515   1.065  1.00  0.00     0.006 C 
BRANCH   5   6
ATOM      6  C   UNL     1     -42.234  12.782   1.891  1.00  0.00     0.053 C 
BRANCH   6   7
ATOM      7  C   UNL     1     -40.767  12.968   2.125  1.00  0.00     0.041 C 
ATOM      8  O   UNL     1     -39.938  12.167   1.619  1.00  0.00    -0.550 OA
ATOM      9  O   UNL     1     -40.319  13.998   2.942  1.00  0.00    -0.550 OA
ENDBRANCH   6   7
ENDBRANCH   5   6
ENDBRANCH   4   5
ENDBRANCH   3   4
ENDBRANCH   2   3
ENDBRANCH   1   2
BRANCH   1  10
ATOM     10  C   UNL     1     -43.240  14.586  -1.751  1.00  0.00     0.027 C 
BRANCH  10  11
ATOM     11  C   UNL     1     -41.954  14.091  -2.356  1.00  0.00    -0.031 C 
ATOM     12  C   UNL     1     -41.174  13.203  -1.721  1.00  0.00    -0.031 C 
BRANCH  12  13
ATOM     13  C   UNL     1     -39.885  12.712  -2.325  1.00  0.00     0.027 C 
BRANCH  13  14
ATOM     14  C   UNL     1     -39.425  13.576  -3.508  1.00  0.00     0.004 C 
BRANCH  14  15
ATOM     15  C   UNL     1     -38.070  13.115  -4.072  1.00  0.00     0.000 C 
BRANCH  15  16
ATOM     16  C   UNL     1     -36.880  13.745  -3.319  1.00  0.00    -0.000 C 
BRANCH  16  17
ATOM     17  C   UNL     1     -37.199  15.118  -2.705  1.00  0.00    -0.003 C 
ATOM     18  C   UNL     1     -36.866  15.200  -1.216  1.00  0.00     0.004 C 
ENDBRANCH  16  17
ENDBRANCH  15  16
ENDBRANCH  14  15
ENDBRANCH  13  14
ENDBRANCH  12  13
ENDBRANCH  10  11
ENDBRANCH   1  10
TORSDOF 13
ENDMDL
MODEL 4
REMARK VINA RESULT:    -5.120      1.922      3.988
REMARK INTER + INTRA:         -11.155
REMARK INTER:                  -9.486
REMARK INTRA:                  -1.669
REMARK UNBOUND:                -2.144
REMARK SMILES CCCCCCC=CCCCCCCCC(=O)[O-]
REMARK SMILES IDX 10 1 11 2 12 3 13 4 14 5 15 6 16 7 17 8 18 9 9 10 8 11 7 12
REMARK SMILES IDX 6 13 5 14 4 15 3 16 2 17 1 18
REMARK H PARENT
REMARK Flexibility Score: inf
ROOT
ATOM      1  C   UNL     1     -44.635  13.567  -0.270  1.00  0.00     0.004 C 
ENDROOT
BRANCH   1   2
ATOM      2  C   UNL     1     -44.705  12.602   0.928  1.00  0.00     0.000 C 
BRANCH   2   3
ATOM      3  C   UNL     1     -43.487  11.671   1.015  1.00  0.00     0.000 C 
BRANCH   3   4
ATOM      4  C   UNL     1     -42.289  12.391   1.652  1.00  0.00     0.000 C 
BRANCH   4   5
ATOM      5  C   UNL     1     -40.955  12.024   0.984  1.00  0.00     0.006 C 
BRANCH   5   6
ATOM      6  C   UNL     1     -39.740  12.539   1.765  1.00  0.00     0.053 C 
BRANCH   6   7
ATOM      7  C   UNL     1     -39.154  13.740   1.091  1.00  0.00     0.041 C 
ATOM      8  O   UNL     1     -39.446  14.897   1.492  1.00  0.00    -0.550 OA
ATOM      9  O   UNL     1     -38.326  13.581  -0.013  1.00  0.00    -0.550 OA
ENDBRANCH   6   7
ENDBRANCH   5   6
ENDBRANCH   4   5
ENDBRANCH   3   4
ENDBRANCH   2   3
ENDBRANCH   1   2
BRANCH   1  10
ATOM     10  C   UNL     1     -44.156  12.917  -1.580  1.00  0.00     0.027 C 
BRANCH  10  11
ATOM     11  C   UNL     1     -42.935  13.589  -2.148  1.00  0.00    -0.031 C 
ATOM     12  C   UNL     1     -42.175  14.410  -1.408  1.00  0.00    -0.031 C 
BRANCH  12  13
ATOM     13  C   UNL     1     -40.957  15.086  -1.979  1.00  0.00     0.027 C 
BRANCH  13  14
ATOM     14  C   UNL     1     -40.249  14.224  -3.035  1.00  0.00     0.004 C 
BRANCH  14  15
ATOM     15  C   UNL     1     -39.723  15.063  -4.213  1.00  0.00     0.000 C 
BRANCH  15  16
ATOM     16  C   UNL     1     -38.380  14.532  -4.753  1.00  0.00    -0.000 C 
BRANCH  16  17
ATOM     17  C   UNL     1     -37.789  13.387  -3.915  1.00  0.00    -0.003 C 
ATOM     18  C   UNL     1     -36.555  13.805  -3.116  1.00  0.00     0.004 C 
ENDBRANCH  16  17
ENDBRANCH  15  16
ENDBRANCH  14  15
ENDBRANCH  13  14
ENDBRANCH  12  13
ENDBRANCH  10  11
ENDBRANCH   1  10
TORSDOF 13
ENDMDL
MODEL 5
REMARK VINA RESULT:    -5.110      2.159      4.757
REMARK INTER + INTRA:         -11.136
REMARK INTER:                  -9.583
REMARK INTRA:                  -1.554
REMARK UNBOUND:                -2.144
REMARK SMILES CCCCCCC=CCCCCCCCC(=O)[O-]
REMARK SMILES IDX 10 1 11 2 12 3 13 4 14 5 15 6 16 7 17 8 18 9 9 10 8 11 7 12
REMARK SMILES IDX 6 13 5 14 4 15 3 16 2 17 1 18
REMARK H PARENT
REMARK Flexibility Score: inf
ROOT
ATOM      1  C   UNL     1     -39.799  13.212   1.186  1.00  0.00     0.004 C 
ENDROOT
BRANCH   1   2
ATOM      2  C   UNL     1     -40.836  12.246   1.786  1.00  0.00     0.000 C 
BRANCH   2   3
ATOM      3  C   UNL     1     -42.266  12.806   1.747  1.00  0.00     0.000 C 
BRANCH   3   4
ATOM      4  C   UNL     1     -43.266  11.728   1.304  1.00  0.00     0.000 C 
BRANCH   4   5
ATOM      5  C   UNL     1     -44.384  12.289   0.411  1.00  0.00     0.006 C 
BRANCH   5   6
ATOM      6  C   UNL     1     -43.917  12.556  -1.025  1.00  0.00     0.053 C 
BRANCH   6   7
ATOM      7  C   UNL     1     -43.295  11.327  -1.610  1.00  0.00     0.041 C 
ATOM      8  O   UNL     1     -44.018  10.358  -1.962  1.00  0.00    -0.550 OA
ATOM      9  O   UNL     1     -41.913  11.232  -1.719  1.00  0.00    -0.550 OA
ENDBRANCH   6   7
ENDBRANCH   5   6
ENDBRANCH   4   5
ENDBRANCH   3   4
ENDBRANCH   2   3
ENDBRANCH   1   2
BRANCH   1  10
ATOM     10  C   UNL     1     -40.321  14.048   0.004  1.00  0.00     0.027 C 
BRANCH  10  11
ATOM     11  C   UNL     1     -39.253  14.909  -0.615  1.00  0.00    -0.031 C 
ATOM     12  C   UNL     1     -37.950  14.684  -0.389  1.00  0.00    -0.031 C 
BRANCH  12  13
ATOM     13  C   UNL     1     -36.882  15.549  -1.004  1.00  0.00     0.027 C 
BRANCH  13  14
ATOM     14  C   UNL     1     -36.692  15.268  -2.502  1.00  0.00     0.004 C 
BRANCH  14  15
ATOM     15  C   UNL     1     -36.505  13.769  -2.793  1.00  0.00     0.000 C 
BRANCH  15  16
ATOM     16  C   UNL     1     -37.246  13.326  -4.072  1.00  0.00    -0.000 C 
BRANCH  16  17
ATOM     17  C   UNL     1     -38.752  13.097  -3.862  1.00  0.00    -0.003 C 
ATOM     18  C   UNL     1     -39.603  14.296  -4.274  1.00  0.00     0.004 C 
ENDBRANCH  16  17
ENDBRANCH  15  16
ENDBRANCH  14  15
ENDBRANCH  13  14
ENDBRANCH  12  13
ENDBRANCH  10  11
ENDBRANCH   1  10
TORSDOF 13
ENDMDL
MODEL 6
REMARK VINA RESULT:    -5.078      2.416      4.080
REMARK INTER + INTRA:         -11.081
REMARK INTER:                  -8.938
REMARK INTRA:                  -2.143
REMARK UNBOUND:                -2.144
REMARK SMILES CCCCCCC=CCCCCCCCC(=O)[O-]
REMARK SMILES IDX 10 1 11 2 12 3 13 4 14 5 15 6 16 7 17 8 18 9 9 10 8 11 7 12
REMARK SMILES IDX 6 13 5 14 4 15 3 16 2 17 1 18
REMARK H PARENT
REMARK Flexibility Score: inf
ROOT
ATOM      1  C   UNL     1     -43.094  14.108  -1.967  1.00  0.00     0.004 C 
ENDROOT
BRANCH   1   2
ATOM      2  C   UNL     1     -44.353  13.450  -1.376  1.00  0.00     0.000 C 
BRANCH   2   3
ATOM      3  C   UNL     1     -44.067  12.084  -0.734  1.00  0.00     0.000 C 
BRANCH   3   4
ATOM      4  C   UNL     1     -44.355  12.115   0.774  1.00  0.00     0.000 C 
BRANCH   4   5
ATOM      5  C   UNL     1     -43.152  12.602   1.596  1.00  0.00     0.006 C 
BRANCH   5   6
ATOM      6  C   UNL     1     -41.870  11.815   1.294  1.00  0.00     0.053 C 
BRANCH   6   7
ATOM      7  C   UNL     1     -40.702  12.430   1.999  1.00  0.00     0.041 C 
ATOM      8  O   UNL     1     -39.528  12.093   1.691  1.00  0.00    -0.550 OA
ATOM      9  O   UNL     1     -40.910  13.337   3.029  1.00  0.00    -0.550 OA
ENDBRANCH   6   7
ENDBRANCH   5   6
ENDBRANCH   4   5
ENDBRANCH   3   4
ENDBRANCH   2   3
ENDBRANCH   1   2
BRANCH   1  10
ATOM     10  C   UNL     1     -41.922  13.138  -2.202  1.00  0.00     0.027 C 
BRANCH  10  11
ATOM     11  C   UNL     1     -40.641  13.611  -1.569  1.00  0.00    -0.031 C 
ATOM     12  C   UNL     1     -40.584  14.749  -0.862  1.00  0.00    -0.031 C 
BRANCH  12  13
ATOM     13  C   UNL     1     -39.301  15.224  -0.234  1.00  0.00     0.027 C 
BRANCH  13  14
ATOM     14  C   UNL     1     -38.104  14.336  -0.603  1.00  0.00     0.004 C 
BRANCH  14  15
ATOM     15  C   UNL     1     -36.908  15.157  -1.117  1.00  0.00     0.000 C 
BRANCH  15  16
ATOM     16  C   UNL     1     -36.743  15.052  -2.647  1.00  0.00    -0.000 C 
BRANCH  16  17
ATOM     17  C   UNL     1     -37.339  13.765  -3.243  1.00  0.00    -0.003 C 
ATOM     18  C   UNL     1     -38.250  14.027  -4.441  1.00  0.00     0.004 C 
ENDBRANCH  16  17
ENDBRANCH  15  16
ENDBRANCH  14  15
ENDBRANCH  13  14
ENDBRANCH  12  13
ENDBRANCH  10  11
ENDBRANCH   1  10
TORSDOF 13
ENDMDL
MODEL 7
REMARK VINA RESULT:    -5.031      1.865      3.732
REMARK INTER + INTRA:         -10.998
REMARK INTER:                  -9.015
REMARK INTRA:                  -1.983
REMARK UNBOUND:                -2.144
REMARK SMILES CCCCCCC=CCCCCCCCC(=O)[O-]
REMARK SMILES IDX 10 1 11 2 12 3 13 4 14 5 15 6 16 7 17 8 18 9 9 10 8 11 7 12
REMARK SMILES IDX 6 13 5 14 4 15 3 16 2 17 1 18
REMARK H PARENT
REMARK Flexibility Score: inf
ROOT
ATOM      1  C   UNL     1     -42.484  12.648   1.875  1.00  0.00     0.004 C 
ENDROOT
BRANCH   1   2
ATOM      2  C   UNL     1     -43.280  11.679   0.983  1.00  0.00     0.000 C 
BRANCH   2   3
ATOM      3  C   UNL     1     -44.729  12.133   0.754  1.00  0.00     0.000 C 
BRANCH   3   4
ATOM      4  C   UNL     1     -44.775  13.428  -0.071  1.00  0.00     0.000 C 
BRANCH   4   5
ATOM      5  C   UNL     1     -43.998  13.316  -1.392  1.00  0.00     0.006 C 
BRANCH   5   6
ATOM      6  C   UNL     1     -43.071  14.514  -1.637  1.00  0.00     0.053 C 
BRANCH   6   7
ATOM      7  C   UNL     1     -43.618  15.385  -2.724  1.00  0.00     0.041 C 
ATOM      8  O   UNL     1     -44.673  16.046  -2.536  1.00  0.00    -0.550 OA
ATOM      9  O   UNL     1     -42.990  15.426  -3.963  1.00  0.00    -0.550 OA
ENDBRANCH   6   7
ENDBRANCH   5   6
ENDBRANCH   4   5
ENDBRANCH   3   4
ENDBRANCH   2   3
ENDBRANCH   1   2
BRANCH   1  10
ATOM     10  C   UNL     1     -40.957  12.482   1.786  1.00  0.00     0.027 C 
BRANCH  10  11
ATOM     11  C   UNL     1     -40.325  13.441   0.814  1.00  0.00    -0.031 C 
ATOM     12  C   UNL     1     -39.128  13.997   1.051  1.00  0.00    -0.031 C 
BRANCH  12  13
ATOM     13  C   UNL     1     -38.499  14.961   0.080  1.00  0.00     0.027 C 
BRANCH  13  14
ATOM     14  C   UNL     1     -39.479  15.416  -1.012  1.00  0.00     0.004 C 
BRANCH  14  15
ATOM     15  C   UNL     1     -38.914  15.199  -2.426  1.00  0.00     0.000 C 
BRANCH  15  16
ATOM     16  C   UNL     1     -39.803  14.263  -3.272  1.00  0.00    -0.000 C 
BRANCH  16  17
ATOM     17  C   UNL     1     -39.435  12.776  -3.135  1.00  0.00    -0.003 C 
ATOM     18  C   UNL     1     -40.453  11.981  -2.319  1.00  0.00     0.004 C 
ENDBRANCH  16  17
ENDBRANCH  15  16
ENDBRANCH  14  15
ENDBRANCH  13  14
ENDBRANCH  12  13
ENDBRANCH  10  11
ENDBRANCH   1  10
TORSDOF 13
ENDMDL
MODEL 8
REMARK VINA RESULT:    -5.025      2.485      4.551
REMARK INTER + INTRA:         -10.987
REMARK INTER:                  -8.872
REMARK INTRA:                  -2.115
REMARK UNBOUND:                -2.144
REMARK SMILES CCCCCCC=CCCCCCCCC(=O)[O-]
REMARK SMILES IDX 10 1 11 2 12 3 13 4 14 5 15 6 16 7 17 8 18 9 9 10 8 11 7 12
REMARK SMILES IDX 6 13 5 14 4 15 3 16 2 17 1 18
REMARK H PARENT
REMARK Flexibility Score: inf
ROOT
ATOM      1  C   UNL     1     -44.374  13.263  -1.469  1.00  0.00     0.004 C 
ENDROOT
BRANCH   1   2
ATOM      2  C   UNL     1     -45.190  13.540  -0.193  1.00  0.00     0.000 C 
BRANCH   2   3
ATOM      3  C   UNL     1     -44.858  12.569   0.949  1.00  0.00     0.000 C 
BRANCH   3   4
ATOM      4  C   UNL     1     -43.889  11.475   0.476  1.00  0.00     0.000 C 
BRANCH   4   5
ATOM      5  C   UNL     1     -42.551  11.503   1.231  1.00  0.00     0.006 C 
BRANCH   5   6
ATOM      6  C   UNL     1     -42.280  12.854   1.905  1.00  0.00     0.053 C 
BRANCH   6   7
ATOM      7  C   UNL     1     -40.848  12.949   2.330  1.00  0.00     0.041 C 
ATOM      8  O   UNL     1     -40.486  13.835   3.147  1.00  0.00    -0.550 OA
ATOM      9  O   UNL     1     -39.903  12.089   1.783  1.00  0.00    -0.550 OA
ENDBRANCH   6   7
ENDBRANCH   5   6
ENDBRANCH   4   5
ENDBRANCH   3   4
ENDBRANCH   2   3
ENDBRANCH   1   2
BRANCH   1  10
ATOM     10  C   UNL     1     -43.461  14.423  -1.902  1.00  0.00     0.027 C 
BRANCH  10  11
ATOM     11  C   UNL     1     -42.005  14.144  -1.641  1.00  0.00    -0.031 C 
ATOM     12  C   UNL     1     -41.461  12.945  -1.898  1.00  0.00    -0.031 C 
BRANCH  12  13
ATOM     13  C   UNL     1     -40.006  12.665  -1.632  1.00  0.00     0.027 C 
BRANCH  13  14
ATOM     14  C   UNL     1     -39.075  13.585  -2.436  1.00  0.00     0.004 C 
BRANCH  14  15
ATOM     15  C   UNL     1     -39.040  13.214  -3.929  1.00  0.00     0.000 C 
BRANCH  15  16
ATOM     16  C   UNL     1     -39.132  14.455  -4.841  1.00  0.00    -0.000 C 
BRANCH  16  17
ATOM     17  C   UNL     1     -40.471  15.201  -4.731  1.00  0.00    -0.003 C 
ATOM     18  C   UNL     1     -40.322  16.620  -4.185  1.00  0.00     0.004 C 
ENDBRANCH  16  17
ENDBRANCH  15  16
ENDBRANCH  14  15
ENDBRANCH  13  14
ENDBRANCH  12  13
ENDBRANCH  10  11
ENDBRANCH   1  10
TORSDOF 13
ENDMDL
MODEL 9
REMARK VINA RESULT:    -5.019      2.062      4.535
REMARK INTER + INTRA:         -10.976
REMARK INTER:                  -9.373
REMARK INTRA:                  -1.604
REMARK UNBOUND:                -2.144
REMARK SMILES CCCCCCC=CCCCCCCCC(=O)[O-]
REMARK SMILES IDX 10 1 11 2 12 3 13 4 14 5 15 6 16 7 17 8 18 9 9 10 8 11 7 12
REMARK SMILES IDX 6 13 5 14 4 15 3 16 2 17 1 18
REMARK H PARENT
REMARK Flexibility Score: inf
ROOT
ATOM      1  C   UNL     1     -43.102  14.322  -2.259  1.00  0.00     0.004 C 
ENDROOT
BRANCH   1   2
ATOM      2  C   UNL     1     -43.715  13.111  -1.534  1.00  0.00     0.000 C 
BRANCH   2   3
ATOM      3  C   UNL     1     -44.652  13.515  -0.386  1.00  0.00     0.000 C 
BRANCH   3   4
ATOM      4  C   UNL     1     -44.638  12.461   0.731  1.00  0.00     0.000 C 
BRANCH   4   5
ATOM      5  C   UNL     1     -43.287  11.737   0.845  1.00  0.00     0.006 C 
BRANCH   5   6
ATOM      6  C   UNL     1     -42.274  12.506   1.703  1.00  0.00     0.053 C 
BRANCH   6   7
ATOM      7  C   UNL     1     -40.897  12.372   1.133  1.00  0.00     0.041 C 
ATOM      8  O   UNL     1     -40.724  11.802   0.023  1.00  0.00    -0.550 OA
ATOM      9  O   UNL     1     -39.800  12.831   1.851  1.00  0.00    -0.550 OA
ENDBRANCH   6   7
ENDBRANCH   5   6
ENDBRANCH   4   5
ENDBRANCH   3   4
ENDBRANCH   2   3
ENDBRANCH   1   2
BRANCH   1  10
ATOM     10  C   UNL     1     -41.731  14.760  -1.714  1.00  0.00     0.027 C 
BRANCH  10  11
ATOM     11  C   UNL     1     -40.749  15.087  -2.807  1.00  0.00    -0.031 C 
ATOM     12  C   UNL     1     -40.075  14.127  -3.458  1.00  0.00    -0.031 C 
BRANCH  12  13
ATOM     13  C   UNL     1     -39.089  14.455  -4.547  1.00  0.00     0.027 C 
BRANCH  13  14
ATOM     14  C   UNL     1     -37.782  13.660  -4.414  1.00  0.00     0.004 C 
BRANCH  14  15
ATOM     15  C   UNL     1     -37.177  13.770  -3.004  1.00  0.00     0.000 C 
BRANCH  15  16
ATOM     16  C   UNL     1     -36.674  15.195  -2.694  1.00  0.00    -0.000 C 
BRANCH  16  17
ATOM     17  C   UNL     1     -36.764  15.569  -1.205  1.00  0.00    -0.003 C 
ATOM     18  C   UNL     1     -37.869  14.816  -0.466  1.00  0.00     0.004 C 
ENDBRANCH  16  17
ENDBRANCH  15  16
ENDBRANCH  14  15
ENDBRANCH  13  14
ENDBRANCH  12  13
ENDBRANCH  10  11
ENDBRANCH   1  10
TORSDOF 13
ENDMDL
