MODEL 1
REMARK VINA RESULT:    71.665      0.000      0.000
REMARK INTER + INTRA:          91.741
REMARK INTER:                  90.519
REMARK INTRA:                   1.222
REMARK UNBOUND:                 1.222
REMARK SMILES CC(C)[C@H](C)C=C[C@@H](C)[C@@H]1CC[C@@H]2C3=CC=C4C[C@@H](O)CC[C@]4(C)[C@H]3CC[C@]21C
REMARK SMILES IDX 8 1 9 2 7 3 6 4 4 5 5 6 2 7 1 8 3 9 10 10 11 11 28 12 12 13
REMARK SMILES IDX 13 14 27 15 29 16 14 17 26 18 25 19 15 20 23 21 16 22 17 23
REMARK SMILES IDX 22 24 24 25 18 26 21 27 19 28 20 29
REMARK H PARENT 20 30
REMARK Flexibility Score: inf
ROOT
ATOM      1  C   UNL     1      -1.510  -3.882  19.672  1.00  0.00     0.012 C 
ATOM      2  C   UNL     1       0.022  -3.866  19.616  1.00  0.00     0.012 C 
ENDROOT
BRANCH   1   3
ATOM      3  C   UNL     1      -2.031  -5.150  19.012  1.00  0.00    -0.028 C 
ATOM      4  C   UNL     1      -1.378  -5.902  18.101  1.00  0.00    -0.028 C 
BRANCH   4   5
ATOM      5  C   UNL     1       0.008  -5.632  17.536  1.00  0.00     0.011 C 
ATOM      6  C   UNL     1       1.068  -6.114  18.538  1.00  0.00     0.012 C 
BRANCH   5   7
ATOM      7  C   UNL     1       0.213  -6.276  16.131  1.00  0.00    -0.011 C 
ATOM      8  C   UNL     1      -1.127  -6.623  15.468  1.00  0.00     0.008 C 
ATOM      9  C   UNL     1       1.125  -7.517  16.151  1.00  0.00     0.008 C 
ENDBRANCH   5   7
ENDBRANCH   4   5
ENDBRANCH   1   3
BRANCH   1  10
ATOM     10  C   UNL     1      -2.144  -2.545  19.152  1.00  0.00     0.002 C 
ATOM     11  C   UNL     1      -1.796  -1.305  20.016  1.00  0.00     0.005 C 
ATOM     12  C   UNL     1      -3.681  -2.431  18.909  1.00  0.00    -0.023 C 
ATOM     13  C   UNL     1      -2.948  -0.305  19.844  1.00  0.00     0.009 C 
ATOM     14  C   UNL     1      -3.807  -0.906  18.738  1.00  0.00     0.021 C 
ATOM     15  C   UNL     1      -4.208  -3.129  17.608  1.00  0.00     0.008 C 
ATOM     16  C   UNL     1      -4.487  -2.938  20.145  1.00  0.00     0.012 C 
ATOM     17  C   UNL     1      -5.250  -0.492  18.586  1.00  0.00    -0.063 C 
ATOM     18  C   UNL     1      -5.245  -2.295  16.800  1.00  0.00     0.009 C 
ATOM     19  C   UNL     1      -6.121  -1.344  17.671  1.00  0.00     0.025 C 
ATOM     20  C   UNL     1      -5.764   0.600  19.166  1.00  0.00    -0.000 C 
ATOM     21  C   UNL     1      -7.131  -0.452  16.853  1.00  0.00    -0.005 C 
ATOM     22  C   UNL     1      -7.136   1.035  18.860  1.00  0.00    -0.000 C 
ATOM     23  C   UNL     1      -7.820   0.522  17.820  1.00  0.00    -0.061 C 
ATOM     24  C   UNL     1      -8.191  -1.374  16.177  1.00  0.00     0.014 C 
ATOM     25  C   UNL     1      -6.396   0.383  15.774  1.00  0.00     0.017 C 
ATOM     26  C   UNL     1      -9.151   1.142  17.455  1.00  0.00     0.063 C 
ATOM     27  C   UNL     1      -9.426  -0.616  15.675  1.00  0.00     0.033 C 
ATOM     28  C   UNL     1     -10.108   0.120  16.829  1.00  0.00     0.118 C 
BRANCH  28  29
ATOM     29  O   UNL     1     -11.251   0.774  16.343  1.00  0.00    -0.393 OA
ATOM     30  H   UNL     1     -11.923   0.760  17.075  1.00  0.00     0.210 HD
ENDBRANCH  28  29
ENDBRANCH   1  10
TORSDOF 5
ENDMDL
MODEL 2
REMARK VINA RESULT:    72.950     12.600     14.058
REMARK INTER + INTRA:          93.363
REMARK INTER:                  94.080
REMARK INTRA:                  -0.717
REMARK UNBOUND:                 1.222
REMARK SMILES CC(C)[C@H](C)C=C[C@@H](C)[C@@H]1CC[C@@H]2C3=CC=C4C[C@@H](O)CC[C@]4(C)[C@H]3CC[C@]21C
REMARK SMILES IDX 8 1 9 2 7 3 6 4 4 5 5 6 2 7 1 8 3 9 10 10 11 11 28 12 12 13
REMARK SMILES IDX 13 14 27 15 29 16 14 17 26 18 25 19 15 20 23 21 16 22 17 23
REMARK SMILES IDX 22 24 24 25 18 26 21 27 19 28 20 29
REMARK H PARENT 20 30
REMARK Flexibility Score: inf
ROOT
ATOM      1  C   UNL     1     -10.879 -15.419  21.081  1.00  0.00     0.012 C 
ATOM      2  C   UNL     1     -11.683 -15.975  19.901  1.00  0.00     0.012 C 
ENDROOT
BRANCH   1   3
ATOM      3  C   UNL     1     -10.137 -16.554  21.772  1.00  0.00    -0.028 C 
ATOM      4  C   UNL     1     -10.092 -16.786  23.101  1.00  0.00    -0.028 C 
BRANCH   4   5
ATOM      5  C   UNL     1     -10.761 -15.953  24.184  1.00  0.00     0.011 C 
ATOM      6  C   UNL     1     -11.447 -16.889  25.193  1.00  0.00     0.012 C 
BRANCH   5   7
ATOM      7  C   UNL     1      -9.765 -14.984  24.890  1.00  0.00    -0.011 C 
ATOM      8  C   UNL     1      -8.387 -15.633  25.085  1.00  0.00     0.008 C 
ATOM      9  C   UNL     1     -10.283 -14.440  26.234  1.00  0.00     0.008 C 
ENDBRANCH   5   7
ENDBRANCH   4   5
ENDBRANCH   1   3
BRANCH   1  10
ATOM     10  C   UNL     1     -11.743 -14.511  22.023  1.00  0.00     0.002 C 
ATOM     11  C   UNL     1     -13.236 -14.923  22.099  1.00  0.00     0.005 C 
ATOM     12  C   UNL     1     -11.775 -12.963  21.831  1.00  0.00    -0.023 C 
ATOM     13  C   UNL     1     -14.031 -13.653  22.435  1.00  0.00     0.009 C 
ATOM     14  C   UNL     1     -12.964 -12.610  22.744  1.00  0.00     0.021 C 
ATOM     15  C   UNL     1     -10.505 -12.197  22.338  1.00  0.00     0.008 C 
ATOM     16  C   UNL     1     -12.062 -12.585  20.344  1.00  0.00     0.012 C 
ATOM     17  C   UNL     1     -13.293 -11.139  22.666  1.00  0.00    -0.063 C 
ATOM     18  C   UNL     1     -10.809 -10.888  23.124  1.00  0.00     0.009 C 
ATOM     19  C   UNL     1     -12.120 -10.167  22.685  1.00  0.00     0.025 C 
ATOM     20  C   UNL     1     -14.547 -10.670  22.638  1.00  0.00    -0.000 C 
ATOM     21  C   UNL     1     -12.466  -8.874  23.517  1.00  0.00    -0.005 C 
ATOM     22  C   UNL     1     -14.806  -9.223  22.716  1.00  0.00    -0.000 C 
ATOM     23  C   UNL     1     -13.840  -8.354  23.069  1.00  0.00    -0.061 C 
ATOM     24  C   UNL     1     -11.374  -7.792  23.255  1.00  0.00     0.014 C 
ATOM     25  C   UNL     1     -12.543  -9.185  25.034  1.00  0.00     0.017 C 
ATOM     26  C   UNL     1     -14.220  -6.909  23.303  1.00  0.00     0.063 C 
ATOM     27  C   UNL     1     -11.790  -6.385  23.698  1.00  0.00     0.033 C 
ATOM     28  C   UNL     1     -13.067  -5.952  22.976  1.00  0.00     0.118 C 
BRANCH  28  29
ATOM     29  O   UNL     1     -13.400  -4.649  23.379  1.00  0.00    -0.393 OA
ATOM     30  H   UNL     1     -12.720  -4.043  22.983  1.00  0.00     0.210 HD
ENDBRANCH  28  29
ENDBRANCH   1  10
TORSDOF 5
ENDMDL
