MODEL 1
REMARK VINA RESULT:    -5.498      0.000      0.000
REMARK INTER + INTRA:          -6.722
REMARK INTER:                  -6.623
REMARK INTRA:                  -0.100
REMARK UNBOUND:                -0.100
REMARK SMILES COC(=O)c1cc(O)c(O)c(O)c1
REMARK SMILES IDX 5 1 13 2 11 3 9 4 7 5 6 6 3 7 4 8 2 9 1 10 12 11 8 13 10 15
REMARK H PARENT 12 12 8 14 10 16
REMARK Flexibility Score: inf
ROOT
ATOM      1  C   UNL     1      40.419  16.673  51.825  1.00  0.00     0.067 A 
ATOM      2  C   UNL     1      41.452  16.010  51.140  1.00  0.00     0.066 A 
ATOM      3  C   UNL     1      41.551  14.614  51.177  1.00  0.00     0.162 A 
ATOM      4  C   UNL     1      40.611  13.862  51.903  1.00  0.00     0.200 A 
ATOM      5  C   UNL     1      39.576  14.519  52.590  1.00  0.00     0.162 A 
ATOM      6  C   UNL     1      39.484  15.915  52.548  1.00  0.00     0.066 A 
ENDROOT
BRANCH   1   7
ATOM      7  C   UNL     1      40.313  18.150  51.788  1.00  0.00     0.338 C 
ATOM      8  O   UNL     1      41.340  18.863  51.961  1.00  0.00    -0.246 OA
BRANCH   7   9
ATOM      9  O   UNL     1      39.073  18.755  51.559  1.00  0.00    -0.465 OA
ATOM     10  C   UNL     1      38.346  19.426  52.580  1.00  0.00     0.282 C 
ENDBRANCH   7   9
ENDBRANCH   1   7
BRANCH   3  11
ATOM     11  O   UNL     1      42.581  13.967  50.494  1.00  0.00    -0.504 OA
ATOM     12  H   UNL     1      42.655  12.957  50.478  1.00  0.00     0.293 HD
ENDBRANCH   3  11
BRANCH   5  13
ATOM     13  O   UNL     1      38.627  13.803  53.319  1.00  0.00    -0.504 OA
ATOM     14  H   UNL     1      38.858  13.333  54.186  1.00  0.00     0.293 HD
ENDBRANCH   5  13
BRANCH   4  15
ATOM     15  O   UNL     1      40.695  12.470  51.951  1.00  0.00    -0.502 OA
ATOM     16  H   UNL     1      41.070  11.979  52.753  1.00  0.00     0.293 HD
ENDBRANCH   4  15
TORSDOF 5
ENDMDL
MODEL 2
REMARK VINA RESULT:    -5.450      0.557      2.375
REMARK INTER + INTRA:          -6.664
REMARK INTER:                  -6.557
REMARK INTRA:                  -0.107
REMARK UNBOUND:                -0.100
REMARK SMILES COC(=O)c1cc(O)c(O)c(O)c1
REMARK SMILES IDX 5 1 13 2 11 3 9 4 7 5 6 6 3 7 4 8 2 9 1 10 12 11 8 13 10 15
REMARK H PARENT 12 12 8 14 10 16
REMARK Flexibility Score: inf
ROOT
ATOM      1  C   UNL     1      40.362  16.924  51.920  1.00  0.00     0.067 A 
ATOM      2  C   UNL     1      39.586  15.952  52.575  1.00  0.00     0.066 A 
ATOM      3  C   UNL     1      39.864  14.588  52.411  1.00  0.00     0.162 A 
ATOM      4  C   UNL     1      40.927  14.183  51.586  1.00  0.00     0.200 A 
ATOM      5  C   UNL     1      41.705  15.150  50.929  1.00  0.00     0.162 A 
ATOM      6  C   UNL     1      41.422  16.511  51.098  1.00  0.00     0.066 A 
ENDROOT
BRANCH   1   7
ATOM      7  C   UNL     1      40.069  18.366  52.092  1.00  0.00     0.338 C 
ATOM      8  O   UNL     1      40.952  19.140  52.554  1.00  0.00    -0.246 OA
BRANCH   7   9
ATOM      9  O   UNL     1      38.812  18.869  51.740  1.00  0.00    -0.465 OA
ATOM     10  C   UNL     1      37.987  19.581  52.655  1.00  0.00     0.282 C 
ENDBRANCH   7   9
ENDBRANCH   1   7
BRANCH   3  11
ATOM     11  O   UNL     1      39.087  13.633  53.066  1.00  0.00    -0.504 OA
ATOM     12  H   UNL     1      39.280  13.356  54.021  1.00  0.00     0.293 HD
ENDBRANCH   3  11
BRANCH   5  13
ATOM     13  O   UNL     1      42.768  14.781  50.103  1.00  0.00    -0.504 OA
ATOM     14  H   UNL     1      43.152  15.409  49.408  1.00  0.00     0.293 HD
ENDBRANCH   5  13
BRANCH   4  15
ATOM     15  O   UNL     1      41.217  12.829  51.411  1.00  0.00    -0.502 OA
ATOM     16  H   UNL     1      41.839  12.326  52.032  1.00  0.00     0.293 HD
ENDBRANCH   4  15
TORSDOF 5
ENDMDL
MODEL 3
REMARK VINA RESULT:    -5.271     14.820     15.861
REMARK INTER + INTRA:          -6.449
REMARK INTER:                  -6.330
REMARK INTRA:                  -0.119
REMARK UNBOUND:                -0.100
REMARK SMILES COC(=O)c1cc(O)c(O)c(O)c1
REMARK SMILES IDX 5 1 13 2 11 3 9 4 7 5 6 6 3 7 4 8 2 9 1 10 12 11 8 13 10 15
REMARK H PARENT 12 12 8 14 10 16
REMARK Flexibility Score: inf
ROOT
ATOM      1  C   UNL     1      51.301  18.811  61.746  1.00  0.00     0.067 A 
ATOM      2  C   UNL     1      50.207  18.078  62.236  1.00  0.00     0.066 A 
ATOM      3  C   UNL     1      49.395  18.601  63.251  1.00  0.00     0.162 A 
ATOM      4  C   UNL     1      49.672  19.870  63.788  1.00  0.00     0.200 A 
ATOM      5  C   UNL     1      50.765  20.608  63.301  1.00  0.00     0.162 A 
ATOM      6  C   UNL     1      51.571  20.079  62.287  1.00  0.00     0.066 A 
ENDROOT
BRANCH   1   7
ATOM      7  C   UNL     1      52.161  18.260  60.673  1.00  0.00     0.338 C 
ATOM      8  O   UNL     1      52.798  19.037  59.910  1.00  0.00    -0.246 OA
BRANCH   7   9
ATOM      9  O   UNL     1      52.268  16.875  60.508  1.00  0.00    -0.465 OA
ATOM     10  C   UNL     1      53.287  16.103  61.131  1.00  0.00     0.282 C 
ENDBRANCH   7   9
ENDBRANCH   1   7
BRANCH   3  11
ATOM     11  O   UNL     1      48.312  17.864  63.730  1.00  0.00    -0.504 OA
ATOM     12  H   UNL     1      48.028  17.909  64.701  1.00  0.00     0.293 HD
ENDBRANCH   3  11
BRANCH   5  13
ATOM     13  O   UNL     1      51.066  21.870  63.812  1.00  0.00    -0.504 OA
ATOM     14  H   UNL     1      51.298  22.652  63.212  1.00  0.00     0.293 HD
ENDBRANCH   5  13
BRANCH   4  15
ATOM     15  O   UNL     1      48.874  20.406  64.799  1.00  0.00    -0.502 OA
ATOM     16  H   UNL     1      48.001  20.880  64.603  1.00  0.00     0.293 HD
ENDBRANCH   4  15
TORSDOF 5
ENDMDL
MODEL 4
REMARK VINA RESULT:    -5.267     14.799     15.761
REMARK INTER + INTRA:          -6.444
REMARK INTER:                  -6.325
REMARK INTRA:                  -0.119
REMARK UNBOUND:                -0.100
REMARK SMILES COC(=O)c1cc(O)c(O)c(O)c1
REMARK SMILES IDX 5 1 13 2 11 3 9 4 7 5 6 6 3 7 4 8 2 9 1 10 12 11 8 13 10 15
REMARK H PARENT 12 12 8 14 10 16
REMARK Flexibility Score: inf
ROOT
ATOM      1  C   UNL     1      51.258  18.834  61.750  1.00  0.00     0.067 A 
ATOM      2  C   UNL     1      51.555  20.095  62.295  1.00  0.00     0.066 A 
ATOM      3  C   UNL     1      50.756  20.640  63.309  1.00  0.00     0.162 A 
ATOM      4  C   UNL     1      49.646  19.924  63.790  1.00  0.00     0.200 A 
ATOM      5  C   UNL     1      49.345  18.663  63.248  1.00  0.00     0.162 A 
ATOM      6  C   UNL     1      50.147  18.125  62.236  1.00  0.00     0.066 A 
ENDROOT
BRANCH   1   7
ATOM      7  C   UNL     1      52.101  18.257  60.677  1.00  0.00     0.338 C 
ATOM      8  O   UNL     1      52.724  19.015  59.885  1.00  0.00    -0.246 OA
BRANCH   7   9
ATOM      9  O   UNL     1      52.206  16.868  60.545  1.00  0.00    -0.465 OA
ATOM     10  C   UNL     1      53.238  16.113  61.168  1.00  0.00     0.282 C 
ENDBRANCH   7   9
ENDBRANCH   1   7
BRANCH   3  11
ATOM     11  O   UNL     1      51.061  21.892  63.842  1.00  0.00    -0.504 OA
ATOM     12  H   UNL     1      51.096  22.722  63.261  1.00  0.00     0.293 HD
ENDBRANCH   3  11
BRANCH   5  13
ATOM     13  O   UNL     1      48.251  17.926  63.703  1.00  0.00    -0.504 OA
ATOM     14  H   UNL     1      47.675  18.239  64.476  1.00  0.00     0.293 HD
ENDBRANCH   5  13
BRANCH   4  15
ATOM     15  O   UNL     1      48.840  20.452  64.799  1.00  0.00    -0.502 OA
ATOM     16  H   UNL     1      49.192  21.115  65.478  1.00  0.00     0.293 HD
ENDBRANCH   4  15
TORSDOF 5
ENDMDL
MODEL 5
REMARK VINA RESULT:    -5.019     13.818     14.944
REMARK INTER + INTRA:          -6.145
REMARK INTER:                  -6.046
REMARK INTRA:                  -0.099
REMARK UNBOUND:                -0.100
REMARK SMILES COC(=O)c1cc(O)c(O)c(O)c1
REMARK SMILES IDX 5 1 13 2 11 3 9 4 7 5 6 6 3 7 4 8 2 9 1 10 12 11 8 13 10 15
REMARK H PARENT 12 12 8 14 10 16
REMARK Flexibility Score: inf
ROOT
ATOM      1  C   UNL     1      53.435  21.132  57.582  1.00  0.00     0.067 A 
ATOM      2  C   UNL     1      53.874  19.827  57.300  1.00  0.00     0.066 A 
ATOM      3  C   UNL     1      53.675  19.265  56.032  1.00  0.00     0.162 A 
ATOM      4  C   UNL     1      53.030  20.009  55.029  1.00  0.00     0.200 A 
ATOM      5  C   UNL     1      52.589  21.314  55.305  1.00  0.00     0.162 A 
ATOM      6  C   UNL     1      52.792  21.868  56.573  1.00  0.00     0.066 A 
ENDROOT
BRANCH   1   7
ATOM      7  C   UNL     1      53.644  21.727  58.922  1.00  0.00     0.338 C 
ATOM      8  O   UNL     1      54.446  22.691  59.068  1.00  0.00    -0.246 OA
BRANCH   7   9
ATOM      9  O   UNL     1      52.950  21.221  60.026  1.00  0.00    -0.465 OA
ATOM     10  C   UNL     1      51.926  21.950  60.690  1.00  0.00     0.282 C 
ENDBRANCH   7   9
ENDBRANCH   1   7
BRANCH   3  11
ATOM     11  O   UNL     1      54.115  17.969  55.765  1.00  0.00    -0.504 OA
ATOM     12  H   UNL     1      53.470  17.189  55.719  1.00  0.00     0.293 HD
ENDBRANCH   3  11
BRANCH   5  13
ATOM     13  O   UNL     1      51.946  22.078  54.330  1.00  0.00    -0.504 OA
ATOM     14  H   UNL     1      52.314  22.172  53.391  1.00  0.00     0.293 HD
ENDBRANCH   5  13
BRANCH   4  15
ATOM     15  O   UNL     1      52.824  19.464  53.761  1.00  0.00    -0.502 OA
ATOM     16  H   UNL     1      52.600  20.038  52.957  1.00  0.00     0.293 HD
ENDBRANCH   4  15
TORSDOF 5
ENDMDL
MODEL 6
REMARK VINA RESULT:    -4.990     14.632     16.009
REMARK INTER + INTRA:          -6.111
REMARK INTER:                  -6.018
REMARK INTRA:                  -0.093
REMARK UNBOUND:                -0.100
REMARK SMILES COC(=O)c1cc(O)c(O)c(O)c1
REMARK SMILES IDX 5 1 13 2 11 3 9 4 7 5 6 6 3 7 4 8 2 9 1 10 12 11 8 13 10 15
REMARK H PARENT 12 12 8 14 10 16
REMARK Flexibility Score: inf
ROOT
ATOM      1  C   UNL     1      53.644  19.879  58.158  1.00  0.00     0.067 A 
ATOM      2  C   UNL     1      53.979  21.198  57.808  1.00  0.00     0.066 A 
ATOM      3  C   UNL     1      53.729  22.256  58.691  1.00  0.00     0.162 A 
ATOM      4  C   UNL     1      53.136  22.003  59.941  1.00  0.00     0.200 A 
ATOM      5  C   UNL     1      52.799  20.686  60.296  1.00  0.00     0.162 A 
ATOM      6  C   UNL     1      53.053  19.634  59.409  1.00  0.00     0.066 A 
ENDROOT
BRANCH   1   7
ATOM      7  C   UNL     1      53.907  18.759  57.226  1.00  0.00     0.338 C 
ATOM      8  O   UNL     1      54.087  17.592  57.672  1.00  0.00    -0.246 OA
BRANCH   7   9
ATOM      9  O   UNL     1      53.956  18.995  55.848  1.00  0.00    -0.465 OA
ATOM     10  C   UNL     1      53.559  18.024  54.888  1.00  0.00     0.282 C 
ENDBRANCH   7   9
ENDBRANCH   1   7
BRANCH   3  11
ATOM     11  O   UNL     1      54.065  23.561  58.333  1.00  0.00    -0.504 OA
ATOM     12  H   UNL     1      53.826  23.940  57.424  1.00  0.00     0.293 HD
ENDBRANCH   3  11
BRANCH   5  13
ATOM     13  O   UNL     1      52.211  20.401  61.529  1.00  0.00    -0.504 OA
ATOM     14  H   UNL     1      51.597  21.056  61.996  1.00  0.00     0.293 HD
ENDBRANCH   5  13
BRANCH   4  15
ATOM     15  O   UNL     1      52.880  23.045  60.832  1.00  0.00    -0.502 OA
ATOM     16  H   UNL     1      52.008  23.560  60.824  1.00  0.00     0.293 HD
ENDBRANCH   4  15
TORSDOF 5
ENDMDL
MODEL 7
REMARK VINA RESULT:    -4.955     14.606     16.099
REMARK INTER + INTRA:          -6.069
REMARK INTER:                  -5.973
REMARK INTRA:                  -0.096
REMARK UNBOUND:                -0.100
REMARK SMILES COC(=O)c1cc(O)c(O)c(O)c1
REMARK SMILES IDX 5 1 13 2 11 3 9 4 7 5 6 6 3 7 4 8 2 9 1 10 12 11 8 13 10 15
REMARK H PARENT 12 12 8 14 10 16
REMARK Flexibility Score: inf
ROOT
ATOM      1  C   UNL     1      53.584  19.821  58.256  1.00  0.00     0.067 A 
ATOM      2  C   UNL     1      52.989  19.579  59.505  1.00  0.00     0.066 A 
ATOM      3  C   UNL     1      52.715  20.637  60.383  1.00  0.00     0.162 A 
ATOM      4  C   UNL     1      53.039  21.955  60.016  1.00  0.00     0.200 A 
ATOM      5  C   UNL     1      53.635  22.203  58.768  1.00  0.00     0.162 A 
ATOM      6  C   UNL     1      53.904  21.141  57.896  1.00  0.00     0.066 A 
ENDROOT
BRANCH   1   7
ATOM      7  C   UNL     1      53.874  18.704  57.327  1.00  0.00     0.338 C 
ATOM      8  O   UNL     1      54.022  17.533  57.773  1.00  0.00    -0.246 OA
BRANCH   7   9
ATOM      9  O   UNL     1      53.982  18.949  55.954  1.00  0.00    -0.465 OA
ATOM     10  C   UNL     1      53.526  18.027  54.972  1.00  0.00     0.282 C 
ENDBRANCH   7   9
ENDBRANCH   1   7
BRANCH   3  11
ATOM     11  O   UNL     1      52.124  20.384  61.620  1.00  0.00    -0.504 OA
ATOM     12  H   UNL     1      52.590  20.620  62.489  1.00  0.00     0.293 HD
ENDBRANCH   3  11
BRANCH   5  13
ATOM     13  O   UNL     1      53.967  23.499  58.373  1.00  0.00    -0.504 OA
ATOM     14  H   UNL     1      53.933  24.282  59.014  1.00  0.00     0.293 HD
ENDBRANCH   5  13
BRANCH   4  15
ATOM     15  O   UNL     1      52.774  23.020  60.877  1.00  0.00    -0.502 OA
ATOM     16  H   UNL     1      53.495  23.665  61.174  1.00  0.00     0.293 HD
ENDBRANCH   4  15
TORSDOF 5
ENDMDL
MODEL 8
REMARK VINA RESULT:    -4.872     13.687     14.756
REMARK INTER + INTRA:          -5.968
REMARK INTER:                  -5.872
REMARK INTRA:                  -0.096
REMARK UNBOUND:                -0.100
REMARK SMILES COC(=O)c1cc(O)c(O)c(O)c1
REMARK SMILES IDX 5 1 13 2 11 3 9 4 7 5 6 6 3 7 4 8 2 9 1 10 12 11 8 13 10 15
REMARK H PARENT 12 12 8 14 10 16
REMARK Flexibility Score: inf
ROOT
ATOM      1  C   UNL     1      53.104  19.973  57.586  1.00  0.00     0.067 A 
ATOM      2  C   UNL     1      52.569  20.978  56.763  1.00  0.00     0.066 A 
ATOM      3  C   UNL     1      52.582  20.842  55.369  1.00  0.00     0.162 A 
ATOM      4  C   UNL     1      53.135  19.690  54.782  1.00  0.00     0.200 A 
ATOM      5  C   UNL     1      53.671  18.681  55.600  1.00  0.00     0.162 A 
ATOM      6  C   UNL     1      53.653  18.825  56.992  1.00  0.00     0.066 A 
ENDROOT
BRANCH   1   7
ATOM      7  C   UNL     1      53.091  20.115  59.060  1.00  0.00     0.338 C 
ATOM      8  O   UNL     1      52.802  21.226  59.586  1.00  0.00    -0.246 OA
BRANCH   7   9
ATOM      9  O   UNL     1      53.398  19.017  59.870  1.00  0.00    -0.465 OA
ATOM     10  C   UNL     1      52.990  18.928  61.230  1.00  0.00     0.282 C 
ENDBRANCH   7   9
ENDBRANCH   1   7
BRANCH   3  11
ATOM     11  O   UNL     1      52.049  21.846  54.562  1.00  0.00    -0.504 OA
ATOM     12  H   UNL     1      51.892  22.783  54.916  1.00  0.00     0.293 HD
ENDBRANCH   3  11
BRANCH   5  13
ATOM     13  O   UNL     1      54.226  17.526  55.049  1.00  0.00    -0.504 OA
ATOM     14  H   UNL     1      54.686  16.826  55.618  1.00  0.00     0.293 HD
ENDBRANCH   5  13
BRANCH   4  15
ATOM     15  O   UNL     1      53.157  19.538  53.395  1.00  0.00    -0.502 OA
ATOM     16  H   UNL     1      52.394  19.848  52.806  1.00  0.00     0.293 HD
ENDBRANCH   4  15
TORSDOF 5
ENDMDL
MODEL 9
REMARK VINA RESULT:    -4.806     13.614     14.946
REMARK INTER + INTRA:          -5.889
REMARK INTER:                  -5.773
REMARK INTRA:                  -0.116
REMARK UNBOUND:                -0.100
REMARK SMILES COC(=O)c1cc(O)c(O)c(O)c1
REMARK SMILES IDX 5 1 13 2 11 3 9 4 7 5 6 6 3 7 4 8 2 9 1 10 12 11 8 13 10 15
REMARK H PARENT 12 12 8 14 10 16
REMARK Flexibility Score: inf
ROOT
ATOM      1  C   UNL     1      53.303  19.496  57.385  1.00  0.00     0.067 A 
ATOM      2  C   UNL     1      52.817  20.767  57.734  1.00  0.00     0.066 A 
ATOM      3  C   UNL     1      52.367  21.655  56.748  1.00  0.00     0.162 A 
ATOM      4  C   UNL     1      52.401  21.276  55.394  1.00  0.00     0.200 A 
ATOM      5  C   UNL     1      52.886  20.006  55.039  1.00  0.00     0.162 A 
ATOM      6  C   UNL     1      53.333  19.125  56.030  1.00  0.00     0.066 A 
ENDROOT
BRANCH   1   7
ATOM      7  C   UNL     1      53.779  18.556  58.426  1.00  0.00     0.338 C 
ATOM      8  O   UNL     1      54.156  17.395  58.106  1.00  0.00    -0.246 OA
BRANCH   7   9
ATOM      9  O   UNL     1      53.812  18.958  59.766  1.00  0.00    -0.465 OA
ATOM     10  C   UNL     1      53.006  18.351  60.768  1.00  0.00     0.282 C 
ENDBRANCH   7   9
ENDBRANCH   1   7
BRANCH   3  11
ATOM     11  O   UNL     1      51.888  22.914  57.106  1.00  0.00    -0.504 OA
ATOM     12  H   UNL     1      52.434  23.754  56.953  1.00  0.00     0.293 HD
ENDBRANCH   3  11
BRANCH   5  13
ATOM     13  O   UNL     1      52.932  19.599  53.705  1.00  0.00    -0.504 OA
ATOM     14  H   UNL     1      52.861  18.625  53.438  1.00  0.00     0.293 HD
ENDBRANCH   5  13
BRANCH   4  15
ATOM     15  O   UNL     1      51.958  22.148  54.399  1.00  0.00    -0.502 OA
ATOM     16  H   UNL     1      51.154  21.941  53.820  1.00  0.00     0.293 HD
ENDBRANCH   4  15
TORSDOF 5
ENDMDL
