MODEL 1
REMARK VINA RESULT:    -3.620      0.000      0.000
REMARK INTER + INTRA:          -6.376
REMARK INTER:                  -5.736
REMARK INTRA:                  -0.640
REMARK UNBOUND:                -0.640
REMARK SMILES CCCCCCCCCCCC(=O)[O-]
REMARK SMILES IDX 7 1 8 2 9 3 10 4 11 5 12 6 13 7 14 8 6 9 5 10 4 11 3 12 2 13
REMARK SMILES IDX 1 14
REMARK H PARENT
REMARK Flexibility Score: inf
ROOT
ATOM      1  C   UNL     1      61.196  45.302  17.604  1.00  0.00     0.000 C 
ENDROOT
BRANCH   1   2
ATOM      2  C   UNL     1      59.730  44.838  17.642  1.00  0.00     0.000 C 
BRANCH   2   3
ATOM      3  C   UNL     1      58.751  45.942  17.210  1.00  0.00     0.000 C 
BRANCH   3   4
ATOM      4  C   UNL     1      57.817  45.494  16.071  1.00  0.00     0.006 C 
BRANCH   4   5
ATOM      5  C   UNL     1      57.928  43.989  15.792  1.00  0.00     0.053 C 
BRANCH   5   6
ATOM      6  C   UNL     1      56.751  43.236  16.333  1.00  0.00     0.041 C 
ATOM      7  O   UNL     1      55.580  43.605  16.054  1.00  0.00    -0.550 OA
ATOM      8  O   UNL     1      56.948  42.147  17.174  1.00  0.00    -0.550 OA
ENDBRANCH   5   6
ENDBRANCH   4   5
ENDBRANCH   3   4
ENDBRANCH   2   3
ENDBRANCH   1   2
BRANCH   1   9
ATOM      9  C   UNL     1      62.100  44.345  16.809  1.00  0.00     0.000 C 
BRANCH   9  10
ATOM     10  C   UNL     1      63.491  44.941  16.530  1.00  0.00    -0.000 C 
BRANCH  10  11
ATOM     11  C   UNL     1      64.129  44.376  15.249  1.00  0.00    -0.000 C 
BRANCH  11  12
ATOM     12  C   UNL     1      63.639  42.954  14.922  1.00  0.00    -0.000 C 
BRANCH  12  13
ATOM     13  C   UNL     1      64.599  41.869  15.435  1.00  0.00    -0.003 C 
ATOM     14  C   UNL     1      63.939  40.915  16.430  1.00  0.00     0.004 C 
ENDBRANCH  12  13
ENDBRANCH  11  12
ENDBRANCH  10  11
ENDBRANCH   9  10
ENDBRANCH   1   9
TORSDOF 10
ENDMDL
MODEL 2
REMARK VINA RESULT:    -3.596      9.328     10.626
REMARK INTER + INTRA:          -6.338
REMARK INTER:                  -4.928
REMARK INTRA:                  -1.410
REMARK UNBOUND:                -0.640
REMARK SMILES CCCCCCCCCCCC(=O)[O-]
REMARK SMILES IDX 7 1 8 2 9 3 10 4 11 5 12 6 13 7 14 8 6 9 5 10 4 11 3 12 2 13
REMARK SMILES IDX 1 14
REMARK H PARENT
REMARK Flexibility Score: inf
ROOT
ATOM      1  C   UNL     1      57.598  33.787  11.854  1.00  0.00     0.000 C 
ENDROOT
BRANCH   1   2
ATOM      2  C   UNL     1      56.516  33.088  12.694  1.00  0.00     0.000 C 
BRANCH   2   3
ATOM      3  C   UNL     1      56.203  33.841  13.998  1.00  0.00     0.000 C 
BRANCH   3   4
ATOM      4  C   UNL     1      56.719  35.291  13.985  1.00  0.00     0.006 C 
BRANCH   4   5
ATOM      5  C   UNL     1      55.614  36.300  14.324  1.00  0.00     0.053 C 
BRANCH   5   6
ATOM      6  C   UNL     1      54.759  36.608  13.134  1.00  0.00     0.041 C 
ATOM      7  O   UNL     1      53.541  36.892  13.285  1.00  0.00    -0.550 OA
ATOM      8  O   UNL     1      55.297  36.547  11.854  1.00  0.00    -0.550 OA
ENDBRANCH   5   6
ENDBRANCH   4   5
ENDBRANCH   3   4
ENDBRANCH   2   3
ENDBRANCH   1   2
BRANCH   1   9
ATOM      9  C   UNL     1      58.630  32.802  11.281  1.00  0.00     0.000 C 
BRANCH   9  10
ATOM     10  C   UNL     1      60.006  32.925  11.962  1.00  0.00    -0.000 C 
BRANCH  10  11
ATOM     11  C   UNL     1      60.295  34.353  12.454  1.00  0.00    -0.000 C 
BRANCH  11  12
ATOM     12  C   UNL     1      60.803  34.387  13.906  1.00  0.00    -0.000 C 
BRANCH  12  13
ATOM     13  C   UNL     1      59.918  33.567  14.858  1.00  0.00    -0.003 C 
ATOM     14  C   UNL     1      59.572  34.320  16.143  1.00  0.00     0.004 C 
ENDBRANCH  12  13
ENDBRANCH  11  12
ENDBRANCH  10  11
ENDBRANCH   9  10
ENDBRANCH   1   9
TORSDOF 10
ENDMDL
MODEL 3
REMARK VINA RESULT:    -3.563      1.962      3.994
REMARK INTER + INTRA:          -6.285
REMARK INTER:                  -5.076
REMARK INTRA:                  -1.210
REMARK UNBOUND:                -0.640
REMARK SMILES CCCCCCCCCCCC(=O)[O-]
REMARK SMILES IDX 7 1 8 2 9 3 10 4 11 5 12 6 13 7 14 8 6 9 5 10 4 11 3 12 2 13
REMARK SMILES IDX 1 14
REMARK H PARENT
REMARK Flexibility Score: inf
ROOT
ATOM      1  C   UNL     1      63.595  43.665  14.872  1.00  0.00     0.000 C 
ENDROOT
BRANCH   1   2
ATOM      2  C   UNL     1      64.249  44.453  16.020  1.00  0.00     0.000 C 
BRANCH   2   3
ATOM      3  C   UNL     1      63.234  45.291  16.815  1.00  0.00     0.000 C 
BRANCH   3   4
ATOM      4  C   UNL     1      61.878  44.582  16.978  1.00  0.00     0.006 C 
BRANCH   4   5
ATOM      5  C   UNL     1      60.927  45.360  17.897  1.00  0.00     0.053 C 
BRANCH   5   6
ATOM      6  C   UNL     1      59.511  44.896  17.753  1.00  0.00     0.041 C 
ATOM      7  O   UNL     1      59.016  44.101  18.595  1.00  0.00    -0.550 OA
ATOM      8  O   UNL     1      58.747  45.313  16.669  1.00  0.00    -0.550 OA
ENDBRANCH   5   6
ENDBRANCH   4   5
ENDBRANCH   3   4
ENDBRANCH   2   3
ENDBRANCH   1   2
BRANCH   1   9
ATOM      9  C   UNL     1      63.862  42.154  14.965  1.00  0.00     0.000 C 
BRANCH   9  10
ATOM     10  C   UNL     1      64.578  41.760  16.270  1.00  0.00    -0.000 C 
BRANCH  10  11
ATOM     11  C   UNL     1      64.092  40.410  16.825  1.00  0.00    -0.000 C 
BRANCH  11  12
ATOM     12  C   UNL     1      63.575  40.516  18.269  1.00  0.00    -0.000 C 
BRANCH  12  13
ATOM     13  C   UNL     1      63.683  41.943  18.830  1.00  0.00    -0.003 C 
ATOM     14  C   UNL     1      62.576  42.272  19.832  1.00  0.00     0.004 C 
ENDBRANCH  12  13
ENDBRANCH  11  12
ENDBRANCH  10  11
ENDBRANCH   9  10
ENDBRANCH   1   9
TORSDOF 10
ENDMDL
MODEL 4
REMARK VINA RESULT:    -3.536      9.337     10.859
REMARK INTER + INTRA:          -6.243
REMARK INTER:                  -4.977
REMARK INTRA:                  -1.267
REMARK UNBOUND:                -0.640
REMARK SMILES CCCCCCCCCCCC(=O)[O-]
REMARK SMILES IDX 7 1 8 2 9 3 10 4 11 5 12 6 13 7 14 8 6 9 5 10 4 11 3 12 2 13
REMARK SMILES IDX 1 14
REMARK H PARENT
REMARK Flexibility Score: inf
ROOT
ATOM      1  C   UNL     1      56.574  33.259  13.655  1.00  0.00     0.000 C 
ENDROOT
BRANCH   1   2
ATOM      2  C   UNL     1      56.913  34.759  13.670  1.00  0.00     0.000 C 
BRANCH   2   3
ATOM      3  C   UNL     1      56.846  35.393  12.271  1.00  0.00     0.000 C 
BRANCH   3   4
ATOM      4  C   UNL     1      55.801  36.519  12.179  1.00  0.00     0.006 C 
BRANCH   4   5
ATOM      5  C   UNL     1      54.430  36.078  12.710  1.00  0.00     0.053 C 
BRANCH   5   6
ATOM      6  C   UNL     1      53.925  36.999  13.777  1.00  0.00     0.041 C 
ATOM      7  O   UNL     1      52.815  37.579  13.640  1.00  0.00    -0.550 OA
ATOM      8  O   UNL     1      54.695  37.246  14.907  1.00  0.00    -0.550 OA
ENDBRANCH   5   6
ENDBRANCH   4   5
ENDBRANCH   3   4
ENDBRANCH   2   3
ENDBRANCH   1   2
BRANCH   1   9
ATOM      9  C   UNL     1      56.445  32.696  12.230  1.00  0.00     0.000 C 
BRANCH   9  10
ATOM     10  C   UNL     1      57.606  31.757  11.858  1.00  0.00    -0.000 C 
BRANCH  10  11
ATOM     11  C   UNL     1      58.741  32.486  11.117  1.00  0.00    -0.000 C 
BRANCH  11  12
ATOM     12  C   UNL     1      60.000  32.657  11.984  1.00  0.00    -0.000 C 
BRANCH  12  13
ATOM     13  C   UNL     1      60.324  34.132  12.268  1.00  0.00    -0.003 C 
ATOM     14  C   UNL     1      60.754  34.378  13.714  1.00  0.00     0.004 C 
ENDBRANCH  12  13
ENDBRANCH  11  12
ENDBRANCH  10  11
ENDBRANCH   9  10
ENDBRANCH   1   9
TORSDOF 10
ENDMDL
MODEL 5
REMARK VINA RESULT:    -3.518      1.342      2.165
REMARK INTER + INTRA:          -6.215
REMARK INTER:                  -5.346
REMARK INTRA:                  -0.869
REMARK UNBOUND:                -0.640
REMARK SMILES CCCCCCCCCCCC(=O)[O-]
REMARK SMILES IDX 7 1 8 2 9 3 10 4 11 5 12 6 13 7 14 8 6 9 5 10 4 11 3 12 2 13
REMARK SMILES IDX 1 14
REMARK H PARENT
REMARK Flexibility Score: inf
ROOT
ATOM      1  C   UNL     1      62.984  45.009  17.303  1.00  0.00     0.000 C 
ENDROOT
BRANCH   1   2
ATOM      2  C   UNL     1      61.549  44.502  17.079  1.00  0.00     0.000 C 
BRANCH   2   3
ATOM      3  C   UNL     1      60.494  45.415  17.725  1.00  0.00     0.000 C 
BRANCH   3   4
ATOM      4  C   UNL     1      59.057  44.909  17.507  1.00  0.00     0.006 C 
BRANCH   4   5
ATOM      5  C   UNL     1      58.213  45.901  16.694  1.00  0.00     0.053 C 
BRANCH   5   6
ATOM      6  C   UNL     1      57.613  45.258  15.483  1.00  0.00     0.041 C 
ATOM      7  O   UNL     1      57.065  45.964  14.596  1.00  0.00    -0.550 OA
ATOM      8  O   UNL     1      57.626  43.875  15.349  1.00  0.00    -0.550 OA
ENDBRANCH   5   6
ENDBRANCH   4   5
ENDBRANCH   3   4
ENDBRANCH   2   3
ENDBRANCH   1   2
BRANCH   1   9
ATOM      9  C   UNL     1      63.922  44.662  16.135  1.00  0.00     0.000 C 
BRANCH   9  10
ATOM     10  C   UNL     1      63.364  43.539  15.242  1.00  0.00    -0.000 C 
BRANCH  10  11
ATOM     11  C   UNL     1      64.355  42.376  15.068  1.00  0.00    -0.000 C 
BRANCH  11  12
ATOM     12  C   UNL     1      63.966  41.139  15.896  1.00  0.00    -0.000 C 
BRANCH  12  13
ATOM     13  C   UNL     1      64.631  41.125  17.281  1.00  0.00    -0.003 C 
ATOM     14  C   UNL     1      63.669  41.507  18.405  1.00  0.00     0.004 C 
ENDBRANCH  12  13
ENDBRANCH  11  12
ENDBRANCH  10  11
ENDBRANCH   9  10
ENDBRANCH   1   9
TORSDOF 10
ENDMDL
MODEL 6
REMARK VINA RESULT:    -3.471     10.134     11.565
REMARK INTER + INTRA:          -6.140
REMARK INTER:                  -4.834
REMARK INTRA:                  -1.306
REMARK UNBOUND:                -0.640
REMARK SMILES CCCCCCCCCCCC(=O)[O-]
REMARK SMILES IDX 7 1 8 2 9 3 10 4 11 5 12 6 13 7 14 8 6 9 5 10 4 11 3 12 2 13
REMARK SMILES IDX 1 14
REMARK H PARENT
REMARK Flexibility Score: inf
ROOT
ATOM      1  C   UNL     1      49.748  48.888  13.712  1.00  0.00     0.000 C 
ENDROOT
BRANCH   1   2
ATOM      2  C   UNL     1      50.727  48.858  14.898  1.00  0.00     0.000 C 
BRANCH   2   3
ATOM      3  C   UNL     1      51.601  47.593  14.910  1.00  0.00     0.000 C 
BRANCH   3   4
ATOM      4  C   UNL     1      51.012  46.457  14.055  1.00  0.00     0.006 C 
BRANCH   4   5
ATOM      5  C   UNL     1      50.713  45.203  14.888  1.00  0.00     0.053 C 
BRANCH   5   6
ATOM      6  C   UNL     1      49.241  44.982  15.052  1.00  0.00     0.041 C 
ATOM      7  O   UNL     1      48.752  43.832  14.895  1.00  0.00    -0.550 OA
ATOM      8  O   UNL     1      48.404  46.052  15.343  1.00  0.00    -0.550 OA
ENDBRANCH   5   6
ENDBRANCH   4   5
ENDBRANCH   3   4
ENDBRANCH   2   3
ENDBRANCH   1   2
BRANCH   1   9
ATOM      9  C   UNL     1      49.416  50.319  13.256  1.00  0.00     0.000 C 
BRANCH   9  10
ATOM     10  C   UNL     1      50.389  50.838  12.182  1.00  0.00    -0.000 C 
BRANCH  10  11
ATOM     11  C   UNL     1      50.824  49.738  11.198  1.00  0.00    -0.000 C 
BRANCH  11  12
ATOM     12  C   UNL     1      52.336  49.759  10.917  1.00  0.00    -0.000 C 
BRANCH  12  13
ATOM     13  C   UNL     1      53.161  49.216  12.095  1.00  0.00    -0.003 C 
ATOM     14  C   UNL     1      53.976  50.301  12.799  1.00  0.00     0.004 C 
ENDBRANCH  12  13
ENDBRANCH  11  12
ENDBRANCH  10  11
ENDBRANCH   9  10
ENDBRANCH   1   9
TORSDOF 10
ENDMDL
MODEL 7
REMARK VINA RESULT:    -3.435     10.560     13.125
REMARK INTER + INTRA:          -6.083
REMARK INTER:                  -5.542
REMARK INTRA:                  -0.540
REMARK UNBOUND:                -0.640
REMARK SMILES CCCCCCCCCCCC(=O)[O-]
REMARK SMILES IDX 7 1 8 2 9 3 10 4 11 5 12 6 13 7 14 8 6 9 5 10 4 11 3 12 2 13
REMARK SMILES IDX 1 14
REMARK H PARENT
REMARK Flexibility Score: inf
ROOT
ATOM      1  C   UNL     1      50.264  44.836  15.378  1.00  0.00     0.000 C 
ENDROOT
BRANCH   1   2
ATOM      2  C   UNL     1      50.525  45.715  14.143  1.00  0.00     0.000 C 
BRANCH   2   3
ATOM      3  C   UNL     1      51.693  46.694  14.351  1.00  0.00     0.000 C 
BRANCH   3   4
ATOM      4  C   UNL     1      51.567  47.961  13.487  1.00  0.00     0.006 C 
BRANCH   4   5
ATOM      5  C   UNL     1      50.159  48.568  13.555  1.00  0.00     0.053 C 
BRANCH   5   6
ATOM      6  C   UNL     1      50.089  49.890  12.855  1.00  0.00     0.041 C 
ATOM      7  O   UNL     1      49.770  50.928  13.492  1.00  0.00    -0.550 OA
ATOM      8  O   UNL     1      50.341  49.970  11.491  1.00  0.00    -0.550 OA
ENDBRANCH   5   6
ENDBRANCH   4   5
ENDBRANCH   3   4
ENDBRANCH   2   3
ENDBRANCH   1   2
BRANCH   1   9
ATOM      9  C   UNL     1      49.009  43.960  15.225  1.00  0.00     0.000 C 
BRANCH   9  10
ATOM     10  C   UNL     1      47.711  44.787  15.207  1.00  0.00    -0.000 C 
BRANCH  10  11
ATOM     11  C   UNL     1      46.470  43.931  14.901  1.00  0.00    -0.000 C 
BRANCH  11  12
ATOM     12  C   UNL     1      46.833  42.530  14.380  1.00  0.00    -0.000 C 
BRANCH  12  13
ATOM     13  C   UNL     1      45.994  41.422  15.037  1.00  0.00    -0.003 C 
ATOM     14  C   UNL     1      46.783  40.611  16.065  1.00  0.00     0.004 C 
ENDBRANCH  12  13
ENDBRANCH  11  12
ENDBRANCH  10  11
ENDBRANCH   9  10
ENDBRANCH   1   9
TORSDOF 10
ENDMDL
MODEL 8
REMARK VINA RESULT:    -3.417     11.070     12.301
REMARK INTER + INTRA:          -6.054
REMARK INTER:                  -5.369
REMARK INTRA:                  -0.685
REMARK UNBOUND:                -0.640
REMARK SMILES CCCCCCCCCCCC(=O)[O-]
REMARK SMILES IDX 7 1 8 2 9 3 10 4 11 5 12 6 13 7 14 8 6 9 5 10 4 11 3 12 2 13
REMARK SMILES IDX 1 14
REMARK H PARENT
REMARK Flexibility Score: inf
ROOT
ATOM      1  C   UNL     1      49.870  48.060  14.215  1.00  0.00     0.000 C 
ENDROOT
BRANCH   1   2
ATOM      2  C   UNL     1      50.995  47.085  13.829  1.00  0.00     0.000 C 
BRANCH   2   3
ATOM      3  C   UNL     1      50.674  45.631  14.213  1.00  0.00     0.000 C 
BRANCH   3   4
ATOM      4  C   UNL     1      49.476  45.521  15.172  1.00  0.00     0.006 C 
BRANCH   4   5
ATOM      5  C   UNL     1      48.707  44.206  14.987  1.00  0.00     0.053 C 
BRANCH   5   6
ATOM      6  C   UNL     1      47.245  44.373  15.266  1.00  0.00     0.041 C 
ATOM      7  O   UNL     1      46.858  45.172  16.159  1.00  0.00    -0.550 OA
ATOM      8  O   UNL     1      46.312  43.619  14.566  1.00  0.00    -0.550 OA
ENDBRANCH   5   6
ENDBRANCH   4   5
ENDBRANCH   3   4
ENDBRANCH   2   3
ENDBRANCH   1   2
BRANCH   1   9
ATOM      9  C   UNL     1      49.858  49.325  13.341  1.00  0.00     0.000 C 
BRANCH   9  10
ATOM     10  C   UNL     1      51.094  50.213  13.571  1.00  0.00    -0.000 C 
BRANCH  10  11
ATOM     11  C   UNL     1      51.698  50.736  12.257  1.00  0.00    -0.000 C 
BRANCH  11  12
ATOM     12  C   UNL     1      52.147  49.602  11.320  1.00  0.00    -0.000 C 
BRANCH  12  13
ATOM     13  C   UNL     1      51.452  49.660   9.951  1.00  0.00    -0.003 C 
ATOM     14  C   UNL     1      50.999  51.070   9.574  1.00  0.00     0.004 C 
ENDBRANCH  12  13
ENDBRANCH  11  12
ENDBRANCH  10  11
ENDBRANCH   9  10
ENDBRANCH   1   9
TORSDOF 10
ENDMDL
MODEL 9
REMARK VINA RESULT:    -3.395     10.639     12.842
REMARK INTER + INTRA:          -6.019
REMARK INTER:                  -5.380
REMARK INTRA:                  -0.639
REMARK UNBOUND:                -0.640
REMARK SMILES CCCCCCCCCCCC(=O)[O-]
REMARK SMILES IDX 7 1 8 2 9 3 10 4 11 5 12 6 13 7 14 8 6 9 5 10 4 11 3 12 2 13
REMARK SMILES IDX 1 14
REMARK H PARENT
REMARK Flexibility Score: inf
ROOT
ATOM      1  C   UNL     1      50.402  45.522  14.415  1.00  0.00     0.000 C 
ENDROOT
BRANCH   1   2
ATOM      2  C   UNL     1      51.271  46.586  13.724  1.00  0.00     0.000 C 
BRANCH   2   3
ATOM      3  C   UNL     1      51.016  48.001  14.269  1.00  0.00     0.000 C 
BRANCH   3   4
ATOM      4  C   UNL     1      50.387  48.936  13.221  1.00  0.00     0.006 C 
BRANCH   4   5
ATOM      5  C   UNL     1      51.362  49.266  12.082  1.00  0.00     0.053 C 
BRANCH   5   6
ATOM      6  C   UNL     1      52.631  49.872  12.596  1.00  0.00     0.041 C 
ATOM      7  O   UNL     1      52.619  51.013  13.127  1.00  0.00    -0.550 OA
ATOM      8  O   UNL     1      53.834  49.191  12.456  1.00  0.00    -0.550 OA
ENDBRANCH   5   6
ENDBRANCH   4   5
ENDBRANCH   3   4
ENDBRANCH   2   3
ENDBRANCH   1   2
BRANCH   1   9
ATOM      9  C   UNL     1      49.190  46.129  15.142  1.00  0.00     0.000 C 
BRANCH   9  10
ATOM     10  C   UNL     1      48.241  45.056  15.707  1.00  0.00    -0.000 C 
BRANCH  10  11
ATOM     11  C   UNL     1      48.534  43.655  15.145  1.00  0.00    -0.000 C 
BRANCH  11  12
ATOM     12  C   UNL     1      47.284  42.985  14.547  1.00  0.00    -0.000 C 
BRANCH  12  13
ATOM     13  C   UNL     1      45.978  43.602  15.071  1.00  0.00    -0.003 C 
ATOM     14  C   UNL     1      44.958  42.551  15.509  1.00  0.00     0.004 C 
ENDBRANCH  12  13
ENDBRANCH  11  12
ENDBRANCH  10  11
ENDBRANCH   9  10
ENDBRANCH   1   9
TORSDOF 10
ENDMDL
