MODEL 1
REMARK VINA RESULT:    15.121      0.000      0.000
REMARK INTER + INTRA:          39.205
REMARK INTER:                  39.873
REMARK INTRA:                  -0.668
REMARK UNBOUND:                -0.668
REMARK SMILES CCCCCCCCCCCCCCCCCCCCCCCCCCCCCC(=O)[O-]
REMARK SMILES IDX 16 1 17 2 18 3 19 4 20 5 21 6 22 7 23 8 24 9 25 10 26 11
REMARK SMILES IDX 27 12 28 13 29 14 30 15 31 16 32 17 15 18 14 19 13 20 12 21
REMARK SMILES IDX 11 22 10 23 9 24 8 25 7 26 6 27 5 28 4 29 3 30 2 31 1 32
REMARK H PARENT
REMARK Flexibility Score: inf
ROOT
ATOM      1  C   UNL     1      -5.686  37.034  23.440  1.00  0.00     0.000 C 
ENDROOT
BRANCH   1   2
ATOM      2  C   UNL     1      -5.041  38.342  23.932  1.00  0.00     0.000 C 
BRANCH   2   3
ATOM      3  C   UNL     1      -4.973  39.412  22.830  1.00  0.00     0.000 C 
BRANCH   3   4
ATOM      4  C   UNL     1      -5.812  39.054  21.593  1.00  0.00     0.000 C 
BRANCH   4   5
ATOM      5  C   UNL     1      -4.924  38.934  20.348  1.00  0.00     0.000 C 
BRANCH   5   6
ATOM      6  C   UNL     1      -5.152  37.597  19.630  1.00  0.00     0.000 C 
BRANCH   6   7
ATOM      7  C   UNL     1      -5.550  36.501  20.626  1.00  0.00     0.000 C 
BRANCH   7   8
ATOM      8  C   UNL     1      -4.484  35.397  20.684  1.00  0.00     0.000 C 
BRANCH   8   9
ATOM      9  C   UNL     1      -4.842  34.186  19.809  1.00  0.00     0.000 C 
BRANCH   9  10
ATOM     10  C   UNL     1      -5.918  34.513  18.758  1.00  0.00     0.000 C 
BRANCH  10  11
ATOM     11  C   UNL     1      -5.350  35.268  17.547  1.00  0.00     0.000 C 
BRANCH  11  12
ATOM     12  C   UNL     1      -3.946  34.784  17.152  1.00  0.00     0.000 C 
BRANCH  12  13
ATOM     13  C   UNL     1      -3.659  35.085  15.673  1.00  0.00     0.006 C 
BRANCH  13  14
ATOM     14  C   UNL     1      -4.542  36.217  15.129  1.00  0.00     0.053 C 
BRANCH  14  15
ATOM     15  C   UNL     1      -3.758  37.180  14.293  1.00  0.00     0.041 C 
ATOM     16  O   UNL     1      -4.252  38.294  13.974  1.00  0.00    -0.550 OA
ATOM     17  O   UNL     1      -2.473  36.852  13.876  1.00  0.00    -0.550 OA
ENDBRANCH  14  15
ENDBRANCH  13  14
ENDBRANCH  12  13
ENDBRANCH  11  12
ENDBRANCH  10  11
ENDBRANCH   9  10
ENDBRANCH   8   9
ENDBRANCH   7   8
ENDBRANCH   6   7
ENDBRANCH   5   6
ENDBRANCH   4   5
ENDBRANCH   3   4
ENDBRANCH   2   3
ENDBRANCH   1   2
BRANCH   1  18
ATOM     18  C   UNL     1      -5.540  35.872  24.440  1.00  0.00     0.000 C 
BRANCH  18  19
ATOM     19  C   UNL     1      -5.939  36.201  25.891  1.00  0.00     0.000 C 
BRANCH  19  20
ATOM     20  C   UNL     1      -4.796  36.843  26.701  1.00  0.00     0.000 C 
BRANCH  20  21
ATOM     21  C   UNL     1      -3.400  36.309  26.317  1.00  0.00     0.000 C 
BRANCH  21  22
ATOM     22  C   UNL     1      -2.313  36.545  27.385  1.00  0.00     0.000 C 
BRANCH  22  23
ATOM     23  C   UNL     1      -1.698  35.275  27.995  1.00  0.00     0.000 C 
BRANCH  23  24
ATOM     24  C   UNL     1      -2.050  35.095  29.479  1.00  0.00    -0.000 C 
BRANCH  24  25
ATOM     25  C   UNL     1      -1.312  33.890  30.083  1.00  0.00    -0.000 C 
BRANCH  25  26
ATOM     26  C   UNL     1      -0.647  32.999  29.018  1.00  0.00    -0.000 C 
BRANCH  26  27
ATOM     27  C   UNL     1       0.844  32.692  29.257  1.00  0.00    -0.000 C 
BRANCH  27  28
ATOM     28  C   UNL     1       1.673  33.950  29.567  1.00  0.00    -0.000 C 
BRANCH  28  29
ATOM     29  C   UNL     1       3.150  33.623  29.843  1.00  0.00    -0.000 C 
BRANCH  29  30
ATOM     30  C   UNL     1       4.115  34.577  29.117  1.00  0.00    -0.000 C 
BRANCH  30  31
ATOM     31  C   UNL     1       3.583  35.023  27.747  1.00  0.00    -0.003 C 
ATOM     32  C   UNL     1       4.556  35.939  27.004  1.00  0.00     0.004 C 
ENDBRANCH  30  31
ENDBRANCH  29  30
ENDBRANCH  28  29
ENDBRANCH  27  28
ENDBRANCH  26  27
ENDBRANCH  25  26
ENDBRANCH  24  25
ENDBRANCH  23  24
ENDBRANCH  22  23
ENDBRANCH  21  22
ENDBRANCH  20  21
ENDBRANCH  19  20
ENDBRANCH  18  19
ENDBRANCH   1  18
TORSDOF 28
ENDMDL
MODEL 2
REMARK VINA RESULT:    15.606      1.354      2.281
REMARK INTER + INTRA:          40.482
REMARK INTER:                  39.921
REMARK INTRA:                   0.560
REMARK UNBOUND:                -0.668
REMARK SMILES CCCCCCCCCCCCCCCCCCCCCCCCCCCCCC(=O)[O-]
REMARK SMILES IDX 16 1 17 2 18 3 19 4 20 5 21 6 22 7 23 8 24 9 25 10 26 11
REMARK SMILES IDX 27 12 28 13 29 14 30 15 31 16 32 17 15 18 14 19 13 20 12 21
REMARK SMILES IDX 11 22 10 23 9 24 8 25 7 26 6 27 5 28 4 29 3 30 2 31 1 32
REMARK H PARENT
REMARK Flexibility Score: inf
ROOT
ATOM      1  C   UNL     1      -5.136  35.964  25.433  1.00  0.00     0.000 C 
ENDROOT
BRANCH   1   2
ATOM      2  C   UNL     1      -5.946  35.311  24.299  1.00  0.00     0.000 C 
BRANCH   2   3
ATOM      3  C   UNL     1      -6.025  36.202  23.048  1.00  0.00     0.000 C 
BRANCH   3   4
ATOM      4  C   UNL     1      -5.664  37.668  23.331  1.00  0.00     0.000 C 
BRANCH   4   5
ATOM      5  C   UNL     1      -4.721  38.216  22.251  1.00  0.00     0.000 C 
BRANCH   5   6
ATOM      6  C   UNL     1      -5.479  38.505  20.949  1.00  0.00     0.000 C 
BRANCH   6   7
ATOM      7  C   UNL     1      -5.079  37.514  19.850  1.00  0.00     0.000 C 
BRANCH   7   8
ATOM      8  C   UNL     1      -4.173  36.408  20.410  1.00  0.00     0.000 C 
BRANCH   8   9
ATOM      9  C   UNL     1      -4.914  35.073  20.592  1.00  0.00     0.000 C 
BRANCH   9  10
ATOM     10  C   UNL     1      -5.535  34.558  19.281  1.00  0.00     0.000 C 
BRANCH  10  11
ATOM     11  C   UNL     1      -4.508  34.458  18.142  1.00  0.00     0.000 C 
BRANCH  11  12
ATOM     12  C   UNL     1      -4.864  35.355  16.944  1.00  0.00     0.000 C 
BRANCH  12  13
ATOM     13  C   UNL     1      -3.782  35.268  15.857  1.00  0.00     0.006 C 
BRANCH  13  14
ATOM     14  C   UNL     1      -4.230  35.915  14.540  1.00  0.00     0.053 C 
BRANCH  14  15
ATOM     15  C   UNL     1      -3.285  36.990  14.098  1.00  0.00     0.041 C 
ATOM     16  O   UNL     1      -3.694  38.171  13.939  1.00  0.00    -0.550 OA
ATOM     17  O   UNL     1      -1.946  36.689  13.876  1.00  0.00    -0.550 OA
ENDBRANCH  14  15
ENDBRANCH  13  14
ENDBRANCH  12  13
ENDBRANCH  11  12
ENDBRANCH  10  11
ENDBRANCH   9  10
ENDBRANCH   8   9
ENDBRANCH   7   8
ENDBRANCH   6   7
ENDBRANCH   5   6
ENDBRANCH   4   5
ENDBRANCH   3   4
ENDBRANCH   2   3
ENDBRANCH   1   2
BRANCH   1  18
ATOM     18  C   UNL     1      -5.884  37.116  26.127  1.00  0.00     0.000 C 
BRANCH  18  19
ATOM     19  C   UNL     1      -5.013  38.324  26.519  1.00  0.00     0.000 C 
BRANCH  19  20
ATOM     20  C   UNL     1      -3.525  38.136  26.165  1.00  0.00     0.000 C 
BRANCH  20  21
ATOM     21  C   UNL     1      -2.604  38.082  27.402  1.00  0.00     0.000 C 
BRANCH  21  22
ATOM     22  C   UNL     1      -1.702  36.833  27.470  1.00  0.00     0.000 C 
BRANCH  22  23
ATOM     23  C   UNL     1      -2.427  35.510  27.767  1.00  0.00     0.000 C 
BRANCH  23  24
ATOM     24  C   UNL     1      -1.490  34.428  28.327  1.00  0.00    -0.000 C 
BRANCH  24  25
ATOM     25  C   UNL     1      -1.856  34.073  29.776  1.00  0.00    -0.000 C 
BRANCH  25  26
ATOM     26  C   UNL     1      -0.819  33.154  30.449  1.00  0.00    -0.000 C 
BRANCH  26  27
ATOM     27  C   UNL     1       0.197  32.501  29.494  1.00  0.00    -0.000 C 
BRANCH  27  28
ATOM     28  C   UNL     1       1.380  33.422  29.153  1.00  0.00    -0.000 C 
BRANCH  28  29
ATOM     29  C   UNL     1       2.690  32.961  29.812  1.00  0.00    -0.000 C 
BRANCH  29  30
ATOM     30  C   UNL     1       2.537  31.634  30.575  1.00  0.00    -0.000 C 
BRANCH  30  31
ATOM     31  C   UNL     1       2.070  30.484  29.669  1.00  0.00    -0.003 C 
ATOM     32  C   UNL     1       3.089  29.348  29.584  1.00  0.00     0.004 C 
ENDBRANCH  30  31
ENDBRANCH  29  30
ENDBRANCH  28  29
ENDBRANCH  27  28
ENDBRANCH  26  27
ENDBRANCH  25  26
ENDBRANCH  24  25
ENDBRANCH  23  24
ENDBRANCH  22  23
ENDBRANCH  21  22
ENDBRANCH  20  21
ENDBRANCH  19  20
ENDBRANCH  18  19
ENDBRANCH   1  18
TORSDOF 28
ENDMDL
MODEL 3
REMARK VINA RESULT:    16.550      2.149      3.370
REMARK INTER + INTRA:          42.973
REMARK INTER:                  43.955
REMARK INTRA:                  -0.982
REMARK UNBOUND:                -0.668
REMARK SMILES CCCCCCCCCCCCCCCCCCCCCCCCCCCCCC(=O)[O-]
REMARK SMILES IDX 16 1 17 2 18 3 19 4 20 5 21 6 22 7 23 8 24 9 25 10 26 11
REMARK SMILES IDX 27 12 28 13 29 14 30 15 31 16 32 17 15 18 14 19 13 20 12 21
REMARK SMILES IDX 11 22 10 23 9 24 8 25 7 26 6 27 5 28 4 29 3 30 2 31 1 32
REMARK H PARENT
REMARK Flexibility Score: inf
ROOT
ATOM      1  C   UNL     1      -4.324  36.591  25.376  1.00  0.00     0.000 C 
ENDROOT
BRANCH   1   2
ATOM      2  C   UNL     1      -5.733  36.397  24.788  1.00  0.00     0.000 C 
BRANCH   2   3
ATOM      3  C   UNL     1      -6.075  37.454  23.725  1.00  0.00     0.000 C 
BRANCH   3   4
ATOM      4  C   UNL     1      -5.296  38.766  23.910  1.00  0.00     0.000 C 
BRANCH   4   5
ATOM      5  C   UNL     1      -4.715  39.248  22.574  1.00  0.00     0.000 C 
BRANCH   5   6
ATOM      6  C   UNL     1      -5.828  39.552  21.563  1.00  0.00     0.000 C 
BRANCH   6   7
ATOM      7  C   UNL     1      -5.784  38.570  20.386  1.00  0.00     0.000 C 
BRANCH   7   8
ATOM      8  C   UNL     1      -4.522  37.697  20.446  1.00  0.00     0.000 C 
BRANCH   8   9
ATOM      9  C   UNL     1      -4.496  36.622  19.347  1.00  0.00     0.000 C 
BRANCH   9  10
ATOM     10  C   UNL     1      -5.580  35.547  19.546  1.00  0.00     0.000 C 
BRANCH  10  11
ATOM     11  C   UNL     1      -5.496  34.425  18.499  1.00  0.00     0.000 C 
BRANCH  11  12
ATOM     12  C   UNL     1      -4.309  34.598  17.538  1.00  0.00     0.000 C 
BRANCH  12  13
ATOM     13  C   UNL     1      -4.651  35.597  16.422  1.00  0.00     0.006 C 
BRANCH  13  14
ATOM     14  C   UNL     1      -3.899  35.292  15.120  1.00  0.00     0.053 C 
BRANCH  14  15
ATOM     15  C   UNL     1      -3.352  36.536  14.489  1.00  0.00     0.041 C 
ATOM     16  O   UNL     1      -4.052  37.582  14.436  1.00  0.00    -0.550 OA
ATOM     17  O   UNL     1      -2.063  36.542  13.971  1.00  0.00    -0.550 OA
ENDBRANCH  14  15
ENDBRANCH  13  14
ENDBRANCH  12  13
ENDBRANCH  11  12
ENDBRANCH  10  11
ENDBRANCH   9  10
ENDBRANCH   8   9
ENDBRANCH   7   8
ENDBRANCH   6   7
ENDBRANCH   5   6
ENDBRANCH   4   5
ENDBRANCH   3   4
ENDBRANCH   2   3
ENDBRANCH   1   2
BRANCH   1  18
ATOM     18  C   UNL     1      -4.302  37.517  26.606  1.00  0.00     0.000 C 
BRANCH  18  19
ATOM     19  C   UNL     1      -3.112  37.310  27.562  1.00  0.00     0.000 C 
BRANCH  19  20
ATOM     20  C   UNL     1      -2.137  36.215  27.086  1.00  0.00     0.000 C 
BRANCH  20  21
ATOM     21  C   UNL     1      -1.324  35.580  28.233  1.00  0.00     0.000 C 
BRANCH  21  22
ATOM     22  C   UNL     1      -2.013  34.378  28.912  1.00  0.00     0.000 C 
BRANCH  22  23
ATOM     23  C   UNL     1      -1.071  33.383  29.608  1.00  0.00     0.000 C 
BRANCH  23  24
ATOM     24  C   UNL     1       0.398  33.563  29.196  1.00  0.00    -0.000 C 
BRANCH  24  25
ATOM     25  C   UNL     1       1.228  32.316  29.536  1.00  0.00    -0.000 C 
BRANCH  25  26
ATOM     26  C   UNL     1       2.578  32.653  30.194  1.00  0.00    -0.000 C 
BRANCH  26  27
ATOM     27  C   UNL     1       3.537  31.462  30.375  1.00  0.00    -0.000 C 
BRANCH  27  28
ATOM     28  C   UNL     1       2.821  30.102  30.320  1.00  0.00    -0.000 C 
BRANCH  28  29
ATOM     29  C   UNL     1       3.757  28.964  29.879  1.00  0.00    -0.000 C 
BRANCH  29  30
ATOM     30  C   UNL     1       3.022  27.856  29.106  1.00  0.00    -0.000 C 
BRANCH  30  31
ATOM     31  C   UNL     1       2.885  28.173  27.609  1.00  0.00    -0.003 C 
ATOM     32  C   UNL     1       1.732  27.417  26.948  1.00  0.00     0.004 C 
ENDBRANCH  30  31
ENDBRANCH  29  30
ENDBRANCH  28  29
ENDBRANCH  27  28
ENDBRANCH  26  27
ENDBRANCH  25  26
ENDBRANCH  24  25
ENDBRANCH  23  24
ENDBRANCH  22  23
ENDBRANCH  21  22
ENDBRANCH  20  21
ENDBRANCH  19  20
ENDBRANCH  18  19
ENDBRANCH   1  18
TORSDOF 28
ENDMDL
MODEL 4
REMARK VINA RESULT:    16.893      4.788     11.856
REMARK INTER + INTRA:          43.876
REMARK INTER:                  43.088
REMARK INTRA:                   0.788
REMARK UNBOUND:                -0.668
REMARK SMILES CCCCCCCCCCCCCCCCCCCCCCCCCCCCCC(=O)[O-]
REMARK SMILES IDX 16 1 17 2 18 3 19 4 20 5 21 6 22 7 23 8 24 9 25 10 26 11
REMARK SMILES IDX 27 12 28 13 29 14 30 15 31 16 32 17 15 18 14 19 13 20 12 21
REMARK SMILES IDX 11 22 10 23 9 24 8 25 7 26 6 27 5 28 4 29 3 30 2 31 1 32
REMARK H PARENT
REMARK Flexibility Score: inf
ROOT
ATOM      1  C   UNL     1      -5.093  35.976  24.123  1.00  0.00     0.000 C 
ENDROOT
BRANCH   1   2
ATOM      2  C   UNL     1      -5.230  36.039  25.654  1.00  0.00     0.000 C 
BRANCH   2   3
ATOM      3  C   UNL     1      -4.608  37.315  26.246  1.00  0.00     0.000 C 
BRANCH   3   4
ATOM      4  C   UNL     1      -3.184  37.095  26.782  1.00  0.00     0.000 C 
BRANCH   4   5
ATOM      5  C   UNL     1      -2.255  38.234  26.344  1.00  0.00     0.000 C 
BRANCH   5   6
ATOM      6  C   UNL     1      -0.817  37.992  26.822  1.00  0.00     0.000 C 
BRANCH   6   7
ATOM      7  C   UNL     1       0.188  38.255  25.694  1.00  0.00     0.000 C 
BRANCH   7   8
ATOM      8  C   UNL     1       1.602  37.817  26.105  1.00  0.00     0.000 C 
BRANCH   8   9
ATOM      9  C   UNL     1       2.330  38.882  26.940  1.00  0.00     0.000 C 
BRANCH   9  10
ATOM     10  C   UNL     1       3.857  38.687  26.944  1.00  0.00     0.000 C 
BRANCH  10  11
ATOM     11  C   UNL     1       4.270  37.252  26.582  1.00  0.00     0.000 C 
BRANCH  11  12
ATOM     12  C   UNL     1       4.830  36.476  27.786  1.00  0.00     0.000 C 
BRANCH  12  13
ATOM     13  C   UNL     1       4.600  34.967  27.617  1.00  0.00     0.006 C 
BRANCH  13  14
ATOM     14  C   UNL     1       5.335  34.145  28.685  1.00  0.00     0.053 C 
BRANCH  14  15
ATOM     15  C   UNL     1       4.448  33.826  29.849  1.00  0.00     0.041 C 
ATOM     16  O   UNL     1       3.210  33.670  29.681  1.00  0.00    -0.550 OA
ATOM     17  O   UNL     1       4.995  33.688  31.120  1.00  0.00    -0.550 OA
ENDBRANCH  14  15
ENDBRANCH  13  14
ENDBRANCH  12  13
ENDBRANCH  11  12
ENDBRANCH  10  11
ENDBRANCH   9  10
ENDBRANCH   8   9
ENDBRANCH   7   8
ENDBRANCH   6   7
ENDBRANCH   5   6
ENDBRANCH   4   5
ENDBRANCH   3   4
ENDBRANCH   2   3
ENDBRANCH   1   2
BRANCH   1  18
ATOM     18  C   UNL     1      -5.803  37.137  23.402  1.00  0.00     0.000 C 
BRANCH  18  19
ATOM     19  C   UNL     1      -5.358  38.548  23.833  1.00  0.00     0.000 C 
BRANCH  19  20
ATOM     20  C   UNL     1      -4.670  39.336  22.700  1.00  0.00     0.000 C 
BRANCH  20  21
ATOM     21  C   UNL     1      -5.597  39.611  21.498  1.00  0.00     0.000 C 
BRANCH  21  22
ATOM     22  C   UNL     1      -5.833  38.391  20.584  1.00  0.00     0.000 C 
BRANCH  22  23
ATOM     23  C   UNL     1      -4.701  37.351  20.565  1.00  0.00     0.000 C 
BRANCH  23  24
ATOM     24  C   UNL     1      -4.696  36.497  19.287  1.00  0.00    -0.000 C 
BRANCH  24  25
ATOM     25  C   UNL     1      -5.916  35.565  19.237  1.00  0.00    -0.000 C 
BRANCH  25  26
ATOM     26  C   UNL     1      -5.671  34.299  18.395  1.00  0.00    -0.000 C 
BRANCH  26  27
ATOM     27  C   UNL     1      -4.376  34.306  17.562  1.00  0.00    -0.000 C 
BRANCH  27  28
ATOM     28  C   UNL     1      -4.094  35.665  16.901  1.00  0.00    -0.000 C 
BRANCH  28  29
ATOM     29  C   UNL     1      -4.670  35.756  15.479  1.00  0.00    -0.000 C 
BRANCH  29  30
ATOM     30  C   UNL     1      -3.604  36.109  14.427  1.00  0.00    -0.000 C 
BRANCH  30  31
ATOM     31  C   UNL     1      -3.351  37.621  14.330  1.00  0.00    -0.003 C 
ATOM     32  C   UNL     1      -4.611  38.411  13.974  1.00  0.00     0.004 C 
ENDBRANCH  30  31
ENDBRANCH  29  30
ENDBRANCH  28  29
ENDBRANCH  27  28
ENDBRANCH  26  27
ENDBRANCH  25  26
ENDBRANCH  24  25
ENDBRANCH  23  24
ENDBRANCH  22  23
ENDBRANCH  21  22
ENDBRANCH  20  21
ENDBRANCH  19  20
ENDBRANCH  18  19
ENDBRANCH   1  18
TORSDOF 28
ENDMDL
MODEL 5
REMARK VINA RESULT:    16.894      1.584      3.953
REMARK INTER + INTRA:          43.879
REMARK INTER:                  45.003
REMARK INTRA:                  -1.124
REMARK UNBOUND:                -0.668
REMARK SMILES CCCCCCCCCCCCCCCCCCCCCCCCCCCCCC(=O)[O-]
REMARK SMILES IDX 16 1 17 2 18 3 19 4 20 5 21 6 22 7 23 8 24 9 25 10 26 11
REMARK SMILES IDX 27 12 28 13 29 14 30 15 31 16 32 17 15 18 14 19 13 20 12 21
REMARK SMILES IDX 11 22 10 23 9 24 8 25 7 26 6 27 5 28 4 29 3 30 2 31 1 32
REMARK H PARENT
REMARK Flexibility Score: inf
ROOT
ATOM      1  C   UNL     1      -2.713  37.234  27.032  1.00  0.00     0.000 C 
ENDROOT
BRANCH   1   2
ATOM      2  C   UNL     1      -3.795  36.458  26.260  1.00  0.00     0.000 C 
BRANCH   2   3
ATOM      3  C   UNL     1      -4.957  37.362  25.813  1.00  0.00     0.000 C 
BRANCH   3   4
ATOM      4  C   UNL     1      -6.088  36.586  25.121  1.00  0.00     0.000 C 
BRANCH   4   5
ATOM      5  C   UNL     1      -5.541  35.738  23.966  1.00  0.00     0.000 C 
BRANCH   5   6
ATOM      6  C   UNL     1      -5.891  36.359  22.607  1.00  0.00     0.000 C 
BRANCH   6   7
ATOM      7  C   UNL     1      -5.003  37.575  22.316  1.00  0.00     0.000 C 
BRANCH   7   8
ATOM      8  C   UNL     1      -5.111  37.994  20.842  1.00  0.00     0.000 C 
BRANCH   8   9
ATOM      9  C   UNL     1      -4.607  36.905  19.881  1.00  0.00     0.000 C 
BRANCH   9  10
ATOM     10  C   UNL     1      -5.756  36.102  19.243  1.00  0.00     0.000 C 
BRANCH  10  11
ATOM     11  C   UNL     1      -5.392  34.626  19.022  1.00  0.00     0.000 C 
BRANCH  11  12
ATOM     12  C   UNL     1      -4.654  34.390  17.694  1.00  0.00     0.000 C 
BRANCH  12  13
ATOM     13  C   UNL     1      -4.232  35.723  17.059  1.00  0.00     0.006 C 
BRANCH  13  14
ATOM     14  C   UNL     1      -4.726  35.860  15.613  1.00  0.00     0.053 C 
BRANCH  14  15
ATOM     15  C   UNL     1      -3.770  36.648  14.771  1.00  0.00     0.041 C 
ATOM     16  O   UNL     1      -4.067  37.812  14.392  1.00  0.00    -0.550 OA
ATOM     17  O   UNL     1      -2.543  36.099  14.415  1.00  0.00    -0.550 OA
ENDBRANCH  14  15
ENDBRANCH  13  14
ENDBRANCH  12  13
ENDBRANCH  11  12
ENDBRANCH  10  11
ENDBRANCH   9  10
ENDBRANCH   8   9
ENDBRANCH   7   8
ENDBRANCH   6   7
ENDBRANCH   5   6
ENDBRANCH   4   5
ENDBRANCH   3   4
ENDBRANCH   2   3
ENDBRANCH   1   2
BRANCH   1  18
ATOM     18  C   UNL     1      -1.993  36.378  28.090  1.00  0.00     0.000 C 
BRANCH  18  19
ATOM     19  C   UNL     1      -2.269  34.865  28.010  1.00  0.00     0.000 C 
BRANCH  19  20
ATOM     20  C   UNL     1      -2.134  34.154  29.371  1.00  0.00     0.000 C 
BRANCH  20  21
ATOM     21  C   UNL     1      -0.744  34.331  30.018  1.00  0.00     0.000 C 
BRANCH  21  22
ATOM     22  C   UNL     1       0.244  33.183  29.727  1.00  0.00     0.000 C 
BRANCH  22  23
ATOM     23  C   UNL     1       1.482  33.571  28.902  1.00  0.00     0.000 C 
BRANCH  23  24
ATOM     24  C   UNL     1       2.713  33.865  29.774  1.00  0.00    -0.000 C 
BRANCH  24  25
ATOM     25  C   UNL     1       3.665  34.850  29.079  1.00  0.00    -0.000 C 
BRANCH  25  26
ATOM     26  C   UNL     1       4.040  34.415  27.651  1.00  0.00    -0.000 C 
BRANCH  26  27
ATOM     27  C   UNL     1       4.493  35.552  26.716  1.00  0.00    -0.000 C 
BRANCH  27  28
ATOM     28  C   UNL     1       4.861  36.840  27.472  1.00  0.00    -0.000 C 
BRANCH  28  29
ATOM     29  C   UNL     1       4.826  38.081  26.565  1.00  0.00    -0.000 C 
BRANCH  29  30
ATOM     30  C   UNL     1       5.422  39.328  27.241  1.00  0.00    -0.000 C 
BRANCH  30  31
ATOM     31  C   UNL     1       6.837  39.082  27.787  1.00  0.00    -0.003 C 
ATOM     32  C   UNL     1       7.919  39.784  26.965  1.00  0.00     0.004 C 
ENDBRANCH  30  31
ENDBRANCH  29  30
ENDBRANCH  28  29
ENDBRANCH  27  28
ENDBRANCH  26  27
ENDBRANCH  25  26
ENDBRANCH  24  25
ENDBRANCH  23  24
ENDBRANCH  22  23
ENDBRANCH  21  22
ENDBRANCH  20  21
ENDBRANCH  19  20
ENDBRANCH  18  19
ENDBRANCH   1  18
TORSDOF 28
ENDMDL
MODEL 6
REMARK VINA RESULT:    17.375      1.106      3.269
REMARK INTER + INTRA:          45.148
REMARK INTER:                  46.792
REMARK INTRA:                  -1.644
REMARK UNBOUND:                -0.668
REMARK SMILES CCCCCCCCCCCCCCCCCCCCCCCCCCCCCC(=O)[O-]
REMARK SMILES IDX 16 1 17 2 18 3 19 4 20 5 21 6 22 7 23 8 24 9 25 10 26 11
REMARK SMILES IDX 27 12 28 13 29 14 30 15 31 16 32 17 15 18 14 19 13 20 12 21
REMARK SMILES IDX 11 22 10 23 9 24 8 25 7 26 6 27 5 28 4 29 3 30 2 31 1 32
REMARK H PARENT
REMARK Flexibility Score: inf
ROOT
ATOM      1  C   UNL     1      -2.925  37.637  26.999  1.00  0.00     0.000 C 
ENDROOT
BRANCH   1   2
ATOM      2  C   UNL     1      -3.755  36.791  26.017  1.00  0.00     0.000 C 
BRANCH   2   3
ATOM      3  C   UNL     1      -5.173  37.352  25.816  1.00  0.00     0.000 C 
BRANCH   3   4
ATOM      4  C   UNL     1      -6.125  36.349  25.146  1.00  0.00     0.000 C 
BRANCH   4   5
ATOM      5  C   UNL     1      -5.395  35.545  24.061  1.00  0.00     0.000 C 
BRANCH   5   6
ATOM      6  C   UNL     1      -5.817  35.998  22.657  1.00  0.00     0.000 C 
BRANCH   6   7
ATOM      7  C   UNL     1      -5.185  37.350  22.303  1.00  0.00     0.000 C 
BRANCH   7   8
ATOM      8  C   UNL     1      -5.339  37.653  20.805  1.00  0.00     0.000 C 
BRANCH   8   9
ATOM      9  C   UNL     1      -4.569  36.659  19.921  1.00  0.00     0.000 C 
BRANCH   9  10
ATOM     10  C   UNL     1      -5.484  35.923  18.925  1.00  0.00     0.000 C 
BRANCH  10  11
ATOM     11  C   UNL     1      -4.956  34.527  18.559  1.00  0.00     0.000 C 
BRANCH  11  12
ATOM     12  C   UNL     1      -4.268  34.496  17.184  1.00  0.00     0.000 C 
BRANCH  12  13
ATOM     13  C   UNL     1      -4.150  35.911  16.600  1.00  0.00     0.006 C 
BRANCH  13  14
ATOM     14  C   UNL     1      -4.496  35.953  15.105  1.00  0.00     0.053 C 
BRANCH  14  15
ATOM     15  C   UNL     1      -3.640  36.932  14.363  1.00  0.00     0.041 C 
ATOM     16  O   UNL     1      -4.048  38.107  14.160  1.00  0.00    -0.550 OA
ATOM     17  O   UNL     1      -2.384  36.550  13.907  1.00  0.00    -0.550 OA
ENDBRANCH  14  15
ENDBRANCH  13  14
ENDBRANCH  12  13
ENDBRANCH  11  12
ENDBRANCH  10  11
ENDBRANCH   9  10
ENDBRANCH   8   9
ENDBRANCH   7   8
ENDBRANCH   6   7
ENDBRANCH   5   6
ENDBRANCH   4   5
ENDBRANCH   3   4
ENDBRANCH   2   3
ENDBRANCH   1   2
BRANCH   1  18
ATOM     18  C   UNL     1      -1.825  36.830  27.713  1.00  0.00     0.000 C 
BRANCH  18  19
ATOM     19  C   UNL     1      -1.962  35.299  27.612  1.00  0.00     0.000 C 
BRANCH  19  20
ATOM     20  C   UNL     1      -2.328  34.635  28.954  1.00  0.00     0.000 C 
BRANCH  20  21
ATOM     21  C   UNL     1      -1.105  34.362  29.854  1.00  0.00     0.000 C 
BRANCH  21  22
ATOM     22  C   UNL     1      -0.788  32.867  30.060  1.00  0.00     0.000 C 
BRANCH  22  23
ATOM     23  C   UNL     1       0.282  32.283  29.123  1.00  0.00     0.000 C 
BRANCH  23  24
ATOM     24  C   UNL     1       1.714  32.621  29.568  1.00  0.00    -0.000 C 
BRANCH  24  25
ATOM     25  C   UNL     1       2.397  31.404  30.211  1.00  0.00    -0.000 C 
BRANCH  25  26
ATOM     26  C   UNL     1       3.815  31.715  30.726  1.00  0.00    -0.000 C 
BRANCH  26  27
ATOM     27  C   UNL     1       4.084  33.195  31.056  1.00  0.00    -0.000 C 
BRANCH  27  28
ATOM     28  C   UNL     1       5.367  33.732  30.401  1.00  0.00    -0.000 C 
BRANCH  28  29
ATOM     29  C   UNL     1       5.184  34.016  28.901  1.00  0.00    -0.000 C 
BRANCH  29  30
ATOM     30  C   UNL     1       3.880  34.772  28.594  1.00  0.00    -0.000 C 
BRANCH  30  31
ATOM     31  C   UNL     1       4.006  35.694  27.372  1.00  0.00    -0.003 C 
ATOM     32  C   UNL     1       5.454  35.874  26.914  1.00  0.00     0.004 C 
ENDBRANCH  30  31
ENDBRANCH  29  30
ENDBRANCH  28  29
ENDBRANCH  27  28
ENDBRANCH  26  27
ENDBRANCH  25  26
ENDBRANCH  24  25
ENDBRANCH  23  24
ENDBRANCH  22  23
ENDBRANCH  21  22
ENDBRANCH  20  21
ENDBRANCH  19  20
ENDBRANCH  18  19
ENDBRANCH   1  18
TORSDOF 28
ENDMDL
MODEL 7
REMARK VINA RESULT:    17.412      3.467      5.449
REMARK INTER + INTRA:          45.244
REMARK INTER:                  45.173
REMARK INTRA:                   0.071
REMARK UNBOUND:                -0.668
REMARK SMILES CCCCCCCCCCCCCCCCCCCCCCCCCCCCCC(=O)[O-]
REMARK SMILES IDX 16 1 17 2 18 3 19 4 20 5 21 6 22 7 23 8 24 9 25 10 26 11
REMARK SMILES IDX 27 12 28 13 29 14 30 15 31 16 32 17 15 18 14 19 13 20 12 21
REMARK SMILES IDX 11 22 10 23 9 24 8 25 7 26 6 27 5 28 4 29 3 30 2 31 1 32
REMARK H PARENT
REMARK Flexibility Score: inf
ROOT
ATOM      1  C   UNL     1      -3.077  37.362  27.185  1.00  0.00     0.000 C 
ENDROOT
BRANCH   1   2
ATOM      2  C   UNL     1      -3.931  36.511  26.229  1.00  0.00     0.000 C 
BRANCH   2   3
ATOM      3  C   UNL     1      -5.318  37.125  25.978  1.00  0.00     0.000 C 
BRANCH   3   4
ATOM      4  C   UNL     1      -5.455  37.746  24.579  1.00  0.00     0.000 C 
BRANCH   4   5
ATOM      5  C   UNL     1      -4.879  39.168  24.554  1.00  0.00     0.000 C 
BRANCH   5   6
ATOM      6  C   UNL     1      -4.341  39.524  23.162  1.00  0.00     0.000 C 
BRANCH   6   7
ATOM      7  C   UNL     1      -5.485  39.905  22.214  1.00  0.00     0.000 C 
BRANCH   7   8
ATOM      8  C   UNL     1      -5.230  39.363  20.800  1.00  0.00     0.000 C 
BRANCH   8   9
ATOM      9  C   UNL     1      -5.934  38.020  20.547  1.00  0.00     0.000 C 
BRANCH   9  10
ATOM     10  C   UNL     1      -6.078  37.178  21.828  1.00  0.00     0.000 C 
BRANCH  10  11
ATOM     11  C   UNL     1      -5.011  36.078  21.934  1.00  0.00     0.000 C 
BRANCH  11  12
ATOM     12  C   UNL     1      -5.620  34.668  22.012  1.00  0.00     0.000 C 
BRANCH  12  13
ATOM     13  C   UNL     1      -6.122  34.214  20.633  1.00  0.00     0.006 C 
BRANCH  13  14
ATOM     14  C   UNL     1      -4.970  33.923  19.662  1.00  0.00     0.053 C 
BRANCH  14  15
ATOM     15  C   UNL     1      -4.890  34.948  18.572  1.00  0.00     0.041 C 
ATOM     16  O   UNL     1      -5.033  36.171  18.838  1.00  0.00    -0.550 OA
ATOM     17  O   UNL     1      -4.643  34.551  17.263  1.00  0.00    -0.550 OA
ENDBRANCH  14  15
ENDBRANCH  13  14
ENDBRANCH  12  13
ENDBRANCH  11  12
ENDBRANCH  10  11
ENDBRANCH   9  10
ENDBRANCH   8   9
ENDBRANCH   7   8
ENDBRANCH   6   7
ENDBRANCH   5   6
ENDBRANCH   4   5
ENDBRANCH   3   4
ENDBRANCH   2   3
ENDBRANCH   1   2
BRANCH   1  18
ATOM     18  C   UNL     1      -1.720  36.717  27.523  1.00  0.00     0.000 C 
BRANCH  18  19
ATOM     19  C   UNL     1      -1.778  35.225  27.902  1.00  0.00     0.000 C 
BRANCH  19  20
ATOM     20  C   UNL     1      -2.442  34.975  29.270  1.00  0.00     0.000 C 
BRANCH  20  21
ATOM     21  C   UNL     1      -1.719  33.905  30.114  1.00  0.00     0.000 C 
BRANCH  21  22
ATOM     22  C   UNL     1      -0.858  32.923  29.294  1.00  0.00     0.000 C 
BRANCH  22  23
ATOM     23  C   UNL     1       0.656  32.999  29.550  1.00  0.00     0.000 C 
BRANCH  23  24
ATOM     24  C   UNL     1       1.338  31.623  29.511  1.00  0.00    -0.000 C 
BRANCH  24  25
ATOM     25  C   UNL     1       2.757  31.689  30.096  1.00  0.00    -0.000 C 
BRANCH  25  26
ATOM     26  C   UNL     1       3.267  30.323  30.590  1.00  0.00    -0.000 C 
BRANCH  26  27
ATOM     27  C   UNL     1       4.226  29.594  29.631  1.00  0.00    -0.000 C 
BRANCH  27  28
ATOM     28  C   UNL     1       3.889  28.102  29.464  1.00  0.00    -0.000 C 
BRANCH  28  29
ATOM     29  C   UNL     1       3.723  27.385  30.814  1.00  0.00    -0.000 C 
BRANCH  29  30
ATOM     30  C   UNL     1       5.067  26.972  31.437  1.00  0.00    -0.000 C 
BRANCH  30  31
ATOM     31  C   UNL     1       5.129  25.472  31.764  1.00  0.00    -0.003 C 
ATOM     32  C   UNL     1       4.789  25.171  33.224  1.00  0.00     0.004 C 
ENDBRANCH  30  31
ENDBRANCH  29  30
ENDBRANCH  28  29
ENDBRANCH  27  28
ENDBRANCH  26  27
ENDBRANCH  25  26
ENDBRANCH  24  25
ENDBRANCH  23  24
ENDBRANCH  22  23
ENDBRANCH  21  22
ENDBRANCH  20  21
ENDBRANCH  19  20
ENDBRANCH  18  19
ENDBRANCH   1  18
TORSDOF 28
ENDMDL
MODEL 8
REMARK VINA RESULT:    17.670      2.001      3.270
REMARK INTER + INTRA:          45.926
REMARK INTER:                  45.668
REMARK INTRA:                   0.258
REMARK UNBOUND:                -0.668
REMARK SMILES CCCCCCCCCCCCCCCCCCCCCCCCCCCCCC(=O)[O-]
REMARK SMILES IDX 16 1 17 2 18 3 19 4 20 5 21 6 22 7 23 8 24 9 25 10 26 11
REMARK SMILES IDX 27 12 28 13 29 14 30 15 31 16 32 17 15 18 14 19 13 20 12 21
REMARK SMILES IDX 11 22 10 23 9 24 8 25 7 26 6 27 5 28 4 29 3 30 2 31 1 32
REMARK H PARENT
REMARK Flexibility Score: inf
ROOT
ATOM      1  C   UNL     1      -5.498  35.562  25.274  1.00  0.00     0.000 C 
ENDROOT
BRANCH   1   2
ATOM      2  C   UNL     1      -6.092  34.863  24.038  1.00  0.00     0.000 C 
BRANCH   2   3
ATOM      3  C   UNL     1      -5.813  35.635  22.738  1.00  0.00     0.000 C 
BRANCH   3   4
ATOM      4  C   UNL     1      -5.885  37.159  22.917  1.00  0.00     0.000 C 
BRANCH   4   5
ATOM      5  C   UNL     1      -4.885  37.865  21.993  1.00  0.00     0.000 C 
BRANCH   5   6
ATOM      6  C   UNL     1      -5.607  38.641  20.884  1.00  0.00     0.000 C 
BRANCH   6   7
ATOM      7  C   UNL     1      -5.729  37.794  19.611  1.00  0.00     0.000 C 
BRANCH   7   8
ATOM      8  C   UNL     1      -4.932  36.488  19.742  1.00  0.00     0.000 C 
BRANCH   8   9
ATOM      9  C   UNL     1      -5.834  35.243  19.744  1.00  0.00     0.000 C 
BRANCH   9  10
ATOM     10  C   UNL     1      -5.468  34.246  18.629  1.00  0.00     0.000 C 
BRANCH  10  11
ATOM     11  C   UNL     1      -4.179  34.634  17.890  1.00  0.00     0.000 C 
BRANCH  11  12
ATOM     12  C   UNL     1      -4.362  34.682  16.364  1.00  0.00     0.000 C 
BRANCH  12  13
ATOM     13  C   UNL     1      -4.756  36.093  15.905  1.00  0.00     0.006 C 
BRANCH  13  14
ATOM     14  C   UNL     1      -4.517  36.304  14.404  1.00  0.00     0.053 C 
BRANCH  14  15
ATOM     15  C   UNL     1      -3.563  37.429  14.146  1.00  0.00     0.041 C 
ATOM     16  O   UNL     1      -3.996  38.581  13.875  1.00  0.00    -0.550 OA
ATOM     17  O   UNL     1      -2.192  37.207  14.217  1.00  0.00    -0.550 OA
ENDBRANCH  14  15
ENDBRANCH  13  14
ENDBRANCH  12  13
ENDBRANCH  11  12
ENDBRANCH  10  11
ENDBRANCH   9  10
ENDBRANCH   8   9
ENDBRANCH   7   8
ENDBRANCH   6   7
ENDBRANCH   5   6
ENDBRANCH   4   5
ENDBRANCH   3   4
ENDBRANCH   2   3
ENDBRANCH   1   2
BRANCH   1  18
ATOM     18  C   UNL     1      -5.931  37.034  25.404  1.00  0.00     0.000 C 
BRANCH  18  19
ATOM     19  C   UNL     1      -5.095  37.881  26.382  1.00  0.00     0.000 C 
BRANCH  19  20
ATOM     20  C   UNL     1      -3.697  37.289  26.651  1.00  0.00     0.000 C 
BRANCH  20  21
ATOM     21  C   UNL     1      -2.558  38.317  26.494  1.00  0.00     0.000 C 
BRANCH  21  22
ATOM     22  C   UNL     1      -1.279  37.975  27.284  1.00  0.00     0.000 C 
BRANCH  22  23
ATOM     23  C   UNL     1      -0.177  39.047  27.256  1.00  0.00     0.000 C 
BRANCH  23  24
ATOM     24  C   UNL     1       0.186  39.567  28.655  1.00  0.00    -0.000 C 
BRANCH  24  25
ATOM     25  C   UNL     1       1.463  40.420  28.616  1.00  0.00    -0.000 C 
BRANCH  25  26
ATOM     26  C   UNL     1       2.449  39.976  27.520  1.00  0.00    -0.000 C 
BRANCH  26  27
ATOM     27  C   UNL     1       3.057  38.575  27.712  1.00  0.00    -0.000 C 
BRANCH  27  28
ATOM     28  C   UNL     1       4.557  38.520  27.376  1.00  0.00    -0.000 C 
BRANCH  28  29
ATOM     29  C   UNL     1       5.167  37.134  27.644  1.00  0.00    -0.000 C 
BRANCH  29  30
ATOM     30  C   UNL     1       4.854  36.121  26.530  1.00  0.00    -0.000 C 
BRANCH  30  31
ATOM     31  C   UNL     1       4.036  34.922  27.035  1.00  0.00    -0.003 C 
ATOM     32  C   UNL     1       4.216  34.673  28.533  1.00  0.00     0.004 C 
ENDBRANCH  30  31
ENDBRANCH  29  30
ENDBRANCH  28  29
ENDBRANCH  27  28
ENDBRANCH  26  27
ENDBRANCH  25  26
ENDBRANCH  24  25
ENDBRANCH  23  24
ENDBRANCH  22  23
ENDBRANCH  21  22
ENDBRANCH  20  21
ENDBRANCH  19  20
ENDBRANCH  18  19
ENDBRANCH   1  18
TORSDOF 28
ENDMDL
