MODEL 1
REMARK VINA RESULT:     6.019      0.000      0.000
REMARK INTER + INTRA:           7.638
REMARK INTER:                   7.075
REMARK INTRA:                   0.563
REMARK UNBOUND:                 0.563
REMARK SMILES O=c1c(O)c(-c2ccc(O)cc2)oc2cc(O)cc(O)c12
REMARK SMILES IDX 5 1 3 2 2 3 1 4 21 5 19 6 18 7 16 8 15 9 14 10 13 11 6 12
REMARK SMILES IDX 7 13 8 14 9 15 12 16 11 17 10 18 4 20 20 22 17 24
REMARK H PARENT 10 19 4 21 20 23 17 25
REMARK Flexibility Score: inf
ROOT
ATOM      1  C   UNL     1      25.520   9.699 122.115  1.00  0.00     0.180 A 
ATOM      2  C   UNL     1      24.269  10.328 122.250  1.00  0.00     0.208 A 
ATOM      3  C   UNL     1      24.212  11.731 122.282  1.00  0.00     0.238 A 
ATOM      4  O   UNL     1      23.096  12.286 122.456  1.00  0.00    -0.285 OA
ATOM      5  C   UNL     1      25.402  12.487 122.162  1.00  0.00     0.111 A 
ATOM      6  C   UNL     1      25.458  13.913 122.141  1.00  0.00     0.134 A 
ATOM      7  C   UNL     1      26.702  14.556 122.150  1.00  0.00     0.093 A 
ATOM      8  C   UNL     1      27.892  13.824 122.114  1.00  0.00     0.123 A 
ATOM      9  C   UNL     1      27.847  12.432 122.074  1.00  0.00     0.094 A 
ATOM     10  C   UNL     1      26.621  11.762 122.101  1.00  0.00     0.146 A 
ATOM     11  O   UNL     1      26.624  10.435 122.072  1.00  0.00    -0.452 OA
ENDROOT
BRANCH   1  12
ATOM     12  C   UNL     1      25.657   8.226 122.049  1.00  0.00     0.021 A 
ATOM     13  C   UNL     1      24.503   7.426 121.987  1.00  0.00     0.016 A 
ATOM     14  C   UNL     1      24.610   6.033 121.948  1.00  0.00     0.047 A 
ATOM     15  C   UNL     1      25.866   5.422 121.985  1.00  0.00     0.115 A 
ATOM     16  C   UNL     1      26.918   7.605 122.106  1.00  0.00     0.016 A 
ATOM     17  C   UNL     1      27.020   6.211 122.068  1.00  0.00     0.047 A 
BRANCH  15  18
ATOM     18  O   UNL     1      25.956   4.032 121.943  1.00  0.00    -0.508 OA
ATOM     19  H   UNL     1      25.329   3.445 122.481  1.00  0.00     0.293 HD
ENDBRANCH  15  18
ENDBRANCH   1  12
BRANCH   2  20
ATOM     20  O   UNL     1      23.109   9.562 122.388  1.00  0.00    -0.502 OA
ATOM     21  H   UNL     1      23.103   8.661 122.850  1.00  0.00     0.293 HD
ENDBRANCH   2  20
BRANCH   6  22
ATOM     22  O   UNL     1      24.330  14.737 122.083  1.00  0.00    -0.507 OA
ATOM     23  H   UNL     1      23.780  15.016 122.881  1.00  0.00     0.293 HD
ENDBRANCH   6  22
BRANCH   8  24
ATOM     24  O   UNL     1      29.125  14.472 122.107  1.00  0.00    -0.508 OA
ATOM     25  H   UNL     1      29.879  14.183 122.720  1.00  0.00     0.293 HD
ENDBRANCH   8  24
TORSDOF 5
ENDMDL
