MODEL 1
REMARK VINA RESULT:    -3.413      0.000      0.000
REMARK INTER + INTRA:          -4.057
REMARK INTER:                  -4.011
REMARK INTRA:                  -0.045
REMARK UNBOUND:                -0.045
REMARK SMILES O=C([O-])CCC(=O)[O-]
REMARK SMILES IDX 4 1 2 2 1 3 3 4 5 5 6 6 7 7 8 8
REMARK H PARENT
REMARK Flexibility Score: inf
ROOT
ATOM      1  C   UNL     1      24.710 -20.218   1.406  1.00  0.00     0.059 C 
ENDROOT
BRANCH   1   2
ATOM      2  C   UNL     1      23.521 -21.060   1.055  1.00  0.00     0.042 C 
ATOM      3  O   UNL     1      22.363 -20.568   1.091  1.00  0.00    -0.550 OA
ATOM      4  O   UNL     1      23.691 -22.399   0.725  1.00  0.00    -0.550 OA
ENDBRANCH   1   2
BRANCH   1   5
ATOM      5  C   UNL     1      25.742 -21.011   2.215  1.00  0.00     0.059 C 
BRANCH   5   6
ATOM      6  C   UNL     1      26.042 -20.349   3.525  1.00  0.00     0.042 C 
ATOM      7  O   UNL     1      26.456 -21.030   4.500  1.00  0.00    -0.550 OA
ATOM      8  O   UNL     1      25.827 -18.986   3.681  1.00  0.00    -0.550 OA
ENDBRANCH   5   6
ENDBRANCH   1   5
TORSDOF 3
ENDMDL
MODEL 2
REMARK VINA RESULT:    -3.402      0.043      4.151
REMARK INTER + INTRA:          -4.044
REMARK INTER:                  -4.000
REMARK INTRA:                  -0.044
REMARK UNBOUND:                -0.045
REMARK SMILES O=C([O-])CCC(=O)[O-]
REMARK SMILES IDX 4 1 2 2 1 3 3 4 5 5 6 6 7 7 8 8
REMARK H PARENT
REMARK Flexibility Score: inf
ROOT
ATOM      1  C   UNL     1      25.772 -21.007   2.211  1.00  0.00     0.059 C 
ENDROOT
BRANCH   1   2
ATOM      2  C   UNL     1      26.071 -20.341   3.519  1.00  0.00     0.042 C 
ATOM      3  O   UNL     1      26.463 -21.022   4.502  1.00  0.00    -0.550 OA
ATOM      4  O   UNL     1      25.879 -18.972   3.661  1.00  0.00    -0.550 OA
ENDBRANCH   1   2
BRANCH   1   5
ATOM      5  C   UNL     1      24.724 -20.228   1.408  1.00  0.00     0.059 C 
BRANCH   5   6
ATOM      6  C   UNL     1      23.552 -21.089   1.048  1.00  0.00     0.042 C 
ATOM      7  O   UNL     1      22.387 -20.615   1.069  1.00  0.00    -0.550 OA
ATOM      8  O   UNL     1      23.745 -22.427   0.728  1.00  0.00    -0.550 OA
ENDBRANCH   5   6
ENDBRANCH   1   5
TORSDOF 3
ENDMDL
MODEL 3
REMARK VINA RESULT:    -3.364      1.041      3.930
REMARK INTER + INTRA:          -4.000
REMARK INTER:                  -3.869
REMARK INTRA:                  -0.131
REMARK UNBOUND:                -0.045
REMARK SMILES O=C([O-])CCC(=O)[O-]
REMARK SMILES IDX 4 1 2 2 1 3 3 4 5 5 6 6 7 7 8 8
REMARK H PARENT
REMARK Flexibility Score: inf
ROOT
ATOM      1  C   UNL     1      26.507 -20.560   2.169  1.00  0.00     0.059 C 
ENDROOT
BRANCH   1   2
ATOM      2  C   UNL     1      26.280 -20.208   3.608  1.00  0.00     0.042 C 
ATOM      3  O   UNL     1      26.452 -21.073   4.506  1.00  0.00    -0.550 OA
ATOM      4  O   UNL     1      25.841 -18.936   3.951  1.00  0.00    -0.550 OA
ENDBRANCH   1   2
BRANCH   1   5
ATOM      5  C   UNL     1      25.330 -21.353   1.590  1.00  0.00     0.059 C 
BRANCH   5   6
ATOM      6  C   UNL     1      24.226 -20.448   1.135  1.00  0.00     0.042 C 
ATOM      7  O   UNL     1      24.485 -19.282   0.738  1.00  0.00    -0.550 OA
ATOM      8  O   UNL     1      22.907 -20.881   1.187  1.00  0.00    -0.550 OA
ENDBRANCH   5   6
ENDBRANCH   1   5
TORSDOF 3
ENDMDL
MODEL 4
REMARK VINA RESULT:    -3.313      1.089      1.343
REMARK INTER + INTRA:          -3.939
REMARK INTER:                  -3.820
REMARK INTRA:                  -0.119
REMARK UNBOUND:                -0.045
REMARK SMILES O=C([O-])CCC(=O)[O-]
REMARK SMILES IDX 4 1 2 2 1 3 3 4 5 5 6 6 7 7 8 8
REMARK H PARENT
REMARK Flexibility Score: inf
ROOT
ATOM      1  C   UNL     1      25.067 -21.261   1.637  1.00  0.00     0.059 C 
ENDROOT
BRANCH   1   2
ATOM      2  C   UNL     1      24.152 -20.246   1.022  1.00  0.00     0.042 C 
ATOM      3  O   UNL     1      24.586 -19.105   0.717  1.00  0.00    -0.550 OA
ATOM      4  O   UNL     1      22.811 -20.550   0.822  1.00  0.00    -0.550 OA
ENDBRANCH   1   2
BRANCH   1   5
ATOM      5  C   UNL     1      26.359 -20.618   2.152  1.00  0.00     0.059 C 
BRANCH   5   6
ATOM      6  C   UNL     1      26.247 -20.237   3.596  1.00  0.00     0.042 C 
ATOM      7  O   UNL     1      26.508 -21.078   4.496  1.00  0.00    -0.550 OA
ATOM      8  O   UNL     1      25.816 -18.964   3.948  1.00  0.00    -0.550 OA
ENDBRANCH   5   6
ENDBRANCH   1   5
TORSDOF 3
ENDMDL
MODEL 5
REMARK VINA RESULT:    -3.309      0.165      3.882
REMARK INTER + INTRA:          -3.935
REMARK INTER:                  -3.883
REMARK INTRA:                  -0.052
REMARK UNBOUND:                -0.045
REMARK SMILES O=C([O-])CCC(=O)[O-]
REMARK SMILES IDX 4 1 2 2 1 3 3 4 5 5 6 6 7 7 8 8
REMARK H PARENT
REMARK Flexibility Score: inf
ROOT
ATOM      1  C   UNL     1      25.810 -21.085   2.116  1.00  0.00     0.059 C 
ENDROOT
BRANCH   1   2
ATOM      2  C   UNL     1      26.019 -20.358   3.409  1.00  0.00     0.042 C 
ATOM      3  O   UNL     1      25.830 -19.116   3.476  1.00  0.00    -0.550 OA
ATOM      4  O   UNL     1      26.461 -21.049   4.531  1.00  0.00    -0.550 OA
ENDBRANCH   1   2
BRANCH   1   5
ATOM      5  C   UNL     1      24.797 -20.364   1.221  1.00  0.00     0.059 C 
BRANCH   5   6
ATOM      6  C   UNL     1      23.585 -21.207   0.969  1.00  0.00     0.042 C 
ATOM      7  O   UNL     1      23.710 -22.402   0.596  1.00  0.00    -0.550 OA
ATOM      8  O   UNL     1      22.316 -20.659   1.108  1.00  0.00    -0.550 OA
ENDBRANCH   5   6
ENDBRANCH   1   5
TORSDOF 3
ENDMDL
MODEL 6
REMARK VINA RESULT:    -3.282      0.264      1.640
REMARK INTER + INTRA:          -3.903
REMARK INTER:                  -3.850
REMARK INTRA:                  -0.053
REMARK UNBOUND:                -0.045
REMARK SMILES O=C([O-])CCC(=O)[O-]
REMARK SMILES IDX 4 1 2 2 1 3 3 4 5 5 6 6 7 7 8 8
REMARK H PARENT
REMARK Flexibility Score: inf
ROOT
ATOM      1  C   UNL     1      24.809 -20.029   1.327  1.00  0.00     0.059 C 
ENDROOT
BRANCH   1   2
ATOM      2  C   UNL     1      23.600 -20.810   0.909  1.00  0.00     0.042 C 
ATOM      3  O   UNL     1      23.706 -22.025   0.601  1.00  0.00    -0.550 OA
ATOM      4  O   UNL     1      22.363 -20.182   0.823  1.00  0.00    -0.550 OA
ENDBRANCH   1   2
BRANCH   1   5
ATOM      5  C   UNL     1      25.762 -20.876   2.176  1.00  0.00     0.059 C 
BRANCH   5   6
ATOM      6  C   UNL     1      25.998 -20.261   3.521  1.00  0.00     0.042 C 
ATOM      7  O   UNL     1      25.815 -19.028   3.695  1.00  0.00    -0.550 OA
ATOM      8  O   UNL     1      26.459 -21.043   4.572  1.00  0.00    -0.550 OA
ENDBRANCH   5   6
ENDBRANCH   1   5
TORSDOF 3
ENDMDL
MODEL 7
REMARK VINA RESULT:    -2.952      2.182      4.000
REMARK INTER + INTRA:          -3.515
REMARK INTER:                  -3.462
REMARK INTRA:                  -0.053
REMARK UNBOUND:                -0.045
REMARK SMILES O=C([O-])CCC(=O)[O-]
REMARK SMILES IDX 4 1 2 2 1 3 3 4 5 5 6 6 7 7 8 8
REMARK H PARENT
REMARK Flexibility Score: inf
ROOT
ATOM      1  C   UNL     1      26.438 -19.468   2.845  1.00  0.00     0.059 C 
ENDROOT
BRANCH   1   2
ATOM      2  C   UNL     1      27.605 -19.085   1.986  1.00  0.00     0.042 C 
ATOM      3  O   UNL     1      28.175 -17.974   2.149  1.00  0.00    -0.550 OA
ATOM      4  O   UNL     1      28.037 -19.939   0.979  1.00  0.00    -0.550 OA
ENDBRANCH   1   2
BRANCH   1   5
ATOM      5  C   UNL     1      25.758 -20.743   2.335  1.00  0.00     0.059 C 
BRANCH   5   6
ATOM      6  C   UNL     1      24.555 -20.431   1.500  1.00  0.00     0.042 C 
ATOM      7  O   UNL     1      23.613 -21.261   1.408  1.00  0.00    -0.550 OA
ATOM      8  O   UNL     1      24.492 -19.238   0.790  1.00  0.00    -0.550 OA
ENDBRANCH   5   6
ENDBRANCH   1   5
TORSDOF 3
ENDMDL
MODEL 8
REMARK VINA RESULT:    -2.842     15.815     16.612
REMARK INTER + INTRA:          -3.385
REMARK INTER:                  -3.272
REMARK INTRA:                  -0.113
REMARK UNBOUND:                -0.045
REMARK SMILES O=C([O-])CCC(=O)[O-]
REMARK SMILES IDX 4 1 2 2 1 3 3 4 5 5 6 6 7 7 8 8
REMARK H PARENT
REMARK Flexibility Score: inf
ROOT
ATOM      1  C   UNL     1      17.650 -34.421  -0.904  1.00  0.00     0.059 C 
ENDROOT
BRANCH   1   2
ATOM      2  C   UNL     1      16.188 -34.702  -1.069  1.00  0.00     0.042 C 
ATOM      3  O   UNL     1      15.362 -33.754  -1.125  1.00  0.00    -0.550 OA
ATOM      4  O   UNL     1      15.734 -36.015  -1.122  1.00  0.00    -0.550 OA
ENDBRANCH   1   2
BRANCH   1   5
ATOM      5  C   UNL     1      18.453 -35.711  -0.704  1.00  0.00     0.059 C 
BRANCH   5   6
ATOM      6  C   UNL     1      18.681 -36.000   0.748  1.00  0.00     0.042 C 
ATOM      7  O   UNL     1      17.901 -36.764   1.373  1.00  0.00    -0.550 OA
ATOM      8  O   UNL     1      19.734 -35.392   1.420  1.00  0.00    -0.550 OA
ENDBRANCH   5   6
ENDBRANCH   1   5
TORSDOF 3
ENDMDL
