MODEL 1
REMARK VINA RESULT:    -8.117      0.000      0.000
REMARK INTER + INTRA:         -11.134
REMARK INTER:                 -10.252
REMARK INTRA:                  -0.881
REMARK UNBOUND:                -0.881
REMARK SMILES CC(C)[C@@H](C)C=C[C@@H](C)[C@H]1CC[C@H]2C3=CC=C4C[C@H](O)CC[C@@]4(C)[C@H]3CC[C@]12C
REMARK SMILES IDX 8 1 9 2 7 3 6 4 4 5 5 6 2 7 1 8 3 9 10 10 11 11 28 12 12 13
REMARK SMILES IDX 13 14 27 15 29 16 14 17 26 18 25 19 15 20 23 21 16 22 17 23
REMARK SMILES IDX 22 24 24 25 18 26 21 27 19 28 20 29
REMARK H PARENT 20 30
REMARK Flexibility Score: inf
ROOT
ATOM      1  C   UNL     1      22.186 -28.139  21.949  1.00  0.00     0.012 C 
ATOM      2  C   UNL     1      22.978 -28.080  23.263  1.00  0.00     0.012 C 
ENDROOT
BRANCH   1   3
ATOM      3  C   UNL     1      22.253 -26.783  21.274  1.00  0.00    -0.028 C 
ATOM      4  C   UNL     1      22.580 -25.681  21.967  1.00  0.00    -0.028 C 
BRANCH   4   5
ATOM      5  C   UNL     1      22.650 -24.321  21.302  1.00  0.00     0.011 C 
ATOM      6  C   UNL     1      23.732 -24.324  20.206  1.00  0.00     0.012 C 
BRANCH   5   7
ATOM      7  C   UNL     1      22.843 -23.191  22.359  1.00  0.00    -0.011 C 
ATOM      8  C   UNL     1      24.117 -22.374  22.096  1.00  0.00     0.008 C 
ATOM      9  C   UNL     1      22.833 -23.699  23.812  1.00  0.00     0.008 C 
ENDBRANCH   5   7
ENDBRANCH   4   5
ENDBRANCH   1   3
BRANCH   1  10
ATOM     10  C   UNL     1      20.745 -28.688  22.200  1.00  0.00     0.002 C 
ATOM     11  C   UNL     1      19.581 -27.934  21.499  1.00  0.00     0.005 C 
ATOM     12  C   UNL     1      20.483 -30.193  21.916  1.00  0.00    -0.023 C 
ATOM     13  C   UNL     1      18.500 -28.988  21.188  1.00  0.00     0.009 C 
ATOM     14  C   UNL     1      18.951 -30.208  21.985  1.00  0.00     0.021 C 
ATOM     15  C   UNL     1      21.021 -31.169  22.999  1.00  0.00     0.008 C 
ATOM     16  C   UNL     1      21.019 -30.624  20.516  1.00  0.00     0.012 C 
ATOM     17  C   UNL     1      18.433 -31.596  21.719  1.00  0.00    -0.063 C 
ATOM     18  C   UNL     1      20.427 -32.602  22.850  1.00  0.00     0.009 C 
ATOM     19  C   UNL     1      18.868 -32.610  22.768  1.00  0.00     0.025 C 
ATOM     20  C   UNL     1      17.989 -31.985  20.517  1.00  0.00    -0.000 C 
ATOM     21  C   UNL     1      18.169 -34.018  22.572  1.00  0.00    -0.005 C 
ATOM     22  C   UNL     1      17.850 -33.407  20.180  1.00  0.00    -0.000 C 
ATOM     23  C   UNL     1      18.029 -34.376  21.091  1.00  0.00    -0.061 C 
ATOM     24  C   UNL     1      18.944 -35.149  23.317  1.00  0.00     0.014 C 
ATOM     25  C   UNL     1      16.737 -33.915  23.161  1.00  0.00     0.017 C 
ATOM     26  C   UNL     1      17.719 -35.803  20.688  1.00  0.00     0.063 C 
ATOM     27  C   UNL     1      18.429 -36.556  22.992  1.00  0.00     0.033 C 
ATOM     28  C   UNL     1      18.538 -36.827  21.488  1.00  0.00     0.118 C 
BRANCH  28  29
ATOM     29  O   UNL     1      18.072 -38.124  21.222  1.00  0.00    -0.393 OA
ATOM     30  H   UNL     1      18.654 -38.747  21.732  1.00  0.00     0.210 HD
ENDBRANCH  28  29
ENDBRANCH   1  10
TORSDOF 5
ENDMDL
MODEL 2
REMARK VINA RESULT:    -7.642      4.322      7.864
REMARK INTER + INTRA:         -10.534
REMARK INTER:                  -9.395
REMARK INTRA:                  -1.139
REMARK UNBOUND:                -0.881
REMARK SMILES CC(C)[C@@H](C)C=C[C@@H](C)[C@H]1CC[C@H]2C3=CC=C4C[C@H](O)CC[C@@]4(C)[C@H]3CC[C@]12C
REMARK SMILES IDX 8 1 9 2 7 3 6 4 4 5 5 6 2 7 1 8 3 9 10 10 11 11 28 12 12 13
REMARK SMILES IDX 13 14 27 15 29 16 14 17 26 18 25 19 15 20 23 21 16 22 17 23
REMARK SMILES IDX 22 24 24 25 18 26 21 27 19 28 20 29
REMARK H PARENT 20 30
REMARK Flexibility Score: inf
ROOT
ATOM      1  C   UNL     1      15.931 -33.511  22.083  1.00  0.00     0.012 C 
ATOM      2  C   UNL     1      15.607 -34.702  21.168  1.00  0.00     0.012 C 
ENDROOT
BRANCH   1   3
ATOM      3  C   UNL     1      14.760 -32.548  22.069  1.00  0.00    -0.028 C 
ATOM      4  C   UNL     1      14.271 -32.037  23.210  1.00  0.00    -0.028 C 
BRANCH   4   5
ATOM      5  C   UNL     1      13.102 -31.074  23.207  1.00  0.00     0.011 C 
ATOM      6  C   UNL     1      12.544 -30.923  21.779  1.00  0.00     0.012 C 
BRANCH   5   7
ATOM      7  C   UNL     1      13.494 -29.715  23.864  1.00  0.00    -0.011 C 
ATOM      8  C   UNL     1      12.293 -28.762  23.967  1.00  0.00     0.008 C 
ATOM      9  C   UNL     1      14.669 -29.009  23.162  1.00  0.00     0.008 C 
ENDBRANCH   5   7
ENDBRANCH   4   5
ENDBRANCH   1   3
BRANCH   1  10
ATOM     10  C   UNL     1      17.312 -32.886  21.702  1.00  0.00     0.002 C 
ATOM     11  C   UNL     1      17.276 -31.547  20.914  1.00  0.00     0.005 C 
ATOM     12  C   UNL     1      18.344 -32.659  22.842  1.00  0.00    -0.023 C 
ATOM     13  C   UNL     1      18.525 -30.752  21.344  1.00  0.00     0.009 C 
ATOM     14  C   UNL     1      19.359 -31.779  22.101  1.00  0.00     0.021 C 
ATOM     15  C   UNL     1      19.080 -33.938  23.326  1.00  0.00     0.008 C 
ATOM     16  C   UNL     1      17.708 -31.930  24.066  1.00  0.00     0.012 C 
ATOM     17  C   UNL     1      20.485 -31.398  23.025  1.00  0.00    -0.063 C 
ATOM     18  C   UNL     1      20.332 -33.607  24.192  1.00  0.00     0.009 C 
ATOM     19  C   UNL     1      21.298 -32.592  23.505  1.00  0.00     0.025 C 
ATOM     20  C   UNL     1      20.529 -30.223  23.666  1.00  0.00    -0.000 C 
ATOM     21  C   UNL     1      22.582 -32.157  24.326  1.00  0.00    -0.005 C 
ATOM     22  C   UNL     1      21.406 -30.021  24.826  1.00  0.00    -0.000 C 
ATOM     23  C   UNL     1      22.297 -30.946  25.216  1.00  0.00    -0.061 C 
ATOM     24  C   UNL     1      23.130 -33.332  25.194  1.00  0.00     0.014 C 
ATOM     25  C   UNL     1      23.669 -31.735  23.303  1.00  0.00     0.017 C 
ATOM     26  C   UNL     1      23.260 -30.587  26.329  1.00  0.00     0.063 C 
ATOM     27  C   UNL     1      24.242 -32.908  26.160  1.00  0.00     0.033 C 
ATOM     28  C   UNL     1      23.732 -31.822  27.112  1.00  0.00     0.118 C 
BRANCH  28  29
ATOM     29  O   UNL     1      24.766 -31.463  27.991  1.00  0.00    -0.393 OA
ATOM     30  H   UNL     1      25.531 -31.171  27.430  1.00  0.00     0.210 HD
ENDBRANCH  28  29
ENDBRANCH   1  10
TORSDOF 5
ENDMDL
MODEL 3
REMARK VINA RESULT:    -7.603      4.632      7.656
REMARK INTER + INTRA:         -10.484
REMARK INTER:                  -9.286
REMARK INTRA:                  -1.199
REMARK UNBOUND:                -0.881
REMARK SMILES CC(C)[C@@H](C)C=C[C@@H](C)[C@H]1CC[C@H]2C3=CC=C4C[C@H](O)CC[C@@]4(C)[C@H]3CC[C@]12C
REMARK SMILES IDX 8 1 9 2 7 3 6 4 4 5 5 6 2 7 1 8 3 9 10 10 11 11 28 12 12 13
REMARK SMILES IDX 13 14 27 15 29 16 14 17 26 18 25 19 15 20 23 21 16 22 17 23
REMARK SMILES IDX 22 24 24 25 18 26 21 27 19 28 20 29
REMARK H PARENT 20 30
REMARK Flexibility Score: inf
ROOT
ATOM      1  C   UNL     1      15.746 -33.748  21.566  1.00  0.00     0.012 C 
ATOM      2  C   UNL     1      15.355 -34.783  20.500  1.00  0.00     0.012 C 
ENDROOT
BRANCH   1   3
ATOM      3  C   UNL     1      14.628 -32.734  21.699  1.00  0.00    -0.028 C 
ATOM      4  C   UNL     1      14.265 -32.257  22.901  1.00  0.00    -0.028 C 
BRANCH   4   5
ATOM      5  C   UNL     1      13.149 -31.243  23.044  1.00  0.00     0.011 C 
ATOM      6  C   UNL     1      12.507 -30.965  21.672  1.00  0.00     0.012 C 
BRANCH   5   7
ATOM      7  C   UNL     1      13.654 -29.954  23.764  1.00  0.00    -0.011 C 
ATOM      8  C   UNL     1      12.544 -28.898  23.888  1.00  0.00     0.008 C 
ATOM      9  C   UNL     1      14.902 -29.334  23.111  1.00  0.00     0.008 C 
ENDBRANCH   5   7
ENDBRANCH   4   5
ENDBRANCH   1   3
BRANCH   1  10
ATOM     10  C   UNL     1      17.156 -33.149  21.258  1.00  0.00     0.002 C 
ATOM     11  C   UNL     1      17.202 -31.646  20.865  1.00  0.00     0.005 C 
ATOM     12  C   UNL     1      18.267 -33.323  22.330  1.00  0.00    -0.023 C 
ATOM     13  C   UNL     1      18.543 -31.097  21.391  1.00  0.00     0.009 C 
ATOM     14  C   UNL     1      19.318 -32.353  21.774  1.00  0.00     0.021 C 
ATOM     15  C   UNL     1      18.906 -34.738  22.391  1.00  0.00     0.008 C 
ATOM     16  C   UNL     1      17.774 -32.913  23.752  1.00  0.00     0.012 C 
ATOM     17  C   UNL     1      20.526 -32.327  22.673  1.00  0.00    -0.063 C 
ATOM     18  C   UNL     1      20.230 -34.754  23.211  1.00  0.00     0.009 C 
ATOM     19  C   UNL     1      21.248 -33.664  22.747  1.00  0.00     0.025 C 
ATOM     20  C   UNL     1      20.717 -31.380  23.601  1.00  0.00    -0.000 C 
ATOM     21  C   UNL     1      22.611 -33.571  23.549  1.00  0.00    -0.005 C 
ATOM     22  C   UNL     1      21.673 -31.571  24.698  1.00  0.00    -0.000 C 
ATOM     23  C   UNL     1      22.493 -32.632  24.752  1.00  0.00    -0.061 C 
ATOM     24  C   UNL     1      23.094 -34.977  24.022  1.00  0.00     0.014 C 
ATOM     25  C   UNL     1      23.674 -32.967  22.593  1.00  0.00     0.017 C 
ATOM     26  C   UNL     1      23.547 -32.668  25.840  1.00  0.00     0.063 C 
ATOM     27  C   UNL     1      24.294 -34.920  24.974  1.00  0.00     0.033 C 
ATOM     28  C   UNL     1      23.944 -34.103  26.221  1.00  0.00     0.118 C 
BRANCH  28  29
ATOM     29  O   UNL     1      25.055 -34.079  27.078  1.00  0.00    -0.393 OA
ATOM     30  H   UNL     1      24.763 -34.482  27.937  1.00  0.00     0.210 HD
ENDBRANCH  28  29
ENDBRANCH   1  10
TORSDOF 5
ENDMDL
MODEL 4
REMARK VINA RESULT:    -7.369      3.568      8.713
REMARK INTER + INTRA:         -10.189
REMARK INTER:                  -9.446
REMARK INTRA:                  -0.743
REMARK UNBOUND:                -0.881
REMARK SMILES CC(C)[C@@H](C)C=C[C@@H](C)[C@H]1CC[C@H]2C3=CC=C4C[C@H](O)CC[C@@]4(C)[C@H]3CC[C@]12C
REMARK SMILES IDX 8 1 9 2 7 3 6 4 4 5 5 6 2 7 1 8 3 9 10 10 11 11 28 12 12 13
REMARK SMILES IDX 13 14 27 15 29 16 14 17 26 18 25 19 15 20 23 21 16 22 17 23
REMARK SMILES IDX 22 24 24 25 18 26 21 27 19 28 20 29
REMARK H PARENT 20 30
REMARK Flexibility Score: inf
ROOT
ATOM      1  C   UNL     1      17.808 -32.795  24.186  1.00  0.00     0.012 C 
ATOM      2  C   UNL     1      18.272 -34.203  24.585  1.00  0.00     0.012 C 
ENDROOT
BRANCH   1   3
ATOM      3  C   UNL     1      16.296 -32.787  24.082  1.00  0.00    -0.028 C 
ATOM      4  C   UNL     1      15.616 -31.636  23.964  1.00  0.00    -0.028 C 
BRANCH   4   5
ATOM      5  C   UNL     1      14.105 -31.617  23.858  1.00  0.00     0.011 C 
ATOM      6  C   UNL     1      13.516 -32.904  24.465  1.00  0.00     0.012 C 
BRANCH   5   7
ATOM      7  C   UNL     1      13.650 -31.363  22.388  1.00  0.00    -0.011 C 
ATOM      8  C   UNL     1      14.692 -30.555  21.599  1.00  0.00     0.008 C 
ATOM      9  C   UNL     1      12.269 -30.691  22.280  1.00  0.00     0.008 C 
ENDBRANCH   5   7
ENDBRANCH   4   5
ENDBRANCH   1   3
BRANCH   1  10
ATOM     10  C   UNL     1      18.566 -32.308  22.909  1.00  0.00     0.002 C 
ATOM     11  C   UNL     1      17.857 -32.543  21.546  1.00  0.00     0.005 C 
ATOM     12  C   UNL     1      19.043 -30.830  22.869  1.00  0.00    -0.023 C 
ATOM     13  C   UNL     1      18.276 -31.379  20.628  1.00  0.00     0.009 C 
ATOM     14  C   UNL     1      19.422 -30.720  21.387  1.00  0.00     0.021 C 
ATOM     15  C   UNL     1      20.312 -30.526  23.712  1.00  0.00     0.008 C 
ATOM     16  C   UNL     1      17.905 -29.840  23.266  1.00  0.00     0.012 C 
ATOM     17  C   UNL     1      19.915 -29.331  21.079  1.00  0.00    -0.063 C 
ATOM     18  C   UNL     1      20.942 -29.146  23.355  1.00  0.00     0.009 C 
ATOM     19  C   UNL     1      21.192 -28.968  21.824  1.00  0.00     0.025 C 
ATOM     20  C   UNL     1      19.131 -28.387  20.542  1.00  0.00    -0.000 C 
ATOM     21  C   UNL     1      21.792 -27.579  21.354  1.00  0.00    -0.005 C 
ATOM     22  C   UNL     1      19.499 -26.967  20.600  1.00  0.00    -0.000 C 
ATOM     23  C   UNL     1      20.689 -26.558  21.068  1.00  0.00    -0.061 C 
ATOM     24  C   UNL     1      22.787 -27.000  22.407  1.00  0.00     0.014 C 
ATOM     25  C   UNL     1      22.551 -27.825  20.023  1.00  0.00     0.017 C 
ATOM     26  C   UNL     1      21.037 -25.088  20.950  1.00  0.00     0.063 C 
ATOM     27  C   UNL     1      23.236 -25.567  22.097  1.00  0.00     0.033 C 
ATOM     28  C   UNL     1      22.024 -24.633  22.036  1.00  0.00     0.118 C 
BRANCH  28  29
ATOM     29  O   UNL     1      22.465 -23.329  21.765  1.00  0.00    -0.393 OA
ATOM     30  H   UNL     1      22.743 -22.934  22.632  1.00  0.00     0.210 HD
ENDBRANCH  28  29
ENDBRANCH   1  10
TORSDOF 5
ENDMDL
MODEL 5
REMARK VINA RESULT:    -7.312      1.470      2.819
REMARK INTER + INTRA:         -10.117
REMARK INTER:                  -9.254
REMARK INTRA:                  -0.863
REMARK UNBOUND:                -0.881
REMARK SMILES CC(C)[C@@H](C)C=C[C@@H](C)[C@H]1CC[C@H]2C3=CC=C4C[C@H](O)CC[C@@]4(C)[C@H]3CC[C@]12C
REMARK SMILES IDX 8 1 9 2 7 3 6 4 4 5 5 6 2 7 1 8 3 9 10 10 11 11 28 12 12 13
REMARK SMILES IDX 13 14 27 15 29 16 14 17 26 18 25 19 15 20 23 21 16 22 17 23
REMARK SMILES IDX 22 24 24 25 18 26 21 27 19 28 20 29
REMARK H PARENT 20 30
REMARK Flexibility Score: inf
ROOT
ATOM      1  C   UNL     1      22.596 -27.121  21.549  1.00  0.00     0.012 C 
ATOM      2  C   UNL     1      23.740 -27.223  20.529  1.00  0.00     0.012 C 
ENDROOT
BRANCH   1   3
ATOM      3  C   UNL     1      22.781 -25.861  22.370  1.00  0.00    -0.028 C 
ATOM      4  C   UNL     1      22.434 -24.660  21.882  1.00  0.00    -0.028 C 
BRANCH   4   5
ATOM      5  C   UNL     1      22.614 -23.394  22.695  1.00  0.00     0.011 C 
ATOM      6  C   UNL     1      21.254 -22.700  22.902  1.00  0.00     0.012 C 
BRANCH   5   7
ATOM      7  C   UNL     1      23.691 -22.465  22.055  1.00  0.00    -0.011 C 
ATOM      8  C   UNL     1      24.303 -23.087  20.790  1.00  0.00     0.008 C 
ATOM      9  C   UNL     1      24.806 -22.053  23.032  1.00  0.00     0.008 C 
ENDBRANCH   5   7
ENDBRANCH   4   5
ENDBRANCH   1   3
BRANCH   1  10
ATOM     10  C   UNL     1      22.476 -28.443  22.374  1.00  0.00     0.002 C 
ATOM     11  C   UNL     1      22.651 -28.320  23.914  1.00  0.00     0.005 C 
ATOM     12  C   UNL     1      21.200 -29.308  22.178  1.00  0.00    -0.023 C 
ATOM     13  C   UNL     1      21.752 -29.402  24.544  1.00  0.00     0.009 C 
ATOM     14  C   UNL     1      21.358 -30.275  23.358  1.00  0.00     0.021 C 
ATOM     15  C   UNL     1      21.170 -30.146  20.871  1.00  0.00     0.008 C 
ATOM     16  C   UNL     1      19.898 -28.455  22.279  1.00  0.00     0.012 C 
ATOM     17  C   UNL     1      20.200 -31.236  23.399  1.00  0.00    -0.063 C 
ATOM     18  C   UNL     1      20.064 -31.244  20.899  1.00  0.00     0.009 C 
ATOM     19  C   UNL     1      20.126 -32.140  22.176  1.00  0.00     0.025 C 
ATOM     20  C   UNL     1      19.140 -31.059  24.198  1.00  0.00    -0.000 C 
ATOM     21  C   UNL     1      19.015 -33.260  22.319  1.00  0.00    -0.005 C 
ATOM     22  C   UNL     1      17.879 -31.771  23.959  1.00  0.00    -0.000 C 
ATOM     23  C   UNL     1      17.766 -32.727  23.023  1.00  0.00    -0.061 C 
ATOM     24  C   UNL     1      18.625 -33.858  20.932  1.00  0.00     0.014 C 
ATOM     25  C   UNL     1      19.602 -34.388  23.208  1.00  0.00     0.017 C 
ATOM     26  C   UNL     1      16.470 -33.509  22.951  1.00  0.00     0.063 C 
ATOM     27  C   UNL     1      17.412 -34.795  20.993  1.00  0.00     0.033 C 
ATOM     28  C   UNL     1      16.192 -34.050  21.540  1.00  0.00     0.118 C 
BRANCH  28  29
ATOM     29  O   UNL     1      15.097 -34.927  21.572  1.00  0.00    -0.393 OA
ATOM     30  H   UNL     1      15.304 -35.666  20.943  1.00  0.00     0.210 HD
ENDBRANCH  28  29
ENDBRANCH   1  10
TORSDOF 5
ENDMDL
MODEL 6
REMARK VINA RESULT:    -7.296      3.893      7.584
REMARK INTER + INTRA:         -10.097
REMARK INTER:                  -9.549
REMARK INTRA:                  -0.548
REMARK UNBOUND:                -0.881
REMARK SMILES CC(C)[C@@H](C)C=C[C@@H](C)[C@H]1CC[C@H]2C3=CC=C4C[C@H](O)CC[C@@]4(C)[C@H]3CC[C@]12C
REMARK SMILES IDX 8 1 9 2 7 3 6 4 4 5 5 6 2 7 1 8 3 9 10 10 11 11 28 12 12 13
REMARK SMILES IDX 13 14 27 15 29 16 14 17 26 18 25 19 15 20 23 21 16 22 17 23
REMARK SMILES IDX 22 24 24 25 18 26 21 27 19 28 20 29
REMARK H PARENT 20 30
REMARK Flexibility Score: inf
ROOT
ATOM      1  C   UNL     1      13.873 -32.330  22.337  1.00  0.00     0.012 C 
ATOM      2  C   UNL     1      13.607 -31.793  20.922  1.00  0.00     0.012 C 
ENDROOT
BRANCH   1   3
ATOM      3  C   UNL     1      13.615 -31.223  23.339  1.00  0.00    -0.028 C 
ATOM      4  C   UNL     1      13.454 -29.952  22.940  1.00  0.00    -0.028 C 
BRANCH   4   5
ATOM      5  C   UNL     1      13.195 -28.838  23.934  1.00  0.00     0.011 C 
ATOM      6  C   UNL     1      11.689 -28.524  23.996  1.00  0.00     0.012 C 
BRANCH   5   7
ATOM      7  C   UNL     1      14.075 -27.590  23.618  1.00  0.00    -0.011 C 
ATOM      8  C   UNL     1      15.511 -27.984  23.239  1.00  0.00     0.008 C 
ATOM      9  C   UNL     1      14.095 -26.549  24.752  1.00  0.00     0.008 C 
ENDBRANCH   5   7
ENDBRANCH   4   5
ENDBRANCH   1   3
BRANCH   1  10
ATOM     10  C   UNL     1      15.289 -32.986  22.417  1.00  0.00     0.002 C 
ATOM     11  C   UNL     1      15.670 -33.964  21.270  1.00  0.00     0.005 C 
ATOM     12  C   UNL     1      16.516 -32.045  22.572  1.00  0.00    -0.023 C 
ATOM     13  C   UNL     1      17.193 -33.836  21.073  1.00  0.00     0.009 C 
ATOM     14  C   UNL     1      17.646 -33.044  22.295  1.00  0.00     0.021 C 
ATOM     15  C   UNL     1      16.725 -31.468  24.000  1.00  0.00     0.008 C 
ATOM     16  C   UNL     1      16.488 -30.877  21.539  1.00  0.00     0.012 C 
ATOM     17  C   UNL     1      18.981 -32.351  22.372  1.00  0.00    -0.063 C 
ATOM     18  C   UNL     1      18.139 -30.840  24.182  1.00  0.00     0.009 C 
ATOM     19  C   UNL     1      19.293 -31.802  23.757  1.00  0.00     0.025 C 
ATOM     20  C   UNL     1      19.634 -31.915  21.287  1.00  0.00    -0.000 C 
ATOM     21  C   UNL     1      20.770 -31.238  23.864  1.00  0.00    -0.005 C 
ATOM     22  C   UNL     1      20.716 -30.929  21.395  1.00  0.00    -0.000 C 
ATOM     23  C   UNL     1      21.193 -30.521  22.581  1.00  0.00    -0.061 C 
ATOM     24  C   UNL     1      20.928 -30.277  25.083  1.00  0.00     0.014 C 
ATOM     25  C   UNL     1      21.719 -32.451  24.052  1.00  0.00     0.017 C 
ATOM     26  C   UNL     1      22.409 -29.617  22.591  1.00  0.00     0.063 C 
ATOM     27  C   UNL     1      22.276 -29.547  25.112  1.00  0.00     0.033 C 
ATOM     28  C   UNL     1      22.459 -28.719  23.837  1.00  0.00     0.118 C 
BRANCH  28  29
ATOM     29  O   UNL     1      23.693 -28.054  23.897  1.00  0.00    -0.393 OA
ATOM     30  H   UNL     1      23.630 -27.277  23.281  1.00  0.00     0.210 HD
ENDBRANCH  28  29
ENDBRANCH   1  10
TORSDOF 5
ENDMDL
MODEL 7
REMARK VINA RESULT:    -7.269      4.389      7.339
REMARK INTER + INTRA:         -10.063
REMARK INTER:                  -9.260
REMARK INTRA:                  -0.803
REMARK UNBOUND:                -0.881
REMARK SMILES CC(C)[C@@H](C)C=C[C@@H](C)[C@H]1CC[C@H]2C3=CC=C4C[C@H](O)CC[C@@]4(C)[C@H]3CC[C@]12C
REMARK SMILES IDX 8 1 9 2 7 3 6 4 4 5 5 6 2 7 1 8 3 9 10 10 11 11 28 12 12 13
REMARK SMILES IDX 13 14 27 15 29 16 14 17 26 18 25 19 15 20 23 21 16 22 17 23
REMARK SMILES IDX 22 24 24 25 18 26 21 27 19 28 20 29
REMARK H PARENT 20 30
REMARK Flexibility Score: inf
ROOT
ATOM      1  C   UNL     1      16.773 -30.373  22.313  1.00  0.00     0.012 C 
ATOM      2  C   UNL     1      17.053 -28.863  22.266  1.00  0.00     0.012 C 
ENDROOT
BRANCH   1   3
ATOM      3  C   UNL     1      15.281 -30.590  22.471  1.00  0.00    -0.028 C 
ATOM      4  C   UNL     1      14.573 -29.896  23.375  1.00  0.00    -0.028 C 
BRANCH   4   5
ATOM      5  C   UNL     1      13.081 -30.104  23.540  1.00  0.00     0.011 C 
ATOM      6  C   UNL     1      12.474 -30.641  22.230  1.00  0.00     0.012 C 
BRANCH   5   7
ATOM      7  C   UNL     1      12.388 -28.807  24.057  1.00  0.00    -0.011 C 
ATOM      8  C   UNL     1      11.202 -28.399  23.168  1.00  0.00     0.008 C 
ATOM      9  C   UNL     1      13.353 -27.620  24.226  1.00  0.00     0.008 C 
ENDBRANCH   5   7
ENDBRANCH   4   5
ENDBRANCH   1   3
BRANCH   1  10
ATOM     10  C   UNL     1      17.665 -31.064  23.394  1.00  0.00     0.002 C 
ATOM     11  C   UNL     1      16.993 -32.181  24.240  1.00  0.00     0.005 C 
ATOM     12  C   UNL     1      19.025 -31.662  22.938  1.00  0.00    -0.023 C 
ATOM     13  C   UNL     1      18.100 -33.199  24.580  1.00  0.00     0.009 C 
ATOM     14  C   UNL     1      19.383 -32.474  24.188  1.00  0.00     0.021 C 
ATOM     15  C   UNL     1      20.154 -30.620  22.702  1.00  0.00     0.008 C 
ATOM     16  C   UNL     1      18.871 -32.558  21.671  1.00  0.00     0.012 C 
ATOM     17  C   UNL     1      20.695 -33.185  23.986  1.00  0.00    -0.063 C 
ATOM     18  C   UNL     1      21.559 -31.286  22.602  1.00  0.00     0.009 C 
ATOM     19  C   UNL     1      21.871 -32.236  23.801  1.00  0.00     0.025 C 
ATOM     20  C   UNL     1      20.772 -34.469  23.612  1.00  0.00    -0.000 C 
ATOM     21  C   UNL     1      23.261 -32.995  23.770  1.00  0.00    -0.005 C 
ATOM     22  C   UNL     1      22.012 -35.028  23.059  1.00  0.00    -0.000 C 
ATOM     23  C   UNL     1      23.157 -34.329  23.027  1.00  0.00    -0.061 C 
ATOM     24  C   UNL     1      24.377 -32.117  23.125  1.00  0.00     0.014 C 
ATOM     25  C   UNL     1      23.652 -33.312  25.238  1.00  0.00     0.017 C 
ATOM     26  C   UNL     1      24.418 -35.039  22.578  1.00  0.00     0.063 C 
ATOM     27  C   UNL     1      25.687 -32.877  22.885  1.00  0.00     0.033 C 
ATOM     28  C   UNL     1      25.443 -34.075  21.962  1.00  0.00     0.118 C 
BRANCH  28  29
ATOM     29  O   UNL     1      26.659 -34.743  21.750  1.00  0.00    -0.393 OA
ATOM     30  H   UNL     1      26.575 -35.223  20.885  1.00  0.00     0.210 HD
ENDBRANCH  28  29
ENDBRANCH   1  10
TORSDOF 5
ENDMDL
MODEL 8
REMARK VINA RESULT:    -7.267      3.908      8.228
REMARK INTER + INTRA:         -10.060
REMARK INTER:                  -9.633
REMARK INTRA:                  -0.427
REMARK UNBOUND:                -0.881
REMARK SMILES CC(C)[C@@H](C)C=C[C@@H](C)[C@H]1CC[C@H]2C3=CC=C4C[C@H](O)CC[C@@]4(C)[C@H]3CC[C@]12C
REMARK SMILES IDX 8 1 9 2 7 3 6 4 4 5 5 6 2 7 1 8 3 9 10 10 11 11 28 12 12 13
REMARK SMILES IDX 13 14 27 15 29 16 14 17 26 18 25 19 15 20 23 21 16 22 17 23
REMARK SMILES IDX 22 24 24 25 18 26 21 27 19 28 20 29
REMARK H PARENT 20 30
REMARK Flexibility Score: inf
ROOT
ATOM      1  C   UNL     1      15.371 -34.368  21.788  1.00  0.00     0.012 C 
ATOM      2  C   UNL     1      15.337 -34.711  20.291  1.00  0.00     0.012 C 
ENDROOT
BRANCH   1   3
ATOM      3  C   UNL     1      14.887 -32.944  21.976  1.00  0.00    -0.028 C 
ATOM      4  C   UNL     1      14.160 -32.329  21.030  1.00  0.00    -0.028 C 
BRANCH   4   5
ATOM      5  C   UNL     1      13.670 -30.907  21.208  1.00  0.00     0.011 C 
ATOM      6  C   UNL     1      14.853 -29.978  21.543  1.00  0.00     0.012 C 
BRANCH   5   7
ATOM      7  C   UNL     1      12.516 -30.839  22.254  1.00  0.00    -0.011 C 
ATOM      8  C   UNL     1      11.145 -30.667  21.581  1.00  0.00     0.008 C 
ATOM      9  C   UNL     1      12.718 -29.751  23.324  1.00  0.00     0.008 C 
ENDBRANCH   5   7
ENDBRANCH   4   5
ENDBRANCH   1   3
BRANCH   1  10
ATOM     10  C   UNL     1      16.778 -34.678  22.391  1.00  0.00     0.002 C 
ATOM     11  C   UNL     1      17.622 -35.763  21.666  1.00  0.00     0.005 C 
ATOM     12  C   UNL     1      17.752 -33.487  22.612  1.00  0.00    -0.023 C 
ATOM     13  C   UNL     1      19.099 -35.358  21.839  1.00  0.00     0.009 C 
ATOM     14  C   UNL     1      19.047 -34.259  22.895  1.00  0.00     0.021 C 
ATOM     15  C   UNL     1      17.439 -32.604  23.851  1.00  0.00     0.008 C 
ATOM     16  C   UNL     1      17.863 -32.584  21.345  1.00  0.00     0.012 C 
ATOM     17  C   UNL     1      20.181 -33.298  23.133  1.00  0.00    -0.063 C 
ATOM     18  C   UNL     1      18.626 -31.666  24.223  1.00  0.00     0.009 C 
ATOM     19  C   UNL     1      19.983 -32.427  24.365  1.00  0.00     0.025 C 
ATOM     20  C   UNL     1      21.057 -32.961  22.176  1.00  0.00    -0.000 C 
ATOM     21  C   UNL     1      21.261 -31.554  24.700  1.00  0.00    -0.005 C 
ATOM     22  C   UNL     1      21.902 -31.768  22.304  1.00  0.00    -0.000 C 
ATOM     23  C   UNL     1      21.938 -31.037  23.429  1.00  0.00    -0.061 C 
ATOM     24  C   UNL     1      20.906 -30.356  25.634  1.00  0.00     0.014 C 
ATOM     25  C   UNL     1      22.278 -32.475  25.425  1.00  0.00     0.017 C 
ATOM     26  C   UNL     1      22.950 -29.913  23.520  1.00  0.00     0.063 C 
ATOM     27  C   UNL     1      22.063 -29.367  25.821  1.00  0.00     0.033 C 
ATOM     28  C   UNL     1      22.494 -28.793  24.468  1.00  0.00     0.118 C 
BRANCH  28  29
ATOM     29  O   UNL     1      23.543 -27.883  24.671  1.00  0.00    -0.393 OA
ATOM     30  H   UNL     1      23.444 -27.173  23.984  1.00  0.00     0.210 HD
ENDBRANCH  28  29
ENDBRANCH   1  10
TORSDOF 5
ENDMDL
MODEL 9
REMARK VINA RESULT:    -7.094      3.724      6.236
REMARK INTER + INTRA:          -9.841
REMARK INTER:                  -8.916
REMARK INTRA:                  -0.925
REMARK UNBOUND:                -0.881
REMARK SMILES CC(C)[C@@H](C)C=C[C@@H](C)[C@H]1CC[C@H]2C3=CC=C4C[C@H](O)CC[C@@]4(C)[C@H]3CC[C@]12C
REMARK SMILES IDX 8 1 9 2 7 3 6 4 4 5 5 6 2 7 1 8 3 9 10 10 11 11 28 12 12 13
REMARK SMILES IDX 13 14 27 15 29 16 14 17 26 18 25 19 15 20 23 21 16 22 17 23
REMARK SMILES IDX 22 24 24 25 18 26 21 27 19 28 20 29
REMARK H PARENT 20 30
REMARK Flexibility Score: inf
ROOT
ATOM      1  C   UNL     1      21.938 -34.471  22.920  1.00  0.00     0.012 C 
ATOM      2  C   UNL     1      22.044 -34.809  24.415  1.00  0.00     0.012 C 
ENDROOT
BRANCH   1   3
ATOM      3  C   UNL     1      22.400 -33.044  22.705  1.00  0.00    -0.028 C 
ATOM      4  C   UNL     1      22.620 -32.224  23.745  1.00  0.00    -0.028 C 
BRANCH   4   5
ATOM      5  C   UNL     1      23.083 -30.796  23.542  1.00  0.00     0.011 C 
ATOM      6  C   UNL     1      24.282 -30.492  24.460  1.00  0.00     0.012 C 
BRANCH   5   7
ATOM      7  C   UNL     1      21.901 -29.794  23.716  1.00  0.00    -0.011 C 
ATOM      8  C   UNL     1      20.855 -30.313  24.715  1.00  0.00     0.008 C 
ATOM      9  C   UNL     1      21.219 -29.411  22.390  1.00  0.00     0.008 C 
ENDBRANCH   5   7
ENDBRANCH   4   5
ENDBRANCH   1   3
BRANCH   1  10
ATOM     10  C   UNL     1      20.507 -34.797  22.384  1.00  0.00     0.002 C 
ATOM     11  C   UNL     1      19.980 -36.237  22.635  1.00  0.00     0.005 C 
ATOM     12  C   UNL     1      19.343 -33.859  22.809  1.00  0.00    -0.023 C 
ATOM     13  C   UNL     1      18.452 -36.122  22.805  1.00  0.00     0.009 C 
ATOM     14  C   UNL     1      18.148 -34.700  22.343  1.00  0.00     0.021 C 
ATOM     15  C   UNL     1      19.290 -32.497  22.062  1.00  0.00     0.008 C 
ATOM     16  C   UNL     1      19.330 -33.608  24.348  1.00  0.00     0.012 C 
ATOM     17  C   UNL     1      16.859 -33.994  22.667  1.00  0.00    -0.063 C 
ATOM     18  C   UNL     1      17.929 -31.767  22.261  1.00  0.00     0.009 C 
ATOM     19  C   UNL     1      16.698 -32.671  21.932  1.00  0.00     0.025 C 
ATOM     20  C   UNL     1      16.131 -34.278  23.755  1.00  0.00    -0.000 C 
ATOM     21  C   UNL     1      15.264 -32.032  22.144  1.00  0.00    -0.005 C 
ATOM     22  C   UNL     1      15.108 -33.350  24.251  1.00  0.00    -0.000 C 
ATOM     23  C   UNL     1      14.759 -32.245  23.573  1.00  0.00    -0.061 C 
ATOM     24  C   UNL     1      15.261 -30.509  21.805  1.00  0.00     0.014 C 
ATOM     25  C   UNL     1      14.282 -32.764  21.192  1.00  0.00     0.017 C 
ATOM     26  C   UNL     1      13.592 -31.428  24.087  1.00  0.00     0.063 C 
ATOM     27  C   UNL     1      13.955 -29.803  22.189  1.00  0.00     0.033 C 
ATOM     28  C   UNL     1      13.695 -29.947  23.691  1.00  0.00     0.118 C 
BRANCH  28  29
ATOM     29  O   UNL     1      12.503 -29.281  24.015  1.00  0.00    -0.393 OA
ATOM     30  H   UNL     1      12.758 -28.471  24.529  1.00  0.00     0.210 HD
ENDBRANCH  28  29
ENDBRANCH   1  10
TORSDOF 5
ENDMDL
