MODEL 1
REMARK VINA RESULT:    -5.012      0.000      0.000
REMARK INTER + INTRA:          -5.847
REMARK INTER:                  -5.452
REMARK INTRA:                  -0.395
REMARK UNBOUND:                -0.395
REMARK SMILES C=C1C[C@@]2(O)O[C@@]3(C[C@H]2C(C)C)[C@H](C)CC[C@@H]13
REMARK SMILES IDX 14 1 13 2 15 3 16 4 17 5 7 6 8 7 9 8 4 9 6 10 3 11 2 12 1 13
REMARK SMILES IDX 10 14 11 15 12 16 5 17
REMARK H PARENT 5 18
REMARK Flexibility Score: inf
ROOT
ATOM      1  C   UNL     1      33.172  -8.152 -27.949  1.00  0.00     0.011 C 
ATOM      2  C   UNL     1      32.800  -8.505 -29.403  1.00  0.00     0.019 C 
ATOM      3  C   UNL     1      33.903  -8.041 -30.362  1.00  0.00     0.007 C 
ATOM      4  C   UNL     1      33.483  -6.668 -30.898  1.00  0.00     0.011 C 
ATOM      5  C   UNL     1      32.062  -6.404 -30.383  1.00  0.00     0.047 C 
ATOM      6  C   UNL     1      31.543  -7.782 -29.918  1.00  0.00     0.081 C 
ATOM      7  C   UNL     1      30.380  -7.670 -28.923  1.00  0.00     0.046 C 
ATOM      8  C   UNL     1      29.159  -7.698 -29.836  1.00  0.00     0.054 C 
ATOM      9  C   UNL     1      29.766  -7.872 -31.255  1.00  0.00     0.173 C 
ATOM     10  O   UNL     1      31.021  -8.477 -31.033  1.00  0.00    -0.342 OA
ATOM     11  C   UNL     1      30.034  -6.575 -32.055  1.00  0.00     0.096 C 
ATOM     12  C   UNL     1      31.165  -5.776 -31.442  1.00  0.00    -0.066 C 
ATOM     13  C   UNL     1      31.392  -4.521 -31.854  1.00  0.00     0.008 C 
ENDROOT
BRANCH   8  14
ATOM     14  C   UNL     1      28.079  -6.606 -29.537  1.00  0.00    -0.009 C 
ATOM     15  C   UNL     1      26.738  -7.084 -28.940  1.00  0.00     0.008 C 
ATOM     16  C   UNL     1      28.661  -5.447 -28.716  1.00  0.00     0.008 C 
ENDBRANCH   8  14
BRANCH   9  17
ATOM     17  O   UNL     1      28.946  -8.730 -32.009  1.00  0.00    -0.365 OA
ATOM     18  H   UNL     1      28.893  -8.360 -32.929  1.00  0.00     0.214 HD
ENDBRANCH   9  17
TORSDOF 2
ENDMDL
MODEL 2
REMARK VINA RESULT:    -4.837      1.851      3.550
REMARK INTER + INTRA:          -5.656
REMARK INTER:                  -5.274
REMARK INTRA:                  -0.382
REMARK UNBOUND:                -0.395
REMARK SMILES C=C1C[C@@]2(O)O[C@@]3(C[C@H]2C(C)C)[C@H](C)CC[C@@H]13
REMARK SMILES IDX 14 1 13 2 15 3 16 4 17 5 7 6 8 7 9 8 4 9 6 10 3 11 2 12 1 13
REMARK SMILES IDX 10 14 11 15 12 16 5 17
REMARK H PARENT 5 18
REMARK Flexibility Score: inf
ROOT
ATOM      1  C   UNL     1      34.125  -7.755 -32.297  1.00  0.00     0.011 C 
ATOM      2  C   UNL     1      32.629  -7.442 -32.089  1.00  0.00     0.019 C 
ATOM      3  C   UNL     1      32.304  -6.033 -32.599  1.00  0.00     0.007 C 
ATOM      4  C   UNL     1      32.368  -5.094 -31.389  1.00  0.00     0.011 C 
ATOM      5  C   UNL     1      32.566  -5.975 -30.149  1.00  0.00     0.047 C 
ATOM      6  C   UNL     1      32.201  -7.402 -30.612  1.00  0.00     0.081 C 
ATOM      7  C   UNL     1      32.803  -8.488 -29.710  1.00  0.00     0.046 C 
ATOM      8  C   UNL     1      31.702  -8.713 -28.680  1.00  0.00     0.054 C 
ATOM      9  C   UNL     1      30.568  -7.758 -29.142  1.00  0.00     0.173 C 
ATOM     10  O   UNL     1      30.800  -7.571 -30.521  1.00  0.00    -0.342 OA
ATOM     11  C   UNL     1      30.547  -6.350 -28.501  1.00  0.00     0.096 C 
ATOM     12  C   UNL     1      31.722  -5.517 -28.967  1.00  0.00    -0.066 C 
ATOM     13  C   UNL     1      32.002  -4.360 -28.352  1.00  0.00     0.008 C 
ENDROOT
BRANCH   8  14
ATOM     14  C   UNL     1      32.180  -8.754 -27.192  1.00  0.00    -0.009 C 
ATOM     15  C   UNL     1      31.851 -10.024 -26.378  1.00  0.00     0.008 C 
ATOM     16  C   UNL     1      33.668  -8.397 -27.067  1.00  0.00     0.008 C 
ENDBRANCH   8  14
BRANCH   9  17
ATOM     17  O   UNL     1      29.324  -8.384 -28.945  1.00  0.00    -0.365 OA
ATOM     18  H   UNL     1      29.393  -8.931 -28.119  1.00  0.00     0.214 HD
ENDBRANCH   9  17
TORSDOF 2
ENDMDL
MODEL 3
REMARK VINA RESULT:    -4.627      1.638      4.733
REMARK INTER + INTRA:          -5.428
REMARK INTER:                  -5.034
REMARK INTRA:                  -0.394
REMARK UNBOUND:                -0.395
REMARK SMILES C=C1C[C@@]2(O)O[C@@]3(C[C@H]2C(C)C)[C@H](C)CC[C@@H]13
REMARK SMILES IDX 14 1 13 2 15 3 16 4 17 5 7 6 8 7 9 8 4 9 6 10 3 11 2 12 1 13
REMARK SMILES IDX 10 14 11 15 12 16 5 17
REMARK H PARENT 5 18
REMARK Flexibility Score: inf
ROOT
ATOM      1  C   UNL     1      26.242  -4.729 -28.618  1.00  0.00     0.011 C 
ATOM      2  C   UNL     1      26.645  -6.200 -28.851  1.00  0.00     0.019 C 
ATOM      3  C   UNL     1      26.614  -6.977 -27.530  1.00  0.00     0.007 C 
ATOM      4  C   UNL     1      28.043  -6.978 -26.978  1.00  0.00     0.011 C 
ATOM      5  C   UNL     1      28.938  -6.349 -28.053  1.00  0.00     0.047 C 
ATOM      6  C   UNL     1      28.092  -6.377 -29.344  1.00  0.00     0.081 C 
ATOM      7  C   UNL     1      28.573  -5.363 -30.389  1.00  0.00     0.046 C 
ATOM      8  C   UNL     1      29.564  -6.178 -31.213  1.00  0.00     0.054 C 
ATOM      9  C   UNL     1      29.500  -7.591 -30.568  1.00  0.00     0.173 C 
ATOM     10  O   UNL     1      28.230  -7.645 -29.956  1.00  0.00    -0.342 OA
ATOM     11  C   UNL     1      30.539  -7.893 -29.462  1.00  0.00     0.096 C 
ATOM     12  C   UNL     1      30.263  -7.083 -28.213  1.00  0.00    -0.066 C 
ATOM     13  C   UNL     1      31.179  -7.036 -27.236  1.00  0.00     0.008 C 
ENDROOT
BRANCH   8  14
ATOM     14  C   UNL     1      30.930  -5.473 -31.500  1.00  0.00    -0.009 C 
ATOM     15  C   UNL     1      31.276  -5.179 -32.976  1.00  0.00     0.008 C 
ATOM     16  C   UNL     1      31.110  -4.217 -30.637  1.00  0.00     0.008 C 
ENDBRANCH   8  14
BRANCH   9  17
ATOM     17  O   UNL     1      29.588  -8.565 -31.578  1.00  0.00    -0.365 OA
ATOM     18  H   UNL     1      30.011  -8.138 -32.369  1.00  0.00     0.214 HD
ENDBRANCH   9  17
TORSDOF 2
ENDMDL
MODEL 4
REMARK VINA RESULT:    -4.585      1.456      1.814
REMARK INTER + INTRA:          -5.382
REMARK INTER:                  -5.005
REMARK INTRA:                  -0.377
REMARK UNBOUND:                -0.395
REMARK SMILES C=C1C[C@@]2(O)O[C@@]3(C[C@H]2C(C)C)[C@H](C)CC[C@@H]13
REMARK SMILES IDX 14 1 13 2 15 3 16 4 17 5 7 6 8 7 9 8 4 9 6 10 3 11 2 12 1 13
REMARK SMILES IDX 10 14 11 15 12 16 5 17
REMARK H PARENT 5 18
REMARK Flexibility Score: inf
ROOT
ATOM      1  C   UNL     1      31.990  -7.395 -27.058  1.00  0.00     0.011 C 
ATOM      2  C   UNL     1      31.325  -8.216 -28.181  1.00  0.00     0.019 C 
ATOM      3  C   UNL     1      32.333  -8.500 -29.301  1.00  0.00     0.007 C 
ATOM      4  C   UNL     1      32.129  -7.422 -30.371  1.00  0.00     0.011 C 
ATOM      5  C   UNL     1      30.895  -6.609 -29.955  1.00  0.00     0.047 C 
ATOM      6  C   UNL     1      30.182  -7.478 -28.898  1.00  0.00     0.081 C 
ATOM      7  C   UNL     1      29.242  -6.663 -27.999  1.00  0.00     0.046 C 
ATOM      8  C   UNL     1      27.912  -6.755 -28.739  1.00  0.00     0.054 C 
ATOM      9  C   UNL     1      28.234  -7.659 -29.961  1.00  0.00     0.173 C 
ATOM     10  O   UNL     1      29.354  -8.416 -29.558  1.00  0.00    -0.342 OA
ATOM     11  C   UNL     1      28.636  -6.935 -31.268  1.00  0.00     0.096 C 
ATOM     12  C   UNL     1      29.992  -6.274 -31.135  1.00  0.00    -0.066 C 
ATOM     13  C   UNL     1      30.407  -5.414 -32.075  1.00  0.00     0.008 C 
ENDROOT
BRANCH   8  14
ATOM     14  C   UNL     1      27.147  -5.401 -28.904  1.00  0.00    -0.009 C 
ATOM     15  C   UNL     1      25.894  -5.186 -28.028  1.00  0.00     0.008 C 
ATOM     16  C   UNL     1      28.097  -4.199 -28.801  1.00  0.00     0.008 C 
ENDBRANCH   8  14
BRANCH   9  17
ATOM     17  O   UNL     1      27.143  -8.510 -30.209  1.00  0.00    -0.365 OA
ATOM     18  H   UNL     1      26.503  -8.014 -30.786  1.00  0.00     0.214 HD
ENDBRANCH   9  17
TORSDOF 2
ENDMDL
MODEL 5
REMARK VINA RESULT:    -4.525      1.908      4.638
REMARK INTER + INTRA:          -5.316
REMARK INTER:                  -5.027
REMARK INTRA:                  -0.290
REMARK UNBOUND:                -0.395
REMARK SMILES C=C1C[C@@]2(O)O[C@@]3(C[C@H]2C(C)C)[C@H](C)CC[C@@H]13
REMARK SMILES IDX 14 1 13 2 15 3 16 4 17 5 7 6 8 7 9 8 4 9 6 10 3 11 2 12 1 13
REMARK SMILES IDX 10 14 11 15 12 16 5 17
REMARK H PARENT 5 18
REMARK Flexibility Score: inf
ROOT
ATOM      1  C   UNL     1      28.823  -7.982 -32.064  1.00  0.00     0.011 C 
ATOM      2  C   UNL     1      28.512  -7.777 -30.567  1.00  0.00     0.019 C 
ATOM      3  C   UNL     1      27.585  -6.570 -30.376  1.00  0.00     0.007 C 
ATOM      4  C   UNL     1      28.478  -5.367 -30.055  1.00  0.00     0.011 C 
ATOM      5  C   UNL     1      29.907  -5.901 -29.894  1.00  0.00     0.047 C 
ATOM      6  C   UNL     1      29.746  -7.427 -29.717  1.00  0.00     0.081 C 
ATOM      7  C   UNL     1      31.030  -8.199 -30.049  1.00  0.00     0.046 C 
ATOM      8  C   UNL     1      31.728  -8.279 -28.696  1.00  0.00     0.054 C 
ATOM      9  C   UNL     1      30.734  -7.579 -27.729  1.00  0.00     0.173 C 
ATOM     10  O   UNL     1      29.477  -7.706 -28.357  1.00  0.00    -0.342 OA
ATOM     11  C   UNL     1      30.957  -6.067 -27.484  1.00  0.00     0.096 C 
ATOM     12  C   UNL     1      30.643  -5.258 -28.726  1.00  0.00    -0.066 C 
ATOM     13  C   UNL     1      30.991  -3.965 -28.782  1.00  0.00     0.008 C 
ENDROOT
BRANCH   8  14
ATOM     14  C   UNL     1      33.249  -7.913 -28.709  1.00  0.00    -0.009 C 
ATOM     15  C   UNL     1      34.122  -8.485 -27.572  1.00  0.00     0.008 C 
ATOM     16  C   UNL     1      33.885  -8.193 -30.079  1.00  0.00     0.008 C 
ENDBRANCH   8  14
BRANCH   9  17
ATOM     17  O   UNL     1      30.727  -8.259 -26.498  1.00  0.00    -0.365 OA
ATOM     18  H   UNL     1      30.697  -9.232 -26.696  1.00  0.00     0.214 HD
ENDBRANCH   9  17
TORSDOF 2
ENDMDL
MODEL 6
REMARK VINA RESULT:    -4.474      1.786      2.455
REMARK INTER + INTRA:          -5.261
REMARK INTER:                  -4.863
REMARK INTRA:                  -0.398
REMARK UNBOUND:                -0.395
REMARK SMILES C=C1C[C@@]2(O)O[C@@]3(C[C@H]2C(C)C)[C@H](C)CC[C@@H]13
REMARK SMILES IDX 14 1 13 2 15 3 16 4 17 5 7 6 8 7 9 8 4 9 6 10 3 11 2 12 1 13
REMARK SMILES IDX 10 14 11 15 12 16 5 17
REMARK H PARENT 5 18
REMARK Flexibility Score: inf
ROOT
ATOM      1  C   UNL     1      33.792  -6.298 -26.623  1.00  0.00     0.011 C 
ATOM      2  C   UNL     1      33.030  -7.547 -27.110  1.00  0.00     0.019 C 
ATOM      3  C   UNL     1      34.012  -8.593 -27.651  1.00  0.00     0.007 C 
ATOM      4  C   UNL     1      34.079  -8.401 -29.170  1.00  0.00     0.011 C 
ATOM      5  C   UNL     1      33.015  -7.358 -29.536  1.00  0.00     0.047 C 
ATOM      6  C   UNL     1      32.092  -7.279 -28.300  1.00  0.00     0.081 C 
ATOM      7  C   UNL     1      31.293  -5.970 -28.243  1.00  0.00     0.046 C 
ATOM      8  C   UNL     1      30.008  -6.332 -28.979  1.00  0.00     0.054 C 
ATOM      9  C   UNL     1      30.201  -7.832 -29.335  1.00  0.00     0.173 C 
ATOM     10  O   UNL     1      31.126  -8.308 -28.382  1.00  0.00    -0.342 OA
ATOM     11  C   UNL     1      30.801  -8.140 -30.728  1.00  0.00     0.096 C 
ATOM     12  C   UNL     1      32.254  -7.720 -30.804  1.00  0.00    -0.066 C 
ATOM     13  C   UNL     1      32.877  -7.695 -31.990  1.00  0.00     0.008 C 
ENDROOT
BRANCH   8  14
ATOM     14  C   UNL     1      29.538  -5.293 -30.049  1.00  0.00    -0.009 C 
ATOM     15  C   UNL     1      28.246  -4.504 -29.747  1.00  0.00     0.008 C 
ATOM     16  C   UNL     1      30.676  -4.343 -30.452  1.00  0.00     0.008 C 
ENDBRANCH   8  14
BRANCH   9  17
ATOM     17  O   UNL     1      28.974  -8.504 -29.191  1.00  0.00    -0.365 OA
ATOM     18  H   UNL     1      28.922  -8.833 -28.255  1.00  0.00     0.214 HD
ENDBRANCH   9  17
TORSDOF 2
ENDMDL
MODEL 7
REMARK VINA RESULT:    -4.467      1.759      4.815
REMARK INTER + INTRA:          -5.254
REMARK INTER:                  -4.863
REMARK INTRA:                  -0.390
REMARK UNBOUND:                -0.395
REMARK SMILES C=C1C[C@@]2(O)O[C@@]3(C[C@H]2C(C)C)[C@H](C)CC[C@@H]13
REMARK SMILES IDX 14 1 13 2 15 3 16 4 17 5 7 6 8 7 9 8 4 9 6 10 3 11 2 12 1 13
REMARK SMILES IDX 10 14 11 15 12 16 5 17
REMARK H PARENT 5 18
REMARK Flexibility Score: inf
ROOT
ATOM      1  C   UNL     1      28.877  -4.006 -26.888  1.00  0.00     0.011 C 
ATOM      2  C   UNL     1      28.550  -4.049 -28.395  1.00  0.00     0.019 C 
ATOM      3  C   UNL     1      27.032  -4.044 -28.610  1.00  0.00     0.007 C 
ATOM      4  C   UNL     1      26.598  -5.504 -28.773  1.00  0.00     0.011 C 
ATOM      5  C   UNL     1      27.878  -6.349 -28.819  1.00  0.00     0.047 C 
ATOM      6  C   UNL     1      29.012  -5.338 -29.095  1.00  0.00     0.081 C 
ATOM      7  C   UNL     1      30.391  -5.869 -28.681  1.00  0.00     0.046 C 
ATOM      8  C   UNL     1      30.890  -6.535 -29.958  1.00  0.00     0.054 C 
ATOM      9  C   UNL     1      29.750  -6.264 -30.980  1.00  0.00     0.173 C 
ATOM     10  O   UNL     1      29.098  -5.114 -30.489  1.00  0.00    -0.342 OA
ATOM     11  C   UNL     1      28.670  -7.364 -31.116  1.00  0.00     0.096 C 
ATOM     12  C   UNL     1      27.814  -7.449 -29.869  1.00  0.00    -0.066 C 
ATOM     13  C   UNL     1      26.980  -8.485 -29.706  1.00  0.00     0.008 C 
ENDROOT
BRANCH   8  14
ATOM     14  C   UNL     1      31.498  -7.963 -29.772  1.00  0.00    -0.009 C 
ATOM     15  C   UNL     1      32.976  -8.159 -30.170  1.00  0.00     0.008 C 
ATOM     16  C   UNL     1      31.236  -8.509 -28.361  1.00  0.00     0.008 C 
ENDBRANCH   8  14
BRANCH   9  17
ATOM     17  O   UNL     1      30.312  -5.997 -32.241  1.00  0.00    -0.365 OA
ATOM     18  H   UNL     1      30.513  -5.025 -32.279  1.00  0.00     0.214 HD
ENDBRANCH   9  17
TORSDOF 2
ENDMDL
MODEL 8
REMARK VINA RESULT:    -4.397      2.128      3.855
REMARK INTER + INTRA:          -5.178
REMARK INTER:                  -4.778
REMARK INTRA:                  -0.399
REMARK UNBOUND:                -0.395
REMARK SMILES C=C1C[C@@]2(O)O[C@@]3(C[C@H]2C(C)C)[C@H](C)CC[C@@H]13
REMARK SMILES IDX 14 1 13 2 15 3 16 4 17 5 7 6 8 7 9 8 4 9 6 10 3 11 2 12 1 13
REMARK SMILES IDX 10 14 11 15 12 16 5 17
REMARK H PARENT 5 18
REMARK Flexibility Score: inf
ROOT
ATOM      1  C   UNL     1      28.912  -8.454 -32.123  1.00  0.00     0.011 C 
ATOM      2  C   UNL     1      29.870  -7.338 -31.657  1.00  0.00     0.019 C 
ATOM      3  C   UNL     1      31.234  -7.931 -31.282  1.00  0.00     0.007 C 
ATOM      4  C   UNL     1      31.223  -8.152 -29.765  1.00  0.00     0.011 C 
ATOM      5  C   UNL     1      29.921  -7.537 -29.233  1.00  0.00     0.047 C 
ATOM      6  C   UNL     1      29.416  -6.626 -30.372  1.00  0.00     0.081 C 
ATOM      7  C   UNL     1      27.915  -6.325 -30.266  1.00  0.00     0.046 C 
ATOM      8  C   UNL     1      27.890  -5.042 -29.444  1.00  0.00     0.054 C 
ATOM      9  C   UNL     1      29.393  -4.726 -29.212  1.00  0.00     0.173 C 
ATOM     10  O   UNL     1      30.060  -5.370 -30.275  1.00  0.00    -0.342 OA
ATOM     11  C   UNL     1      30.019  -5.267 -27.904  1.00  0.00     0.096 C 
ATOM     12  C   UNL     1      30.125  -6.777 -27.930  1.00  0.00    -0.066 C 
ATOM     13  C   UNL     1      30.427  -7.441 -26.805  1.00  0.00     0.008 C 
ENDROOT
BRANCH   8  14
ATOM     14  C   UNL     1      26.861  -5.025 -28.266  1.00  0.00    -0.009 C 
ATOM     15  C   UNL     1      25.669  -4.051 -28.383  1.00  0.00     0.008 C 
ATOM     16  C   UNL     1      26.376  -6.440 -27.920  1.00  0.00     0.008 C 
ENDBRANCH   8  14
BRANCH   9  17
ATOM     17  O   UNL     1      29.593  -3.336 -29.291  1.00  0.00    -0.365 OA
ATOM     18  H   UNL     1      30.572  -3.173 -29.257  1.00  0.00     0.214 HD
ENDBRANCH   9  17
TORSDOF 2
ENDMDL
MODEL 9
REMARK VINA RESULT:    -4.151      1.885      3.498
REMARK INTER + INTRA:          -4.910
REMARK INTER:                  -4.565
REMARK INTRA:                  -0.346
REMARK UNBOUND:                -0.395
REMARK SMILES C=C1C[C@@]2(O)O[C@@]3(C[C@H]2C(C)C)[C@H](C)CC[C@@H]13
REMARK SMILES IDX 14 1 13 2 15 3 16 4 17 5 7 6 8 7 9 8 4 9 6 10 3 11 2 12 1 13
REMARK SMILES IDX 10 14 11 15 12 16 5 17
REMARK H PARENT 5 18
REMARK Flexibility Score: inf
ROOT
ATOM      1  C   UNL     1      32.963  -5.123 -33.124  1.00  0.00     0.011 C 
ATOM      2  C   UNL     1      32.710  -4.713 -31.659  1.00  0.00     0.019 C 
ATOM      3  C   UNL     1      33.997  -4.853 -30.837  1.00  0.00     0.007 C 
ATOM      4  C   UNL     1      33.946  -6.225 -30.156  1.00  0.00     0.011 C 
ATOM      5  C   UNL     1      32.559  -6.816 -30.444  1.00  0.00     0.047 C 
ATOM      6  C   UNL     1      31.708  -5.621 -30.924  1.00  0.00     0.081 C 
ATOM      7  C   UNL     1      30.479  -6.057 -31.733  1.00  0.00     0.046 C 
ATOM      8  C   UNL     1      29.404  -6.186 -30.660  1.00  0.00     0.054 C 
ATOM      9  C   UNL     1      30.134  -5.760 -29.357  1.00  0.00     0.173 C 
ATOM     10  O   UNL     1      31.195  -4.940 -29.795  1.00  0.00    -0.342 OA
ATOM     11  C   UNL     1      30.767  -6.894 -28.517  1.00  0.00     0.096 C 
ATOM     12  C   UNL     1      31.955  -7.506 -29.229  1.00  0.00    -0.066 C 
ATOM     13  C   UNL     1      32.491  -8.645 -28.769  1.00  0.00     0.008 C 
ENDROOT
BRANCH   8  14
ATOM     14  C   UNL     1      28.550  -7.495 -30.728  1.00  0.00    -0.009 C 
ATOM     15  C   UNL     1      27.029  -7.359 -30.501  1.00  0.00     0.008 C 
ATOM     16  C   UNL     1      28.842  -8.294 -32.006  1.00  0.00     0.008 C 
ENDBRANCH   8  14
BRANCH   9  17
ATOM     17  O   UNL     1      29.251  -5.015 -28.554  1.00  0.00    -0.365 OA
ATOM     18  H   UNL     1      28.531  -5.629 -28.254  1.00  0.00     0.214 HD
ENDBRANCH   9  17
TORSDOF 2
ENDMDL
