MODEL 1
REMARK VINA RESULT:    -3.774      0.000      0.000
REMARK INTER + INTRA:          -9.993
REMARK INTER:                  -7.304
REMARK INTRA:                  -2.689
REMARK UNBOUND:                -2.689
REMARK SMILES CCCCCCCCCCCCCCCCCC(=O)[O-]
REMARK SMILES IDX 10 1 11 2 12 3 13 4 14 5 15 6 16 7 17 8 18 9 19 10 20 11
REMARK SMILES IDX 9 12 8 13 7 14 6 15 5 16 4 17 3 18 2 19 1 20
REMARK H PARENT
REMARK Flexibility Score: inf
ROOT
ATOM      1  C   UNL     1      10.884  16.575  24.238  1.00  0.00     0.000 C 
ENDROOT
BRANCH   1   2
ATOM      2  C   UNL     1      10.134  15.620  25.179  1.00  0.00     0.000 C 
BRANCH   2   3
ATOM      3  C   UNL     1       8.709  15.304  24.697  1.00  0.00     0.000 C 
BRANCH   3   4
ATOM      4  C   UNL     1       8.607  13.927  24.016  1.00  0.00     0.000 C 
BRANCH   4   5
ATOM      5  C   UNL     1       9.867  13.071  24.233  1.00  0.00     0.000 C 
BRANCH   5   6
ATOM      6  C   UNL     1      10.701  12.918  22.949  1.00  0.00     0.000 C 
BRANCH   6   7
ATOM      7  C   UNL     1      10.071  13.638  21.746  1.00  0.00     0.006 C 
BRANCH   7   8
ATOM      8  C   UNL     1      11.064  14.548  21.012  1.00  0.00     0.053 C 
BRANCH   8   9
ATOM      9  C   UNL     1      10.423  15.150  19.801  1.00  0.00     0.041 C 
ATOM     10  O   UNL     1       9.218  15.515  19.836  1.00  0.00    -0.550 OA
ATOM     11  O   UNL     1      11.144  15.267  18.620  1.00  0.00    -0.550 OA
ENDBRANCH   8   9
ENDBRANCH   7   8
ENDBRANCH   6   7
ENDBRANCH   5   6
ENDBRANCH   4   5
ENDBRANCH   3   4
ENDBRANCH   2   3
ENDBRANCH   1   2
BRANCH   1  12
ATOM     12  C   UNL     1       9.943  17.139  23.164  1.00  0.00     0.000 C 
BRANCH  12  13
ATOM     13  C   UNL     1      10.562  18.305  22.371  1.00  0.00    -0.000 C 
BRANCH  13  14
ATOM     14  C   UNL     1       9.836  19.655  22.517  1.00  0.00    -0.000 C 
BRANCH  14  15
ATOM     15  C   UNL     1      10.647  20.687  23.320  1.00  0.00    -0.000 C 
BRANCH  15  16
ATOM     16  C   UNL     1      10.032  20.995  24.698  1.00  0.00    -0.000 C 
BRANCH  16  17
ATOM     17  C   UNL     1       8.649  20.370  24.961  1.00  0.00    -0.000 C 
BRANCH  17  18
ATOM     18  C   UNL     1       8.688  19.242  26.005  1.00  0.00    -0.000 C 
BRANCH  18  19
ATOM     19  C   UNL     1      10.040  19.157  26.730  1.00  0.00    -0.003 C 
ATOM     20  C   UNL     1      10.035  18.153  27.882  1.00  0.00     0.004 C 
ENDBRANCH  18  19
ENDBRANCH  17  18
ENDBRANCH  16  17
ENDBRANCH  15  16
ENDBRANCH  14  15
ENDBRANCH  13  14
ENDBRANCH  12  13
ENDBRANCH   1  12
TORSDOF 16
ENDMDL
MODEL 2
REMARK VINA RESULT:    -3.491      1.169      2.744
REMARK INTER + INTRA:          -9.445
REMARK INTER:                  -7.788
REMARK INTRA:                  -1.657
REMARK UNBOUND:                -2.689
REMARK SMILES CCCCCCCCCCCCCCCCCC(=O)[O-]
REMARK SMILES IDX 10 1 11 2 12 3 13 4 14 5 15 6 16 7 17 8 18 9 19 10 20 11
REMARK SMILES IDX 9 12 8 13 7 14 6 15 5 16 4 17 3 18 2 19 1 20
REMARK H PARENT
REMARK Flexibility Score: inf
ROOT
ATOM      1  C   UNL     1       9.182  14.815  25.549  1.00  0.00     0.000 C 
ENDROOT
BRANCH   1   2
ATOM      2  C   UNL     1       8.112  13.966  26.251  1.00  0.00     0.000 C 
BRANCH   2   3
ATOM      3  C   UNL     1       8.168  12.483  25.852  1.00  0.00     0.000 C 
BRANCH   3   4
ATOM      4  C   UNL     1       9.406  12.147  25.000  1.00  0.00     0.000 C 
BRANCH   4   5
ATOM      5  C   UNL     1       9.110  12.200  23.491  1.00  0.00     0.000 C 
BRANCH   5   6
ATOM      6  C   UNL     1      10.330  12.651  22.669  1.00  0.00     0.000 C 
BRANCH   6   7
ATOM      7  C   UNL     1      10.034  13.884  21.801  1.00  0.00     0.006 C 
BRANCH   7   8
ATOM      8  C   UNL     1      10.324  13.646  20.313  1.00  0.00     0.053 C 
BRANCH   8   9
ATOM      9  C   UNL     1      10.114  14.906  19.533  1.00  0.00     0.041 C 
ATOM     10  O   UNL     1       9.072  15.592  19.703  1.00  0.00    -0.550 OA
ATOM     11  O   UNL     1      11.050  15.298  18.584  1.00  0.00    -0.550 OA
ENDBRANCH   8   9
ENDBRANCH   7   8
ENDBRANCH   6   7
ENDBRANCH   5   6
ENDBRANCH   4   5
ENDBRANCH   3   4
ENDBRANCH   2   3
ENDBRANCH   1   2
BRANCH   1  12
ATOM     12  C   UNL     1       8.674  16.242  25.297  1.00  0.00     0.000 C 
BRANCH  12  13
ATOM     13  C   UNL     1       9.700  17.324  25.677  1.00  0.00    -0.000 C 
BRANCH  13  14
ATOM     14  C   UNL     1       9.109  18.719  25.956  1.00  0.00    -0.000 C 
BRANCH  14  15
ATOM     15  C   UNL     1      10.110  19.857  25.691  1.00  0.00    -0.000 C 
BRANCH  15  16
ATOM     16  C   UNL     1       9.820  20.623  24.386  1.00  0.00    -0.000 C 
BRANCH  16  17
ATOM     17  C   UNL     1      10.510  20.066  23.126  1.00  0.00    -0.000 C 
BRANCH  17  18
ATOM     18  C   UNL     1       9.594  19.154  22.293  1.00  0.00    -0.000 C 
BRANCH  18  19
ATOM     19  C   UNL     1      10.313  17.886  21.806  1.00  0.00    -0.003 C 
ATOM     20  C   UNL     1      11.445  17.451  22.735  1.00  0.00     0.004 C 
ENDBRANCH  18  19
ENDBRANCH  17  18
ENDBRANCH  16  17
ENDBRANCH  15  16
ENDBRANCH  14  15
ENDBRANCH  13  14
ENDBRANCH  12  13
ENDBRANCH   1  12
TORSDOF 16
ENDMDL
MODEL 3
REMARK VINA RESULT:    -3.454     17.183     19.734
REMARK INTER + INTRA:          -9.375
REMARK INTER:                  -6.361
REMARK INTRA:                  -3.014
REMARK UNBOUND:                -2.689
REMARK SMILES CCCCCCCCCCCCCCCCCC(=O)[O-]
REMARK SMILES IDX 10 1 11 2 12 3 13 4 14 5 15 6 16 7 17 8 18 9 19 10 20 11
REMARK SMILES IDX 9 12 8 13 7 14 6 15 5 16 4 17 3 18 2 19 1 20
REMARK H PARENT
REMARK Flexibility Score: inf
ROOT
ATOM      1  C   UNL     1      23.454   2.582  28.506  1.00  0.00     0.000 C 
ENDROOT
BRANCH   1   2
ATOM      2  C   UNL     1      24.823   1.927  28.744  1.00  0.00     0.000 C 
BRANCH   2   3
ATOM      3  C   UNL     1      25.992   2.912  28.589  1.00  0.00     0.000 C 
BRANCH   3   4
ATOM      4  C   UNL     1      26.066   3.927  29.744  1.00  0.00     0.000 C 
BRANCH   4   5
ATOM      5  C   UNL     1      25.810   5.369  29.273  1.00  0.00     0.000 C 
BRANCH   5   6
ATOM      6  C   UNL     1      24.475   5.929  29.795  1.00  0.00     0.000 C 
BRANCH   6   7
ATOM      7  C   UNL     1      23.684   6.676  28.709  1.00  0.00     0.006 C 
BRANCH   7   8
ATOM      8  C   UNL     1      23.598   5.894  27.393  1.00  0.00     0.053 C 
BRANCH   8   9
ATOM      9  C   UNL     1      23.572   6.833  26.228  1.00  0.00     0.041 C 
ATOM     10  O   UNL     1      23.927   6.438  25.087  1.00  0.00    -0.550 OA
ATOM     11  O   UNL     1      23.198   8.158  26.414  1.00  0.00    -0.550 OA
ENDBRANCH   8   9
ENDBRANCH   7   8
ENDBRANCH   6   7
ENDBRANCH   5   6
ENDBRANCH   4   5
ENDBRANCH   3   4
ENDBRANCH   2   3
ENDBRANCH   1   2
BRANCH   1  12
ATOM     12  C   UNL     1      22.548   2.423  29.735  1.00  0.00     0.000 C 
BRANCH  12  13
ATOM     13  C   UNL     1      23.261   1.762  30.929  1.00  0.00    -0.000 C 
BRANCH  13  14
ATOM     14  C   UNL     1      22.934   2.369  32.306  1.00  0.00    -0.000 C 
BRANCH  14  15
ATOM     15  C   UNL     1      24.034   3.313  32.821  1.00  0.00    -0.000 C 
BRANCH  15  16
ATOM     16  C   UNL     1      23.505   4.714  33.182  1.00  0.00    -0.000 C 
BRANCH  16  17
ATOM     17  C   UNL     1      21.983   4.904  33.038  1.00  0.00    -0.000 C 
BRANCH  17  18
ATOM     18  C   UNL     1      21.608   6.050  32.082  1.00  0.00    -0.000 C 
BRANCH  18  19
ATOM     19  C   UNL     1      20.868   5.553  30.830  1.00  0.00    -0.003 C 
ATOM     20  C   UNL     1      19.711   4.610  31.159  1.00  0.00     0.004 C 
ENDBRANCH  18  19
ENDBRANCH  17  18
ENDBRANCH  16  17
ENDBRANCH  15  16
ENDBRANCH  14  15
ENDBRANCH  13  14
ENDBRANCH  12  13
ENDBRANCH   1  12
TORSDOF 16
ENDMDL
MODEL 4
REMARK VINA RESULT:    -3.411     12.175     13.330
REMARK INTER + INTRA:          -9.290
REMARK INTER:                  -7.301
REMARK INTRA:                  -1.989
REMARK UNBOUND:                -2.689
REMARK SMILES CCCCCCCCCCCCCCCCCC(=O)[O-]
REMARK SMILES IDX 10 1 11 2 12 3 13 4 14 5 15 6 16 7 17 8 18 9 19 10 20 11
REMARK SMILES IDX 9 12 8 13 7 14 6 15 5 16 4 17 3 18 2 19 1 20
REMARK H PARENT
REMARK Flexibility Score: inf
ROOT
ATOM      1  C   UNL     1      22.516  16.638  27.733  1.00  0.00     0.000 C 
ENDROOT
BRANCH   1   2
ATOM      2  C   UNL     1      23.315  17.816  28.310  1.00  0.00     0.000 C 
BRANCH   2   3
ATOM      3  C   UNL     1      24.802  17.487  28.511  1.00  0.00     0.000 C 
BRANCH   3   4
ATOM      4  C   UNL     1      25.715  18.262  27.543  1.00  0.00     0.000 C 
BRANCH   4   5
ATOM      5  C   UNL     1      25.251  19.715  27.337  1.00  0.00     0.000 C 
BRANCH   5   6
ATOM      6  C   UNL     1      25.552  20.231  25.919  1.00  0.00     0.000 C 
BRANCH   6   7
ATOM      7  C   UNL     1      25.511  19.115  24.863  1.00  0.00     0.006 C 
BRANCH   7   8
ATOM      8  C   UNL     1      25.332  19.653  23.437  1.00  0.00     0.053 C 
BRANCH   8   9
ATOM      9  C   UNL     1      23.900  19.549  23.016  1.00  0.00     0.041 C 
ATOM     10  O   UNL     1      23.082  20.456  23.320  1.00  0.00    -0.550 OA
ATOM     11  O   UNL     1      23.459  18.426  22.327  1.00  0.00    -0.550 OA
ENDBRANCH   8   9
ENDBRANCH   7   8
ENDBRANCH   6   7
ENDBRANCH   5   6
ENDBRANCH   4   5
ENDBRANCH   3   4
ENDBRANCH   2   3
ENDBRANCH   1   2
BRANCH   1  12
ATOM     12  C   UNL     1      21.611  17.099  26.581  1.00  0.00     0.000 C 
BRANCH  12  13
ATOM     13  C   UNL     1      21.999  18.482  26.026  1.00  0.00    -0.000 C 
BRANCH  13  14
ATOM     14  C   UNL     1      20.910  19.564  26.142  1.00  0.00    -0.000 C 
BRANCH  14  15
ATOM     15  C   UNL     1      20.527  19.876  27.599  1.00  0.00    -0.000 C 
BRANCH  15  16
ATOM     16  C   UNL     1      19.025  19.689  27.882  1.00  0.00    -0.000 C 
BRANCH  16  17
ATOM     17  C   UNL     1      18.614  18.288  28.373  1.00  0.00    -0.000 C 
BRANCH  17  18
ATOM     18  C   UNL     1      17.539  17.632  27.490  1.00  0.00    -0.000 C 
BRANCH  18  19
ATOM     19  C   UNL     1      16.180  17.523  28.200  1.00  0.00    -0.003 C 
ATOM     20  C   UNL     1      15.613  16.104  28.184  1.00  0.00     0.004 C 
ENDBRANCH  18  19
ENDBRANCH  17  18
ENDBRANCH  16  17
ENDBRANCH  15  16
ENDBRANCH  14  15
ENDBRANCH  13  14
ENDBRANCH  12  13
ENDBRANCH   1  12
TORSDOF 16
ENDMDL
MODEL 5
REMARK VINA RESULT:    -3.403     12.994     14.206
REMARK INTER + INTRA:          -9.276
REMARK INTER:                  -7.282
REMARK INTRA:                  -1.994
REMARK UNBOUND:                -2.689
REMARK SMILES CCCCCCCCCCCCCCCCCC(=O)[O-]
REMARK SMILES IDX 10 1 11 2 12 3 13 4 14 5 15 6 16 7 17 8 18 9 19 10 20 11
REMARK SMILES IDX 9 12 8 13 7 14 6 15 5 16 4 17 3 18 2 19 1 20
REMARK H PARENT
REMARK Flexibility Score: inf
ROOT
ATOM      1  C   UNL     1      23.341  18.841  23.665  1.00  0.00     0.000 C 
ENDROOT
BRANCH   1   2
ATOM      2  C   UNL     1      22.910  20.026  24.542  1.00  0.00     0.000 C 
BRANCH   2   3
ATOM      3  C   UNL     1      21.933  19.620  25.656  1.00  0.00     0.000 C 
BRANCH   3   4
ATOM      4  C   UNL     1      21.775  18.093  25.777  1.00  0.00     0.000 C 
BRANCH   4   5
ATOM      5  C   UNL     1      21.006  17.682  27.045  1.00  0.00     0.000 C 
BRANCH   5   6
ATOM      6  C   UNL     1      20.111  18.812  27.581  1.00  0.00     0.000 C 
BRANCH   6   7
ATOM      7  C   UNL     1      18.850  18.284  28.285  1.00  0.00     0.006 C 
BRANCH   7   8
ATOM      8  C   UNL     1      17.776  17.808  27.299  1.00  0.00     0.053 C 
BRANCH   8   9
ATOM      9  C   UNL     1      16.479  17.582  28.010  1.00  0.00     0.041 C 
ATOM     10  O   UNL     1      16.332  17.969  29.200  1.00  0.00    -0.550 OA
ATOM     11  O   UNL     1      15.447  16.904  27.374  1.00  0.00    -0.550 OA
ENDBRANCH   8   9
ENDBRANCH   7   8
ENDBRANCH   6   7
ENDBRANCH   5   6
ENDBRANCH   4   5
ENDBRANCH   3   4
ENDBRANCH   2   3
ENDBRANCH   1   2
BRANCH   1  12
ATOM     12  C   UNL     1      24.226  19.312  22.501  1.00  0.00     0.000 C 
BRANCH  12  13
ATOM     13  C   UNL     1      24.716  20.762  22.665  1.00  0.00    -0.000 C 
BRANCH  13  14
ATOM     14  C   UNL     1      26.151  21.028  22.175  1.00  0.00    -0.000 C 
BRANCH  14  15
ATOM     15  C   UNL     1      27.176  20.039  22.757  1.00  0.00    -0.000 C 
BRANCH  15  16
ATOM     16  C   UNL     1      27.648  20.424  24.172  1.00  0.00    -0.000 C 
BRANCH  16  17
ATOM     17  C   UNL     1      27.741  19.261  25.178  1.00  0.00    -0.000 C 
BRANCH  17  18
ATOM     18  C   UNL     1      26.378  18.617  25.481  1.00  0.00    -0.000 C 
BRANCH  18  19
ATOM     19  C   UNL     1      25.729  19.184  26.753  1.00  0.00    -0.003 C 
ATOM     20  C   UNL     1      24.979  18.126  27.561  1.00  0.00     0.004 C 
ENDBRANCH  18  19
ENDBRANCH  17  18
ENDBRANCH  16  17
ENDBRANCH  15  16
ENDBRANCH  14  15
ENDBRANCH  13  14
ENDBRANCH  12  13
ENDBRANCH   1  12
TORSDOF 16
ENDMDL
MODEL 6
REMARK VINA RESULT:    -3.296     17.464     19.176
REMARK INTER + INTRA:          -9.068
REMARK INTER:                  -6.749
REMARK INTRA:                  -2.320
REMARK UNBOUND:                -2.689
REMARK SMILES CCCCCCCCCCCCCCCCCC(=O)[O-]
REMARK SMILES IDX 10 1 11 2 12 3 13 4 14 5 15 6 16 7 17 8 18 9 19 10 20 11
REMARK SMILES IDX 9 12 8 13 7 14 6 15 5 16 4 17 3 18 2 19 1 20
REMARK H PARENT
REMARK Flexibility Score: inf
ROOT
ATOM      1  C   UNL     1      24.285   7.274  27.334  1.00  0.00     0.000 C 
ENDROOT
BRANCH   1   2
ATOM      2  C   UNL     1      23.238   6.233  26.913  1.00  0.00     0.000 C 
BRANCH   2   3
ATOM      3  C   UNL     1      23.698   4.788  27.162  1.00  0.00     0.000 C 
BRANCH   3   4
ATOM      4  C   UNL     1      24.872   4.705  28.154  1.00  0.00     0.000 C 
BRANCH   4   5
ATOM      5  C   UNL     1      24.968   3.328  28.834  1.00  0.00     0.000 C 
BRANCH   5   6
ATOM      6  C   UNL     1      23.852   2.370  28.381  1.00  0.00     0.000 C 
BRANCH   6   7
ATOM      7  C   UNL     1      24.400   1.072  27.766  1.00  0.00     0.006 C 
BRANCH   7   8
ATOM      8  C   UNL     1      24.078   0.941  26.272  1.00  0.00     0.053 C 
BRANCH   8   9
ATOM      9  C   UNL     1      25.142   1.597  25.450  1.00  0.00     0.041 C 
ATOM     10  O   UNL     1      24.834   2.252  24.419  1.00  0.00    -0.550 OA
ATOM     11  O   UNL     1      26.479   1.448  25.796  1.00  0.00    -0.550 OA
ENDBRANCH   8   9
ENDBRANCH   7   8
ENDBRANCH   6   7
ENDBRANCH   5   6
ENDBRANCH   4   5
ENDBRANCH   3   4
ENDBRANCH   2   3
ENDBRANCH   1   2
BRANCH   1  12
ATOM     12  C   UNL     1      23.674   8.315  28.283  1.00  0.00     0.000 C 
BRANCH  12  13
ATOM     13  C   UNL     1      24.068   8.095  29.755  1.00  0.00    -0.000 C 
BRANCH  13  14
ATOM     14  C   UNL     1      22.956   7.522  30.652  1.00  0.00    -0.000 C 
BRANCH  14  15
ATOM     15  C   UNL     1      23.171   6.040  31.003  1.00  0.00    -0.000 C 
BRANCH  15  16
ATOM     16  C   UNL     1      22.041   5.128  30.489  1.00  0.00    -0.000 C 
BRANCH  16  17
ATOM     17  C   UNL     1      20.663   5.350  31.143  1.00  0.00    -0.000 C 
BRANCH  17  18
ATOM     18  C   UNL     1      20.454   4.500  32.407  1.00  0.00    -0.000 C 
BRANCH  18  19
ATOM     19  C   UNL     1      20.036   5.344  33.621  1.00  0.00    -0.003 C 
ATOM     20  C   UNL     1      21.040   6.448  33.951  1.00  0.00     0.004 C 
ENDBRANCH  18  19
ENDBRANCH  17  18
ENDBRANCH  16  17
ENDBRANCH  15  16
ENDBRANCH  14  15
ENDBRANCH  13  14
ENDBRANCH  12  13
ENDBRANCH   1  12
TORSDOF 16
ENDMDL
MODEL 7
REMARK VINA RESULT:    -3.295     16.750     19.483
REMARK INTER + INTRA:          -9.065
REMARK INTER:                  -6.564
REMARK INTRA:                  -2.501
REMARK UNBOUND:                -2.689
REMARK SMILES CCCCCCCCCCCCCCCCCC(=O)[O-]
REMARK SMILES IDX 10 1 11 2 12 3 13 4 14 5 15 6 16 7 17 8 18 9 19 10 20 11
REMARK SMILES IDX 9 12 8 13 7 14 6 15 5 16 4 17 3 18 2 19 1 20
REMARK H PARENT
REMARK Flexibility Score: inf
ROOT
ATOM      1  C   UNL     1      25.398   4.393  28.657  1.00  0.00     0.000 C 
ENDROOT
BRANCH   1   2
ATOM      2  C   UNL     1      24.175   4.104  27.775  1.00  0.00     0.000 C 
BRANCH   2   3
ATOM      3  C   UNL     1      23.238   5.315  27.637  1.00  0.00     0.000 C 
BRANCH   3   4
ATOM      4  C   UNL     1      23.551   6.166  26.393  1.00  0.00     0.000 C 
BRANCH   4   5
ATOM      5  C   UNL     1      23.636   7.668  26.716  1.00  0.00     0.000 C 
BRANCH   5   6
ATOM      6  C   UNL     1      24.361   7.942  28.045  1.00  0.00     0.000 C 
BRANCH   6   7
ATOM      7  C   UNL     1      23.517   8.784  29.016  1.00  0.00     0.006 C 
BRANCH   7   8
ATOM      8  C   UNL     1      24.065  10.205  29.199  1.00  0.00     0.053 C 
BRANCH   8   9
ATOM      9  C   UNL     1      22.954  11.206  29.128  1.00  0.00     0.041 C 
ATOM     10  O   UNL     1      22.464  11.531  28.015  1.00  0.00    -0.550 OA
ATOM     11  O   UNL     1      22.491  11.812  30.289  1.00  0.00    -0.550 OA
ENDBRANCH   8   9
ENDBRANCH   7   8
ENDBRANCH   6   7
ENDBRANCH   5   6
ENDBRANCH   4   5
ENDBRANCH   3   4
ENDBRANCH   2   3
ENDBRANCH   1   2
BRANCH   1  12
ATOM     12  C   UNL     1      25.989   3.092  29.220  1.00  0.00     0.000 C 
BRANCH  12  13
ATOM     13  C   UNL     1      25.771   2.936  30.736  1.00  0.00    -0.000 C 
BRANCH  13  14
ATOM     14  C   UNL     1      25.222   1.569  31.182  1.00  0.00    -0.000 C 
BRANCH  14  15
ATOM     15  C   UNL     1      23.734   1.619  31.571  1.00  0.00    -0.000 C 
BRANCH  15  16
ATOM     16  C   UNL     1      22.790   1.533  30.357  1.00  0.00    -0.000 C 
BRANCH  16  17
ATOM     17  C   UNL     1      21.839   2.731  30.173  1.00  0.00    -0.000 C 
BRANCH  17  18
ATOM     18  C   UNL     1      21.791   3.655  31.401  1.00  0.00    -0.000 C 
BRANCH  18  19
ATOM     19  C   UNL     1      21.914   5.140  31.025  1.00  0.00    -0.003 C 
ATOM     20  C   UNL     1      23.292   5.721  31.342  1.00  0.00     0.004 C 
ENDBRANCH  18  19
ENDBRANCH  17  18
ENDBRANCH  16  17
ENDBRANCH  15  16
ENDBRANCH  14  15
ENDBRANCH  13  14
ENDBRANCH  12  13
ENDBRANCH   1  12
TORSDOF 16
ENDMDL
MODEL 8
REMARK VINA RESULT:    -3.287     16.188     18.665
REMARK INTER + INTRA:          -9.050
REMARK INTER:                  -6.029
REMARK INTRA:                  -3.021
REMARK UNBOUND:                -2.689
REMARK SMILES CCCCCCCCCCCCCCCCCC(=O)[O-]
REMARK SMILES IDX 10 1 11 2 12 3 13 4 14 5 15 6 16 7 17 8 18 9 19 10 20 11
REMARK SMILES IDX 9 12 8 13 7 14 6 15 5 16 4 17 3 18 2 19 1 20
REMARK H PARENT
REMARK Flexibility Score: inf
ROOT
ATOM      1  C   UNL     1      23.289   5.280  27.743  1.00  0.00     0.000 C 
ENDROOT
BRANCH   1   2
ATOM      2  C   UNL     1      23.550   6.040  26.434  1.00  0.00     0.000 C 
BRANCH   2   3
ATOM      3  C   UNL     1      23.970   7.500  26.665  1.00  0.00     0.000 C 
BRANCH   3   4
ATOM      4  C   UNL     1      23.738   7.959  28.116  1.00  0.00     0.000 C 
BRANCH   4   5
ATOM      5  C   UNL     1      24.995   8.591  28.739  1.00  0.00     0.000 C 
BRANCH   5   6
ATOM      6  C   UNL     1      24.691   9.332  30.053  1.00  0.00     0.000 C 
BRANCH   6   7
ATOM      7  C   UNL     1      23.184   9.526  30.286  1.00  0.00     0.006 C 
BRANCH   7   8
ATOM      8  C   UNL     1      22.798  10.998  30.479  1.00  0.00     0.053 C 
BRANCH   8   9
ATOM      9  C   UNL     1      23.010  11.763  29.211  1.00  0.00     0.041 C 
ATOM     10  O   UNL     1      23.683  12.828  29.218  1.00  0.00    -0.550 OA
ATOM     11  O   UNL     1      22.427  11.325  28.030  1.00  0.00    -0.550 OA
ENDBRANCH   8   9
ENDBRANCH   7   8
ENDBRANCH   6   7
ENDBRANCH   5   6
ENDBRANCH   4   5
ENDBRANCH   3   4
ENDBRANCH   2   3
ENDBRANCH   1   2
BRANCH   1  12
ATOM     12  C   UNL     1      24.007   3.922  27.742  1.00  0.00     0.000 C 
BRANCH  12  13
ATOM     13  C   UNL     1      24.995   3.760  28.911  1.00  0.00    -0.000 C 
BRANCH  13  14
ATOM     14  C   UNL     1      25.816   5.016  29.254  1.00  0.00    -0.000 C 
BRANCH  14  15
ATOM     15  C   UNL     1      25.595   5.502  30.697  1.00  0.00    -0.000 C 
BRANCH  15  16
ATOM     16  C   UNL     1      24.966   4.428  31.605  1.00  0.00    -0.000 C 
BRANCH  16  17
ATOM     17  C   UNL     1      23.600   4.795  32.216  1.00  0.00    -0.000 C 
BRANCH  17  18
ATOM     18  C   UNL     1      23.099   6.181  31.778  1.00  0.00    -0.000 C 
BRANCH  18  19
ATOM     19  C   UNL     1      21.766   6.111  31.017  1.00  0.00    -0.003 C 
ATOM     20  C   UNL     1      21.262   4.680  30.832  1.00  0.00     0.004 C 
ENDBRANCH  18  19
ENDBRANCH  17  18
ENDBRANCH  16  17
ENDBRANCH  15  16
ENDBRANCH  14  15
ENDBRANCH  13  14
ENDBRANCH  12  13
ENDBRANCH   1  12
TORSDOF 16
ENDMDL
MODEL 9
REMARK VINA RESULT:    -3.268     16.869     18.792
REMARK INTER + INTRA:          -9.014
REMARK INTER:                  -6.337
REMARK INTRA:                  -2.676
REMARK UNBOUND:                -2.689
REMARK SMILES CCCCCCCCCCCCCCCCCC(=O)[O-]
REMARK SMILES IDX 10 1 11 2 12 3 13 4 14 5 15 6 16 7 17 8 18 9 19 10 20 11
REMARK SMILES IDX 9 12 8 13 7 14 6 15 5 16 4 17 3 18 2 19 1 20
REMARK H PARENT
REMARK Flexibility Score: inf
ROOT
ATOM      1  C   UNL     1      24.018   3.945  27.643  1.00  0.00     0.000 C 
ENDROOT
BRANCH   1   2
ATOM      2  C   UNL     1      25.084   3.595  28.692  1.00  0.00     0.000 C 
BRANCH   2   3
ATOM      3  C   UNL     1      25.746   4.838  29.307  1.00  0.00     0.000 C 
BRANCH   3   4
ATOM      4  C   UNL     1      25.769   4.794  30.846  1.00  0.00     0.000 C 
BRANCH   4   5
ATOM      5  C   UNL     1      24.922   3.641  31.412  1.00  0.00     0.000 C 
BRANCH   5   6
ATOM      6  C   UNL     1      23.619   4.136  32.065  1.00  0.00     0.000 C 
BRANCH   6   7
ATOM      7  C   UNL     1      22.401   3.288  31.667  1.00  0.00     0.006 C 
BRANCH   7   8
ATOM      8  C   UNL     1      21.519   3.973  30.615  1.00  0.00     0.053 C 
BRANCH   8   9
ATOM      9  C   UNL     1      20.347   4.635  31.269  1.00  0.00     0.041 C 
ATOM     10  O   UNL     1      20.486   5.230  32.370  1.00  0.00    -0.550 OA
ATOM     11  O   UNL     1      19.089   4.556  30.683  1.00  0.00    -0.550 OA
ENDBRANCH   8   9
ENDBRANCH   7   8
ENDBRANCH   6   7
ENDBRANCH   5   6
ENDBRANCH   4   5
ENDBRANCH   3   4
ENDBRANCH   2   3
ENDBRANCH   1   2
BRANCH   1  12
ATOM     12  C   UNL     1      23.412   5.330  27.916  1.00  0.00     0.000 C 
BRANCH  12  13
ATOM     13  C   UNL     1      23.101   6.117  26.630  1.00  0.00    -0.000 C 
BRANCH  13  14
ATOM     14  C   UNL     1      23.581   7.580  26.626  1.00  0.00    -0.000 C 
BRANCH  14  15
ATOM     15  C   UNL     1      24.593   7.883  27.744  1.00  0.00    -0.000 C 
BRANCH  15  16
ATOM     16  C   UNL     1      23.999   8.734  28.882  1.00  0.00    -0.000 C 
BRANCH  16  17
ATOM     17  C   UNL     1      24.149   8.144  30.297  1.00  0.00    -0.000 C 
BRANCH  17  18
ATOM     18  C   UNL     1      22.867   7.461  30.803  1.00  0.00    -0.000 C 
BRANCH  18  19
ATOM     19  C   UNL     1      21.922   8.440  31.517  1.00  0.00    -0.003 C 
ATOM     20  C   UNL     1      22.666   9.492  32.338  1.00  0.00     0.004 C 
ENDBRANCH  18  19
ENDBRANCH  17  18
ENDBRANCH  16  17
ENDBRANCH  15  16
ENDBRANCH  14  15
ENDBRANCH  13  14
ENDBRANCH  12  13
ENDBRANCH   1  12
TORSDOF 16
ENDMDL
