MODEL 1
REMARK VINA RESULT:    -4.474      0.000      0.000
REMARK INTER + INTRA:          -4.474
REMARK INTER:                  -4.474
REMARK INTRA:                   0.000
REMARK UNBOUND:                 0.000
REMARK SMILES Cc1cccc2ccccc12
REMARK SMILES IDX 1 1 2 2 3 3 4 4 5 5 6 6 7 7 8 8 9 9 10 10 11 11
REMARK H PARENT
REMARK Flexibility Score: inf
ROOT
ATOM      1  C   UNL     1      33.248   7.765  20.300  1.00  0.00     0.045 C 
ATOM      2  C   UNL     1      32.938   8.770  21.382  1.00  0.00    -0.043 A 
ATOM      3  C   UNL     1      31.643   8.800  21.928  1.00  0.00     0.004 A 
ATOM      4  C   UNL     1      31.312   9.711  22.930  1.00  0.00     0.001 A 
ATOM      5  C   UNL     1      32.265  10.609  23.407  1.00  0.00     0.009 A 
ATOM      6  C   UNL     1      33.564  10.604  22.884  1.00  0.00    -0.018 A 
ATOM      7  C   UNL     1      34.520  11.511  23.370  1.00  0.00     0.009 A 
ATOM      8  C   UNL     1      35.816  11.511  22.853  1.00  0.00     0.001 A 
ATOM      9  C   UNL     1      36.171  10.610  21.850  1.00  0.00     0.001 A 
ATOM     10  C   UNL     1      35.233   9.700  21.355  1.00  0.00     0.009 A 
ATOM     11  C   UNL     1      33.915   9.680  21.862  1.00  0.00    -0.015 A 
ENDROOT
TORSDOF 0
ENDMDL
MODEL 2
REMARK VINA RESULT:    -4.408      1.023      3.525
REMARK INTER + INTRA:          -4.408
REMARK INTER:                  -4.408
REMARK INTRA:                   0.000
REMARK UNBOUND:                 0.000
REMARK SMILES Cc1cccc2ccccc12
REMARK SMILES IDX 1 1 2 2 3 3 4 4 5 5 6 6 7 7 8 8 9 9 10 10 11 11
REMARK H PARENT
REMARK Flexibility Score: inf
ROOT
ATOM      1  C   UNL     1      35.392  10.181  20.846  1.00  0.00     0.045 C 
ATOM      2  C   UNL     1      34.147  10.392  21.672  1.00  0.00    -0.043 A 
ATOM      3  C   UNL     1      34.042  11.554  22.455  1.00  0.00     0.004 A 
ATOM      4  C   UNL     1      32.910  11.791  23.233  1.00  0.00     0.001 A 
ATOM      5  C   UNL     1      31.862  10.873  23.246  1.00  0.00     0.009 A 
ATOM      6  C   UNL     1      31.936   9.705  22.477  1.00  0.00    -0.018 A 
ATOM      7  C   UNL     1      30.875   8.785  22.495  1.00  0.00     0.009 A 
ATOM      8  C   UNL     1      30.942   7.619  21.731  1.00  0.00     0.001 A 
ATOM      9  C   UNL     1      32.064   7.361  20.944  1.00  0.00     0.001 A 
ATOM     10  C   UNL     1      33.129   8.265  20.914  1.00  0.00     0.009 A 
ATOM     11  C   UNL     1      33.084   9.451  21.679  1.00  0.00    -0.015 A 
ENDROOT
TORSDOF 0
ENDMDL
MODEL 3
REMARK VINA RESULT:    -4.345      1.081      1.942
REMARK INTER + INTRA:          -4.345
REMARK INTER:                  -4.345
REMARK INTRA:                   0.000
REMARK UNBOUND:                 0.000
REMARK SMILES Cc1cccc2ccccc12
REMARK SMILES IDX 1 1 2 2 3 3 4 4 5 5 6 6 7 7 8 8 9 9 10 10 11 11
REMARK H PARENT
REMARK Flexibility Score: inf
ROOT
ATOM      1  C   UNL     1      34.355   7.583  20.196  1.00  0.00     0.045 C 
ATOM      2  C   UNL     1      33.161   8.045  20.993  1.00  0.00    -0.043 A 
ATOM      3  C   UNL     1      32.010   7.238  21.020  1.00  0.00     0.004 A 
ATOM      4  C   UNL     1      30.883   7.624  21.744  1.00  0.00     0.001 A 
ATOM      5  C   UNL     1      30.881   8.823  22.454  1.00  0.00     0.009 A 
ATOM      6  C   UNL     1      32.012   9.650  22.447  1.00  0.00    -0.018 A 
ATOM      7  C   UNL     1      32.003  10.857  23.166  1.00  0.00     0.009 A 
ATOM      8  C   UNL     1      33.126  11.685  23.163  1.00  0.00     0.001 A 
ATOM      9  C   UNL     1      34.265  11.319  22.447  1.00  0.00     0.001 A 
ATOM     10  C   UNL     1      34.291  10.122  21.726  1.00  0.00     0.009 A 
ATOM     11  C   UNL     1      33.167   9.268  21.714  1.00  0.00    -0.015 A 
ENDROOT
TORSDOF 0
ENDMDL
MODEL 4
REMARK VINA RESULT:    -4.306      0.562      3.351
REMARK INTER + INTRA:          -4.306
REMARK INTER:                  -4.306
REMARK INTRA:                   0.000
REMARK UNBOUND:                 0.000
REMARK SMILES Cc1cccc2ccccc12
REMARK SMILES IDX 1 1 2 2 3 3 4 4 5 5 6 6 7 7 8 8 9 9 10 10 11 11
REMARK H PARENT
REMARK Flexibility Score: inf
ROOT
ATOM      1  C   UNL     1      35.302   8.539  20.109  1.00  0.00     0.045 C 
ATOM      2  C   UNL     1      35.018   9.521  21.218  1.00  0.00    -0.043 A 
ATOM      3  C   UNL     1      36.045  10.381  21.642  1.00  0.00     0.004 A 
ATOM      4  C   UNL     1      35.827  11.305  22.663  1.00  0.00     0.001 A 
ATOM      5  C   UNL     1      34.582  11.388  23.282  1.00  0.00     0.009 A 
ATOM      6  C   UNL     1      33.537  10.544  22.883  1.00  0.00    -0.018 A 
ATOM      7  C   UNL     1      32.284  10.633  23.511  1.00  0.00     0.009 A 
ATOM      8  C   UNL     1      31.239   9.796  23.118  1.00  0.00     0.001 A 
ATOM      9  C   UNL     1      31.433   8.864  22.098  1.00  0.00     0.001 A 
ATOM     10  C   UNL     1      32.674   8.762  21.462  1.00  0.00     0.009 A 
ATOM     11  C   UNL     1      33.746   9.598  21.843  1.00  0.00    -0.015 A 
ENDROOT
TORSDOF 0
ENDMDL
MODEL 5
REMARK VINA RESULT:    -4.185      0.752      3.249
REMARK INTER + INTRA:          -4.185
REMARK INTER:                  -4.185
REMARK INTRA:                   0.000
REMARK UNBOUND:                 0.000
REMARK SMILES Cc1cccc2ccccc12
REMARK SMILES IDX 1 1 2 2 3 3 4 4 5 5 6 6 7 7 8 8 9 9 10 10 11 11
REMARK H PARENT
REMARK Flexibility Score: inf
ROOT
ATOM      1  C   UNL     1      35.703  11.343  22.747  1.00  0.00     0.045 C 
ATOM      2  C   UNL     1      34.314  10.759  22.672  1.00  0.00    -0.043 A 
ATOM      3  C   UNL     1      33.289  11.349  23.432  1.00  0.00     0.004 A 
ATOM      4  C   UNL     1      31.990  10.844  23.393  1.00  0.00     0.001 A 
ATOM      5  C   UNL     1      31.688   9.741  22.596  1.00  0.00     0.009 A 
ATOM      6  C   UNL     1      32.687   9.131  21.827  1.00  0.00    -0.018 A 
ATOM      7  C   UNL     1      32.376   8.020  21.025  1.00  0.00     0.009 A 
ATOM      8  C   UNL     1      33.366   7.408  20.256  1.00  0.00     0.001 A 
ATOM      9  C   UNL     1      34.672   7.896  20.279  1.00  0.00     0.001 A 
ATOM     10  C   UNL     1      35.000   9.000  21.070  1.00  0.00     0.009 A 
ATOM     11  C   UNL     1      34.015   9.636  21.857  1.00  0.00    -0.015 A 
ENDROOT
TORSDOF 0
ENDMDL
MODEL 6
REMARK VINA RESULT:    -4.050      0.689      3.816
REMARK INTER + INTRA:          -4.050
REMARK INTER:                  -4.050
REMARK INTRA:                   0.000
REMARK UNBOUND:                 0.000
REMARK SMILES Cc1cccc2ccccc12
REMARK SMILES IDX 1 1 2 2 3 3 4 4 5 5 6 6 7 7 8 8 9 9 10 10 11 11
REMARK H PARENT
REMARK Flexibility Score: inf
ROOT
ATOM      1  C   UNL     1      32.005  11.003  23.260  1.00  0.00     0.045 C 
ATOM      2  C   UNL     1      33.406  10.635  22.839  1.00  0.00    -0.043 A 
ATOM      3  C   UNL     1      34.487  11.352  23.380  1.00  0.00     0.004 A 
ATOM      4  C   UNL     1      35.799  11.046  23.021  1.00  0.00     0.001 A 
ATOM      5  C   UNL     1      36.058  10.019  22.115  1.00  0.00     0.009 A 
ATOM      6  C   UNL     1      35.003   9.286  21.557  1.00  0.00    -0.018 A 
ATOM      7  C   UNL     1      35.271   8.253  20.645  1.00  0.00     0.009 A 
ATOM      8  C   UNL     1      34.225   7.518  20.086  1.00  0.00     0.001 A 
ATOM      9  C   UNL     1      32.905   7.805  20.431  1.00  0.00     0.001 A 
ATOM     10  C   UNL     1      32.619   8.831  21.337  1.00  0.00     0.009 A 
ATOM     11  C   UNL     1      33.661   9.588  21.915  1.00  0.00    -0.015 A 
ENDROOT
TORSDOF 0
ENDMDL
MODEL 7
REMARK VINA RESULT:    -3.964      0.793      3.171
REMARK INTER + INTRA:          -3.964
REMARK INTER:                  -3.964
REMARK INTRA:                   0.000
REMARK UNBOUND:                 0.000
REMARK SMILES Cc1cccc2ccccc12
REMARK SMILES IDX 1 1 2 2 3 3 4 4 5 5 6 6 7 7 8 8 9 9 10 10 11 11
REMARK H PARENT
REMARK Flexibility Score: inf
ROOT
ATOM      1  C   UNL     1      33.171   7.350  19.823  1.00  0.00     0.045 C 
ATOM      2  C   UNL     1      33.907   8.427  20.581  1.00  0.00    -0.043 A 
ATOM      3  C   UNL     1      35.260   8.662  20.281  1.00  0.00     0.004 A 
ATOM      4  C   UNL     1      35.980   9.647  20.955  1.00  0.00     0.001 A 
ATOM      5  C   UNL     1      35.366  10.417  21.941  1.00  0.00     0.009 A 
ATOM      6  C   UNL     1      34.019  10.208  22.263  1.00  0.00    -0.018 A 
ATOM      7  C   UNL     1      33.405  10.987  23.257  1.00  0.00     0.009 A 
ATOM      8  C   UNL     1      32.064  10.784  23.582  1.00  0.00     0.001 A 
ATOM      9  C   UNL     1      31.323   9.805  22.921  1.00  0.00     0.001 A 
ATOM     10  C   UNL     1      31.917   9.019  21.929  1.00  0.00     0.009 A 
ATOM     11  C   UNL     1      33.273   9.207  21.583  1.00  0.00    -0.015 A 
ENDROOT
TORSDOF 0
ENDMDL
MODEL 8
REMARK VINA RESULT:    -3.958      0.883      2.687
REMARK INTER + INTRA:          -3.958
REMARK INTER:                  -3.958
REMARK INTRA:                   0.000
REMARK UNBOUND:                 0.000
REMARK SMILES Cc1cccc2ccccc12
REMARK SMILES IDX 1 1 2 2 3 3 4 4 5 5 6 6 7 7 8 8 9 9 10 10 11 11
REMARK H PARENT
REMARK Flexibility Score: inf
ROOT
ATOM      1  C   UNL     1      31.960  11.161  23.252  1.00  0.00     0.045 C 
ATOM      2  C   UNL     1      32.938  10.317  22.473  1.00  0.00    -0.043 A 
ATOM      3  C   UNL     1      32.454   9.216  21.745  1.00  0.00     0.004 A 
ATOM      4  C   UNL     1      33.321   8.409  21.010  1.00  0.00     0.001 A 
ATOM      5  C   UNL     1      34.687   8.683  20.988  1.00  0.00     0.009 A 
ATOM      6  C   UNL     1      35.201   9.772  21.703  1.00  0.00    -0.018 A 
ATOM      7  C   UNL     1      36.579  10.042  21.676  1.00  0.00     0.009 A 
ATOM      8  C   UNL     1      37.097  11.126  22.386  1.00  0.00     0.001 A 
ATOM      9  C   UNL     1      36.250  11.948  23.127  1.00  0.00     0.001 A 
ATOM     10  C   UNL     1      34.876  11.694  23.166  1.00  0.00     0.009 A 
ATOM     11  C   UNL     1      34.328  10.603  22.456  1.00  0.00    -0.015 A 
ENDROOT
TORSDOF 0
ENDMDL
MODEL 9
REMARK VINA RESULT:    -3.735      1.191      1.751
REMARK INTER + INTRA:          -3.735
REMARK INTER:                  -3.735
REMARK INTRA:                   0.000
REMARK UNBOUND:                 0.000
REMARK SMILES Cc1cccc2ccccc12
REMARK SMILES IDX 1 1 2 2 3 3 4 4 5 5 6 6 7 7 8 8 9 9 10 10 11 11
REMARK H PARENT
REMARK Flexibility Score: inf
ROOT
ATOM      1  C   UNL     1      33.106   8.414  20.403  1.00  0.00     0.045 C 
ATOM      2  C   UNL     1      33.523   9.477  21.388  1.00  0.00    -0.043 A 
ATOM      3  C   UNL     1      32.555  10.375  21.867  1.00  0.00     0.004 A 
ATOM      4  C   UNL     1      32.895  11.373  22.779  1.00  0.00     0.001 A 
ATOM      5  C   UNL     1      34.208  11.495  23.230  1.00  0.00     0.009 A 
ATOM      6  C   UNL     1      35.197  10.615  22.772  1.00  0.00    -0.018 A 
ATOM      7  C   UNL     1      36.518  10.743  23.231  1.00  0.00     0.009 A 
ATOM      8  C   UNL     1      37.508   9.870  22.779  1.00  0.00     0.001 A 
ATOM      9  C   UNL     1      37.191   8.864  21.867  1.00  0.00     0.001 A 
ATOM     10  C   UNL     1      35.881   8.722  21.399  1.00  0.00     0.009 A 
ATOM     11  C   UNL     1      34.863   9.593  21.842  1.00  0.00    -0.015 A 
ENDROOT
TORSDOF 0
ENDMDL
