MODEL 1
REMARK VINA RESULT:    -4.109      0.000      0.000
REMARK INTER + INTRA:         -12.161
REMARK INTER:                  -8.913
REMARK INTRA:                  -3.248
REMARK UNBOUND:                -3.248
REMARK SMILES CCCCCCCCCCCCCCCCCCCCCC(=O)[O-]
REMARK SMILES IDX 12 1 11 2 10 3 9 4 8 5 7 6 6 7 5 8 4 9 3 10 2 11 1 12 13 13
REMARK SMILES IDX 14 14 15 15 16 16 17 17 18 18 19 19 20 20 21 21 22 22 23 23
REMARK SMILES IDX 24 24
REMARK H PARENT
REMARK Flexibility Score: inf
ROOT
ATOM      1  C   UNL     1      29.926  -8.670  23.663  1.00  0.00     0.000 C 
ENDROOT
BRANCH   1   2
ATOM      2  C   UNL     1      30.169  -7.256  23.107  1.00  0.00     0.000 C 
BRANCH   2   3
ATOM      3  C   UNL     1      30.628  -7.206  21.636  1.00  0.00     0.000 C 
BRANCH   3   4
ATOM      4  C   UNL     1      32.109  -6.834  21.421  1.00  0.00    -0.000 C 
BRANCH   4   5
ATOM      5  C   UNL     1      32.567  -6.825  19.952  1.00  0.00    -0.000 C 
BRANCH   5   6
ATOM      6  C   UNL     1      31.484  -7.335  18.988  1.00  0.00    -0.000 C 
BRANCH   6   7
ATOM      7  C   UNL     1      31.687  -6.841  17.544  1.00  0.00    -0.000 C 
BRANCH   7   8
ATOM      8  C   UNL     1      32.025  -7.945  16.524  1.00  0.00    -0.000 C 
BRANCH   8   9
ATOM      9  C   UNL     1      32.124  -9.340  17.165  1.00  0.00    -0.000 C 
BRANCH   9  10
ATOM     10  C   UNL     1      32.978 -10.310  16.335  1.00  0.00    -0.000 C 
BRANCH  10  11
ATOM     11  C   UNL     1      34.454 -10.306  16.763  1.00  0.00    -0.003 C 
ATOM     12  C   UNL     1      34.600  -9.887  18.223  1.00  0.00     0.004 C 
ENDBRANCH  10  11
ENDBRANCH   9  10
ENDBRANCH   8   9
ENDBRANCH   7   8
ENDBRANCH   6   7
ENDBRANCH   5   6
ENDBRANCH   4   5
ENDBRANCH   3   4
ENDBRANCH   2   3
ENDBRANCH   1   2
BRANCH   1  13
ATOM     13  C   UNL     1      30.314  -9.775  22.666  1.00  0.00     0.000 C 
BRANCH  13  14
ATOM     14  C   UNL     1      31.740 -10.311  22.888  1.00  0.00     0.000 C 
BRANCH  14  15
ATOM     15  C   UNL     1      32.538 -10.603  21.604  1.00  0.00     0.000 C 
BRANCH  15  16
ATOM     16  C   UNL     1      31.638 -10.828  20.376  1.00  0.00     0.000 C 
BRANCH  16  17
ATOM     17  C   UNL     1      31.967 -12.129  19.620  1.00  0.00     0.000 C 
BRANCH  17  18
ATOM     18  C   UNL     1      30.929 -13.257  19.767  1.00  0.00     0.000 C 
BRANCH  18  19
ATOM     19  C   UNL     1      29.750 -12.874  20.673  1.00  0.00     0.000 C 
BRANCH  19  20
ATOM     20  C   UNL     1      29.885 -13.527  22.057  1.00  0.00     0.006 C 
BRANCH  20  21
ATOM     21  C   UNL     1      28.551 -13.567  22.814  1.00  0.00     0.053 C 
BRANCH  21  22
ATOM     22  C   UNL     1      28.155 -14.969  23.166  1.00  0.00     0.041 C 
ATOM     23  O   UNL     1      27.928 -15.810  22.257  1.00  0.00    -0.550 OA
ATOM     24  O   UNL     1      28.004 -15.335  24.497  1.00  0.00    -0.550 OA
ENDBRANCH  21  22
ENDBRANCH  20  21
ENDBRANCH  19  20
ENDBRANCH  18  19
ENDBRANCH  17  18
ENDBRANCH  16  17
ENDBRANCH  15  16
ENDBRANCH  14  15
ENDBRANCH  13  14
ENDBRANCH   1  13
TORSDOF 20
ENDMDL
MODEL 2
REMARK VINA RESULT:    -4.014      1.353      4.332
REMARK INTER + INTRA:         -11.955
REMARK INTER:                  -9.270
REMARK INTRA:                  -2.686
REMARK UNBOUND:                -3.248
REMARK SMILES CCCCCCCCCCCCCCCCCCCCCC(=O)[O-]
REMARK SMILES IDX 12 1 11 2 10 3 9 4 8 5 7 6 6 7 5 8 4 9 3 10 2 11 1 12 13 13
REMARK SMILES IDX 14 14 15 15 16 16 17 17 18 18 19 19 20 20 21 21 22 22 23 23
REMARK SMILES IDX 24 24
REMARK H PARENT
REMARK Flexibility Score: inf
ROOT
ATOM      1  C   UNL     1      33.468 -10.407  18.878  1.00  0.00     0.000 C 
ENDROOT
BRANCH   1   2
ATOM      2  C   UNL     1      32.320 -10.040  17.921  1.00  0.00     0.000 C 
BRANCH   2   3
ATOM      3  C   UNL     1      32.619  -8.862  16.972  1.00  0.00     0.000 C 
BRANCH   3   4
ATOM      4  C   UNL     1      31.650  -7.667  17.081  1.00  0.00    -0.000 C 
BRANCH   4   5
ATOM      5  C   UNL     1      31.474  -7.105  18.502  1.00  0.00    -0.000 C 
BRANCH   5   6
ATOM      6  C   UNL     1      32.644  -6.207  18.936  1.00  0.00    -0.000 C 
BRANCH   6   7
ATOM      7  C   UNL     1      33.409  -6.765  20.151  1.00  0.00    -0.000 C 
BRANCH   7   8
ATOM      8  C   UNL     1      33.001  -6.158  21.506  1.00  0.00    -0.000 C 
BRANCH   8   9
ATOM      9  C   UNL     1      32.222  -7.145  22.393  1.00  0.00    -0.000 C 
BRANCH   9  10
ATOM     10  C   UNL     1      30.711  -7.116  22.120  1.00  0.00    -0.000 C 
BRANCH  10  11
ATOM     11  C   UNL     1      29.882  -7.419  23.378  1.00  0.00    -0.003 C 
ATOM     12  C   UNL     1      29.843  -8.919  23.661  1.00  0.00     0.004 C 
ENDBRANCH  10  11
ENDBRANCH   9  10
ENDBRANCH   8   9
ENDBRANCH   7   8
ENDBRANCH   6   7
ENDBRANCH   5   6
ENDBRANCH   4   5
ENDBRANCH   3   4
ENDBRANCH   2   3
ENDBRANCH   1   2
BRANCH   1  13
ATOM     13  C   UNL     1      33.008 -10.522  20.342  1.00  0.00     0.000 C 
BRANCH  13  14
ATOM     14  C   UNL     1      31.499 -10.272  20.517  1.00  0.00     0.000 C 
BRANCH  14  15
ATOM     15  C   UNL     1      30.697 -11.465  21.071  1.00  0.00     0.000 C 
BRANCH  15  16
ATOM     16  C   UNL     1      31.017 -12.788  20.354  1.00  0.00     0.000 C 
BRANCH  16  17
ATOM     17  C   UNL     1      29.754 -13.577  19.960  1.00  0.00     0.000 C 
BRANCH  17  18
ATOM     18  C   UNL     1      29.210 -14.530  21.040  1.00  0.00     0.000 C 
BRANCH  18  19
ATOM     19  C   UNL     1      27.835 -14.108  21.576  1.00  0.00     0.000 C 
BRANCH  19  20
ATOM     20  C   UNL     1      27.841 -14.034  23.111  1.00  0.00     0.006 C 
BRANCH  20  21
ATOM     21  C   UNL     1      28.849 -15.007  23.736  1.00  0.00     0.053 C 
BRANCH  21  22
ATOM     22  C   UNL     1      28.403 -15.475  25.088  1.00  0.00     0.041 C 
ATOM     23  O   UNL     1      27.984 -16.652  25.245  1.00  0.00    -0.550 OA
ATOM     24  O   UNL     1      28.420 -14.601  26.167  1.00  0.00    -0.550 OA
ENDBRANCH  21  22
ENDBRANCH  20  21
ENDBRANCH  19  20
ENDBRANCH  18  19
ENDBRANCH  17  18
ENDBRANCH  16  17
ENDBRANCH  15  16
ENDBRANCH  14  15
ENDBRANCH  13  14
ENDBRANCH   1  13
TORSDOF 20
ENDMDL
MODEL 3
REMARK VINA RESULT:    -3.952      6.541     11.689
REMARK INTER + INTRA:         -11.820
REMARK INTER:                  -8.324
REMARK INTRA:                  -3.496
REMARK UNBOUND:                -3.248
REMARK SMILES CCCCCCCCCCCCCCCCCCCCCC(=O)[O-]
REMARK SMILES IDX 12 1 11 2 10 3 9 4 8 5 7 6 6 7 5 8 4 9 3 10 2 11 1 12 13 13
REMARK SMILES IDX 14 14 15 15 16 16 17 17 18 18 19 19 20 20 21 21 22 22 23 23
REMARK SMILES IDX 24 24
REMARK H PARENT
REMARK Flexibility Score: inf
ROOT
ATOM      1  C   UNL     1      29.169 -23.546  23.081  1.00  0.00     0.000 C 
ENDROOT
BRANCH   1   2
ATOM      2  C   UNL     1      28.605 -23.920  24.463  1.00  0.00     0.000 C 
BRANCH   2   3
ATOM      3  C   UNL     1      28.858 -22.877  25.571  1.00  0.00     0.000 C 
BRANCH   3   4
ATOM      4  C   UNL     1      27.596 -22.176  26.115  1.00  0.00    -0.000 C 
BRANCH   4   5
ATOM      5  C   UNL     1      27.205 -20.884  25.376  1.00  0.00    -0.000 C 
BRANCH   5   6
ATOM      6  C   UNL     1      27.029 -19.686  26.324  1.00  0.00    -0.000 C 
BRANCH   6   7
ATOM      7  C   UNL     1      28.356 -19.217  26.949  1.00  0.00    -0.000 C 
BRANCH   7   8
ATOM      8  C   UNL     1      29.495 -18.976  25.941  1.00  0.00    -0.000 C 
BRANCH   8   9
ATOM      9  C   UNL     1      30.877 -19.364  26.495  1.00  0.00    -0.000 C 
BRANCH   9  10
ATOM     10  C   UNL     1      31.490 -20.566  25.762  1.00  0.00    -0.000 C 
BRANCH  10  11
ATOM     11  C   UNL     1      33.021 -20.481  25.672  1.00  0.00    -0.003 C 
ATOM     12  C   UNL     1      33.492 -19.030  25.701  1.00  0.00     0.004 C 
ENDBRANCH  10  11
ENDBRANCH   9  10
ENDBRANCH   8   9
ENDBRANCH   7   8
ENDBRANCH   6   7
ENDBRANCH   5   6
ENDBRANCH   4   5
ENDBRANCH   3   4
ENDBRANCH   2   3
ENDBRANCH   1   2
BRANCH   1  13
ATOM     13  C   UNL     1      29.690 -22.100  23.023  1.00  0.00     0.000 C 
BRANCH  13  14
ATOM     14  C   UNL     1      28.732 -21.146  22.287  1.00  0.00     0.000 C 
BRANCH  14  15
ATOM     15  C   UNL     1      29.108 -19.654  22.360  1.00  0.00     0.000 C 
BRANCH  15  16
ATOM     16  C   UNL     1      30.552 -19.376  21.907  1.00  0.00     0.000 C 
BRANCH  16  17
ATOM     17  C   UNL     1      31.269 -18.338  22.791  1.00  0.00     0.000 C 
BRANCH  17  18
ATOM     18  C   UNL     1      30.862 -16.873  22.546  1.00  0.00     0.000 C 
BRANCH  18  19
ATOM     19  C   UNL     1      30.315 -16.183  23.803  1.00  0.00     0.000 C 
BRANCH  19  20
ATOM     20  C   UNL     1      28.795 -15.982  23.704  1.00  0.00     0.006 C 
BRANCH  20  21
ATOM     21  C   UNL     1      28.338 -15.712  22.265  1.00  0.00     0.053 C 
BRANCH  21  22
ATOM     22  C   UNL     1      28.037 -14.260  22.042  1.00  0.00     0.041 C 
ATOM     23  O   UNL     1      28.539 -13.654  21.059  1.00  0.00    -0.550 OA
ATOM     24  O   UNL     1      27.230 -13.571  22.938  1.00  0.00    -0.550 OA
ENDBRANCH  21  22
ENDBRANCH  20  21
ENDBRANCH  19  20
ENDBRANCH  18  19
ENDBRANCH  17  18
ENDBRANCH  16  17
ENDBRANCH  15  16
ENDBRANCH  14  15
ENDBRANCH  13  14
ENDBRANCH   1  13
TORSDOF 20
ENDMDL
MODEL 4
REMARK VINA RESULT:    -3.882      1.278      4.859
REMARK INTER + INTRA:         -11.668
REMARK INTER:                  -8.589
REMARK INTRA:                  -3.079
REMARK UNBOUND:                -3.248
REMARK SMILES CCCCCCCCCCCCCCCCCCCCCC(=O)[O-]
REMARK SMILES IDX 12 1 11 2 10 3 9 4 8 5 7 6 6 7 5 8 4 9 3 10 2 11 1 12 13 13
REMARK SMILES IDX 14 14 15 15 16 16 17 17 18 18 19 19 20 20 21 21 22 22 23 23
REMARK SMILES IDX 24 24
REMARK H PARENT
REMARK Flexibility Score: inf
ROOT
ATOM      1  C   UNL     1      32.157  -8.298  16.398  1.00  0.00     0.000 C 
ENDROOT
BRANCH   1   2
ATOM      2  C   UNL     1      31.421  -7.368  17.379  1.00  0.00     0.000 C 
BRANCH   2   3
ATOM      3  C   UNL     1      32.205  -6.103  17.786  1.00  0.00     0.000 C 
BRANCH   3   4
ATOM      4  C   UNL     1      32.560  -6.004  19.284  1.00  0.00    -0.000 C 
BRANCH   4   5
ATOM      5  C   UNL     1      31.811  -6.993  20.193  1.00  0.00    -0.000 C 
BRANCH   5   6
ATOM      6  C   UNL     1      32.599  -7.347  21.465  1.00  0.00    -0.000 C 
BRANCH   6   7
ATOM      7  C   UNL     1      31.747  -7.250  22.744  1.00  0.00    -0.000 C 
BRANCH   7   8
ATOM      8  C   UNL     1      30.267  -7.638  22.565  1.00  0.00    -0.000 C 
BRANCH   8   9
ATOM      9  C   UNL     1      29.789  -8.667  23.605  1.00  0.00    -0.000 C 
BRANCH   9  10
ATOM     10  C   UNL     1      30.924  -9.152  24.519  1.00  0.00    -0.000 C 
BRANCH  10  11
ATOM     11  C   UNL     1      30.432 -10.128  25.598  1.00  0.00    -0.003 C 
ATOM     12  C   UNL     1      30.502 -11.571  25.107  1.00  0.00     0.004 C 
ENDBRANCH  10  11
ENDBRANCH   9  10
ENDBRANCH   8   9
ENDBRANCH   7   8
ENDBRANCH   6   7
ENDBRANCH   5   6
ENDBRANCH   4   5
ENDBRANCH   3   4
ENDBRANCH   2   3
ENDBRANCH   1   2
BRANCH   1  13
ATOM     13  C   UNL     1      32.445  -9.685  16.996  1.00  0.00     0.000 C 
BRANCH  13  14
ATOM     14  C   UNL     1      33.726  -9.717  17.849  1.00  0.00     0.000 C 
BRANCH  14  15
ATOM     15  C   UNL     1      33.553 -10.282  19.271  1.00  0.00     0.000 C 
BRANCH  15  16
ATOM     16  C   UNL     1      32.106 -10.710  19.574  1.00  0.00     0.000 C 
BRANCH  16  17
ATOM     17  C   UNL     1      31.840 -10.901  21.080  1.00  0.00     0.000 C 
BRANCH  17  18
ATOM     18  C   UNL     1      30.487 -11.547  21.432  1.00  0.00     0.000 C 
BRANCH  18  19
ATOM     19  C   UNL     1      30.016 -12.565  20.384  1.00  0.00     0.000 C 
BRANCH  19  20
ATOM     20  C   UNL     1      30.048 -13.993  20.950  1.00  0.00     0.006 C 
BRANCH  20  21
ATOM     21  C   UNL     1      29.540 -14.056  22.396  1.00  0.00     0.053 C 
BRANCH  21  22
ATOM     22  C   UNL     1      28.103 -14.478  22.461  1.00  0.00     0.041 C 
ATOM     23  O   UNL     1      27.777 -15.661  22.183  1.00  0.00    -0.550 OA
ATOM     24  O   UNL     1      27.122 -13.553  22.797  1.00  0.00    -0.550 OA
ENDBRANCH  21  22
ENDBRANCH  20  21
ENDBRANCH  19  20
ENDBRANCH  18  19
ENDBRANCH  17  18
ENDBRANCH  16  17
ENDBRANCH  15  16
ENDBRANCH  14  15
ENDBRANCH  13  14
ENDBRANCH   1  13
TORSDOF 20
ENDMDL
MODEL 5
REMARK VINA RESULT:    -3.859      2.560      7.143
REMARK INTER + INTRA:         -11.618
REMARK INTER:                  -8.834
REMARK INTRA:                  -2.784
REMARK UNBOUND:                -3.248
REMARK SMILES CCCCCCCCCCCCCCCCCCCCCC(=O)[O-]
REMARK SMILES IDX 12 1 11 2 10 3 9 4 8 5 7 6 6 7 5 8 4 9 3 10 2 11 1 12 13 13
REMARK SMILES IDX 14 14 15 15 16 16 17 17 18 18 19 19 20 20 21 21 22 22 23 23
REMARK SMILES IDX 24 24
REMARK H PARENT
REMARK Flexibility Score: inf
ROOT
ATOM      1  C   UNL     1      33.674 -10.082  19.736  1.00  0.00     0.000 C 
ENDROOT
BRANCH   1   2
ATOM      2  C   UNL     1      32.627 -11.198  19.902  1.00  0.00     0.000 C 
BRANCH   2   3
ATOM      3  C   UNL     1      31.269 -10.734  20.467  1.00  0.00     0.000 C 
BRANCH   3   4
ATOM      4  C   UNL     1      30.403 -11.846  21.093  1.00  0.00    -0.000 C 
BRANCH   4   5
ATOM      5  C   UNL     1      31.016 -12.523  22.330  1.00  0.00    -0.000 C 
BRANCH   5   6
ATOM      6  C   UNL     1      30.017 -12.658  23.491  1.00  0.00    -0.000 C 
BRANCH   6   7
ATOM      7  C   UNL     1      29.472 -14.090  23.649  1.00  0.00    -0.000 C 
BRANCH   7   8
ATOM      8  C   UNL     1      27.958 -14.236  23.405  1.00  0.00    -0.000 C 
BRANCH   8   9
ATOM      9  C   UNL     1      27.578 -14.124  21.919  1.00  0.00    -0.000 C 
BRANCH   9  10
ATOM     10  C   UNL     1      28.493 -14.960  21.012  1.00  0.00    -0.000 C 
BRANCH  10  11
ATOM     11  C   UNL     1      28.046 -16.427  20.919  1.00  0.00    -0.003 C 
ATOM     12  C   UNL     1      28.983 -17.337  21.708  1.00  0.00     0.004 C 
ENDBRANCH  10  11
ENDBRANCH   9  10
ENDBRANCH   8   9
ENDBRANCH   7   8
ENDBRANCH   6   7
ENDBRANCH   5   6
ENDBRANCH   4   5
ENDBRANCH   3   4
ENDBRANCH   2   3
ENDBRANCH   1   2
BRANCH   1  13
ATOM     13  C   UNL     1      34.181  -9.952  18.290  1.00  0.00     0.000 C 
BRANCH  13  14
ATOM     14  C   UNL     1      33.209 -10.553  17.258  1.00  0.00     0.000 C 
BRANCH  14  15
ATOM     15  C   UNL     1      32.280  -9.539  16.565  1.00  0.00     0.000 C 
BRANCH  15  16
ATOM     16  C   UNL     1      32.769  -8.086  16.701  1.00  0.00     0.000 C 
BRANCH  16  17
ATOM     17  C   UNL     1      31.698  -7.145  17.284  1.00  0.00     0.000 C 
BRANCH  17  18
ATOM     18  C   UNL     1      31.335  -7.395  18.760  1.00  0.00     0.000 C 
BRANCH  18  19
ATOM     19  C   UNL     1      32.113  -6.496  19.731  1.00  0.00     0.000 C 
BRANCH  19  20
ATOM     20  C   UNL     1      32.086  -7.072  21.155  1.00  0.00     0.006 C 
BRANCH  20  21
ATOM     21  C   UNL     1      30.659  -7.358  21.639  1.00  0.00     0.053 C 
BRANCH  21  22
ATOM     22  C   UNL     1      30.650  -7.971  23.007  1.00  0.00     0.041 C 
ATOM     23  O   UNL     1      31.463  -7.576  23.884  1.00  0.00    -0.550 OA
ATOM     24  O   UNL     1      29.764  -8.999  23.302  1.00  0.00    -0.550 OA
ENDBRANCH  21  22
ENDBRANCH  20  21
ENDBRANCH  19  20
ENDBRANCH  18  19
ENDBRANCH  17  18
ENDBRANCH  16  17
ENDBRANCH  15  16
ENDBRANCH  14  15
ENDBRANCH  13  14
ENDBRANCH   1  13
TORSDOF 20
ENDMDL
MODEL 6
REMARK VINA RESULT:    -3.858      5.663     10.209
REMARK INTER + INTRA:         -11.617
REMARK INTER:                  -8.622
REMARK INTRA:                  -2.995
REMARK UNBOUND:                -3.248
REMARK SMILES CCCCCCCCCCCCCCCCCCCCCC(=O)[O-]
REMARK SMILES IDX 12 1 11 2 10 3 9 4 8 5 7 6 6 7 5 8 4 9 3 10 2 11 1 12 13 13
REMARK SMILES IDX 14 14 15 15 16 16 17 17 18 18 19 19 20 20 21 21 22 22 23 23
REMARK SMILES IDX 24 24
REMARK H PARENT
REMARK Flexibility Score: inf
ROOT
ATOM      1  C   UNL     1      27.590 -20.402  26.031  1.00  0.00     0.000 C 
ENDROOT
BRANCH   1   2
ATOM      2  C   UNL     1      28.928 -19.983  26.663  1.00  0.00     0.000 C 
BRANCH   2   3
ATOM      3  C   UNL     1      29.326 -18.512  26.424  1.00  0.00     0.000 C 
BRANCH   3   4
ATOM      4  C   UNL     1      28.481 -17.764  25.372  1.00  0.00    -0.000 C 
BRANCH   4   5
ATOM      5  C   UNL     1      28.861 -16.287  25.169  1.00  0.00    -0.000 C 
BRANCH   5   6
ATOM      6  C   UNL     1      29.858 -16.082  24.017  1.00  0.00    -0.000 C 
BRANCH   6   7
ATOM      7  C   UNL     1      29.411 -16.761  22.709  1.00  0.00    -0.000 C 
BRANCH   7   8
ATOM      8  C   UNL     1      28.344 -15.987  21.912  1.00  0.00    -0.000 C 
BRANCH   8   9
ATOM      9  C   UNL     1      28.453 -14.463  22.090  1.00  0.00    -0.000 C 
BRANCH   9  10
ATOM     10  C   UNL     1      28.725 -13.733  20.766  1.00  0.00    -0.000 C 
BRANCH  10  11
ATOM     11  C   UNL     1      30.223 -13.488  20.528  1.00  0.00    -0.003 C 
ATOM     12  C   UNL     1      30.602 -12.047  20.858  1.00  0.00     0.004 C 
ENDBRANCH  10  11
ENDBRANCH   9  10
ENDBRANCH   8   9
ENDBRANCH   7   8
ENDBRANCH   6   7
ENDBRANCH   5   6
ENDBRANCH   4   5
ENDBRANCH   3   4
ENDBRANCH   2   3
ENDBRANCH   1   2
BRANCH   1  13
ATOM     13  C   UNL     1      27.407 -21.928  25.982  1.00  0.00     0.000 C 
BRANCH  13  14
ATOM     14  C   UNL     1      28.729 -22.683  25.748  1.00  0.00     0.000 C 
BRANCH  14  15
ATOM     15  C   UNL     1      28.754 -23.590  24.504  1.00  0.00     0.000 C 
BRANCH  15  16
ATOM     16  C   UNL     1      29.539 -22.979  23.330  1.00  0.00     0.000 C 
BRANCH  16  17
ATOM     17  C   UNL     1      28.718 -21.947  22.533  1.00  0.00     0.000 C 
BRANCH  17  18
ATOM     18  C   UNL     1      29.215 -20.493  22.632  1.00  0.00     0.000 C 
BRANCH  18  19
ATOM     19  C   UNL     1      30.484 -20.348  23.483  1.00  0.00     0.000 C 
BRANCH  19  20
ATOM     20  C   UNL     1      31.687 -19.947  22.615  1.00  0.00     0.006 C 
BRANCH  20  21
ATOM     21  C   UNL     1      31.336 -19.899  21.122  1.00  0.00     0.053 C 
BRANCH  21  22
ATOM     22  C   UNL     1      32.195 -20.829  20.321  1.00  0.00     0.041 C 
ATOM     23  O   UNL     1      32.691 -20.450  19.228  1.00  0.00    -0.550 OA
ATOM     24  O   UNL     1      32.421 -22.126  20.766  1.00  0.00    -0.550 OA
ENDBRANCH  21  22
ENDBRANCH  20  21
ENDBRANCH  19  20
ENDBRANCH  18  19
ENDBRANCH  17  18
ENDBRANCH  16  17
ENDBRANCH  15  16
ENDBRANCH  14  15
ENDBRANCH  13  14
ENDBRANCH   1  13
TORSDOF 20
ENDMDL
MODEL 7
REMARK VINA RESULT:    -3.847      1.247      4.968
REMARK INTER + INTRA:         -11.592
REMARK INTER:                  -8.328
REMARK INTRA:                  -3.264
REMARK UNBOUND:                -3.248
REMARK SMILES CCCCCCCCCCCCCCCCCCCCCC(=O)[O-]
REMARK SMILES IDX 12 1 11 2 10 3 9 4 8 5 7 6 6 7 5 8 4 9 3 10 2 11 1 12 13 13
REMARK SMILES IDX 14 14 15 15 16 16 17 17 18 18 19 19 20 20 21 21 22 22 23 23
REMARK SMILES IDX 24 24
REMARK H PARENT
REMARK Flexibility Score: inf
ROOT
ATOM      1  C   UNL     1      32.730  -7.601  17.463  1.00  0.00     0.000 C 
ENDROOT
BRANCH   1   2
ATOM      2  C   UNL     1      31.681  -6.833  18.286  1.00  0.00     0.000 C 
BRANCH   2   3
ATOM      3  C   UNL     1      31.467  -7.363  19.719  1.00  0.00     0.000 C 
BRANCH   3   4
ATOM      4  C   UNL     1      32.399  -6.759  20.789  1.00  0.00    -0.000 C 
BRANCH   4   5
ATOM      5  C   UNL     1      33.580  -7.656  21.198  1.00  0.00    -0.000 C 
BRANCH   5   6
ATOM      6  C   UNL     1      33.515  -8.091  22.671  1.00  0.00    -0.000 C 
BRANCH   6   7
ATOM      7  C   UNL     1      33.221  -9.593  22.839  1.00  0.00    -0.000 C 
BRANCH   7   8
ATOM      8  C   UNL     1      31.921  -9.916  23.600  1.00  0.00    -0.000 C 
BRANCH   8   9
ATOM      9  C   UNL     1      30.667  -9.355  22.907  1.00  0.00    -0.000 C 
BRANCH   9  10
ATOM     10  C   UNL     1      29.861  -8.418  23.819  1.00  0.00    -0.000 C 
BRANCH  10  11
ATOM     11  C   UNL     1      29.893  -6.959  23.337  1.00  0.00    -0.003 C 
ATOM     12  C   UNL     1      30.761  -6.099  24.252  1.00  0.00     0.004 C 
ENDBRANCH  10  11
ENDBRANCH   9  10
ENDBRANCH   8   9
ENDBRANCH   7   8
ENDBRANCH   6   7
ENDBRANCH   5   6
ENDBRANCH   4   5
ENDBRANCH   3   4
ENDBRANCH   2   3
ENDBRANCH   1   2
BRANCH   1  13
ATOM     13  C   UNL     1      32.148  -8.206  16.174  1.00  0.00     0.000 C 
BRANCH  13  14
ATOM     14  C   UNL     1      32.448  -9.709  16.029  1.00  0.00     0.000 C 
BRANCH  14  15
ATOM     15  C   UNL     1      33.469 -10.273  17.034  1.00  0.00     0.000 C 
BRANCH  15  16
ATOM     16  C   UNL     1      32.866 -11.333  17.973  1.00  0.00     0.000 C 
BRANCH  16  17
ATOM     17  C   UNL     1      32.646 -10.811  19.405  1.00  0.00     0.000 C 
BRANCH  17  18
ATOM     18  C   UNL     1      31.367 -11.313  20.100  1.00  0.00     0.000 C 
BRANCH  18  19
ATOM     19  C   UNL     1      31.438 -12.796  20.490  1.00  0.00     0.000 C 
BRANCH  19  20
ATOM     20  C   UNL     1      30.320 -13.600  19.808  1.00  0.00     0.006 C 
BRANCH  20  21
ATOM     21  C   UNL     1      28.967 -13.423  20.509  1.00  0.00     0.053 C 
BRANCH  21  22
ATOM     22  C   UNL     1      28.904 -14.191  21.795  1.00  0.00     0.041 C 
ATOM     23  O   UNL     1      28.677 -15.429  21.783  1.00  0.00    -0.550 OA
ATOM     24  O   UNL     1      29.063 -13.531  23.007  1.00  0.00    -0.550 OA
ENDBRANCH  21  22
ENDBRANCH  20  21
ENDBRANCH  19  20
ENDBRANCH  18  19
ENDBRANCH  17  18
ENDBRANCH  16  17
ENDBRANCH  15  16
ENDBRANCH  14  15
ENDBRANCH  13  14
ENDBRANCH   1  13
TORSDOF 20
ENDMDL
MODEL 8
REMARK VINA RESULT:    -3.821      6.699     11.219
REMARK INTER + INTRA:         -11.535
REMARK INTER:                  -8.049
REMARK INTRA:                  -3.486
REMARK UNBOUND:                -3.248
REMARK SMILES CCCCCCCCCCCCCCCCCCCCCC(=O)[O-]
REMARK SMILES IDX 12 1 11 2 10 3 9 4 8 5 7 6 6 7 5 8 4 9 3 10 2 11 1 12 13 13
REMARK SMILES IDX 14 14 15 15 16 16 17 17 18 18 19 19 20 20 21 21 22 22 23 23
REMARK SMILES IDX 24 24
REMARK H PARENT
REMARK Flexibility Score: inf
ROOT
ATOM      1  C   UNL     1      30.728 -22.418  23.720  1.00  0.00     0.000 C 
ENDROOT
BRANCH   1   2
ATOM      2  C   UNL     1      30.897 -21.423  22.558  1.00  0.00     0.000 C 
BRANCH   2   3
ATOM      3  C   UNL     1      29.662 -20.544  22.272  1.00  0.00     0.000 C 
BRANCH   3   4
ATOM      4  C   UNL     1      29.971 -19.082  21.890  1.00  0.00    -0.000 C 
BRANCH   4   5
ATOM      5  C   UNL     1      29.431 -18.029  22.873  1.00  0.00    -0.000 C 
BRANCH   5   6
ATOM      6  C   UNL     1      30.544 -17.340  23.678  1.00  0.00    -0.000 C 
BRANCH   6   7
ATOM      7  C   UNL     1      30.038 -16.728  24.998  1.00  0.00    -0.000 C 
BRANCH   7   8
ATOM      8  C   UNL     1      28.545 -16.350  25.003  1.00  0.00    -0.000 C 
BRANCH   8   9
ATOM      9  C   UNL     1      28.313 -14.830  25.072  1.00  0.00    -0.000 C 
BRANCH   9  10
ATOM     10  C   UNL     1      28.713 -14.115  23.772  1.00  0.00    -0.000 C 
BRANCH  10  11
ATOM     11  C   UNL     1      27.602 -14.162  22.711  1.00  0.00    -0.003 C 
ATOM     12  C   UNL     1      28.106 -14.800  21.419  1.00  0.00     0.004 C 
ENDBRANCH  10  11
ENDBRANCH   9  10
ENDBRANCH   8   9
ENDBRANCH   7   8
ENDBRANCH   6   7
ENDBRANCH   5   6
ENDBRANCH   4   5
ENDBRANCH   3   4
ENDBRANCH   2   3
ENDBRANCH   1   2
BRANCH   1  13
ATOM     13  C   UNL     1      29.879 -23.642  23.336  1.00  0.00     0.000 C 
BRANCH  13  14
ATOM     14  C   UNL     1      28.679 -23.857  24.276  1.00  0.00     0.000 C 
BRANCH  14  15
ATOM     15  C   UNL     1      28.800 -23.186  25.657  1.00  0.00     0.000 C 
BRANCH  15  16
ATOM     16  C   UNL     1      27.530 -22.419  26.065  1.00  0.00     0.000 C 
BRANCH  16  17
ATOM     17  C   UNL     1      27.474 -20.996  25.479  1.00  0.00     0.000 C 
BRANCH  17  18
ATOM     18  C   UNL     1      28.704 -20.116  25.769  1.00  0.00     0.000 C 
BRANCH  18  19
ATOM     19  C   UNL     1      28.620 -19.392  27.121  1.00  0.00     0.000 C 
BRANCH  19  20
ATOM     20  C   UNL     1      29.823 -19.745  28.010  1.00  0.00     0.006 C 
BRANCH  20  21
ATOM     21  C   UNL     1      31.058 -20.136  27.188  1.00  0.00     0.053 C 
BRANCH  21  22
ATOM     22  C   UNL     1      32.026 -18.998  27.067  1.00  0.00     0.041 C 
ATOM     23  O   UNL     1      31.994 -18.048  27.892  1.00  0.00    -0.550 OA
ATOM     24  O   UNL     1      32.941 -18.973  26.022  1.00  0.00    -0.550 OA
ENDBRANCH  21  22
ENDBRANCH  20  21
ENDBRANCH  19  20
ENDBRANCH  18  19
ENDBRANCH  17  18
ENDBRANCH  16  17
ENDBRANCH  15  16
ENDBRANCH  14  15
ENDBRANCH  13  14
ENDBRANCH   1  13
TORSDOF 20
ENDMDL
MODEL 9
REMARK VINA RESULT:    -3.757      1.390      4.716
REMARK INTER + INTRA:         -11.397
REMARK INTER:                  -8.178
REMARK INTRA:                  -3.219
REMARK UNBOUND:                -3.248
REMARK SMILES CCCCCCCCCCCCCCCCCCCCCC(=O)[O-]
REMARK SMILES IDX 12 1 11 2 10 3 9 4 8 5 7 6 6 7 5 8 4 9 3 10 2 11 1 12 13 13
REMARK SMILES IDX 14 14 15 15 16 16 17 17 18 18 19 19 20 20 21 21 22 22 23 23
REMARK SMILES IDX 24 24
REMARK H PARENT
REMARK Flexibility Score: inf
ROOT
ATOM      1  C   UNL     1      33.407  -8.554  16.306  1.00  0.00     0.000 C 
ENDROOT
BRANCH   1   2
ATOM      2  C   UNL     1      32.659  -7.250  16.631  1.00  0.00     0.000 C 
BRANCH   2   3
ATOM      3  C   UNL     1      31.382  -7.428  17.479  1.00  0.00     0.000 C 
BRANCH   3   4
ATOM      4  C   UNL     1      31.508  -6.996  18.955  1.00  0.00    -0.000 C 
BRANCH   4   5
ATOM      5  C   UNL     1      32.707  -6.083  19.261  1.00  0.00    -0.000 C 
BRANCH   5   6
ATOM      6  C   UNL     1      33.827  -6.807  20.026  1.00  0.00    -0.000 C 
BRANCH   6   7
ATOM      7  C   UNL     1      34.404  -5.967  21.180  1.00  0.00    -0.000 C 
BRANCH   7   8
ATOM      8  C   UNL     1      33.508  -5.882  22.429  1.00  0.00    -0.000 C 
BRANCH   8   9
ATOM      9  C   UNL     1      33.566  -7.153  23.295  1.00  0.00    -0.000 C 
BRANCH   9  10
ATOM     10  C   UNL     1      32.391  -8.104  23.023  1.00  0.00    -0.000 C 
BRANCH  10  11
ATOM     11  C   UNL     1      31.030  -7.459  23.328  1.00  0.00    -0.003 C 
ATOM     12  C   UNL     1      29.906  -8.168  22.577  1.00  0.00     0.004 C 
ENDBRANCH  10  11
ENDBRANCH   9  10
ENDBRANCH   8   9
ENDBRANCH   7   8
ENDBRANCH   6   7
ENDBRANCH   5   6
ENDBRANCH   4   5
ENDBRANCH   3   4
ENDBRANCH   2   3
ENDBRANCH   1   2
BRANCH   1  13
ATOM     13  C   UNL     1      32.495  -9.792  16.357  1.00  0.00     0.000 C 
BRANCH  13  14
ATOM     14  C   UNL     1      32.900 -10.790  17.457  1.00  0.00     0.000 C 
BRANCH  14  15
ATOM     15  C   UNL     1      33.786 -10.208  18.575  1.00  0.00     0.000 C 
BRANCH  15  16
ATOM     16  C   UNL     1      33.276 -10.551  19.985  1.00  0.00     0.000 C 
BRANCH  16  17
ATOM     17  C   UNL     1      31.764 -10.310  20.151  1.00  0.00     0.000 C 
BRANCH  17  18
ATOM     18  C   UNL     1      30.983 -11.463  20.810  1.00  0.00     0.000 C 
BRANCH  18  19
ATOM     19  C   UNL     1      31.416 -12.847  20.307  1.00  0.00     0.000 C 
BRANCH  19  20
ATOM     20  C   UNL     1      30.199 -13.691  19.900  1.00  0.00     0.006 C 
BRANCH  20  21
ATOM     21  C   UNL     1      29.067 -13.614  20.931  1.00  0.00     0.053 C 
BRANCH  21  22
ATOM     22  C   UNL     1      28.920 -14.897  21.692  1.00  0.00     0.041 C 
ATOM     23  O   UNL     1      29.928 -15.448  22.206  1.00  0.00    -0.550 OA
ATOM     24  O   UNL     1      27.673 -15.500  21.804  1.00  0.00    -0.550 OA
ENDBRANCH  21  22
ENDBRANCH  20  21
ENDBRANCH  19  20
ENDBRANCH  18  19
ENDBRANCH  17  18
ENDBRANCH  16  17
ENDBRANCH  15  16
ENDBRANCH  14  15
ENDBRANCH  13  14
ENDBRANCH   1  13
TORSDOF 20
ENDMDL
