MODEL 1
REMARK VINA RESULT:    -4.179      0.000      0.000
REMARK INTER + INTRA:          -8.560
REMARK INTER:                  -7.354
REMARK INTRA:                  -1.206
REMARK UNBOUND:                -1.206
REMARK SMILES CCCCCCCCCCCCCCC(=O)[O-]
REMARK SMILES IDX 9 1 10 2 11 3 12 4 13 5 14 6 15 7 16 8 17 9 8 10 7 11 6 12
REMARK SMILES IDX 5 13 4 14 3 15 2 16 1 17
REMARK H PARENT
REMARK Flexibility Score: inf
ROOT
ATOM      1  C   UNL     1     -15.081   6.550  29.845  1.00  0.00     0.000 C 
ENDROOT
BRANCH   1   2
ATOM      2  C   UNL     1     -16.381   6.537  30.665  1.00  0.00     0.000 C 
BRANCH   2   3
ATOM      3  C   UNL     1     -16.465   5.337  31.621  1.00  0.00     0.000 C 
BRANCH   3   4
ATOM      4  C   UNL     1     -15.305   4.348  31.433  1.00  0.00     0.000 C 
BRANCH   4   5
ATOM      5  C   UNL     1     -15.001   3.603  32.738  1.00  0.00     0.006 C 
BRANCH   5   6
ATOM      6  C   UNL     1     -16.290   3.135  33.418  1.00  0.00     0.053 C 
BRANCH   6   7
ATOM      7  C   UNL     1     -16.115   1.763  33.989  1.00  0.00     0.041 C 
ATOM      8  O   UNL     1     -15.795   1.617  35.199  1.00  0.00    -0.550 OA
ATOM      9  O   UNL     1     -16.256   0.647  33.174  1.00  0.00    -0.550 OA
ENDBRANCH   6   7
ENDBRANCH   5   6
ENDBRANCH   4   5
ENDBRANCH   3   4
ENDBRANCH   2   3
ENDBRANCH   1   2
BRANCH   1  10
ATOM     10  C   UNL     1     -14.755   7.966  29.353  1.00  0.00     0.000 C 
BRANCH  10  11
ATOM     11  C   UNL     1     -14.130   7.929  27.951  1.00  0.00    -0.000 C 
BRANCH  11  12
ATOM     12  C   UNL     1     -12.779   8.659  27.884  1.00  0.00    -0.000 C 
BRANCH  12  13
ATOM     13  C   UNL     1     -11.797   8.185  28.970  1.00  0.00    -0.000 C 
BRANCH  13  14
ATOM     14  C   UNL     1     -10.786   7.153  28.443  1.00  0.00    -0.000 C 
BRANCH  14  15
ATOM     15  C   UNL     1     -11.210   5.704  28.739  1.00  0.00    -0.000 C 
BRANCH  15  16
ATOM     16  C   UNL     1     -11.749   5.530  30.168  1.00  0.00    -0.003 C 
ATOM     17  C   UNL     1     -10.642   5.294  31.195  1.00  0.00     0.004 C 
ENDBRANCH  15  16
ENDBRANCH  14  15
ENDBRANCH  13  14
ENDBRANCH  12  13
ENDBRANCH  11  12
ENDBRANCH  10  11
ENDBRANCH   1  10
TORSDOF 13
ENDMDL
MODEL 2
REMARK VINA RESULT:    -4.045      3.717      7.269
REMARK INTER + INTRA:          -8.325
REMARK INTER:                  -7.415
REMARK INTRA:                  -0.910
REMARK UNBOUND:                -1.206
REMARK SMILES CCCCCCCCCCCCCCC(=O)[O-]
REMARK SMILES IDX 9 1 10 2 11 3 12 4 13 5 14 6 15 7 16 8 17 9 8 10 7 11 6 12
REMARK SMILES IDX 5 13 4 14 3 15 2 16 1 17
REMARK H PARENT
REMARK Flexibility Score: inf
ROOT
ATOM      1  C   UNL     1     -16.003   5.697  30.341  1.00  0.00     0.000 C 
ENDROOT
BRANCH   1   2
ATOM      2  C   UNL     1     -15.516   7.137  30.112  1.00  0.00     0.000 C 
BRANCH   2   3
ATOM      3  C   UNL     1     -14.516   7.245  28.951  1.00  0.00     0.000 C 
BRANCH   3   4
ATOM      4  C   UNL     1     -14.150   8.699  28.619  1.00  0.00     0.000 C 
BRANCH   4   5
ATOM      5  C   UNL     1     -12.783   8.777  27.927  1.00  0.00     0.006 C 
BRANCH   5   6
ATOM      6  C   UNL     1     -12.047   7.437  28.008  1.00  0.00     0.053 C 
BRANCH   6   7
ATOM      7  C   UNL     1     -10.722   7.605  28.682  1.00  0.00     0.041 C 
ATOM      8  O   UNL     1     -10.635   8.263  29.753  1.00  0.00    -0.550 OA
ATOM      9  O   UNL     1      -9.575   7.080  28.101  1.00  0.00    -0.550 OA
ENDBRANCH   6   7
ENDBRANCH   5   6
ENDBRANCH   4   5
ENDBRANCH   3   4
ENDBRANCH   2   3
ENDBRANCH   1   2
BRANCH   1  10
ATOM     10  C   UNL     1     -16.755   5.577  31.673  1.00  0.00     0.000 C 
BRANCH  10  11
ATOM     11  C   UNL     1     -16.531   4.196  32.306  1.00  0.00    -0.000 C 
BRANCH  11  12
ATOM     12  C   UNL     1     -15.046   3.802  32.363  1.00  0.00    -0.000 C 
BRANCH  12  13
ATOM     13  C   UNL     1     -14.812   2.325  31.998  1.00  0.00    -0.000 C 
BRANCH  13  14
ATOM     14  C   UNL     1     -16.075   1.466  32.171  1.00  0.00    -0.000 C 
BRANCH  14  15
ATOM     15  C   UNL     1     -16.004   0.552  33.406  1.00  0.00    -0.000 C 
BRANCH  15  16
ATOM     16  C   UNL     1     -16.465   1.260  34.690  1.00  0.00    -0.003 C 
ATOM     17  C   UNL     1     -15.626   0.881  35.910  1.00  0.00     0.004 C 
ENDBRANCH  15  16
ENDBRANCH  14  15
ENDBRANCH  13  14
ENDBRANCH  12  13
ENDBRANCH  11  12
ENDBRANCH  10  11
ENDBRANCH   1  10
TORSDOF 13
ENDMDL
MODEL 3
REMARK VINA RESULT:    -4.040      2.578      4.634
REMARK INTER + INTRA:          -8.316
REMARK INTER:                  -6.548
REMARK INTRA:                  -1.769
REMARK UNBOUND:                -1.206
REMARK SMILES CCCCCCCCCCCCCCC(=O)[O-]
REMARK SMILES IDX 9 1 10 2 11 3 12 4 13 5 14 6 15 7 16 8 17 9 8 10 7 11 6 12
REMARK SMILES IDX 5 13 4 14 3 15 2 16 1 17
REMARK H PARENT
REMARK Flexibility Score: inf
ROOT
ATOM      1  C   UNL     1     -11.316   9.018  28.901  1.00  0.00     0.000 C 
ENDROOT
BRANCH   1   2
ATOM      2  C   UNL     1     -12.342   8.085  28.239  1.00  0.00     0.000 C 
BRANCH   2   3
ATOM      3  C   UNL     1     -13.636   8.812  27.845  1.00  0.00     0.000 C 
BRANCH   3   4
ATOM      4  C   UNL     1     -14.720   8.720  28.930  1.00  0.00     0.000 C 
BRANCH   4   5
ATOM      5  C   UNL     1     -14.798   7.303  29.511  1.00  0.00     0.006 C 
BRANCH   5   6
ATOM      6  C   UNL     1     -16.038   7.136  30.392  1.00  0.00     0.053 C 
BRANCH   6   7
ATOM      7  C   UNL     1     -16.284   5.689  30.683  1.00  0.00     0.041 C 
ATOM      8  O   UNL     1     -16.254   4.842  29.752  1.00  0.00    -0.550 OA
ATOM      9  O   UNL     1     -16.598   5.283  31.974  1.00  0.00    -0.550 OA
ENDBRANCH   6   7
ENDBRANCH   5   6
ENDBRANCH   4   5
ENDBRANCH   3   4
ENDBRANCH   2   3
ENDBRANCH   1   2
BRANCH   1  10
ATOM     10  C   UNL     1     -10.278   8.218  29.698  1.00  0.00     0.000 C 
BRANCH  10  11
ATOM     11  C   UNL     1      -9.898   6.925  28.961  1.00  0.00    -0.000 C 
BRANCH  11  12
ATOM     12  C   UNL     1      -9.522   5.784  29.919  1.00  0.00    -0.000 C 
BRANCH  12  13
ATOM     13  C   UNL     1     -10.461   5.700  31.136  1.00  0.00    -0.000 C 
BRANCH  13  14
ATOM     14  C   UNL     1     -11.315   4.420  31.136  1.00  0.00    -0.000 C 
BRANCH  14  15
ATOM     15  C   UNL     1     -12.592   4.561  30.290  1.00  0.00    -0.000 C 
BRANCH  15  16
ATOM     16  C   UNL     1     -12.484   3.838  28.938  1.00  0.00    -0.003 C 
ATOM     17  C   UNL     1     -13.282   4.526  27.831  1.00  0.00     0.004 C 
ENDBRANCH  15  16
ENDBRANCH  14  15
ENDBRANCH  13  14
ENDBRANCH  12  13
ENDBRANCH  11  12
ENDBRANCH  10  11
ENDBRANCH   1  10
TORSDOF 13
ENDMDL
MODEL 4
REMARK VINA RESULT:    -4.029      1.218      2.534
REMARK INTER + INTRA:          -8.298
REMARK INTER:                  -6.408
REMARK INTRA:                  -1.890
REMARK UNBOUND:                -1.206
REMARK SMILES CCCCCCCCCCCCCCC(=O)[O-]
REMARK SMILES IDX 9 1 10 2 11 3 12 4 13 5 14 6 15 7 16 8 17 9 8 10 7 11 6 12
REMARK SMILES IDX 5 13 4 14 3 15 2 16 1 17
REMARK H PARENT
REMARK Flexibility Score: inf
ROOT
ATOM      1  C   UNL     1     -13.974   8.780  28.857  1.00  0.00     0.000 C 
ENDROOT
BRANCH   1   2
ATOM      2  C   UNL     1     -14.870   7.536  28.748  1.00  0.00     0.000 C 
BRANCH   2   3
ATOM      3  C   UNL     1     -15.513   7.152  30.089  1.00  0.00     0.000 C 
BRANCH   3   4
ATOM      4  C   UNL     1     -16.047   5.711  30.097  1.00  0.00     0.000 C 
BRANCH   4   5
ATOM      5  C   UNL     1     -16.355   5.248  31.527  1.00  0.00     0.006 C 
BRANCH   5   6
ATOM      6  C   UNL     1     -15.261   4.313  32.051  1.00  0.00     0.053 C 
BRANCH   6   7
ATOM      7  C   UNL     1     -15.867   3.125  32.729  1.00  0.00     0.041 C 
ATOM      8  O   UNL     1     -15.750   1.978  32.221  1.00  0.00    -0.550 OA
ATOM      9  O   UNL     1     -16.603   3.290  33.895  1.00  0.00    -0.550 OA
ENDBRANCH   6   7
ENDBRANCH   5   6
ENDBRANCH   4   5
ENDBRANCH   3   4
ENDBRANCH   2   3
ENDBRANCH   1   2
BRANCH   1  10
ATOM     10  C   UNL     1     -12.787   8.688  27.889  1.00  0.00     0.000 C 
BRANCH  10  11
ATOM     11  C   UNL     1     -11.458   8.897  28.631  1.00  0.00    -0.000 C 
BRANCH  11  12
ATOM     12  C   UNL     1     -10.590   7.628  28.663  1.00  0.00    -0.000 C 
BRANCH  12  13
ATOM     13  C   UNL     1     -10.268   7.169  30.096  1.00  0.00    -0.000 C 
BRANCH  13  14
ATOM     14  C   UNL     1     -10.664   5.705  30.351  1.00  0.00    -0.000 C 
BRANCH  14  15
ATOM     15  C   UNL     1     -12.184   5.483  30.283  1.00  0.00    -0.000 C 
BRANCH  15  16
ATOM     16  C   UNL     1     -12.565   4.287  29.397  1.00  0.00    -0.003 C 
ATOM     17  C   UNL     1     -12.837   4.686  27.946  1.00  0.00     0.004 C 
ENDBRANCH  15  16
ENDBRANCH  14  15
ENDBRANCH  13  14
ENDBRANCH  12  13
ENDBRANCH  11  12
ENDBRANCH  10  11
ENDBRANCH   1  10
TORSDOF 13
ENDMDL
MODEL 5
REMARK VINA RESULT:    -4.023      2.936      6.233
REMARK INTER + INTRA:          -8.287
REMARK INTER:                  -7.523
REMARK INTRA:                  -0.764
REMARK UNBOUND:                -1.206
REMARK SMILES CCCCCCCCCCCCCCC(=O)[O-]
REMARK SMILES IDX 9 1 10 2 11 3 12 4 13 5 14 6 15 7 16 8 17 9 8 10 7 11 6 12
REMARK SMILES IDX 5 13 4 14 3 15 2 16 1 17
REMARK H PARENT
REMARK Flexibility Score: inf
ROOT
ATOM      1  C   UNL     1     -14.517   8.178  28.968  1.00  0.00     0.000 C 
ENDROOT
BRANCH   1   2
ATOM      2  C   UNL     1     -13.264   8.061  28.086  1.00  0.00     0.000 C 
BRANCH   2   3
ATOM      3  C   UNL     1     -12.157   7.219  28.739  1.00  0.00     0.000 C 
BRANCH   3   4
ATOM      4  C   UNL     1     -10.966   8.069  29.207  1.00  0.00     0.000 C 
BRANCH   4   5
ATOM      5  C   UNL     1      -9.957   7.217  29.989  1.00  0.00     0.006 C 
BRANCH   5   6
ATOM      6  C   UNL     1     -10.431   5.765  30.098  1.00  0.00     0.053 C 
BRANCH   6   7
ATOM      7  C   UNL     1      -9.560   4.999  31.043  1.00  0.00     0.041 C 
ATOM      8  O   UNL     1      -8.321   5.220  31.083  1.00  0.00    -0.550 OA
ATOM      9  O   UNL     1     -10.109   4.005  31.844  1.00  0.00    -0.550 OA
ENDBRANCH   6   7
ENDBRANCH   5   6
ENDBRANCH   4   5
ENDBRANCH   3   4
ENDBRANCH   2   3
ENDBRANCH   1   2
BRANCH   1  10
ATOM     10  C   UNL     1     -14.944   6.804  29.499  1.00  0.00     0.000 C 
BRANCH  10  11
ATOM     11  C   UNL     1     -16.123   6.936  30.476  1.00  0.00    -0.000 C 
BRANCH  11  12
ATOM     12  C   UNL     1     -16.411   5.633  31.239  1.00  0.00    -0.000 C 
BRANCH  12  13
ATOM     13  C   UNL     1     -15.284   4.597  31.085  1.00  0.00    -0.000 C 
BRANCH  13  14
ATOM     14  C   UNL     1     -14.942   3.894  32.410  1.00  0.00    -0.000 C 
BRANCH  14  15
ATOM     15  C   UNL     1     -16.165   3.222  33.056  1.00  0.00    -0.000 C 
BRANCH  15  16
ATOM     16  C   UNL     1     -15.829   2.557  34.400  1.00  0.00    -0.003 C 
ATOM     17  C   UNL     1     -16.331   1.116  34.491  1.00  0.00     0.004 C 
ENDBRANCH  15  16
ENDBRANCH  14  15
ENDBRANCH  13  14
ENDBRANCH  12  13
ENDBRANCH  11  12
ENDBRANCH  10  11
ENDBRANCH   1  10
TORSDOF 13
ENDMDL
MODEL 6
REMARK VINA RESULT:    -3.994      3.305      5.391
REMARK INTER + INTRA:          -8.235
REMARK INTER:                  -6.814
REMARK INTRA:                  -1.421
REMARK UNBOUND:                -1.206
REMARK SMILES CCCCCCCCCCCCCCC(=O)[O-]
REMARK SMILES IDX 9 1 10 2 11 3 12 4 13 5 14 6 15 7 16 8 17 9 8 10 7 11 6 12
REMARK SMILES IDX 5 13 4 14 3 15 2 16 1 17
REMARK H PARENT
REMARK Flexibility Score: inf
ROOT
ATOM      1  C   UNL     1     -15.048   3.436  30.355  1.00  0.00     0.000 C 
ENDROOT
BRANCH   1   2
ATOM      2  C   UNL     1     -14.212   3.912  31.553  1.00  0.00     0.000 C 
BRANCH   2   3
ATOM      3  C   UNL     1     -12.704   3.914  31.258  1.00  0.00     0.000 C 
BRANCH   3   4
ATOM      4  C   UNL     1     -12.264   5.133  30.433  1.00  0.00     0.000 C 
BRANCH   4   5
ATOM      5  C   UNL     1     -10.917   5.675  30.929  1.00  0.00     0.006 C 
BRANCH   5   6
ATOM      6  C   UNL     1     -10.082   4.567  31.575  1.00  0.00     0.053 C 
BRANCH   6   7
ATOM      7  C   UNL     1      -8.951   4.172  30.679  1.00  0.00     0.041 C 
ATOM      8  O   UNL     1      -9.024   3.116  29.995  1.00  0.00    -0.550 OA
ATOM      9  O   UNL     1      -7.795   4.942  30.636  1.00  0.00    -0.550 OA
ENDBRANCH   6   7
ENDBRANCH   5   6
ENDBRANCH   4   5
ENDBRANCH   3   4
ENDBRANCH   2   3
ENDBRANCH   1   2
BRANCH   1  10
ATOM     10  C   UNL     1     -16.088   4.492  29.958  1.00  0.00     0.000 C 
BRANCH  10  11
ATOM     11  C   UNL     1     -16.254   5.543  31.066  1.00  0.00    -0.000 C 
BRANCH  11  12
ATOM     12  C   UNL     1     -16.207   6.983  30.530  1.00  0.00    -0.000 C 
BRANCH  12  13
ATOM     13  C   UNL     1     -15.058   7.205  29.531  1.00  0.00    -0.000 C 
BRANCH  13  14
ATOM     14  C   UNL     1     -14.918   8.677  29.109  1.00  0.00    -0.000 C 
BRANCH  14  15
ATOM     15  C   UNL     1     -13.866   8.878  28.005  1.00  0.00    -0.000 C 
BRANCH  15  16
ATOM     16  C   UNL     1     -12.564   8.110  28.286  1.00  0.00    -0.003 C 
ATOM     17  C   UNL     1     -11.416   9.024  28.713  1.00  0.00     0.004 C 
ENDBRANCH  15  16
ENDBRANCH  14  15
ENDBRANCH  13  14
ENDBRANCH  12  13
ENDBRANCH  11  12
ENDBRANCH  10  11
ENDBRANCH   1  10
TORSDOF 13
ENDMDL
MODEL 7
REMARK VINA RESULT:    -3.991      2.579      4.912
REMARK INTER + INTRA:          -8.231
REMARK INTER:                  -7.342
REMARK INTRA:                  -0.889
REMARK UNBOUND:                -1.206
REMARK SMILES CCCCCCCCCCCCCCC(=O)[O-]
REMARK SMILES IDX 9 1 10 2 11 3 12 4 13 5 14 6 15 7 16 8 17 9 8 10 7 11 6 12
REMARK SMILES IDX 5 13 4 14 3 15 2 16 1 17
REMARK H PARENT
REMARK Flexibility Score: inf
ROOT
ATOM      1  C   UNL     1     -11.242   8.694  28.989  1.00  0.00     0.000 C 
ENDROOT
BRANCH   1   2
ATOM      2  C   UNL     1     -12.478   8.029  28.364  1.00  0.00     0.000 C 
BRANCH   2   3
ATOM      3  C   UNL     1     -13.640   9.014  28.160  1.00  0.00     0.000 C 
BRANCH   3   4
ATOM      4  C   UNL     1     -14.832   8.722  29.083  1.00  0.00     0.000 C 
BRANCH   4   5
ATOM      5  C   UNL     1     -14.884   7.235  29.460  1.00  0.00     0.006 C 
BRANCH   5   6
ATOM      6  C   UNL     1     -16.008   6.960  30.461  1.00  0.00     0.053 C 
BRANCH   6   7
ATOM      7  C   UNL     1     -16.199   5.488  30.644  1.00  0.00     0.041 C 
ATOM      8  O   UNL     1     -15.935   4.947  31.751  1.00  0.00    -0.550 OA
ATOM      9  O   UNL     1     -16.622   4.703  29.578  1.00  0.00    -0.550 OA
ENDBRANCH   6   7
ENDBRANCH   5   6
ENDBRANCH   4   5
ENDBRANCH   3   4
ENDBRANCH   2   3
ENDBRANCH   1   2
BRANCH   1  10
ATOM     10  C   UNL     1     -10.386   7.667  29.741  1.00  0.00     0.000 C 
BRANCH  10  11
ATOM     11  C   UNL     1     -11.111   6.316  29.838  1.00  0.00    -0.000 C 
BRANCH  11  12
ATOM     12  C   UNL     1     -10.692   5.504  31.074  1.00  0.00    -0.000 C 
BRANCH  12  13
ATOM     13  C   UNL     1      -9.632   4.437  30.749  1.00  0.00    -0.000 C 
BRANCH  13  14
ATOM     14  C   UNL     1      -9.489   3.387  31.864  1.00  0.00    -0.000 C 
BRANCH  14  15
ATOM     15  C   UNL     1      -8.021   3.090  32.212  1.00  0.00    -0.000 C 
BRANCH  15  16
ATOM     16  C   UNL     1      -7.051   4.107  31.588  1.00  0.00    -0.003 C 
ATOM     17  C   UNL     1      -6.391   5.012  32.628  1.00  0.00     0.004 C 
ENDBRANCH  15  16
ENDBRANCH  14  15
ENDBRANCH  13  14
ENDBRANCH  12  13
ENDBRANCH  11  12
ENDBRANCH  10  11
ENDBRANCH   1  10
TORSDOF 13
ENDMDL
MODEL 8
REMARK VINA RESULT:    -3.985     20.681     23.199
REMARK INTER + INTRA:          -8.219
REMARK INTER:                  -6.237
REMARK INTRA:                  -1.982
REMARK UNBOUND:                -1.206
REMARK SMILES CCCCCCCCCCCCCCC(=O)[O-]
REMARK SMILES IDX 9 1 10 2 11 3 12 4 13 5 14 6 15 7 16 8 17 9 8 10 7 11 6 12
REMARK SMILES IDX 5 13 4 14 3 15 2 16 1 17
REMARK H PARENT
REMARK Flexibility Score: inf
ROOT
ATOM      1  C   UNL     1       1.711  -8.906  21.456  1.00  0.00     0.000 C 
ENDROOT
BRANCH   1   2
ATOM      2  C   UNL     1       1.513  -7.494  22.029  1.00  0.00     0.000 C 
BRANCH   2   3
ATOM      3  C   UNL     1       2.550  -6.491  21.502  1.00  0.00     0.000 C 
BRANCH   3   4
ATOM      4  C   UNL     1       2.061  -5.037  21.579  1.00  0.00     0.000 C 
BRANCH   4   5
ATOM      5  C   UNL     1       2.098  -4.370  20.198  1.00  0.00     0.006 C 
BRANCH   5   6
ATOM      6  C   UNL     1       0.983  -3.331  20.058  1.00  0.00     0.053 C 
BRANCH   6   7
ATOM      7  C   UNL     1       1.551  -1.947  20.065  1.00  0.00     0.041 C 
ATOM      8  O   UNL     1       2.173  -1.523  21.076  1.00  0.00    -0.550 OA
ATOM      9  O   UNL     1       1.351  -1.107  18.977  1.00  0.00    -0.550 OA
ENDBRANCH   6   7
ENDBRANCH   5   6
ENDBRANCH   4   5
ENDBRANCH   3   4
ENDBRANCH   2   3
ENDBRANCH   1   2
BRANCH   1  10
ATOM     10  C   UNL     1       2.995  -8.985  20.621  1.00  0.00     0.000 C 
BRANCH  10  11
ATOM     11  C   UNL     1       2.763  -9.789  19.333  1.00  0.00    -0.000 C 
BRANCH  11  12
ATOM     12  C   UNL     1       1.281  -9.850  18.930  1.00  0.00    -0.000 C 
BRANCH  12  13
ATOM     13  C   UNL     1       1.071  -9.654  17.418  1.00  0.00    -0.000 C 
BRANCH  13  14
ATOM     14  C   UNL     1       0.461  -8.283  17.079  1.00  0.00    -0.000 C 
BRANCH  14  15
ATOM     15  C   UNL     1       0.707  -7.238  18.181  1.00  0.00    -0.000 C 
BRANCH  15  16
ATOM     16  C   UNL     1      -0.562  -6.447  18.535  1.00  0.00    -0.003 C 
ATOM     17  C   UNL     1      -1.260  -6.974  19.789  1.00  0.00     0.004 C 
ENDBRANCH  15  16
ENDBRANCH  14  15
ENDBRANCH  13  14
ENDBRANCH  12  13
ENDBRANCH  11  12
ENDBRANCH  10  11
ENDBRANCH   1  10
TORSDOF 13
ENDMDL
MODEL 9
REMARK VINA RESULT:    -3.951      2.805      5.145
REMARK INTER + INTRA:          -8.159
REMARK INTER:                  -6.607
REMARK INTRA:                  -1.552
REMARK UNBOUND:                -1.206
REMARK SMILES CCCCCCCCCCCCCCC(=O)[O-]
REMARK SMILES IDX 9 1 10 2 11 3 12 4 13 5 14 6 15 7 16 8 17 9 8 10 7 11 6 12
REMARK SMILES IDX 5 13 4 14 3 15 2 16 1 17
REMARK H PARENT
REMARK Flexibility Score: inf
ROOT
ATOM      1  C   UNL     1     -16.252   2.994  32.912  1.00  0.00     0.000 C 
ENDROOT
BRANCH   1   2
ATOM      2  C   UNL     1     -14.752   3.227  32.676  1.00  0.00     0.000 C 
BRANCH   2   3
ATOM      3  C   UNL     1     -14.162   2.272  31.628  1.00  0.00     0.000 C 
BRANCH   3   4
ATOM      4  C   UNL     1     -13.349   3.005  30.550  1.00  0.00     0.000 C 
BRANCH   4   5
ATOM      5  C   UNL     1     -12.863   4.367  31.060  1.00  0.00     0.006 C 
BRANCH   5   6
ATOM      6  C   UNL     1     -11.515   4.739  30.437  1.00  0.00     0.053 C 
BRANCH   6   7
ATOM      7  C   UNL     1     -10.389   4.230  31.279  1.00  0.00     0.041 C 
ATOM      8  O   UNL     1      -9.490   5.017  31.677  1.00  0.00    -0.550 OA
ATOM      9  O   UNL     1     -10.303   2.877  31.582  1.00  0.00    -0.550 OA
ENDBRANCH   6   7
ENDBRANCH   5   6
ENDBRANCH   4   5
ENDBRANCH   3   4
ENDBRANCH   2   3
ENDBRANCH   1   2
BRANCH   1  10
ATOM     10  C   UNL     1     -17.088   4.114  32.279  1.00  0.00     0.000 C 
BRANCH  10  11
ATOM     11  C   UNL     1     -17.121   3.975  30.749  1.00  0.00    -0.000 C 
BRANCH  11  12
ATOM     12  C   UNL     1     -16.364   5.106  30.034  1.00  0.00    -0.000 C 
BRANCH  12  13
ATOM     13  C   UNL     1     -16.399   6.429  30.818  1.00  0.00    -0.000 C 
BRANCH  13  14
ATOM     14  C   UNL     1     -15.631   7.557  30.109  1.00  0.00    -0.000 C 
BRANCH  14  15
ATOM     15  C   UNL     1     -14.573   7.025  29.127  1.00  0.00    -0.000 C 
BRANCH  15  16
ATOM     16  C   UNL     1     -13.911   8.148  28.311  1.00  0.00    -0.003 C 
ATOM     17  C   UNL     1     -12.389   8.024  28.258  1.00  0.00     0.004 C 
ENDBRANCH  15  16
ENDBRANCH  14  15
ENDBRANCH  13  14
ENDBRANCH  12  13
ENDBRANCH  11  12
ENDBRANCH  10  11
ENDBRANCH   1  10
TORSDOF 13
ENDMDL
