MODEL 1
REMARK VINA RESULT:    -4.292      0.000      0.000
REMARK INTER + INTRA:          -4.566
REMARK INTER:                  -4.543
REMARK INTRA:                  -0.024
REMARK UNBOUND:                -0.024
REMARK SMILES O=C([O-])c1cccnc1
REMARK SMILES IDX 4 1 5 2 9 3 6 4 8 5 7 6 2 7 1 8 3 9
REMARK H PARENT
REMARK Flexibility Score: inf
ROOT
ATOM      1  C   UNL     1      -0.959  -5.947  16.959  1.00  0.00     0.016 A 
ATOM      2  C   UNL     1      -0.463  -6.980  17.770  1.00  0.00     0.013 A 
ATOM      3  C   UNL     1      -2.207  -6.125  16.338  1.00  0.00     0.120 A 
ATOM      4  C   UNL     1      -1.204  -8.150  17.946  1.00  0.00     0.021 A 
ATOM      5  N   UNL     1      -2.910  -7.275  16.525  1.00  0.00    -0.264 NA
ATOM      6  C   UNL     1      -2.438  -8.281  17.309  1.00  0.00     0.111 A 
ENDROOT
BRANCH   1   7
ATOM      7  C   UNL     1      -0.183  -4.703  16.765  1.00  0.00     0.073 C 
ATOM      8  O   UNL     1       0.784  -4.427  17.524  1.00  0.00    -0.545 OA
ATOM      9  O   UNL     1      -0.511  -3.821  15.742  1.00  0.00    -0.545 OA
ENDBRANCH   1   7
TORSDOF 1
ENDMDL
MODEL 2
REMARK VINA RESULT:    -4.283      2.069      2.614
REMARK INTER + INTRA:          -4.557
REMARK INTER:                  -4.541
REMARK INTRA:                  -0.016
REMARK UNBOUND:                -0.024
REMARK SMILES O=C([O-])c1cccnc1
REMARK SMILES IDX 4 1 5 2 9 3 6 4 8 5 7 6 2 7 1 8 3 9
REMARK H PARENT
REMARK Flexibility Score: inf
ROOT
ATOM      1  C   UNL     1      -1.660  -5.336  16.242  1.00  0.00     0.016 A 
ATOM      2  C   UNL     1      -2.410  -6.467  16.603  1.00  0.00     0.013 A 
ATOM      3  C   UNL     1      -0.323  -5.257  16.669  1.00  0.00     0.120 A 
ATOM      4  C   UNL     1      -1.827  -7.480  17.367  1.00  0.00     0.021 A 
ATOM      5  N   UNL     1       0.221  -6.257  17.413  1.00  0.00    -0.264 NA
ATOM      6  C   UNL     1      -0.497  -7.356  17.767  1.00  0.00     0.111 A 
ENDROOT
BRANCH   1   7
ATOM      7  C   UNL     1      -2.266  -4.257  15.433  1.00  0.00     0.073 C 
ATOM      8  O   UNL     1      -2.152  -4.255  14.178  1.00  0.00    -0.545 OA
ATOM      9  O   UNL     1      -2.973  -3.229  16.047  1.00  0.00    -0.545 OA
ENDBRANCH   1   7
TORSDOF 1
ENDMDL
MODEL 3
REMARK VINA RESULT:    -4.243      2.538      3.253
REMARK INTER + INTRA:          -4.514
REMARK INTER:                  -4.491
REMARK INTRA:                  -0.023
REMARK UNBOUND:                -0.024
REMARK SMILES O=C([O-])c1cccnc1
REMARK SMILES IDX 4 1 5 2 9 3 6 4 8 5 7 6 2 7 1 8 3 9
REMARK H PARENT
REMARK Flexibility Score: inf
ROOT
ATOM      1  C   UNL     1      -0.646  -6.094  17.198  1.00  0.00     0.016 A 
ATOM      2  C   UNL     1      -0.153  -7.303  17.713  1.00  0.00     0.013 A 
ATOM      3  C   UNL     1       0.242  -5.012  17.068  1.00  0.00     0.120 A 
ATOM      4  C   UNL     1       1.189  -7.413  18.083  1.00  0.00     0.021 A 
ATOM      5  N   UNL     1       1.545  -5.144  17.436  1.00  0.00    -0.264 NA
ATOM      6  C   UNL     1       2.031  -6.311  17.936  1.00  0.00     0.111 A 
ENDROOT
BRANCH   1   7
ATOM      7  C   UNL     1      -2.066  -5.966  16.803  1.00  0.00     0.073 C 
ATOM      8  O   UNL     1      -2.770  -6.992  16.606  1.00  0.00    -0.545 OA
ATOM      9  O   UNL     1      -2.642  -4.711  16.643  1.00  0.00    -0.545 OA
ENDBRANCH   1   7
TORSDOF 1
ENDMDL
MODEL 4
REMARK VINA RESULT:    -4.084      2.106      2.519
REMARK INTER + INTRA:          -4.347
REMARK INTER:                  -4.331
REMARK INTRA:                  -0.016
REMARK UNBOUND:                -0.024
REMARK SMILES O=C([O-])c1cccnc1
REMARK SMILES IDX 4 1 5 2 9 3 6 4 8 5 7 6 2 7 1 8 3 9
REMARK H PARENT
REMARK Flexibility Score: inf
ROOT
ATOM      1  C   UNL     1       1.194  -5.924  17.362  1.00  0.00     0.016 A 
ATOM      2  C   UNL     1       0.921  -7.209  17.859  1.00  0.00     0.013 A 
ATOM      3  C   UNL     1       0.111  -5.097  17.017  1.00  0.00     0.120 A 
ATOM      4  C   UNL     1      -0.400  -7.638  18.001  1.00  0.00     0.021 A 
ATOM      5  N   UNL     1      -1.166  -5.540  17.165  1.00  0.00    -0.264 NA
ATOM      6  C   UNL     1      -1.441  -6.781  17.646  1.00  0.00     0.111 A 
ENDROOT
BRANCH   1   7
ATOM      7  C   UNL     1       2.589  -5.457  17.206  1.00  0.00     0.073 C 
ATOM      8  O   UNL     1       3.161  -4.829  18.136  1.00  0.00    -0.545 OA
ATOM      9  O   UNL     1       3.288  -5.706  16.031  1.00  0.00    -0.545 OA
ENDBRANCH   1   7
TORSDOF 1
ENDMDL
MODEL 5
REMARK VINA RESULT:    -4.079      1.900      2.433
REMARK INTER + INTRA:          -4.341
REMARK INTER:                  -4.325
REMARK INTRA:                  -0.016
REMARK UNBOUND:                -0.024
REMARK SMILES O=C([O-])c1cccnc1
REMARK SMILES IDX 4 1 5 2 9 3 6 4 8 5 7 6 2 7 1 8 3 9
REMARK H PARENT
REMARK Flexibility Score: inf
ROOT
ATOM      1  C   UNL     1      -1.687  -5.236  16.211  1.00  0.00     0.016 A 
ATOM      2  C   UNL     1      -0.361  -5.121  16.658  1.00  0.00     0.013 A 
ATOM      3  C   UNL     1      -2.405  -6.397  16.544  1.00  0.00     0.120 A 
ATOM      4  C   UNL     1       0.216  -6.143  17.413  1.00  0.00     0.021 A 
ATOM      5  N   UNL     1      -1.820  -7.380  17.281  1.00  0.00    -0.264 NA
ATOM      6  C   UNL     1      -0.537  -7.277  17.718  1.00  0.00     0.111 A 
ENDROOT
BRANCH   1   7
ATOM      7  C   UNL     1      -2.309  -4.159  15.410  1.00  0.00     0.073 C 
ATOM      8  O   UNL     1      -2.245  -4.179  14.152  1.00  0.00    -0.545 OA
ATOM      9  O   UNL     1      -2.973  -3.110  16.035  1.00  0.00    -0.545 OA
ENDBRANCH   1   7
TORSDOF 1
ENDMDL
MODEL 6
REMARK VINA RESULT:    -4.072      9.206      9.828
REMARK INTER + INTRA:          -4.333
REMARK INTER:                  -4.316
REMARK INTRA:                  -0.017
REMARK UNBOUND:                -0.024
REMARK SMILES O=C([O-])c1cccnc1
REMARK SMILES IDX 4 1 5 2 9 3 6 4 8 5 7 6 2 7 1 8 3 9
REMARK H PARENT
REMARK Flexibility Score: inf
ROOT
ATOM      1  C   UNL     1       5.540  -8.149  10.624  1.00  0.00     0.016 A 
ATOM      2  C   UNL     1       5.981  -6.821  10.510  1.00  0.00     0.013 A 
ATOM      3  C   UNL     1       5.046  -8.584  11.866  1.00  0.00     0.120 A 
ATOM      4  C   UNL     1       5.922  -5.965  11.611  1.00  0.00     0.021 A 
ATOM      5  N   UNL     1       5.000  -7.731  12.924  1.00  0.00    -0.264 NA
ATOM      6  C   UNL     1       5.424  -6.443  12.823  1.00  0.00     0.111 A 
ENDROOT
BRANCH   1   7
ATOM      7  C   UNL     1       5.596  -9.065   9.464  1.00  0.00     0.073 C 
ATOM      8  O   UNL     1       4.875  -8.860   8.451  1.00  0.00    -0.545 OA
ATOM      9  O   UNL     1       6.448 -10.163   9.475  1.00  0.00    -0.545 OA
ENDBRANCH   1   7
TORSDOF 1
ENDMDL
MODEL 7
REMARK VINA RESULT:    -4.049      2.265      3.133
REMARK INTER + INTRA:          -4.310
REMARK INTER:                  -4.293
REMARK INTRA:                  -0.016
REMARK UNBOUND:                -0.024
REMARK SMILES O=C([O-])c1cccnc1
REMARK SMILES IDX 4 1 5 2 9 3 6 4 8 5 7 6 2 7 1 8 3 9
REMARK H PARENT
REMARK Flexibility Score: inf
ROOT
ATOM      1  C   UNL     1       1.396  -5.891  17.366  1.00  0.00     0.016 A 
ATOM      2  C   UNL     1       0.317  -5.014  17.169  1.00  0.00     0.013 A 
ATOM      3  C   UNL     1       1.119  -7.216  17.746  1.00  0.00     0.120 A 
ATOM      4  C   UNL     1      -0.992  -5.462  17.351  1.00  0.00     0.021 A 
ATOM      5  N   UNL     1      -0.167  -7.627  17.918  1.00  0.00    -0.264 NA
ATOM      6  C   UNL     1      -1.217  -6.785  17.730  1.00  0.00     0.111 A 
ENDROOT
BRANCH   1   7
ATOM      7  C   UNL     1       2.788  -5.429  17.176  1.00  0.00     0.073 C 
ATOM      8  O   UNL     1       3.390  -5.639  16.089  1.00  0.00    -0.545 OA
ATOM      9  O   UNL     1       3.450  -4.754  18.194  1.00  0.00    -0.545 OA
ENDBRANCH   1   7
TORSDOF 1
ENDMDL
MODEL 8
REMARK VINA RESULT:    -3.987      5.133      6.152
REMARK INTER + INTRA:          -4.244
REMARK INTER:                  -4.222
REMARK INTRA:                  -0.022
REMARK UNBOUND:                -0.024
REMARK SMILES O=C([O-])c1cccnc1
REMARK SMILES IDX 4 1 5 2 9 3 6 4 8 5 7 6 2 7 1 8 3 9
REMARK H PARENT
REMARK Flexibility Score: inf
ROOT
ATOM      1  C   UNL     1       3.645  -5.564  17.519  1.00  0.00     0.016 A 
ATOM      2  C   UNL     1       4.192  -4.699  18.480  1.00  0.00     0.013 A 
ATOM      3  C   UNL     1       4.522  -6.330  16.733  1.00  0.00     0.120 A 
ATOM      4  C   UNL     1       5.577  -4.614  18.639  1.00  0.00     0.021 A 
ATOM      5  N   UNL     1       5.868  -6.228  16.907  1.00  0.00    -0.264 NA
ATOM      6  C   UNL     1       6.407  -5.394  17.835  1.00  0.00     0.111 A 
ENDROOT
BRANCH   1   7
ATOM      7  C   UNL     1       2.180  -5.662  17.341  1.00  0.00     0.073 C 
ATOM      8  O   UNL     1       1.431  -4.697  17.651  1.00  0.00    -0.545 OA
ATOM      9  O   UNL     1       1.609  -6.821  16.829  1.00  0.00    -0.545 OA
ENDBRANCH   1   7
TORSDOF 1
ENDMDL
MODEL 9
REMARK VINA RESULT:    -3.955      1.959      2.630
REMARK INTER + INTRA:          -4.210
REMARK INTER:                  -4.189
REMARK INTRA:                  -0.021
REMARK UNBOUND:                -0.024
REMARK SMILES O=C([O-])c1cccnc1
REMARK SMILES IDX 4 1 5 2 9 3 6 4 8 5 7 6 2 7 1 8 3 9
REMARK H PARENT
REMARK Flexibility Score: inf
ROOT
ATOM      1  C   UNL     1       0.375  -5.819  17.082  1.00  0.00     0.016 A 
ATOM      2  C   UNL     1      -0.551  -6.810  17.446  1.00  0.00     0.013 A 
ATOM      3  C   UNL     1      -0.096  -4.684  16.400  1.00  0.00     0.120 A 
ATOM      4  C   UNL     1      -1.902  -6.657  17.132  1.00  0.00     0.021 A 
ATOM      5  N   UNL     1      -1.419  -4.559  16.105  1.00  0.00    -0.264 NA
ATOM      6  C   UNL     1      -2.322  -5.513  16.454  1.00  0.00     0.111 A 
ENDROOT
BRANCH   1   7
ATOM      7  C   UNL     1       1.809  -5.970  17.409  1.00  0.00     0.073 C 
ATOM      8  O   UNL     1       2.515  -4.960  17.676  1.00  0.00    -0.545 OA
ATOM      9  O   UNL     1       2.398  -7.229  17.428  1.00  0.00    -0.545 OA
ENDBRANCH   1   7
TORSDOF 1
ENDMDL
