MODEL 1
REMARK VINA RESULT:    -3.483      0.000      0.000
REMARK INTER + INTRA:          -5.212
REMARK INTER:                  -4.705
REMARK INTRA:                  -0.507
REMARK UNBOUND:                -0.507
REMARK SMILES C[C@@H](O)[C@H](O)[C@@H](O)[C@@H](O)C=O
REMARK SMILES IDX 4 1 2 2 1 3 3 4 6 6 8 7 10 8 11 9 9 10 7 12 5 14
REMARK H PARENT 3 5 9 11 7 13 5 15
REMARK Flexibility Score: inf
ROOT
ATOM      1  C   UNL     1      63.852  34.193  48.678  1.00  0.00     0.174 C 
ENDROOT
BRANCH   1   2
ATOM      2  C   UNL     1      64.635  34.933  47.565  1.00  0.00     0.142 C 
ATOM      3  C   UNL     1      65.981  34.251  47.293  1.00  0.00     0.041 C 
BRANCH   2   4
ATOM      4  O   UNL     1      63.880  34.977  46.381  1.00  0.00    -0.391 OA
ATOM      5  H   UNL     1      64.495  35.271  45.658  1.00  0.00     0.211 HD
ENDBRANCH   2   4
ENDBRANCH   1   2
BRANCH   1   6
ATOM      6  C   UNL     1      62.391  34.710  48.810  1.00  0.00     0.181 C 
BRANCH   6   7
ATOM      7  C   UNL     1      61.969  34.978  50.276  1.00  0.00     0.209 C 
BRANCH   7   8
ATOM      8  C   UNL     1      62.308  33.819  51.177  1.00  0.00     0.258 C 
ATOM      9  O   UNL     1      61.913  32.695  50.913  1.00  0.00    -0.300 OA
ENDBRANCH   7   8
BRANCH   7  10
ATOM     10  O   UNL     1      60.593  35.252  50.341  1.00  0.00    -0.383 OA
ATOM     11  H   UNL     1      60.501  36.214  50.570  1.00  0.00     0.211 HD
ENDBRANCH   7  10
ENDBRANCH   6   7
BRANCH   6  12
ATOM     12  O   UNL     1      61.502  33.787  48.230  1.00  0.00    -0.387 OA
ATOM     13  H   UNL     1      61.969  32.912  48.204  1.00  0.00     0.211 HD
ENDBRANCH   6  12
ENDBRANCH   1   6
BRANCH   1  14
ATOM     14  O   UNL     1      63.895  32.798  48.492  1.00  0.00    -0.388 OA
ATOM     15  H   UNL     1      63.340  32.377  49.199  1.00  0.00     0.211 HD
ENDBRANCH   1  14
TORSDOF 8
ENDMDL
MODEL 2
REMARK VINA RESULT:    -3.430     13.314     14.650
REMARK INTER + INTRA:          -5.141
REMARK INTER:                  -4.830
REMARK INTRA:                  -0.311
REMARK UNBOUND:                -0.507
REMARK SMILES C[C@@H](O)[C@H](O)[C@@H](O)[C@@H](O)C=O
REMARK SMILES IDX 4 1 2 2 1 3 3 4 6 6 8 7 10 8 11 9 9 10 7 12 5 14
REMARK H PARENT 3 5 9 11 7 13 5 15
REMARK Flexibility Score: inf
ROOT
ATOM      1  C   UNL     1      72.510  31.292  60.599  1.00  0.00     0.174 C 
ENDROOT
BRANCH   1   2
ATOM      2  C   UNL     1      71.876  29.888  60.427  1.00  0.00     0.142 C 
ATOM      3  C   UNL     1      72.948  28.793  60.458  1.00  0.00     0.041 C 
BRANCH   2   4
ATOM      4  O   UNL     1      70.930  29.651  61.437  1.00  0.00    -0.391 OA
ATOM      5  H   UNL     1      70.749  30.524  61.874  1.00  0.00     0.211 HD
ENDBRANCH   2   4
ENDBRANCH   1   2
BRANCH   1   6
ATOM      6  C   UNL     1      71.509  32.433  60.257  1.00  0.00     0.181 C 
BRANCH   6   7
ATOM      7  C   UNL     1      71.072  32.436  58.771  1.00  0.00     0.209 C 
BRANCH   7   8
ATOM      8  C   UNL     1      71.095  33.823  58.184  1.00  0.00     0.258 C 
ATOM      9  O   UNL     1      70.343  34.686  58.607  1.00  0.00    -0.300 OA
ENDBRANCH   7   8
BRANCH   7  10
ATOM     10  O   UNL     1      69.789  31.879  58.642  1.00  0.00    -0.383 OA
ATOM     11  H   UNL     1      69.893  31.030  58.140  1.00  0.00     0.211 HD
ENDBRANCH   7  10
ENDBRANCH   6   7
BRANCH   6  12
ATOM     12  O   UNL     1      72.075  33.679  60.579  1.00  0.00    -0.387 OA
ATOM     13  H   UNL     1      72.998  33.682  60.213  1.00  0.00     0.211 HD
ENDBRANCH   6  12
ENDBRANCH   1   6
BRANCH   1  14
ATOM     14  O   UNL     1      73.059  31.451  61.886  1.00  0.00    -0.388 OA
ATOM     15  H   UNL     1      73.289  32.408  62.005  1.00  0.00     0.211 HD
ENDBRANCH   1  14
TORSDOF 8
ENDMDL
MODEL 3
REMARK VINA RESULT:    -3.408     11.557     12.605
REMARK INTER + INTRA:          -5.110
REMARK INTER:                  -4.410
REMARK INTRA:                  -0.700
REMARK UNBOUND:                -0.507
REMARK SMILES C[C@@H](O)[C@H](O)[C@@H](O)[C@@H](O)C=O
REMARK SMILES IDX 4 1 2 2 1 3 3 4 6 6 8 7 10 8 11 9 9 10 7 12 5 14
REMARK H PARENT 3 5 9 11 7 13 5 15
REMARK Flexibility Score: inf
ROOT
ATOM      1  C   UNL     1      70.791  33.710  58.373  1.00  0.00     0.174 C 
ENDROOT
BRANCH   1   2
ATOM      2  C   UNL     1      71.209  32.754  59.518  1.00  0.00     0.142 C 
ATOM      3  C   UNL     1      71.876  31.490  58.964  1.00  0.00     0.041 C 
BRANCH   2   4
ATOM      4  O   UNL     1      72.087  33.402  60.402  1.00  0.00    -0.391 OA
ATOM      5  H   UNL     1      73.004  33.102  60.169  1.00  0.00     0.211 HD
ENDBRANCH   2   4
ENDBRANCH   1   2
BRANCH   1   6
ATOM      6  C   UNL     1      70.181  35.036  58.910  1.00  0.00     0.181 C 
BRANCH   6   7
ATOM      7  C   UNL     1      69.011  35.564  58.043  1.00  0.00     0.209 C 
BRANCH   7   8
ATOM      8  C   UNL     1      69.458  36.646  57.096  1.00  0.00     0.258 C 
ATOM      9  O   UNL     1      70.350  36.433  56.291  1.00  0.00    -0.300 OA
ENDBRANCH   7   8
BRANCH   7  10
ATOM     10  O   UNL     1      67.976  36.039  58.865  1.00  0.00    -0.383 OA
ATOM     11  H   UNL     1      67.159  36.085  58.303  1.00  0.00     0.211 HD
ENDBRANCH   7  10
ENDBRANCH   6   7
BRANCH   6  12
ATOM     12  O   UNL     1      71.179  36.023  58.995  1.00  0.00    -0.387 OA
ATOM     13  H   UNL     1      71.951  35.614  59.467  1.00  0.00     0.211 HD
ENDBRANCH   6  12
ENDBRANCH   1   6
BRANCH   1  14
ATOM     14  O   UNL     1      71.862  33.950  57.491  1.00  0.00    -0.388 OA
ATOM     15  H   UNL     1      72.034  33.116  56.983  1.00  0.00     0.211 HD
ENDBRANCH   1  14
TORSDOF 8
ENDMDL
MODEL 4
REMARK VINA RESULT:    -3.341     11.762     12.904
REMARK INTER + INTRA:          -5.021
REMARK INTER:                  -4.637
REMARK INTRA:                  -0.384
REMARK UNBOUND:                -0.507
REMARK SMILES C[C@@H](O)[C@H](O)[C@@H](O)[C@@H](O)C=O
REMARK SMILES IDX 4 1 2 2 1 3 3 4 6 6 8 7 10 8 11 9 9 10 7 12 5 14
REMARK H PARENT 3 5 9 11 7 13 5 15
REMARK Flexibility Score: inf
ROOT
ATOM      1  C   UNL     1      70.983  34.539  59.165  1.00  0.00     0.174 C 
ENDROOT
BRANCH   1   2
ATOM      2  C   UNL     1      71.052  33.007  58.942  1.00  0.00     0.142 C 
ATOM      3  C   UNL     1      71.591  32.294  60.187  1.00  0.00     0.041 C 
BRANCH   2   4
ATOM      4  O   UNL     1      69.782  32.501  58.621  1.00  0.00    -0.391 OA
ATOM      5  H   UNL     1      69.249  33.261  58.268  1.00  0.00     0.211 HD
ENDBRANCH   2   4
ENDBRANCH   1   2
BRANCH   1   6
ATOM      6  C   UNL     1      70.124  35.251  58.082  1.00  0.00     0.181 C 
BRANCH   6   7
ATOM      7  C   UNL     1      70.812  36.504  57.485  1.00  0.00     0.209 C 
BRANCH   7   8
ATOM      8  C   UNL     1      71.638  36.165  56.272  1.00  0.00     0.258 C 
ATOM      9  O   UNL     1      72.675  36.767  56.042  1.00  0.00    -0.300 OA
ENDBRANCH   7   8
BRANCH   7  10
ATOM     10  O   UNL     1      71.614  37.125  58.456  1.00  0.00    -0.383 OA
ATOM     11  H   UNL     1      71.122  37.930  58.765  1.00  0.00     0.211 HD
ENDBRANCH   7  10
ENDBRANCH   6   7
BRANCH   6  12
ATOM     12  O   UNL     1      68.878  35.617  58.622  1.00  0.00    -0.387 OA
ATOM     13  H   UNL     1      68.757  35.090  59.455  1.00  0.00     0.211 HD
ENDBRANCH   6  12
ENDBRANCH   1   6
BRANCH   1  14
ATOM     14  O   UNL     1      70.539  34.847  60.466  1.00  0.00    -0.388 OA
ATOM     15  H   UNL     1      70.830  35.771  60.679  1.00  0.00     0.211 HD
ENDBRANCH   1  14
TORSDOF 8
ENDMDL
MODEL 5
REMARK VINA RESULT:    -3.325      7.709      8.803
REMARK INTER + INTRA:          -4.998
REMARK INTER:                  -4.292
REMARK INTRA:                  -0.706
REMARK UNBOUND:                -0.507
REMARK SMILES C[C@@H](O)[C@H](O)[C@@H](O)[C@@H](O)C=O
REMARK SMILES IDX 4 1 2 2 1 3 3 4 6 6 8 7 10 8 11 9 9 10 7 12 5 14
REMARK H PARENT 3 5 9 11 7 13 5 15
REMARK Flexibility Score: inf
ROOT
ATOM      1  C   UNL     1      59.125  27.011  50.156  1.00  0.00     0.174 C 
ENDROOT
BRANCH   1   2
ATOM      2  C   UNL     1      60.085  28.151  49.729  1.00  0.00     0.142 C 
ATOM      3  C   UNL     1      61.541  27.672  49.726  1.00  0.00     0.041 C 
BRANCH   2   4
ATOM      4  O   UNL     1      59.742  28.629  48.454  1.00  0.00    -0.391 OA
ATOM      5  H   UNL     1      60.261  29.463  48.310  1.00  0.00     0.211 HD
ENDBRANCH   2   4
ENDBRANCH   1   2
BRANCH   1   6
ATOM      6  C   UNL     1      57.751  27.553  50.642  1.00  0.00     0.181 C 
BRANCH   6   7
ATOM      7  C   UNL     1      56.576  26.588  50.348  1.00  0.00     0.209 C 
BRANCH   7   8
ATOM      8  C   UNL     1      55.247  27.194  50.715  1.00  0.00     0.258 C 
ATOM      9  O   UNL     1      54.620  27.850  49.899  1.00  0.00    -0.300 OA
ENDBRANCH   7   8
BRANCH   7  10
ATOM     10  O   UNL     1      56.760  25.377  51.035  1.00  0.00    -0.383 OA
ATOM     11  H   UNL     1      56.863  24.668  50.348  1.00  0.00     0.211 HD
ENDBRANCH   7  10
ENDBRANCH   6   7
BRANCH   6  12
ATOM     12  O   UNL     1      57.490  28.801  50.048  1.00  0.00    -0.387 OA
ATOM     13  H   UNL     1      57.601  29.488  50.756  1.00  0.00     0.211 HD
ENDBRANCH   6  12
ENDBRANCH   1   6
BRANCH   1  14
ATOM     14  O   UNL     1      58.974  26.059  49.129  1.00  0.00    -0.388 OA
ATOM     15  H   UNL     1      58.563  26.512  48.348  1.00  0.00     0.211 HD
ENDBRANCH   1  14
TORSDOF 8
ENDMDL
MODEL 6
REMARK VINA RESULT:    -3.309     13.556     14.829
REMARK INTER + INTRA:          -4.976
REMARK INTER:                  -4.763
REMARK INTRA:                  -0.213
REMARK UNBOUND:                -0.507
REMARK SMILES C[C@@H](O)[C@H](O)[C@@H](O)[C@@H](O)C=O
REMARK SMILES IDX 4 1 2 2 1 3 3 4 6 6 8 7 10 8 11 9 9 10 7 12 5 14
REMARK H PARENT 3 5 9 11 7 13 5 15
REMARK Flexibility Score: inf
ROOT
ATOM      1  C   UNL     1      71.596  32.394  60.267  1.00  0.00     0.174 C 
ENDROOT
BRANCH   1   2
ATOM      2  C   UNL     1      71.473  32.531  58.728  1.00  0.00     0.142 C 
ATOM      3  C   UNL     1      70.130  31.981  58.233  1.00  0.00     0.041 C 
BRANCH   2   4
ATOM      4  O   UNL     1      71.603  33.875  58.343  1.00  0.00    -0.391 OA
ATOM      5  H   UNL     1      70.687  34.213  58.159  1.00  0.00     0.211 HD
ENDBRANCH   2   4
ENDBRANCH   1   2
BRANCH   1   6
ATOM      6  C   UNL     1      72.571  31.254  60.678  1.00  0.00     0.181 C 
BRANCH   6   7
ATOM      7  C   UNL     1      71.901  29.858  60.704  1.00  0.00     0.209 C 
BRANCH   7   8
ATOM      8  C   UNL     1      70.505  29.917  61.266  1.00  0.00     0.258 C 
ATOM      9  O   UNL     1      69.607  29.262  60.762  1.00  0.00    -0.300 OA
ENDBRANCH   7   8
BRANCH   7  10
ATOM     10  O   UNL     1      72.683  28.960  61.448  1.00  0.00    -0.383 OA
ATOM     11  H   UNL     1      73.254  28.469  60.801  1.00  0.00     0.211 HD
ENDBRANCH   7  10
ENDBRANCH   6   7
BRANCH   6  12
ATOM     12  O   UNL     1      73.125  31.529  61.941  1.00  0.00    -0.387 OA
ATOM     13  H   UNL     1      74.111  31.548  61.828  1.00  0.00     0.211 HD
ENDBRANCH   6  12
ENDBRANCH   1   6
BRANCH   1  14
ATOM     14  O   UNL     1      71.950  33.621  60.862  1.00  0.00    -0.388 OA
ATOM     15  H   UNL     1      71.858  33.523  61.844  1.00  0.00     0.211 HD
ENDBRANCH   1  14
TORSDOF 8
ENDMDL
MODEL 7
REMARK VINA RESULT:    -3.308     15.592     17.134
REMARK INTER + INTRA:          -4.975
REMARK INTER:                  -4.789
REMARK INTRA:                  -0.187
REMARK UNBOUND:                -0.507
REMARK SMILES C[C@@H](O)[C@H](O)[C@@H](O)[C@@H](O)C=O
REMARK SMILES IDX 4 1 2 2 1 3 3 4 6 6 8 7 10 8 11 9 9 10 7 12 5 14
REMARK H PARENT 3 5 9 11 7 13 5 15
REMARK Flexibility Score: inf
ROOT
ATOM      1  C   UNL     1      56.728  18.523  50.654  1.00  0.00     0.174 C 
ENDROOT
BRANCH   1   2
ATOM      2  C   UNL     1      56.729  18.674  52.196  1.00  0.00     0.142 C 
ATOM      3  C   UNL     1      57.319  20.025  52.616  1.00  0.00     0.041 C 
BRANCH   2   4
ATOM      4  O   UNL     1      55.425  18.550  52.702  1.00  0.00    -0.391 OA
ATOM      5  H   UNL     1      54.938  19.377  52.448  1.00  0.00     0.211 HD
ENDBRANCH   2   4
ENDBRANCH   1   2
BRANCH   1   6
ATOM      6  C   UNL     1      57.801  17.509  50.162  1.00  0.00     0.181 C 
BRANCH   6   7
ATOM      7  C   UNL     1      59.199  18.146  49.970  1.00  0.00     0.209 C 
BRANCH   7   8
ATOM      8  C   UNL     1      59.105  19.566  49.478  1.00  0.00     0.258 C 
ATOM      9  O   UNL     1      59.972  20.378  49.763  1.00  0.00    -0.300 OA
ENDBRANCH   7   8
BRANCH   7  10
ATOM     10  O   UNL     1      59.963  17.376  49.078  1.00  0.00    -0.383 OA
ATOM     11  H   UNL     1      60.138  17.944  48.284  1.00  0.00     0.211 HD
ENDBRANCH   7  10
ENDBRANCH   6   7
BRANCH   6  12
ATOM     12  O   UNL     1      57.387  16.921  48.954  1.00  0.00    -0.387 OA
ATOM     13  H   UNL     1      56.669  17.497  48.582  1.00  0.00     0.211 HD
ENDBRANCH   6  12
ENDBRANCH   1   6
BRANCH   1  14
ATOM     14  O   UNL     1      55.445  18.196  50.173  1.00  0.00    -0.388 OA
ATOM     15  H   UNL     1      55.313  17.220  50.291  1.00  0.00     0.211 HD
ENDBRANCH   1  14
TORSDOF 8
ENDMDL
MODEL 8
REMARK VINA RESULT:    -3.297     16.087     16.869
REMARK INTER + INTRA:          -4.960
REMARK INTER:                  -4.608
REMARK INTRA:                  -0.353
REMARK UNBOUND:                -0.507
REMARK SMILES C[C@@H](O)[C@H](O)[C@@H](O)[C@@H](O)C=O
REMARK SMILES IDX 4 1 2 2 1 3 3 4 6 6 8 7 10 8 11 9 9 10 7 12 5 14
REMARK H PARENT 3 5 9 11 7 13 5 15
REMARK Flexibility Score: inf
ROOT
ATOM      1  C   UNL     1      57.765  17.553  50.185  1.00  0.00     0.174 C 
ENDROOT
BRANCH   1   2
ATOM      2  C   UNL     1      59.217  18.079  50.310  1.00  0.00     0.142 C 
ATOM      3  C   UNL     1      60.231  16.943  50.131  1.00  0.00     0.041 C 
BRANCH   2   4
ATOM      4  O   UNL     1      59.460  19.082  49.359  1.00  0.00    -0.391 OA
ATOM      5  H   UNL     1      59.841  18.635  48.558  1.00  0.00     0.211 HD
ENDBRANCH   2   4
ENDBRANCH   1   2
BRANCH   1   6
ATOM      6  C   UNL     1      56.714  18.635  50.566  1.00  0.00     0.181 C 
BRANCH   6   7
ATOM      7  C   UNL     1      56.816  19.089  52.043  1.00  0.00     0.209 C 
BRANCH   7   8
ATOM      8  C   UNL     1      55.476  19.060  52.731  1.00  0.00     0.258 C 
ATOM      9  O   UNL     1      54.649  19.931  52.512  1.00  0.00    -0.300 OA
ENDBRANCH   7   8
BRANCH   7  10
ATOM     10  O   UNL     1      57.367  20.379  52.116  1.00  0.00    -0.383 OA
ATOM     11  H   UNL     1      57.842  20.441  52.985  1.00  0.00     0.211 HD
ENDBRANCH   7  10
ENDBRANCH   6   7
BRANCH   6  12
ATOM     12  O   UNL     1      55.417  18.153  50.314  1.00  0.00    -0.387 OA
ATOM     13  H   UNL     1      55.464  17.162  50.353  1.00  0.00     0.211 HD
ENDBRANCH   6  12
ENDBRANCH   1   6
BRANCH   1  14
ATOM     14  O   UNL     1      57.523  17.023  48.902  1.00  0.00    -0.388 OA
ATOM     15  H   UNL     1      57.657  17.749  48.240  1.00  0.00     0.211 HD
ENDBRANCH   1  14
TORSDOF 8
ENDMDL
MODEL 9
REMARK VINA RESULT:    -3.262     11.401     12.763
REMARK INTER + INTRA:          -4.913
REMARK INTER:                  -4.209
REMARK INTRA:                  -0.704
REMARK UNBOUND:                -0.507
REMARK SMILES C[C@@H](O)[C@H](O)[C@@H](O)[C@@H](O)C=O
REMARK SMILES IDX 4 1 2 2 1 3 3 4 6 6 8 7 10 8 11 9 9 10 7 12 5 14
REMARK H PARENT 3 5 9 11 7 13 5 15
REMARK Flexibility Score: inf
ROOT
ATOM      1  C   UNL     1      63.141  30.558  60.684  1.00  0.00     0.174 C 
ENDROOT
BRANCH   1   2
ATOM      2  C   UNL     1      61.948  29.679  61.134  1.00  0.00     0.142 C 
ATOM      3  C   UNL     1      62.347  28.201  61.202  1.00  0.00     0.041 C 
BRANCH   2   4
ATOM      4  O   UNL     1      61.476  30.098  62.389  1.00  0.00    -0.391 OA
ATOM      5  H   UNL     1      60.857  30.858  62.225  1.00  0.00     0.211 HD
ENDBRANCH   2   4
ENDBRANCH   1   2
BRANCH   1   6
ATOM      6  C   UNL     1      62.683  31.961  60.191  1.00  0.00     0.181 C 
BRANCH   6   7
ATOM      7  C   UNL     1      63.722  33.074  60.473  1.00  0.00     0.209 C 
BRANCH   7   8
ATOM      8  C   UNL     1      63.205  34.434  60.080  1.00  0.00     0.258 C 
ATOM      9  O   UNL     1      62.501  35.072  60.846  1.00  0.00    -0.300 OA
ENDBRANCH   7   8
BRANCH   7  10
ATOM     10  O   UNL     1      64.921  32.800  59.796  1.00  0.00    -0.383 OA
ATOM     11  H   UNL     1      64.879  33.279  58.928  1.00  0.00     0.211 HD
ENDBRANCH   7  10
ENDBRANCH   6   7
BRANCH   6  12
ATOM     12  O   UNL     1      61.458  32.303  60.790  1.00  0.00    -0.387 OA
ATOM     13  H   UNL     1      60.752  31.781  60.326  1.00  0.00     0.211 HD
ENDBRANCH   6  12
ENDBRANCH   1   6
BRANCH   1  14
ATOM     14  O   UNL     1      64.115  30.655  61.696  1.00  0.00    -0.388 OA
ATOM     15  H   UNL     1      63.649  30.646  62.572  1.00  0.00     0.211 HD
ENDBRANCH   1  14
TORSDOF 8
ENDMDL
