MODEL 1
REMARK VINA RESULT:    -4.087      0.000      0.000
REMARK INTER + INTRA:          -5.912
REMARK INTER:                  -5.640
REMARK INTRA:                  -0.271
REMARK UNBOUND:                -0.271
REMARK SMILES CCCCCCCCO
REMARK SMILES IDX 5 1 4 2 3 3 2 4 1 5 6 6 7 7 8 8 9 9
REMARK H PARENT 9 10
REMARK Flexibility Score: inf
ROOT
ATOM      1  C   UNL     1     -19.727  -4.585   1.401  1.00  0.00     0.000 C 
ENDROOT
BRANCH   1   2
ATOM      2  C   UNL     1     -20.208  -4.426  -0.050  1.00  0.00    -0.000 C 
BRANCH   2   3
ATOM      3  C   UNL     1     -20.611  -5.766  -0.688  1.00  0.00    -0.000 C 
BRANCH   3   4
ATOM      4  C   UNL     1     -21.605  -6.555   0.179  1.00  0.00    -0.003 C 
ATOM      5  C   UNL     1     -21.343  -8.061   0.159  1.00  0.00     0.004 C 
ENDBRANCH   3   4
ENDBRANCH   2   3
ENDBRANCH   1   2
BRANCH   1   6
ATOM      6  C   UNL     1     -18.367  -5.300   1.502  1.00  0.00     0.002 C 
BRANCH   6   7
ATOM      7  C   UNL     1     -17.182  -4.323   1.592  1.00  0.00     0.028 C 
BRANCH   7   8
ATOM      8  C   UNL     1     -15.954  -4.916   2.299  1.00  0.00     0.156 C 
BRANCH   8   9
ATOM      9  O   UNL     1     -14.771  -4.592   1.619  1.00  0.00    -0.396 OA
ATOM     10  H   UNL     1     -14.252  -5.435   1.533  1.00  0.00     0.210 HD
ENDBRANCH   8   9
ENDBRANCH   7   8
ENDBRANCH   6   7
ENDBRANCH   1   6
TORSDOF 7
ENDMDL
MODEL 2
REMARK VINA RESULT:    -3.779      2.863      5.432
REMARK INTER + INTRA:          -5.486
REMARK INTER:                  -5.351
REMARK INTRA:                  -0.135
REMARK UNBOUND:                -0.271
REMARK SMILES CCCCCCCCO
REMARK SMILES IDX 5 1 4 2 3 3 2 4 1 5 6 6 7 7 8 8 9 9
REMARK H PARENT 9 10
REMARK Flexibility Score: inf
ROOT
ATOM      1  C   UNL     1     -19.301  -4.385   1.650  1.00  0.00     0.000 C 
ENDROOT
BRANCH   1   2
ATOM      2  C   UNL     1     -17.963  -5.136   1.563  1.00  0.00    -0.000 C 
BRANCH   2   3
ATOM      3  C   UNL     1     -16.759  -4.232   1.878  1.00  0.00    -0.000 C 
BRANCH   3   4
ATOM      4  C   UNL     1     -15.434  -5.010   1.921  1.00  0.00    -0.003 C 
ATOM      5  C   UNL     1     -14.707  -4.869   3.258  1.00  0.00     0.004 C 
ENDBRANCH   3   4
ENDBRANCH   2   3
ENDBRANCH   1   2
BRANCH   1   6
ATOM      6  C   UNL     1     -20.463  -5.164   1.007  1.00  0.00     0.002 C 
BRANCH   6   7
ATOM      7  C   UNL     1     -20.255  -6.687   1.044  1.00  0.00     0.028 C 
BRANCH   7   8
ATOM      8  C   UNL     1     -21.421  -7.478   0.431  1.00  0.00     0.156 C 
BRANCH   8   9
ATOM      9  O   UNL     1     -22.494  -6.634   0.111  1.00  0.00    -0.396 OA
ATOM     10  H   UNL     1     -22.718  -6.132   0.939  1.00  0.00     0.210 HD
ENDBRANCH   8   9
ENDBRANCH   7   8
ENDBRANCH   6   7
ENDBRANCH   1   6
TORSDOF 7
ENDMDL
MODEL 3
REMARK VINA RESULT:    -3.648     16.842     17.395
REMARK INTER + INTRA:          -5.306
REMARK INTER:                  -5.259
REMARK INTRA:                  -0.047
REMARK UNBOUND:                -0.271
REMARK SMILES CCCCCCCCO
REMARK SMILES IDX 5 1 4 2 3 3 2 4 1 5 6 6 7 7 8 8 9 9
REMARK H PARENT 9 10
REMARK Flexibility Score: inf
ROOT
ATOM      1  C   UNL     1     -20.896   8.275  11.083  1.00  0.00     0.000 C 
ENDROOT
BRANCH   1   2
ATOM      2  C   UNL     1     -22.361   8.264  10.618  1.00  0.00    -0.000 C 
BRANCH   2   3
ATOM      3  C   UNL     1     -23.182   7.144  11.281  1.00  0.00    -0.000 C 
BRANCH   3   4
ATOM      4  C   UNL     1     -24.685   7.458  11.317  1.00  0.00    -0.003 C 
ATOM      5  C   UNL     1     -25.350   7.027  12.624  1.00  0.00     0.004 C 
ENDBRANCH   3   4
ENDBRANCH   2   3
ENDBRANCH   1   2
BRANCH   1   6
ATOM      6  C   UNL     1     -19.900   8.295   9.910  1.00  0.00     0.002 C 
BRANCH   6   7
ATOM      7  C   UNL     1     -18.463   8.624  10.351  1.00  0.00     0.028 C 
BRANCH   7   8
ATOM      8  C   UNL     1     -18.375   9.835  11.293  1.00  0.00     0.156 C 
BRANCH   8   9
ATOM      9  O   UNL     1     -18.208   9.430  12.625  1.00  0.00    -0.396 OA
ATOM     10  H   UNL     1     -18.906   9.899  13.154  1.00  0.00     0.210 HD
ENDBRANCH   8   9
ENDBRANCH   7   8
ENDBRANCH   6   7
ENDBRANCH   1   6
TORSDOF 7
ENDMDL
MODEL 4
REMARK VINA RESULT:    -3.575      1.498      2.606
REMARK INTER + INTRA:          -5.205
REMARK INTER:                  -5.121
REMARK INTRA:                  -0.084
REMARK UNBOUND:                -0.271
REMARK SMILES CCCCCCCCO
REMARK SMILES IDX 5 1 4 2 3 3 2 4 1 5 6 6 7 7 8 8 9 9
REMARK H PARENT 9 10
REMARK Flexibility Score: inf
ROOT
ATOM      1  C   UNL     1     -17.046  -4.290   1.870  1.00  0.00     0.000 C 
ENDROOT
BRANCH   1   2
ATOM      2  C   UNL     1     -18.216  -5.212   1.493  1.00  0.00    -0.000 C 
BRANCH   2   3
ATOM      3  C   UNL     1     -19.560  -4.466   1.437  1.00  0.00    -0.000 C 
BRANCH   3   4
ATOM      4  C   UNL     1     -20.481  -4.994   0.326  1.00  0.00    -0.003 C 
ATOM      5  C   UNL     1     -21.221  -6.270   0.726  1.00  0.00     0.004 C 
ENDBRANCH   3   4
ENDBRANCH   2   3
ENDBRANCH   1   2
BRANCH   1   6
ATOM      6  C   UNL     1     -15.681  -4.997   1.787  1.00  0.00     0.002 C 
BRANCH   6   7
ATOM      7  C   UNL     1     -14.836  -4.820   3.061  1.00  0.00     0.028 C 
BRANCH   7   8
ATOM      8  C   UNL     1     -13.323  -4.862   2.801  1.00  0.00     0.156 C 
BRANCH   8   9
ATOM      9  O   UNL     1     -12.709  -5.885   3.539  1.00  0.00    -0.396 OA
ATOM     10  H   UNL     1     -11.729  -5.750   3.451  1.00  0.00     0.210 HD
ENDBRANCH   8   9
ENDBRANCH   7   8
ENDBRANCH   6   7
ENDBRANCH   1   6
TORSDOF 7
ENDMDL
MODEL 5
REMARK VINA RESULT:    -3.555     17.091     18.247
REMARK INTER + INTRA:          -5.177
REMARK INTER:                  -5.065
REMARK INTRA:                  -0.112
REMARK UNBOUND:                -0.271
REMARK SMILES CCCCCCCCO
REMARK SMILES IDX 5 1 4 2 3 3 2 4 1 5 6 6 7 7 8 8 9 9
REMARK H PARENT 9 10
REMARK Flexibility Score: inf
ROOT
ATOM      1  C   UNL     1     -20.706   8.017  10.497  1.00  0.00     0.000 C 
ENDROOT
BRANCH   1   2
ATOM      2  C   UNL     1     -19.633   8.986  11.019  1.00  0.00    -0.000 C 
BRANCH   2   3
ATOM      3  C   UNL     1     -18.269   8.779  10.339  1.00  0.00    -0.000 C 
BRANCH   3   4
ATOM      4  C   UNL     1     -17.158   9.627  10.977  1.00  0.00    -0.003 C 
ATOM      5  C   UNL     1     -17.400   9.900  12.461  1.00  0.00     0.004 C 
ENDBRANCH   3   4
ENDBRANCH   2   3
ENDBRANCH   1   2
BRANCH   1   6
ATOM      6  C   UNL     1     -22.135   8.464  10.851  1.00  0.00     0.002 C 
BRANCH   6   7
ATOM      7  C   UNL     1     -23.087   7.282  11.105  1.00  0.00     0.028 C 
BRANCH   7   8
ATOM      8  C   UNL     1     -24.565   7.626  10.869  1.00  0.00     0.156 C 
BRANCH   8   9
ATOM      9  O   UNL     1     -25.284   7.628  12.072  1.00  0.00    -0.396 OA
ATOM     10  H   UNL     1     -24.639   7.867  12.789  1.00  0.00     0.210 HD
ENDBRANCH   8   9
ENDBRANCH   7   8
ENDBRANCH   6   7
ENDBRANCH   1   6
TORSDOF 7
ENDMDL
MODEL 6
REMARK VINA RESULT:    -3.547     16.776     17.235
REMARK INTER + INTRA:          -5.167
REMARK INTER:                  -5.090
REMARK INTRA:                  -0.077
REMARK UNBOUND:                -0.271
REMARK SMILES CCCCCCCCO
REMARK SMILES IDX 5 1 4 2 3 3 2 4 1 5 6 6 7 7 8 8 9 9
REMARK H PARENT 9 10
REMARK Flexibility Score: inf
ROOT
ATOM      1  C   UNL     1     -20.720   8.059  10.458  1.00  0.00     0.000 C 
ENDROOT
BRANCH   1   2
ATOM      2  C   UNL     1     -22.146   8.459  10.866  1.00  0.00    -0.000 C 
BRANCH   2   3
ATOM      3  C   UNL     1     -23.047   7.241  11.132  1.00  0.00    -0.000 C 
BRANCH   3   4
ATOM      4  C   UNL     1     -24.542   7.594  11.090  1.00  0.00    -0.003 C 
ATOM      5  C   UNL     1     -25.287   7.173  12.357  1.00  0.00     0.004 C 
ENDBRANCH   3   4
ENDBRANCH   2   3
ENDBRANCH   1   2
BRANCH   1   6
ATOM      6  C   UNL     1     -19.657   9.055  10.956  1.00  0.00     0.002 C 
BRANCH   6   7
ATOM      7  C   UNL     1     -18.234   8.690  10.500  1.00  0.00     0.028 C 
BRANCH   7   8
ATOM      8  C   UNL     1     -17.381   9.912  10.123  1.00  0.00     0.156 C 
BRANCH   8   9
ATOM      9  O   UNL     1     -17.330  10.085   8.733  1.00  0.00    -0.396 OA
ATOM     10  H   UNL     1     -16.387  10.306   8.508  1.00  0.00     0.210 HD
ENDBRANCH   8   9
ENDBRANCH   7   8
ENDBRANCH   6   7
ENDBRANCH   1   6
TORSDOF 7
ENDMDL
MODEL 7
REMARK VINA RESULT:    -3.524      3.978      8.024
REMARK INTER + INTRA:          -5.135
REMARK INTER:                  -5.109
REMARK INTRA:                  -0.026
REMARK UNBOUND:                -0.271
REMARK SMILES CCCCCCCCO
REMARK SMILES IDX 5 1 4 2 3 3 2 4 1 5 6 6 7 7 8 8 9 9
REMARK H PARENT 9 10
REMARK Flexibility Score: inf
ROOT
ATOM      1  C   UNL     1     -12.873  -5.512   3.671  1.00  0.00     0.000 C 
ENDROOT
BRANCH   1   2
ATOM      2  C   UNL     1     -11.835  -5.051   2.636  1.00  0.00    -0.000 C 
BRANCH   2   3
ATOM      3  C   UNL     1     -11.738  -3.519   2.541  1.00  0.00    -0.000 C 
BRANCH   3   4
ATOM      4  C   UNL     1     -10.380  -3.047   1.999  1.00  0.00    -0.003 C 
ATOM      5  C   UNL     1      -9.619  -2.167   2.991  1.00  0.00     0.004 C 
ENDBRANCH   3   4
ENDBRANCH   2   3
ENDBRANCH   1   2
BRANCH   1   6
ATOM      6  C   UNL     1     -14.252  -4.860   3.462  1.00  0.00     0.002 C 
BRANCH   6   7
ATOM      7  C   UNL     1     -14.749  -4.963   2.010  1.00  0.00     0.028 C 
BRANCH   7   8
ATOM      8  C   UNL     1     -16.280  -4.926   1.884  1.00  0.00     0.156 C 
BRANCH   8   9
ATOM      9  O   UNL     1     -16.750  -3.608   1.797  1.00  0.00    -0.396 OA
ATOM     10  H   UNL     1     -15.949  -3.020   1.793  1.00  0.00     0.210 HD
ENDBRANCH   8   9
ENDBRANCH   7   8
ENDBRANCH   6   7
ENDBRANCH   1   6
TORSDOF 7
ENDMDL
MODEL 8
REMARK VINA RESULT:    -3.410      1.260      2.354
REMARK INTER + INTRA:          -4.977
REMARK INTER:                  -4.690
REMARK INTRA:                  -0.287
REMARK UNBOUND:                -0.271
REMARK SMILES CCCCCCCCO
REMARK SMILES IDX 5 1 4 2 3 3 2 4 1 5 6 6 7 7 8 8 9 9
REMARK H PARENT 9 10
REMARK Flexibility Score: inf
ROOT
ATOM      1  C   UNL     1     -20.435  -5.646  -0.447  1.00  0.00     0.000 C 
ENDROOT
BRANCH   1   2
ATOM      2  C   UNL     1     -21.644  -6.406   0.122  1.00  0.00    -0.000 C 
BRANCH   2   3
ATOM      3  C   UNL     1     -21.489  -7.932   0.007  1.00  0.00    -0.000 C 
BRANCH   3   4
ATOM      4  C   UNL     1     -20.198  -8.444   0.663  1.00  0.00    -0.003 C 
ATOM      5  C   UNL     1     -19.842  -9.869   0.240  1.00  0.00     0.004 C 
ENDBRANCH   3   4
ENDBRANCH   2   3
ENDBRANCH   1   2
BRANCH   1   6
ATOM      6  C   UNL     1     -20.155  -4.329   0.299  1.00  0.00     0.002 C 
BRANCH   6   7
ATOM      7  C   UNL     1     -19.428  -4.542   1.638  1.00  0.00     0.028 C 
BRANCH   7   8
ATOM      8  C   UNL     1     -17.942  -4.898   1.476  1.00  0.00     0.156 C 
BRANCH   8   9
ATOM      9  O   UNL     1     -17.128  -3.774   1.671  1.00  0.00    -0.396 OA
ATOM     10  H   UNL     1     -16.667  -3.603   0.808  1.00  0.00     0.210 HD
ENDBRANCH   8   9
ENDBRANCH   7   8
ENDBRANCH   6   7
ENDBRANCH   1   6
TORSDOF 7
ENDMDL
MODEL 9
REMARK VINA RESULT:    -3.405      2.664      6.100
REMARK INTER + INTRA:          -4.970
REMARK INTER:                  -4.875
REMARK INTRA:                  -0.095
REMARK UNBOUND:                -0.271
REMARK SMILES CCCCCCCCO
REMARK SMILES IDX 5 1 4 2 3 3 2 4 1 5 6 6 7 7 8 8 9 9
REMARK H PARENT 9 10
REMARK Flexibility Score: inf
ROOT
ATOM      1  C   UNL     1     -16.717  -4.421   2.194  1.00  0.00     0.000 C 
ENDROOT
BRANCH   1   2
ATOM      2  C   UNL     1     -15.288  -4.905   1.899  1.00  0.00    -0.000 C 
BRANCH   2   3
ATOM      3  C   UNL     1     -14.384  -4.866   3.143  1.00  0.00    -0.000 C 
BRANCH   3   4
ATOM      4  C   UNL     1     -12.890  -4.908   2.787  1.00  0.00    -0.003 C 
ATOM      5  C   UNL     1     -12.078  -5.788   3.737  1.00  0.00     0.004 C 
ENDBRANCH   3   4
ENDBRANCH   2   3
ENDBRANCH   1   2
BRANCH   1   6
ATOM      6  C   UNL     1     -17.735  -4.895   1.141  1.00  0.00     0.002 C 
BRANCH   6   7
ATOM      7  C   UNL     1     -19.193  -4.678   1.579  1.00  0.00     0.028 C 
BRANCH   7   8
ATOM      8  C   UNL     1     -20.117  -5.854   1.227  1.00  0.00     0.156 C 
BRANCH   8   9
ATOM      9  O   UNL     1     -19.575  -7.073   1.659  1.00  0.00    -0.396 OA
ATOM     10  H   UNL     1     -18.628  -7.086   1.358  1.00  0.00     0.210 HD
ENDBRANCH   8   9
ENDBRANCH   7   8
ENDBRANCH   6   7
ENDBRANCH   1   6
TORSDOF 7
ENDMDL
