MODEL 1
REMARK VINA RESULT:    -6.257      0.000      0.000
REMARK INTER + INTRA:         -11.061
REMARK INTER:                  -9.183
REMARK INTRA:                  -1.878
REMARK UNBOUND:                -1.878
REMARK SMILES Cc1cc2c(C(C)C)c(O)c(O)c(C=O)c2c(O)c1-c1c(C)cc2c(C(C)C)c(O)c(O)c(C=O)c2c1O
REMARK SMILES IDX 1 1 2 2 3 3 4 4 16 5 13 6 11 7 9 8 5 9 17 10 19 11 20 12
REMARK SMILES IDX 37 13 21 14 36 15 23 16 22 17 24 18 33 19 25 20 31 21 29 22
REMARK SMILES IDX 38 23 34 25 35 26 26 27 27 28 28 29 32 30 30 32 18 34 6 36
REMARK SMILES IDX 7 37 8 38 14 39 15 40 10 41 12 43
REMARK H PARENT 38 24 32 31 30 33 18 35 10 42 12 44
REMARK Flexibility Score: inf
ROOT
ATOM      1  C   UNL     1       1.317 -26.583   6.979  1.00  0.00     0.045 C 
ATOM      2  C   UNL     1       2.400 -26.833   5.957  1.00  0.00    -0.039 A 
ATOM      3  C   UNL     1       3.341 -25.835   5.708  1.00  0.00     0.013 A 
ATOM      4  C   UNL     1       4.369 -25.992   4.758  1.00  0.00    -0.006 A 
ATOM      5  C   UNL     1       4.495 -27.251   4.091  1.00  0.00     0.039 A 
ATOM      6  C   UNL     1       5.548 -27.427   3.145  1.00  0.00     0.072 A 
ATOM      7  C   UNL     1       6.547 -26.449   3.029  1.00  0.00     0.169 A 
ATOM      8  C   UNL     1       6.454 -25.242   3.728  1.00  0.00     0.162 A 
ATOM      9  C   UNL     1       5.293 -24.936   4.481  1.00  0.00     0.008 A 
ATOM     10  C   UNL     1       3.595 -28.306   4.427  1.00  0.00     0.132 A 
ATOM     11  C   UNL     1       2.529 -28.079   5.323  1.00  0.00     0.031 A 
ENDROOT
BRANCH  11  12
ATOM     12  C   UNL     1       1.562 -29.168   5.624  1.00  0.00     0.031 A 
ATOM     13  C   UNL     1       1.747 -29.992   6.755  1.00  0.00     0.132 A 
ATOM     14  C   UNL     1       0.445 -29.350   4.794  1.00  0.00    -0.039 A 
ATOM     15  C   UNL     1       0.843 -31.063   7.024  1.00  0.00     0.039 A 
ATOM     16  C   UNL     1      -0.482 -30.347   5.099  1.00  0.00     0.013 A 
ATOM     17  C   UNL     1       0.216 -28.465   3.593  1.00  0.00     0.045 C 
ATOM     18  C   UNL     1      -0.301 -31.232   6.185  1.00  0.00    -0.006 A 
ATOM     19  C   UNL     1       1.021 -31.946   8.128  1.00  0.00     0.072 A 
ATOM     20  C   UNL     1      -1.251 -32.265   6.461  1.00  0.00     0.008 A 
ATOM     21  C   UNL     1      -0.015 -32.823   8.492  1.00  0.00     0.169 A 
ATOM     22  C   UNL     1      -1.167 -32.934   7.707  1.00  0.00     0.162 A 
BRANCH  13  23
ATOM     23  O   UNL     1       2.805 -29.722   7.630  1.00  0.00    -0.507 OA
ATOM     24  H   UNL     1       3.035 -30.293   8.435  1.00  0.00     0.293 HD
ENDBRANCH  13  23
BRANCH  19  25
ATOM     25  C   UNL     1       2.298 -32.030   8.881  1.00  0.00     0.264 C 
ATOM     26  O   UNL     1       2.403 -31.559  10.044  1.00  0.00    -0.298 OA
ENDBRANCH  19  25
BRANCH  20  27
ATOM     27  C   UNL     1      -2.285 -32.690   5.399  1.00  0.00     0.017 C 
ATOM     28  C   UNL     1      -3.726 -32.429   5.857  1.00  0.00     0.012 C 
ATOM     29  C   UNL     1      -2.096 -34.124   4.866  1.00  0.00     0.012 C 
ENDBRANCH  20  27
BRANCH  21  30
ATOM     30  O   UNL     1       0.119 -33.610   9.642  1.00  0.00    -0.504 OA
ATOM     31  H   UNL     1      -0.249 -34.551   9.711  1.00  0.00     0.293 HD
ENDBRANCH  21  30
BRANCH  22  32
ATOM     32  O   UNL     1      -2.208 -33.720   8.206  1.00  0.00    -0.504 OA
ATOM     33  H   UNL     1      -2.103 -34.359   8.978  1.00  0.00     0.293 HD
ENDBRANCH  22  32
ENDBRANCH  11  12
BRANCH  10  34
ATOM     34  O   UNL     1       3.788 -29.592   3.910  1.00  0.00    -0.507 OA
ATOM     35  H   UNL     1       3.230 -29.994   3.167  1.00  0.00     0.293 HD
ENDBRANCH  10  34
BRANCH   9  36
ATOM     36  C   UNL     1       5.060 -23.468   4.891  1.00  0.00     0.017 C 
ATOM     37  C   UNL     1       5.256 -23.242   6.396  1.00  0.00     0.012 C 
ATOM     38  C   UNL     1       3.746 -22.855   4.361  1.00  0.00     0.012 C 
ENDBRANCH   9  36
BRANCH   6  39
ATOM     39  C   UNL     1       5.590 -28.580   2.212  1.00  0.00     0.264 C 
ATOM     40  O   UNL     1       6.417 -29.517   2.369  1.00  0.00    -0.298 OA
ENDBRANCH   6  39
BRANCH   8  41
ATOM     41  O   UNL     1       7.538 -24.360   3.644  1.00  0.00    -0.504 OA
ATOM     42  H   UNL     1       7.587 -23.475   4.132  1.00  0.00     0.293 HD
ENDBRANCH   8  41
BRANCH   7  43
ATOM     43  O   UNL     1       7.639 -26.674   2.184  1.00  0.00    -0.504 OA
ATOM     44  H   UNL     1       7.595 -26.550   1.179  1.00  0.00     0.293 HD
ENDBRANCH   7  43
TORSDOF 11
ENDMDL
MODEL 2
REMARK VINA RESULT:    -6.043      2.865      4.949
REMARK INTER + INTRA:         -10.748
REMARK INTER:                  -9.421
REMARK INTRA:                  -1.327
REMARK UNBOUND:                -1.878
REMARK SMILES Cc1cc2c(C(C)C)c(O)c(O)c(C=O)c2c(O)c1-c1c(C)cc2c(C(C)C)c(O)c(O)c(C=O)c2c1O
REMARK SMILES IDX 1 1 2 2 3 3 4 4 16 5 13 6 11 7 9 8 5 9 17 10 19 11 20 12
REMARK SMILES IDX 37 13 21 14 36 15 23 16 22 17 24 18 33 19 25 20 31 21 29 22
REMARK SMILES IDX 38 23 34 25 35 26 26 27 27 28 28 29 32 30 30 32 18 34 6 36
REMARK SMILES IDX 7 37 8 38 14 39 15 40 10 41 12 43
REMARK H PARENT 38 24 32 31 30 33 18 35 10 42 12 44
REMARK Flexibility Score: inf
ROOT
ATOM      1  C   UNL     1       5.713 -28.426   1.728  1.00  0.00     0.045 C 
ATOM      2  C   UNL     1       5.855 -27.394   2.821  1.00  0.00    -0.039 A 
ATOM      3  C   UNL     1       6.477 -26.180   2.531  1.00  0.00     0.013 A 
ATOM      4  C   UNL     1       6.658 -25.179   3.505  1.00  0.00    -0.006 A 
ATOM      5  C   UNL     1       6.111 -25.387   4.810  1.00  0.00     0.039 A 
ATOM      6  C   UNL     1       6.269 -24.368   5.795  1.00  0.00     0.072 A 
ATOM      7  C   UNL     1       6.777 -23.115   5.421  1.00  0.00     0.169 A 
ATOM      8  C   UNL     1       7.257 -22.892   4.127  1.00  0.00     0.162 A 
ATOM      9  C   UNL     1       7.344 -23.960   3.200  1.00  0.00     0.008 A 
ATOM     10  C   UNL     1       5.383 -26.587   5.072  1.00  0.00     0.132 A 
ATOM     11  C   UNL     1       5.297 -27.599   4.093  1.00  0.00     0.031 A 
ENDROOT
BRANCH  11  12
ATOM     12  C   UNL     1       4.585 -28.869   4.394  1.00  0.00     0.031 A 
ATOM     13  C   UNL     1       3.179 -28.943   4.278  1.00  0.00     0.132 A 
ATOM     14  C   UNL     1       5.321 -30.005   4.764  1.00  0.00    -0.039 A 
ATOM     15  C   UNL     1       2.490 -30.149   4.603  1.00  0.00     0.039 A 
ATOM     16  C   UNL     1       4.656 -31.207   5.008  1.00  0.00     0.013 A 
ATOM     17  C   UNL     1       6.826 -29.954   4.871  1.00  0.00     0.045 C 
ATOM     18  C   UNL     1       3.247 -31.305   4.963  1.00  0.00    -0.006 A 
ATOM     19  C   UNL     1       1.069 -30.249   4.544  1.00  0.00     0.072 A 
ATOM     20  C   UNL     1       2.586 -32.542   5.246  1.00  0.00     0.008 A 
ATOM     21  C   UNL     1       0.457 -31.511   4.636  1.00  0.00     0.169 A 
ATOM     22  C   UNL     1       1.212 -32.654   4.916  1.00  0.00     0.162 A 
BRANCH  13  23
ATOM     23  O   UNL     1       2.475 -27.832   3.800  1.00  0.00    -0.507 OA
ATOM     24  H   UNL     1       1.476 -27.821   3.637  1.00  0.00     0.293 HD
ENDBRANCH  13  23
BRANCH  19  25
ATOM     25  C   UNL     1       0.191 -29.056   4.456  1.00  0.00     0.264 C 
ATOM     26  O   UNL     1      -0.261 -28.657   3.349  1.00  0.00    -0.298 OA
ENDBRANCH  19  25
BRANCH  20  27
ATOM     27  C   UNL     1       3.327 -33.688   5.961  1.00  0.00     0.017 C 
ATOM     28  C   UNL     1       3.515 -33.412   7.459  1.00  0.00     0.012 C 
ATOM     29  C   UNL     1       4.642 -34.118   5.280  1.00  0.00     0.012 C 
ENDBRANCH  20  27
BRANCH  21  30
ATOM     30  O   UNL     1      -0.928 -31.619   4.467  1.00  0.00    -0.504 OA
ATOM     31  H   UNL     1      -1.516 -30.832   4.221  1.00  0.00     0.293 HD
ENDBRANCH  21  30
BRANCH  22  32
ATOM     32  O   UNL     1       0.556 -33.885   4.855  1.00  0.00    -0.504 OA
ATOM     33  H   UNL     1      -0.415 -34.012   5.091  1.00  0.00     0.293 HD
ENDBRANCH  22  32
ENDBRANCH  11  12
BRANCH  10  34
ATOM     34  O   UNL     1       4.704 -26.752   6.284  1.00  0.00    -0.507 OA
ATOM     35  H   UNL     1       4.838 -26.160   7.094  1.00  0.00     0.293 HD
ENDBRANCH  10  34
BRANCH   9  36
ATOM     36  C   UNL     1       8.233 -23.771   1.955  1.00  0.00     0.017 C 
ATOM     37  C   UNL     1       7.449 -23.233   0.751  1.00  0.00     0.012 C 
ATOM     38  C   UNL     1       9.109 -24.992   1.601  1.00  0.00     0.012 C 
ENDBRANCH   9  36
BRANCH   6  39
ATOM     39  C   UNL     1       5.987 -24.605   7.232  1.00  0.00     0.264 C 
ATOM     40  O   UNL     1       4.985 -24.091   7.794  1.00  0.00    -0.298 OA
ENDBRANCH   6  39
BRANCH   8  41
ATOM     41  O   UNL     1       7.650 -21.590   3.797  1.00  0.00    -0.504 OA
ATOM     42  H   UNL     1       7.509 -20.787   4.396  1.00  0.00     0.293 HD
ENDBRANCH   8  41
BRANCH   7  43
ATOM     43  O   UNL     1       6.826 -22.080   6.362  1.00  0.00    -0.504 OA
ATOM     44  H   UNL     1       6.378 -22.138   7.269  1.00  0.00     0.293 HD
ENDBRANCH   7  43
TORSDOF 11
ENDMDL
MODEL 3
REMARK VINA RESULT:    -5.957      0.665      9.085
REMARK INTER + INTRA:         -10.621
REMARK INTER:                  -8.854
REMARK INTRA:                  -1.767
REMARK UNBOUND:                -1.878
REMARK SMILES Cc1cc2c(C(C)C)c(O)c(O)c(C=O)c2c(O)c1-c1c(C)cc2c(C(C)C)c(O)c(O)c(C=O)c2c1O
REMARK SMILES IDX 1 1 2 2 3 3 4 4 16 5 13 6 11 7 9 8 5 9 17 10 19 11 20 12
REMARK SMILES IDX 37 13 21 14 36 15 23 16 22 17 24 18 33 19 25 20 31 21 29 22
REMARK SMILES IDX 38 23 34 25 35 26 26 27 27 28 28 29 32 30 30 32 18 34 6 36
REMARK SMILES IDX 7 37 8 38 14 39 15 40 10 41 12 43
REMARK H PARENT 38 24 32 31 30 33 18 35 10 42 12 44
REMARK Flexibility Score: inf
ROOT
ATOM      1  C   UNL     1       0.207 -28.566   3.805  1.00  0.00     0.045 C 
ATOM      2  C   UNL     1       0.363 -29.311   5.108  1.00  0.00    -0.039 A 
ATOM      3  C   UNL     1      -0.532 -30.336   5.416  1.00  0.00     0.013 A 
ATOM      4  C   UNL     1      -0.457 -31.062   6.620  1.00  0.00    -0.006 A 
ATOM      5  C   UNL     1       0.626 -30.791   7.514  1.00  0.00     0.039 A 
ATOM      6  C   UNL     1       0.724 -31.539   8.725  1.00  0.00     0.072 A 
ATOM      7  C   UNL     1      -0.115 -32.647   8.926  1.00  0.00     0.169 A 
ATOM      8  C   UNL     1      -1.135 -32.947   8.019  1.00  0.00     0.162 A 
ATOM      9  C   UNL     1      -1.416 -32.075   6.939  1.00  0.00     0.008 A 
ATOM     10  C   UNL     1       1.601 -29.816   7.146  1.00  0.00     0.132 A 
ATOM     11  C   UNL     1       1.441 -29.054   5.970  1.00  0.00     0.031 A 
ENDROOT
BRANCH  11  12
ATOM     12  C   UNL     1       2.431 -28.000   5.623  1.00  0.00     0.031 A 
ATOM     13  C   UNL     1       3.489 -28.282   4.731  1.00  0.00     0.132 A 
ATOM     14  C   UNL     1       2.290 -26.713   6.163  1.00  0.00    -0.039 A 
ATOM     15  C   UNL     1       4.463 -27.285   4.427  1.00  0.00     0.039 A 
ATOM     16  C   UNL     1       3.197 -25.714   5.807  1.00  0.00     0.013 A 
ATOM     17  C   UNL     1       1.154 -26.383   7.101  1.00  0.00     0.045 C 
ATOM     18  C   UNL     1       4.304 -25.972   4.967  1.00  0.00    -0.006 A 
ATOM     19  C   UNL     1       5.571 -27.545   3.569  1.00  0.00     0.072 A 
ATOM     20  C   UNL     1       5.237 -24.939   4.639  1.00  0.00     0.008 A 
ATOM     21  C   UNL     1       6.359 -26.477   3.109  1.00  0.00     0.169 A 
ATOM     22  C   UNL     1       6.153 -25.178   3.585  1.00  0.00     0.162 A 
BRANCH  13  23
ATOM     23  O   UNL     1       3.547 -29.538   4.118  1.00  0.00    -0.507 OA
ATOM     24  H   UNL     1       3.990 -30.351   4.529  1.00  0.00     0.293 HD
ENDBRANCH  13  23
BRANCH  19  25
ATOM     25  C   UNL     1       5.975 -28.921   3.187  1.00  0.00     0.264 C 
ATOM     26  O   UNL     1       5.775 -29.363   2.025  1.00  0.00    -0.298 OA
ENDBRANCH  19  25
BRANCH  20  27
ATOM     27  C   UNL     1       5.294 -23.637   5.462  1.00  0.00     0.017 C 
ATOM     28  C   UNL     1       4.638 -22.459   4.729  1.00  0.00     0.012 C 
ATOM     29  C   UNL     1       6.697 -23.281   5.993  1.00  0.00     0.012 C 
ENDBRANCH  20  27
BRANCH  21  30
ATOM     30  O   UNL     1       7.377 -26.721   2.180  1.00  0.00    -0.504 OA
ATOM     31  H   UNL     1       8.037 -27.484   2.273  1.00  0.00     0.293 HD
ENDBRANCH  21  30
BRANCH  22  32
ATOM     32  O   UNL     1       6.882 -24.152   2.980  1.00  0.00    -0.504 OA
ATOM     33  H   UNL     1       7.610 -23.635   3.446  1.00  0.00     0.293 HD
ENDBRANCH  22  32
ENDBRANCH  11  12
BRANCH  10  34
ATOM     34  O   UNL     1       2.753 -29.639   7.921  1.00  0.00    -0.507 OA
ATOM     35  H   UNL     1       3.166 -28.738   8.124  1.00  0.00     0.293 HD
ENDBRANCH  10  34
BRANCH   9  36
ATOM     36  C   UNL     1      -2.772 -32.221   6.221  1.00  0.00     0.017 C 
ATOM     37  C   UNL     1      -2.614 -32.440   4.710  1.00  0.00     0.012 C 
ATOM     38  C   UNL     1      -3.801 -31.122   6.561  1.00  0.00     0.012 C 
ENDBRANCH   9  36
BRANCH   6  39
ATOM     39  C   UNL     1       1.634 -31.144   9.828  1.00  0.00     0.264 C 
ATOM     40  O   UNL     1       2.660 -31.821  10.101  1.00  0.00    -0.298 OA
ENDBRANCH   6  39
BRANCH   8  41
ATOM     41  O   UNL     1      -1.862 -34.125   8.230  1.00  0.00    -0.504 OA
ATOM     42  H   UNL     1      -2.760 -34.161   8.696  1.00  0.00     0.293 HD
ENDBRANCH   8  41
BRANCH   7  43
ATOM     43  O   UNL     1       0.058 -33.447  10.060  1.00  0.00    -0.504 OA
ATOM     44  H   UNL     1       0.923 -33.933  10.266  1.00  0.00     0.293 HD
ENDBRANCH   7  43
TORSDOF 11
ENDMDL
MODEL 4
REMARK VINA RESULT:    -5.868      1.736      3.210
REMARK INTER + INTRA:         -10.491
REMARK INTER:                  -8.624
REMARK INTRA:                  -1.867
REMARK UNBOUND:                -1.878
REMARK SMILES Cc1cc2c(C(C)C)c(O)c(O)c(C=O)c2c(O)c1-c1c(C)cc2c(C(C)C)c(O)c(O)c(C=O)c2c1O
REMARK SMILES IDX 1 1 2 2 3 3 4 4 16 5 13 6 11 7 9 8 5 9 17 10 19 11 20 12
REMARK SMILES IDX 37 13 21 14 36 15 23 16 22 17 24 18 33 19 25 20 31 21 29 22
REMARK SMILES IDX 38 23 34 25 35 26 26 27 27 28 28 29 32 30 30 32 18 34 6 36
REMARK SMILES IDX 7 37 8 38 14 39 15 40 10 41 12 43
REMARK H PARENT 38 24 32 31 30 33 18 35 10 42 12 44
REMARK Flexibility Score: inf
ROOT
ATOM      1  C   UNL     1       3.407 -31.306   2.859  1.00  0.00     0.045 C 
ATOM      2  C   UNL     1       3.876 -29.975   3.395  1.00  0.00    -0.039 A 
ATOM      3  C   UNL     1       4.847 -29.264   2.691  1.00  0.00     0.013 A 
ATOM      4  C   UNL     1       5.343 -28.024   3.140  1.00  0.00    -0.006 A 
ATOM      5  C   UNL     1       4.767 -27.442   4.312  1.00  0.00     0.039 A 
ATOM      6  C   UNL     1       5.247 -26.176   4.760  1.00  0.00     0.072 A 
ATOM      7  C   UNL     1       6.122 -25.439   3.947  1.00  0.00     0.169 A 
ATOM      8  C   UNL     1       6.638 -25.985   2.769  1.00  0.00     0.162 A 
ATOM      9  C   UNL     1       6.377 -27.335   2.428  1.00  0.00     0.008 A 
ATOM     10  C   UNL     1       3.699 -28.123   4.970  1.00  0.00     0.132 A 
ATOM     11  C   UNL     1       3.291 -29.401   4.534  1.00  0.00     0.031 A 
ENDROOT
BRANCH  11  12
ATOM     12  C   UNL     1       2.216 -30.128   5.261  1.00  0.00     0.031 A 
ATOM     13  C   UNL     1       2.542 -31.048   6.281  1.00  0.00     0.132 A 
ATOM     14  C   UNL     1       0.872 -29.870   4.949  1.00  0.00    -0.039 A 
ATOM     15  C   UNL     1       1.515 -31.776   6.954  1.00  0.00     0.039 A 
ATOM     16  C   UNL     1      -0.137 -30.523   5.658  1.00  0.00     0.013 A 
ATOM     17  C   UNL     1       0.500 -28.873   3.878  1.00  0.00     0.045 C 
ATOM     18  C   UNL     1       0.149 -31.496   6.642  1.00  0.00    -0.006 A 
ATOM     19  C   UNL     1       1.806 -32.747   7.955  1.00  0.00     0.072 A 
ATOM     20  C   UNL     1      -0.903 -32.174   7.336  1.00  0.00     0.008 A 
ATOM     21  C   UNL     1       0.767 -33.256   8.753  1.00  0.00     0.169 A 
ATOM     22  C   UNL     1      -0.566 -32.922   8.491  1.00  0.00     0.162 A 
BRANCH  13  23
ATOM     23  O   UNL     1       3.881 -31.208   6.653  1.00  0.00    -0.507 OA
ATOM     24  H   UNL     1       4.200 -31.275   7.612  1.00  0.00     0.293 HD
ENDBRANCH  13  23
BRANCH  19  25
ATOM     25  C   UNL     1       3.168 -33.303   8.151  1.00  0.00     0.264 C 
ATOM     26  O   UNL     1       3.842 -33.034   9.181  1.00  0.00    -0.298 OA
ENDBRANCH  19  25
BRANCH  20  27
ATOM     27  C   UNL     1      -2.346 -32.154   6.795  1.00  0.00     0.017 C 
ATOM     28  C   UNL     1      -3.272 -31.277   7.648  1.00  0.00     0.012 C 
ATOM     29  C   UNL     1      -2.946 -33.550   6.532  1.00  0.00     0.012 C 
ENDBRANCH  20  27
BRANCH  21  30
ATOM     30  O   UNL     1       1.070 -34.125   9.808  1.00  0.00    -0.504 OA
ATOM     31  H   UNL     1       1.576 -33.832  10.635  1.00  0.00     0.293 HD
ENDBRANCH  21  30
BRANCH  22  32
ATOM     32  O   UNL     1      -1.525 -33.354   9.409  1.00  0.00    -0.504 OA
ATOM     33  H   UNL     1      -1.643 -32.952  10.325  1.00  0.00     0.293 HD
ENDBRANCH  22  32
ENDBRANCH  11  12
BRANCH  10  34
ATOM     34  O   UNL     1       3.011 -27.510   6.023  1.00  0.00    -0.507 OA
ATOM     35  H   UNL     1       3.401 -26.778   6.604  1.00  0.00     0.293 HD
ENDBRANCH  10  34
BRANCH   9  36
ATOM     36  C   UNL     1       7.271 -28.003   1.365  1.00  0.00     0.017 C 
ATOM     37  C   UNL     1       8.702 -28.240   1.868  1.00  0.00     0.012 C 
ATOM     38  C   UNL     1       7.230 -27.329  -0.023  1.00  0.00     0.012 C 
ENDBRANCH   9  36
BRANCH   6  39
ATOM     39  C   UNL     1       4.915 -25.632   6.100  1.00  0.00     0.264 C 
ATOM     40  O   UNL     1       4.084 -24.696   6.236  1.00  0.00    -0.298 OA
ENDBRANCH   6  39
BRANCH   8  41
ATOM     41  O   UNL     1       7.420 -25.154   1.958  1.00  0.00    -0.504 OA
ATOM     42  H   UNL     1       7.865 -25.455   1.101  1.00  0.00     0.293 HD
ENDBRANCH   8  41
BRANCH   7  43
ATOM     43  O   UNL     1       6.502 -24.149   4.334  1.00  0.00    -0.504 OA
ATOM     44  H   UNL     1       7.282 -23.655   3.916  1.00  0.00     0.293 HD
ENDBRANCH   7  43
TORSDOF 11
ENDMDL
MODEL 5
REMARK VINA RESULT:    -5.829      2.438      8.869
REMARK INTER + INTRA:         -10.434
REMARK INTER:                  -8.532
REMARK INTRA:                  -1.901
REMARK UNBOUND:                -1.878
REMARK SMILES Cc1cc2c(C(C)C)c(O)c(O)c(C=O)c2c(O)c1-c1c(C)cc2c(C(C)C)c(O)c(O)c(C=O)c2c1O
REMARK SMILES IDX 1 1 2 2 3 3 4 4 16 5 13 6 11 7 9 8 5 9 17 10 19 11 20 12
REMARK SMILES IDX 37 13 21 14 36 15 23 16 22 17 24 18 33 19 25 20 31 21 29 22
REMARK SMILES IDX 38 23 34 25 35 26 26 27 27 28 28 29 32 30 30 32 18 34 6 36
REMARK SMILES IDX 7 37 8 38 14 39 15 40 10 41 12 43
REMARK H PARENT 38 24 32 31 30 33 18 35 10 42 12 44
REMARK Flexibility Score: inf
ROOT
ATOM      1  C   UNL     1       0.624 -28.872   4.010  1.00  0.00     0.045 C 
ATOM      2  C   UNL     1       1.044 -29.774   5.145  1.00  0.00    -0.039 A 
ATOM      3  C   UNL     1       0.072 -30.266   6.016  1.00  0.00     0.013 A 
ATOM      4  C   UNL     1       0.393 -31.099   7.106  1.00  0.00    -0.006 A 
ATOM      5  C   UNL     1       1.750 -31.518   7.269  1.00  0.00     0.039 A 
ATOM      6  C   UNL     1       2.080 -32.380   8.355  1.00  0.00     0.072 A 
ATOM      7  C   UNL     1       1.053 -32.957   9.119  1.00  0.00     0.169 A 
ATOM      8  C   UNL     1      -0.281 -32.593   8.918  1.00  0.00     0.162 A 
ATOM      9  C   UNL     1      -0.614 -31.552   8.017  1.00  0.00     0.008 A 
ATOM     10  C   UNL     1       2.724 -31.098   6.313  1.00  0.00     0.132 A 
ATOM     11  C   UNL     1       2.375 -30.197   5.285  1.00  0.00     0.031 A 
ENDROOT
BRANCH  11  12
ATOM     12  C   UNL     1       3.409 -29.720   4.329  1.00  0.00     0.031 A 
ATOM     13  C   UNL     1       3.743 -30.496   3.197  1.00  0.00     0.132 A 
ATOM     14  C   UNL     1       4.027 -28.478   4.539  1.00  0.00    -0.039 A 
ATOM     15  C   UNL     1       4.762 -30.060   2.298  1.00  0.00     0.039 A 
ATOM     16  C   UNL     1       4.968 -28.014   3.620  1.00  0.00     0.013 A 
ATOM     17  C   UNL     1       3.667 -27.623   5.730  1.00  0.00     0.045 C 
ATOM     18  C   UNL     1       5.376 -28.787   2.510  1.00  0.00    -0.006 A 
ATOM     19  C   UNL     1       5.161 -30.836   1.171  1.00  0.00     0.072 A 
ATOM     20  C   UNL     1       6.364 -28.302   1.597  1.00  0.00     0.008 A 
ATOM     21  C   UNL     1       5.986 -30.262   0.189  1.00  0.00     0.169 A 
ATOM     22  C   UNL     1       6.527 -28.984   0.365  1.00  0.00     0.162 A 
BRANCH  13  23
ATOM     23  O   UNL     1       3.036 -31.676   2.946  1.00  0.00    -0.507 OA
ATOM     24  H   UNL     1       2.651 -31.926   2.043  1.00  0.00     0.293 HD
ENDBRANCH  13  23
BRANCH  19  25
ATOM     25  C   UNL     1       4.794 -32.266   1.021  1.00  0.00     0.264 C 
ATOM     26  O   UNL     1       3.927 -32.634   0.185  1.00  0.00    -0.298 OA
ENDBRANCH  19  25
BRANCH  20  27
ATOM     27  C   UNL     1       7.278 -27.120   1.977  1.00  0.00     0.017 C 
ATOM     28  C   UNL     1       6.885 -25.827   1.250  1.00  0.00     0.012 C 
ATOM     29  C   UNL     1       8.786 -27.418   1.859  1.00  0.00     0.012 C 
ENDBRANCH  20  27
BRANCH  21  30
ATOM     30  O   UNL     1       6.286 -30.988  -0.970  1.00  0.00    -0.504 OA
ATOM     31  H   UNL     1       5.828 -31.859  -1.208  1.00  0.00     0.293 HD
ENDBRANCH  21  30
BRANCH  22  32
ATOM     32  O   UNL     1       7.221 -28.429  -0.711  1.00  0.00    -0.504 OA
ATOM     33  H   UNL     1       8.151 -28.049  -0.639  1.00  0.00     0.293 HD
ENDBRANCH  22  32
ENDBRANCH  11  12
BRANCH  10  34
ATOM     34  O   UNL     1       4.024 -31.614   6.355  1.00  0.00    -0.507 OA
ATOM     35  H   UNL     1       4.826 -31.102   6.699  1.00  0.00     0.293 HD
ENDBRANCH  10  34
BRANCH   9  36
ATOM     36  C   UNL     1      -2.015 -30.919   8.124  1.00  0.00     0.017 C 
ATOM     37  C   UNL     1      -2.916 -31.287   6.937  1.00  0.00     0.012 C 
ATOM     38  C   UNL     1      -2.013 -29.405   8.425  1.00  0.00     0.012 C 
ENDBRANCH   9  36
BRANCH   6  39
ATOM     39  C   UNL     1       3.482 -32.638   8.766  1.00  0.00     0.264 C 
ATOM     40  O   UNL     1       4.010 -33.771   8.612  1.00  0.00    -0.298 OA
ENDBRANCH   6  39
BRANCH   8  41
ATOM     41  O   UNL     1      -1.258 -33.286   9.644  1.00  0.00    -0.504 OA
ATOM     42  H   UNL     1      -1.116 -33.653  10.576  1.00  0.00     0.293 HD
ENDBRANCH   8  41
BRANCH   7  43
ATOM     43  O   UNL     1       1.372 -33.891  10.111  1.00  0.00    -0.504 OA
ATOM     44  H   UNL     1       1.143 -33.758  11.089  1.00  0.00     0.293 HD
ENDBRANCH   7  43
TORSDOF 11
ENDMDL
MODEL 6
REMARK VINA RESULT:    -5.758      2.769      4.157
REMARK INTER + INTRA:         -10.329
REMARK INTER:                  -8.822
REMARK INTRA:                  -1.507
REMARK UNBOUND:                -1.878
REMARK SMILES Cc1cc2c(C(C)C)c(O)c(O)c(C=O)c2c(O)c1-c1c(C)cc2c(C(C)C)c(O)c(O)c(C=O)c2c1O
REMARK SMILES IDX 1 1 2 2 3 3 4 4 16 5 13 6 11 7 9 8 5 9 17 10 19 11 20 12
REMARK SMILES IDX 37 13 21 14 36 15 23 16 22 17 24 18 33 19 25 20 31 21 29 22
REMARK SMILES IDX 38 23 34 25 35 26 26 27 27 28 28 29 32 30 30 32 18 34 6 36
REMARK SMILES IDX 7 37 8 38 14 39 15 40 10 41 12 43
REMARK H PARENT 38 24 32 31 30 33 18 35 10 42 12 44
REMARK Flexibility Score: inf
ROOT
ATOM      1  C   UNL     1       1.215 -28.507   4.187  1.00  0.00     0.045 C 
ATOM      2  C   UNL     1       2.249 -27.788   5.020  1.00  0.00    -0.039 A 
ATOM      3  C   UNL     1       3.142 -26.920   4.393  1.00  0.00     0.013 A 
ATOM      4  C   UNL     1       4.142 -26.229   5.105  1.00  0.00    -0.006 A 
ATOM      5  C   UNL     1       4.183 -26.362   6.528  1.00  0.00     0.039 A 
ATOM      6  C   UNL     1       5.177 -25.647   7.258  1.00  0.00     0.072 A 
ATOM      7  C   UNL     1       5.962 -24.685   6.603  1.00  0.00     0.169 A 
ATOM      8  C   UNL     1       5.877 -24.512   5.219  1.00  0.00     0.162 A 
ATOM      9  C   UNL     1       5.081 -25.383   4.434  1.00  0.00     0.008 A 
ATOM     10  C   UNL     1       3.200 -27.168   7.177  1.00  0.00     0.132 A 
ATOM     11  C   UNL     1       2.269 -27.908   6.419  1.00  0.00     0.031 A 
ENDROOT
BRANCH  11  12
ATOM     12  C   UNL     1       1.284 -28.790   7.101  1.00  0.00     0.031 A 
ATOM     13  C   UNL     1       0.082 -28.254   7.613  1.00  0.00     0.132 A 
ATOM     14  C   UNL     1       1.542 -30.165   7.205  1.00  0.00    -0.039 A 
ATOM     15  C   UNL     1      -0.846 -29.090   8.302  1.00  0.00     0.039 A 
ATOM     16  C   UNL     1       0.601 -30.998   7.811  1.00  0.00     0.013 A 
ATOM     17  C   UNL     1       2.810 -30.763   6.645  1.00  0.00     0.045 C 
ATOM     18  C   UNL     1      -0.584 -30.491   8.390  1.00  0.00    -0.006 A 
ATOM     19  C   UNL     1      -2.047 -28.578   8.874  1.00  0.00     0.072 A 
ATOM     20  C   UNL     1      -1.521 -31.362   9.031  1.00  0.00     0.008 A 
ATOM     21  C   UNL     1      -3.037 -29.468   9.324  1.00  0.00     0.169 A 
ATOM     22  C   UNL     1      -2.805 -30.847   9.341  1.00  0.00     0.162 A 
BRANCH  13  23
ATOM     23  O   UNL     1      -0.206 -26.901   7.400  1.00  0.00    -0.507 OA
ATOM     24  H   UNL     1       0.328 -26.138   7.797  1.00  0.00     0.293 HD
ENDBRANCH  13  23
BRANCH  19  25
ATOM     25  C   UNL     1      -2.274 -27.126   9.079  1.00  0.00     0.264 C 
ATOM     26  O   UNL     1      -3.135 -26.497   8.408  1.00  0.00    -0.298 OA
ENDBRANCH  19  25
BRANCH  20  27
ATOM     27  C   UNL     1      -1.118 -32.791   9.444  1.00  0.00     0.017 C 
ATOM     28  C   UNL     1       0.257 -32.831  10.124  1.00  0.00     0.012 C 
ATOM     29  C   UNL     1      -1.239 -33.836   8.317  1.00  0.00     0.012 C 
ENDBRANCH  20  27
BRANCH  21  30
ATOM     30  O   UNL     1      -4.260 -28.965   9.783  1.00  0.00    -0.504 OA
ATOM     31  H   UNL     1      -4.496 -27.980   9.753  1.00  0.00     0.293 HD
ENDBRANCH  21  30
BRANCH  22  32
ATOM     32  O   UNL     1      -3.882 -31.673   9.670  1.00  0.00    -0.504 OA
ATOM     33  H   UNL     1      -3.990 -32.613   9.326  1.00  0.00     0.293 HD
ENDBRANCH  22  32
ENDBRANCH  11  12
BRANCH  10  34
ATOM     34  O   UNL     1       3.117 -27.195   8.573  1.00  0.00    -0.507 OA
ATOM     35  H   UNL     1       3.900 -27.389   9.184  1.00  0.00     0.293 HD
ENDBRANCH  10  34
BRANCH   9  36
ATOM     36  C   UNL     1       5.327 -25.418   2.913  1.00  0.00     0.017 C 
ATOM     37  C   UNL     1       6.727 -25.937   2.558  1.00  0.00     0.012 C 
ATOM     38  C   UNL     1       4.969 -24.111   2.174  1.00  0.00     0.012 C 
ENDBRANCH   9  36
BRANCH   6  39
ATOM     39  C   UNL     1       5.474 -25.935   8.683  1.00  0.00     0.264 C 
ATOM     40  O   UNL     1       5.164 -25.120   9.592  1.00  0.00    -0.298 OA
ENDBRANCH   6  39
BRANCH   8  41
ATOM     41  O   UNL     1       6.611 -23.464   4.651  1.00  0.00    -0.504 OA
ATOM     42  H   UNL     1       7.423 -23.042   5.083  1.00  0.00     0.293 HD
ENDBRANCH   8  41
BRANCH   7  43
ATOM     43  O   UNL     1       6.857 -23.904   7.343  1.00  0.00    -0.504 OA
ATOM     44  H   UNL     1       6.883 -22.892   7.287  1.00  0.00     0.293 HD
ENDBRANCH   7  43
TORSDOF 11
ENDMDL
MODEL 7
REMARK VINA RESULT:    -5.662      1.660      8.918
REMARK INTER + INTRA:         -10.188
REMARK INTER:                  -8.553
REMARK INTRA:                  -1.635
REMARK UNBOUND:                -1.878
REMARK SMILES Cc1cc2c(C(C)C)c(O)c(O)c(C=O)c2c(O)c1-c1c(C)cc2c(C(C)C)c(O)c(O)c(C=O)c2c1O
REMARK SMILES IDX 1 1 2 2 3 3 4 4 16 5 13 6 11 7 9 8 5 9 17 10 19 11 20 12
REMARK SMILES IDX 37 13 21 14 36 15 23 16 22 17 24 18 33 19 25 20 31 21 29 22
REMARK SMILES IDX 38 23 34 25 35 26 26 27 27 28 28 29 32 30 30 32 18 34 6 36
REMARK SMILES IDX 7 37 8 38 14 39 15 40 10 41 12 43
REMARK H PARENT 38 24 32 31 30 33 18 35 10 42 12 44
REMARK Flexibility Score: inf
ROOT
ATOM      1  C   UNL     1       0.497 -28.623   3.751  1.00  0.00     0.045 C 
ATOM      2  C   UNL     1       0.872 -29.579   4.857  1.00  0.00    -0.039 A 
ATOM      3  C   UNL     1      -0.135 -30.283   5.516  1.00  0.00     0.013 A 
ATOM      4  C   UNL     1       0.140 -31.178   6.568  1.00  0.00    -0.006 A 
ATOM      5  C   UNL     1       1.505 -31.431   6.911  1.00  0.00     0.039 A 
ATOM      6  C   UNL     1       1.793 -32.355   7.958  1.00  0.00     0.072 A 
ATOM      7  C   UNL     1       0.760 -33.138   8.496  1.00  0.00     0.169 A 
ATOM      8  C   UNL     1      -0.569 -32.931   8.116  1.00  0.00     0.162 A 
ATOM      9  C   UNL     1      -0.913 -31.852   7.265  1.00  0.00     0.008 A 
ATOM     10  C   UNL     1       2.537 -30.789   6.162  1.00  0.00     0.132 A 
ATOM     11  C   UNL     1       2.215 -29.837   5.173  1.00  0.00     0.031 A 
ENDROOT
BRANCH  11  12
ATOM     12  C   UNL     1       3.298 -29.131   4.438  1.00  0.00     0.031 A 
ATOM     13  C   UNL     1       3.683 -27.826   4.817  1.00  0.00     0.132 A 
ATOM     14  C   UNL     1       3.959 -29.781   3.384  1.00  0.00    -0.039 A 
ATOM     15  C   UNL     1       4.695 -27.131   4.090  1.00  0.00     0.039 A 
ATOM     16  C   UNL     1       5.001 -29.133   2.721  1.00  0.00     0.013 A 
ATOM     17  C   UNL     1       3.579 -31.184   2.977  1.00  0.00     0.045 C 
ATOM     18  C   UNL     1       5.374 -27.805   3.029  1.00  0.00    -0.006 A 
ATOM     19  C   UNL     1       5.079 -25.797   4.412  1.00  0.00     0.072 A 
ATOM     20  C   UNL     1       6.427 -27.151   2.315  1.00  0.00     0.008 A 
ATOM     21  C   UNL     1       6.234 -25.246   3.833  1.00  0.00     0.169 A 
ATOM     22  C   UNL     1       6.941 -25.941   2.845  1.00  0.00     0.162 A 
BRANCH  13  23
ATOM     23  O   UNL     1       3.089 -27.239   5.940  1.00  0.00    -0.507 OA
ATOM     24  H   UNL     1       2.955 -26.242   6.055  1.00  0.00     0.293 HD
ENDBRANCH  13  23
BRANCH  19  25
ATOM     25  C   UNL     1       4.262 -24.926   5.294  1.00  0.00     0.264 C 
ATOM     26  O   UNL     1       4.634 -24.648   6.465  1.00  0.00    -0.298 OA
ENDBRANCH  19  25
BRANCH  20  27
ATOM     27  C   UNL     1       6.932 -27.706   0.969  1.00  0.00     0.017 C 
ATOM     28  C   UNL     1       8.162 -28.607   1.138  1.00  0.00     0.012 C 
ATOM     29  C   UNL     1       7.140 -26.637  -0.122  1.00  0.00     0.012 C 
ENDBRANCH  20  27
BRANCH  21  30
ATOM     30  O   UNL     1       6.670 -23.978   4.234  1.00  0.00    -0.504 OA
ATOM     31  H   UNL     1       7.503 -23.538   3.860  1.00  0.00     0.293 HD
ENDBRANCH  21  30
BRANCH  22  32
ATOM     32  O   UNL     1       8.151 -25.392   2.419  1.00  0.00    -0.504 OA
ATOM     33  H   UNL     1       8.992 -25.931   2.287  1.00  0.00     0.293 HD
ENDBRANCH  22  32
ENDBRANCH  11  12
BRANCH  10  34
ATOM     34  O   UNL     1       3.878 -31.133   6.368  1.00  0.00    -0.507 OA
ATOM     35  H   UNL     1       4.265 -32.047   6.169  1.00  0.00     0.293 HD
ENDBRANCH  10  34
BRANCH   9  36
ATOM     36  C   UNL     1      -2.392 -31.422   7.199  1.00  0.00     0.017 C 
ATOM     37  C   UNL     1      -2.942 -31.006   8.570  1.00  0.00     0.012 C 
ATOM     38  C   UNL     1      -3.316 -32.413   6.460  1.00  0.00     0.012 C 
ENDBRANCH   9  36
BRANCH   6  39
ATOM     39  C   UNL     1       3.142 -32.469   8.565  1.00  0.00     0.264 C 
ATOM     40  O   UNL     1       3.845 -33.501   8.401  1.00  0.00    -0.298 OA
ENDBRANCH   6  39
BRANCH   8  41
ATOM     41  O   UNL     1      -1.531 -33.819   8.614  1.00  0.00    -0.504 OA
ATOM     42  H   UNL     1      -1.328 -34.566   9.266  1.00  0.00     0.293 HD
ENDBRANCH   8  41
BRANCH   7  43
ATOM     43  O   UNL     1       1.062 -34.123   9.443  1.00  0.00    -0.504 OA
ATOM     44  H   UNL     1       1.935 -34.637   9.446  1.00  0.00     0.293 HD
ENDBRANCH   7  43
TORSDOF 11
ENDMDL
MODEL 8
REMARK VINA RESULT:    -5.576      2.143      3.398
REMARK INTER + INTRA:         -10.062
REMARK INTER:                  -8.616
REMARK INTRA:                  -1.446
REMARK UNBOUND:                -1.878
REMARK SMILES Cc1cc2c(C(C)C)c(O)c(O)c(C=O)c2c(O)c1-c1c(C)cc2c(C(C)C)c(O)c(O)c(C=O)c2c1O
REMARK SMILES IDX 1 1 2 2 3 3 4 4 16 5 13 6 11 7 9 8 5 9 17 10 19 11 20 12
REMARK SMILES IDX 37 13 21 14 36 15 23 16 22 17 24 18 33 19 25 20 31 21 29 22
REMARK SMILES IDX 38 23 34 25 35 26 26 27 27 28 28 29 32 30 30 32 18 34 6 36
REMARK SMILES IDX 7 37 8 38 14 39 15 40 10 41 12 43
REMARK H PARENT 38 24 32 31 30 33 18 35 10 42 12 44
REMARK Flexibility Score: inf
ROOT
ATOM      1  C   UNL     1       2.408 -28.768   3.526  1.00  0.00     0.045 C 
ATOM      2  C   UNL     1       3.280 -27.834   4.329  1.00  0.00    -0.039 A 
ATOM      3  C   UNL     1       4.191 -27.015   3.664  1.00  0.00     0.013 A 
ATOM      4  C   UNL     1       5.048 -26.132   4.350  1.00  0.00    -0.006 A 
ATOM      5  C   UNL     1       4.915 -26.016   5.769  1.00  0.00     0.039 A 
ATOM      6  C   UNL     1       5.761 -25.107   6.469  1.00  0.00     0.072 A 
ATOM      7  C   UNL     1       6.562 -24.209   5.747  1.00  0.00     0.169 A 
ATOM      8  C   UNL     1       6.645 -24.283   4.354  1.00  0.00     0.162 A 
ATOM      9  C   UNL     1       6.011 -25.337   3.651  1.00  0.00     0.008 A 
ATOM     10  C   UNL     1       3.907 -26.778   6.435  1.00  0.00     0.132 A 
ATOM     11  C   UNL     1       3.128 -27.712   5.719  1.00  0.00     0.031 A 
ENDROOT
BRANCH  11  12
ATOM     12  C   UNL     1       2.121 -28.543   6.431  1.00  0.00     0.031 A 
ATOM     13  C   UNL     1       2.384 -29.903   6.704  1.00  0.00     0.132 A 
ATOM     14  C   UNL     1       0.918 -27.958   6.859  1.00  0.00    -0.039 A 
ATOM     15  C   UNL     1       1.404 -30.712   7.352  1.00  0.00     0.039 A 
ATOM     16  C   UNL     1      -0.009 -28.728   7.560  1.00  0.00     0.013 A 
ATOM     17  C   UNL     1       0.627 -26.500   6.597  1.00  0.00     0.045 C 
ATOM     18  C   UNL     1       0.189 -30.107   7.799  1.00  0.00    -0.006 A 
ATOM     19  C   UNL     1       1.613 -32.099   7.604  1.00  0.00     0.072 A 
ATOM     20  C   UNL     1      -0.790 -30.883   8.496  1.00  0.00     0.008 A 
ATOM     21  C   UNL     1       0.733 -32.793   8.452  1.00  0.00     0.169 A 
ATOM     22  C   UNL     1      -0.420 -32.174   8.948  1.00  0.00     0.162 A 
BRANCH  13  23
ATOM     23  O   UNL     1       3.633 -30.436   6.369  1.00  0.00    -0.507 OA
ATOM     24  H   UNL     1       3.914 -30.673   5.426  1.00  0.00     0.293 HD
ENDBRANCH  13  23
BRANCH  19  25
ATOM     25  C   UNL     1       2.696 -32.872   6.946  1.00  0.00     0.264 C 
ATOM     26  O   UNL     1       3.773 -33.130   7.547  1.00  0.00    -0.298 OA
ENDBRANCH  19  25
BRANCH  20  27
ATOM     27  C   UNL     1      -2.228 -30.359   8.679  1.00  0.00     0.017 C 
ATOM     28  C   UNL     1      -2.507 -29.925  10.124  1.00  0.00     0.012 C 
ATOM     29  C   UNL     1      -3.321 -31.299   8.133  1.00  0.00     0.012 C 
ENDBRANCH  20  27
BRANCH  21  30
ATOM     30  O   UNL     1       1.002 -34.125   8.785  1.00  0.00    -0.504 OA
ATOM     31  H   UNL     1       1.932 -34.524   8.753  1.00  0.00     0.293 HD
ENDBRANCH  21  30
BRANCH  22  32
ATOM     32  O   UNL     1      -1.169 -32.879   9.892  1.00  0.00    -0.504 OA
ATOM     33  H   UNL     1      -1.303 -33.877   9.865  1.00  0.00     0.293 HD
ENDBRANCH  22  32
ENDBRANCH  11  12
BRANCH  10  34
ATOM     34  O   UNL     1       3.647 -26.573   7.794  1.00  0.00    -0.507 OA
ATOM     35  H   UNL     1       2.744 -26.307   8.164  1.00  0.00     0.293 HD
ENDBRANCH  10  34
BRANCH   9  36
ATOM     36  C   UNL     1       6.452 -25.612   2.200  1.00  0.00     0.017 C 
ATOM     37  C   UNL     1       7.912 -26.078   2.110  1.00  0.00     0.012 C 
ATOM     38  C   UNL     1       6.124 -24.478   1.205  1.00  0.00     0.012 C 
ENDBRANCH   9  36
BRANCH   6  39
ATOM     39  C   UNL     1       5.889 -25.122   7.948  1.00  0.00     0.264 C 
ATOM     40  O   UNL     1       5.430 -24.185   8.652  1.00  0.00    -0.298 OA
ENDBRANCH   6  39
BRANCH   8  41
ATOM     41  O   UNL     1       7.380 -23.290   3.696  1.00  0.00    -0.504 OA
ATOM     42  H   UNL     1       8.093 -23.478   3.002  1.00  0.00     0.293 HD
ENDBRANCH   8  41
BRANCH   7  43
ATOM     43  O   UNL     1       7.305 -23.241   6.432  1.00  0.00    -0.504 OA
ATOM     44  H   UNL     1       7.373 -22.278   6.126  1.00  0.00     0.293 HD
ENDBRANCH   7  43
TORSDOF 11
ENDMDL
MODEL 9
REMARK VINA RESULT:    -5.310      3.877      6.680
REMARK INTER + INTRA:          -9.672
REMARK INTER:                  -7.827
REMARK INTRA:                  -1.845
REMARK UNBOUND:                -1.878
REMARK SMILES Cc1cc2c(C(C)C)c(O)c(O)c(C=O)c2c(O)c1-c1c(C)cc2c(C(C)C)c(O)c(O)c(C=O)c2c1O
REMARK SMILES IDX 1 1 2 2 3 3 4 4 16 5 13 6 11 7 9 8 5 9 17 10 19 11 20 12
REMARK SMILES IDX 37 13 21 14 36 15 23 16 22 17 24 18 33 19 25 20 31 21 29 22
REMARK SMILES IDX 38 23 34 25 35 26 26 27 27 28 28 29 32 30 30 32 18 34 6 36
REMARK SMILES IDX 7 37 8 38 14 39 15 40 10 41 12 43
REMARK H PARENT 38 24 32 31 30 33 18 35 10 42 12 44
REMARK Flexibility Score: inf
ROOT
ATOM      1  C   UNL     1       3.795 -34.078   1.285  1.00  0.00     0.045 C 
ATOM      2  C   UNL     1       4.683 -32.885   1.031  1.00  0.00    -0.039 A 
ATOM      3  C   UNL     1       5.341 -32.777  -0.194  1.00  0.00     0.013 A 
ATOM      4  C   UNL     1       6.198 -31.700  -0.493  1.00  0.00    -0.006 A 
ATOM      5  C   UNL     1       6.326 -30.643   0.462  1.00  0.00     0.039 A 
ATOM      6  C   UNL     1       7.172 -29.537   0.156  1.00  0.00     0.072 A 
ATOM      7  C   UNL     1       7.703 -29.405  -1.137  1.00  0.00     0.169 A 
ATOM      8  C   UNL     1       7.526 -30.412  -2.090  1.00  0.00     0.162 A 
ATOM      9  C   UNL     1       6.904 -31.635  -1.736  1.00  0.00     0.008 A 
ATOM     10  C   UNL     1       5.567 -30.705   1.669  1.00  0.00     0.132 A 
ATOM     11  C   UNL     1       4.786 -31.842   1.965  1.00  0.00     0.031 A 
ENDROOT
BRANCH  11  12
ATOM     12  C   UNL     1       4.044 -31.922   3.251  1.00  0.00     0.031 A 
ATOM     13  C   UNL     1       2.767 -31.334   3.375  1.00  0.00     0.132 A 
ATOM     14  C   UNL     1       4.608 -32.616   4.334  1.00  0.00    -0.039 A 
ATOM     15  C   UNL     1       2.069 -31.376   4.619  1.00  0.00     0.039 A 
ATOM     16  C   UNL     1       3.894 -32.725   5.527  1.00  0.00     0.013 A 
ATOM     17  C   UNL     1       5.962 -33.272   4.216  1.00  0.00     0.045 C 
ATOM     18  C   UNL     1       2.641 -32.097   5.711  1.00  0.00    -0.006 A 
ATOM     19  C   UNL     1       0.799 -30.754   4.797  1.00  0.00     0.072 A 
ATOM     20  C   UNL     1       1.942 -32.199   6.955  1.00  0.00     0.008 A 
ATOM     21  C   UNL     1       0.048 -31.026   5.953  1.00  0.00     0.169 A 
ATOM     22  C   UNL     1       0.584 -31.795   6.991  1.00  0.00     0.162 A 
BRANCH  13  23
ATOM     23  O   UNL     1       2.176 -30.745   2.252  1.00  0.00    -0.507 OA
ATOM     24  H   UNL     1       2.559 -29.945   1.763  1.00  0.00     0.293 HD
ENDBRANCH  13  23
BRANCH  19  25
ATOM     25  C   UNL     1       0.257 -29.764   3.833  1.00  0.00     0.264 C 
ATOM     26  O   UNL     1      -0.760 -30.020   3.135  1.00  0.00    -0.298 OA
ENDBRANCH  19  25
BRANCH  20  27
ATOM     27  C   UNL     1       2.667 -32.660   8.234  1.00  0.00     0.017 C 
ATOM     28  C   UNL     1       2.365 -34.125   8.576  1.00  0.00     0.012 C 
ATOM     29  C   UNL     1       2.474 -31.728   9.446  1.00  0.00     0.012 C 
ENDBRANCH  20  27
BRANCH  21  30
ATOM     30  O   UNL     1      -1.244 -30.502   6.074  1.00  0.00    -0.504 OA
ATOM     31  H   UNL     1      -2.061 -30.954   5.681  1.00  0.00     0.293 HD
ENDBRANCH  21  30
BRANCH  22  32
ATOM     32  O   UNL     1      -0.271 -32.136   8.041  1.00  0.00    -0.504 OA
ATOM     33  H   UNL     1       0.050 -32.484   8.930  1.00  0.00     0.293 HD
ENDBRANCH  22  32
ENDBRANCH  11  12
BRANCH  10  34
ATOM     34  O   UNL     1       5.550 -29.618   2.550  1.00  0.00    -0.507 OA
ATOM     35  H   UNL     1       5.478 -29.705   3.556  1.00  0.00     0.293 HD
ENDBRANCH  10  34
BRANCH   9  36
ATOM     36  C   UNL     1       7.089 -32.842  -2.677  1.00  0.00     0.017 C 
ATOM     37  C   UNL     1       8.541 -33.338  -2.715  1.00  0.00     0.012 C 
ATOM     38  C   UNL     1       6.483 -32.657  -4.084  1.00  0.00     0.012 C 
ENDBRANCH   9  36
BRANCH   6  39
ATOM     39  C   UNL     1       7.583 -28.546   1.182  1.00  0.00     0.264 C 
ATOM     40  O   UNL     1       7.100 -27.383   1.195  1.00  0.00    -0.298 OA
ENDBRANCH   6  39
BRANCH   8  41
ATOM     41  O   UNL     1       7.993 -30.165  -3.387  1.00  0.00    -0.504 OA
ATOM     42  H   UNL     1       8.137 -29.240  -3.770  1.00  0.00     0.293 HD
ENDBRANCH   8  41
BRANCH   7  43
ATOM     43  O   UNL     1       8.439 -28.262  -1.468  1.00  0.00    -0.504 OA
ATOM     44  H   UNL     1       8.352 -27.386  -0.968  1.00  0.00     0.293 HD
ENDBRANCH   7  43
TORSDOF 11
ENDMDL
