MODEL 1
REMARK VINA RESULT:    -2.371      0.000      0.000
REMARK INTER + INTRA:          -5.015
REMARK INTER:                  -4.451
REMARK INTRA:                  -0.564
REMARK UNBOUND:                -0.564
REMARK SMILES O=C([O-])CCCCCCCCCCCCCCC(=O)[O-]
REMARK SMILES IDX 10 1 9 2 8 3 7 4 6 5 5 6 4 7 2 8 1 9 3 10 11 11 12 12 13 13
REMARK SMILES IDX 14 14 15 15 16 16 17 17 18 18 19 19 20 20
REMARK H PARENT
REMARK Flexibility Score: inf
ROOT
ATOM      1  C   UNL     1      -2.786 -22.959 -14.451  1.00  0.00     0.000 C 
ENDROOT
BRANCH   1   2
ATOM      2  C   UNL     1      -1.739 -22.297 -15.358  1.00  0.00     0.000 C 
BRANCH   2   3
ATOM      3  C   UNL     1      -0.413 -23.074 -15.322  1.00  0.00     0.000 C 
BRANCH   3   4
ATOM      4  C   UNL     1       0.747 -22.302 -15.972  1.00  0.00     0.000 C 
BRANCH   4   5
ATOM      5  C   UNL     1       2.103 -23.001 -15.775  1.00  0.00     0.000 C 
BRANCH   5   6
ATOM      6  C   UNL     1       3.273 -22.007 -15.690  1.00  0.00     0.006 C 
BRANCH   6   7
ATOM      7  C   UNL     1       4.514 -22.484 -16.455  1.00  0.00     0.053 C 
BRANCH   7   8
ATOM      8  C   UNL     1       5.674 -21.577 -16.186  1.00  0.00     0.041 C 
ATOM      9  O   UNL     1       5.605 -20.716 -15.271  1.00  0.00    -0.550 OA
ATOM     10  O   UNL     1       6.811 -21.650 -16.980  1.00  0.00    -0.550 OA
ENDBRANCH   7   8
ENDBRANCH   6   7
ENDBRANCH   5   6
ENDBRANCH   4   5
ENDBRANCH   3   4
ENDBRANCH   2   3
ENDBRANCH   1   2
BRANCH   1  11
ATOM     11  C   UNL     1      -4.210 -22.888 -15.030  1.00  0.00     0.000 C 
BRANCH  11  12
ATOM     12  C   UNL     1      -4.358 -22.028 -16.303  1.00  0.00     0.000 C 
BRANCH  12  13
ATOM     13  C   UNL     1      -5.803 -21.637 -16.658  1.00  0.00     0.000 C 
BRANCH  13  14
ATOM     14  C   UNL     1      -6.777 -21.826 -15.482  1.00  0.00     0.000 C 
BRANCH  14  15
ATOM     15  C   UNL     1      -8.166 -21.232 -15.763  1.00  0.00     0.000 C 
BRANCH  15  16
ATOM     16  C   UNL     1      -8.717 -20.432 -14.570  1.00  0.00     0.006 C 
BRANCH  16  17
ATOM     17  C   UNL     1      -8.562 -21.188 -13.244  1.00  0.00     0.053 C 
BRANCH  17  18
ATOM     18  C   UNL     1      -8.707 -20.279 -12.063  1.00  0.00     0.041 C 
ATOM     19  O   UNL     1      -8.715 -20.753 -10.896  1.00  0.00    -0.550 OA
ATOM     20  O   UNL     1      -8.866 -18.912 -12.250  1.00  0.00    -0.550 OA
ENDBRANCH  17  18
ENDBRANCH  16  17
ENDBRANCH  15  16
ENDBRANCH  14  15
ENDBRANCH  13  14
ENDBRANCH  12  13
ENDBRANCH  11  12
ENDBRANCH   1  11
TORSDOF 15
ENDMDL
MODEL 2
REMARK VINA RESULT:    -2.335      1.108     11.746
REMARK INTER + INTRA:          -4.946
REMARK INTER:                  -4.534
REMARK INTRA:                  -0.412
REMARK UNBOUND:                -0.564
REMARK SMILES O=C([O-])CCCCCCCCCCCCCCC(=O)[O-]
REMARK SMILES IDX 10 1 9 2 8 3 7 4 6 5 5 6 4 7 2 8 1 9 3 10 11 11 12 12 13 13
REMARK SMILES IDX 14 14 15 15 16 16 17 17 18 18 19 19 20 20
REMARK H PARENT
REMARK Flexibility Score: inf
ROOT
ATOM      1  C   UNL     1      -2.450 -22.343 -15.019  1.00  0.00     0.000 C 
ENDROOT
BRANCH   1   2
ATOM      2  C   UNL     1      -3.518 -22.946 -15.943  1.00  0.00     0.000 C 
BRANCH   2   3
ATOM      3  C   UNL     1      -4.899 -22.335 -15.655  1.00  0.00     0.000 C 
BRANCH   3   4
ATOM      4  C   UNL     1      -5.564 -21.750 -16.911  1.00  0.00     0.000 C 
BRANCH   4   5
ATOM      5  C   UNL     1      -7.004 -21.274 -16.649  1.00  0.00     0.000 C 
BRANCH   5   6
ATOM      6  C   UNL     1      -7.479 -21.595 -15.222  1.00  0.00     0.006 C 
BRANCH   6   7
ATOM      7  C   UNL     1      -8.403 -20.513 -14.647  1.00  0.00     0.053 C 
BRANCH   7   8
ATOM      8  C   UNL     1      -8.412 -20.575 -13.152  1.00  0.00     0.041 C 
ATOM      9  O   UNL     1      -8.331 -21.685 -12.564  1.00  0.00    -0.550 OA
ATOM     10  O   UNL     1      -8.560 -19.411 -12.409  1.00  0.00    -0.550 OA
ENDBRANCH   7   8
ENDBRANCH   6   7
ENDBRANCH   5   6
ENDBRANCH   4   5
ENDBRANCH   3   4
ENDBRANCH   2   3
ENDBRANCH   1   2
BRANCH   1  11
ATOM     11  C   UNL     1      -1.105 -23.087 -15.092  1.00  0.00     0.000 C 
BRANCH  11  12
ATOM     12  C   UNL     1       0.020 -22.337 -15.835  1.00  0.00     0.000 C 
BRANCH  12  13
ATOM     13  C   UNL     1       1.389 -23.040 -15.822  1.00  0.00     0.000 C 
BRANCH  13  14
ATOM     14  C   UNL     1       2.560 -22.057 -15.658  1.00  0.00     0.000 C 
BRANCH  14  15
ATOM     15  C   UNL     1       3.882 -22.617 -16.207  1.00  0.00     0.000 C 
BRANCH  15  16
ATOM     16  C   UNL     1       5.057 -21.639 -16.025  1.00  0.00     0.006 C 
BRANCH  16  17
ATOM     17  C   UNL     1       6.323 -22.114 -16.748  1.00  0.00     0.053 C 
BRANCH  17  18
ATOM     18  C   UNL     1       7.552 -21.431 -16.229  1.00  0.00     0.041 C 
ATOM     19  O   UNL     1       8.694 -21.840 -16.568  1.00  0.00    -0.550 OA
ATOM     20  O   UNL     1       7.436 -20.366 -15.345  1.00  0.00    -0.550 OA
ENDBRANCH  17  18
ENDBRANCH  16  17
ENDBRANCH  15  16
ENDBRANCH  14  15
ENDBRANCH  13  14
ENDBRANCH  12  13
ENDBRANCH  11  12
ENDBRANCH   1  11
TORSDOF 15
ENDMDL
MODEL 3
REMARK VINA RESULT:    -2.092      2.004     11.766
REMARK INTER + INTRA:          -4.491
REMARK INTER:                  -3.916
REMARK INTRA:                  -0.575
REMARK UNBOUND:                -0.564
REMARK SMILES O=C([O-])CCCCCCCCCCCCCCC(=O)[O-]
REMARK SMILES IDX 10 1 9 2 8 3 7 4 6 5 5 6 4 7 2 8 1 9 3 10 11 11 12 12 13 13
REMARK SMILES IDX 14 14 15 15 16 16 17 17 18 18 19 19 20 20
REMARK H PARENT
REMARK Flexibility Score: inf
ROOT
ATOM      1  C   UNL     1      -0.176 -22.013 -16.168  1.00  0.00     0.000 C 
ENDROOT
BRANCH   1   2
ATOM      2  C   UNL     1      -1.218 -22.655 -15.239  1.00  0.00     0.000 C 
BRANCH   2   3
ATOM      3  C   UNL     1      -2.641 -22.240 -15.643  1.00  0.00     0.000 C 
BRANCH   3   4
ATOM      4  C   UNL     1      -3.725 -22.954 -14.819  1.00  0.00     0.000 C 
BRANCH   4   5
ATOM      5  C   UNL     1      -5.126 -22.812 -15.439  1.00  0.00     0.000 C 
BRANCH   5   6
ATOM      6  C   UNL     1      -5.253 -21.563 -16.327  1.00  0.00     0.006 C 
BRANCH   6   7
ATOM      7  C   UNL     1      -6.583 -21.512 -17.091  1.00  0.00     0.053 C 
BRANCH   7   8
ATOM      8  C   UNL     1      -7.735 -21.531 -16.136  1.00  0.00     0.041 C 
ATOM      9  O   UNL     1      -8.646 -22.390 -16.261  1.00  0.00    -0.550 OA
ATOM     10  O   UNL     1      -7.827 -20.568 -15.139  1.00  0.00    -0.550 OA
ENDBRANCH   7   8
ENDBRANCH   6   7
ENDBRANCH   5   6
ENDBRANCH   4   5
ENDBRANCH   3   4
ENDBRANCH   2   3
ENDBRANCH   1   2
BRANCH   1  11
ATOM     11  C   UNL     1       1.248 -22.544 -15.927  1.00  0.00     0.000 C 
BRANCH  11  12
ATOM     12  C   UNL     1       2.350 -21.464 -15.877  1.00  0.00     0.000 C 
BRANCH  12  13
ATOM     13  C   UNL     1       3.745 -21.978 -15.480  1.00  0.00     0.000 C 
BRANCH  13  14
ATOM     14  C   UNL     1       4.378 -22.874 -16.558  1.00  0.00     0.000 C 
BRANCH  14  15
ATOM     15  C   UNL     1       5.904 -22.986 -16.413  1.00  0.00     0.000 C 
BRANCH  15  16
ATOM     16  C   UNL     1       6.657 -22.230 -17.521  1.00  0.00     0.006 C 
BRANCH  16  17
ATOM     17  C   UNL     1       7.928 -21.548 -16.997  1.00  0.00     0.053 C 
BRANCH  17  18
ATOM     18  C   UNL     1       7.692 -20.862 -15.686  1.00  0.00     0.041 C 
ATOM     19  O   UNL     1       8.404 -21.145 -14.686  1.00  0.00    -0.550 OA
ATOM     20  O   UNL     1       6.665 -19.935 -15.559  1.00  0.00    -0.550 OA
ENDBRANCH  17  18
ENDBRANCH  16  17
ENDBRANCH  15  16
ENDBRANCH  14  15
ENDBRANCH  13  14
ENDBRANCH  12  13
ENDBRANCH  11  12
ENDBRANCH   1  11
TORSDOF 15
ENDMDL
MODEL 4
REMARK VINA RESULT:    -2.080      4.817      8.723
REMARK INTER + INTRA:          -4.467
REMARK INTER:                  -3.721
REMARK INTRA:                  -0.746
REMARK UNBOUND:                -0.564
REMARK SMILES O=C([O-])CCCCCCCCCCCCCCC(=O)[O-]
REMARK SMILES IDX 10 1 9 2 8 3 7 4 6 5 5 6 4 7 2 8 1 9 3 10 11 11 12 12 13 13
REMARK SMILES IDX 14 14 15 15 16 16 17 17 18 18 19 19 20 20
REMARK H PARENT
REMARK Flexibility Score: inf
ROOT
ATOM      1  C   UNL     1       7.069 -22.022 -17.074  1.00  0.00     0.000 C 
ENDROOT
BRANCH   1   2
ATOM      2  C   UNL     1       8.189 -21.470 -16.180  1.00  0.00     0.000 C 
BRANCH   2   3
ATOM      3  C   UNL     1       9.557 -21.615 -16.864  1.00  0.00     0.000 C 
BRANCH   3   4
ATOM      4  C   UNL     1       9.658 -22.881 -17.730  1.00  0.00     0.000 C 
BRANCH   4   5
ATOM      5  C   UNL     1      10.284 -22.604 -19.109  1.00  0.00     0.000 C 
BRANCH   5   6
ATOM      6  C   UNL     1       9.251 -22.117 -20.138  1.00  0.00     0.006 C 
BRANCH   6   7
ATOM      7  C   UNL     1       9.641 -20.781 -20.783  1.00  0.00     0.053 C 
BRANCH   7   8
ATOM      8  C   UNL     1       9.466 -20.847 -22.268  1.00  0.00     0.041 C 
ATOM      9  O   UNL     1       8.326 -21.047 -22.762  1.00  0.00    -0.550 OA
ATOM     10  O   UNL     1      10.570 -20.737 -23.103  1.00  0.00    -0.550 OA
ENDBRANCH   7   8
ENDBRANCH   6   7
ENDBRANCH   5   6
ENDBRANCH   4   5
ENDBRANCH   3   4
ENDBRANCH   2   3
ENDBRANCH   1   2
BRANCH   1  11
ATOM     11  C   UNL     1       6.201 -23.076 -16.365  1.00  0.00     0.000 C 
BRANCH  11  12
ATOM     12  C   UNL     1       4.705 -23.057 -16.745  1.00  0.00     0.000 C 
BRANCH  12  13
ATOM     13  C   UNL     1       3.812 -22.209 -15.822  1.00  0.00     0.000 C 
BRANCH  13  14
ATOM     14  C   UNL     1       2.354 -22.701 -15.792  1.00  0.00     0.000 C 
BRANCH  14  15
ATOM     15  C   UNL     1       1.342 -21.559 -15.975  1.00  0.00     0.000 C 
BRANCH  15  16
ATOM     16  C   UNL     1      -0.077 -22.072 -16.273  1.00  0.00     0.006 C 
BRANCH  16  17
ATOM     17  C   UNL     1      -0.615 -22.971 -15.151  1.00  0.00     0.053 C 
BRANCH  17  18
ATOM     18  C   UNL     1      -2.009 -22.591 -14.752  1.00  0.00     0.041 C 
ATOM     19  O   UNL     1      -2.243 -22.181 -13.584  1.00  0.00    -0.550 OA
ATOM     20  O   UNL     1      -3.053 -22.720 -15.658  1.00  0.00    -0.550 OA
ENDBRANCH  17  18
ENDBRANCH  16  17
ENDBRANCH  15  16
ENDBRANCH  14  15
ENDBRANCH  13  14
ENDBRANCH  12  13
ENDBRANCH  11  12
ENDBRANCH   1  11
TORSDOF 15
ENDMDL
MODEL 5
REMARK VINA RESULT:    -2.067      4.923     13.331
REMARK INTER + INTRA:          -4.443
REMARK INTER:                  -3.569
REMARK INTRA:                  -0.874
REMARK UNBOUND:                -0.564
REMARK SMILES O=C([O-])CCCCCCCCCCCCCCC(=O)[O-]
REMARK SMILES IDX 10 1 9 2 8 3 7 4 6 5 5 6 4 7 2 8 1 9 3 10 11 11 12 12 13 13
REMARK SMILES IDX 14 14 15 15 16 16 17 17 18 18 19 19 20 20
REMARK H PARENT
REMARK Flexibility Score: inf
ROOT
ATOM      1  C   UNL     1       5.848 -20.613 -15.624  1.00  0.00     0.000 C 
ENDROOT
BRANCH   1   2
ATOM      2  C   UNL     1       4.426 -21.120 -15.345  1.00  0.00     0.000 C 
BRANCH   2   3
ATOM      3  C   UNL     1       4.134 -22.400 -16.145  1.00  0.00     0.000 C 
BRANCH   3   4
ATOM      4  C   UNL     1       2.678 -22.872 -16.000  1.00  0.00     0.000 C 
BRANCH   4   5
ATOM      5  C   UNL     1       1.720 -21.725 -15.632  1.00  0.00     0.000 C 
BRANCH   5   6
ATOM      6  C   UNL     1       0.274 -22.000 -16.075  1.00  0.00     0.006 C 
BRANCH   6   7
ATOM      7  C   UNL     1      -0.414 -23.075 -15.222  1.00  0.00     0.053 C 
BRANCH   7   8
ATOM      8  C   UNL     1      -1.789 -22.632 -14.832  1.00  0.00     0.041 C 
ATOM      9  O   UNL     1      -2.753 -22.788 -15.625  1.00  0.00    -0.550 OA
ATOM     10  O   UNL     1      -1.995 -22.000 -13.612  1.00  0.00    -0.550 OA
ENDBRANCH   7   8
ENDBRANCH   6   7
ENDBRANCH   5   6
ENDBRANCH   4   5
ENDBRANCH   3   4
ENDBRANCH   2   3
ENDBRANCH   1   2
BRANCH   1  11
ATOM     11  C   UNL     1       6.567 -21.418 -16.721  1.00  0.00     0.000 C 
BRANCH  11  12
ATOM     12  C   UNL     1       8.035 -21.781 -16.412  1.00  0.00     0.000 C 
BRANCH  12  13
ATOM     13  C   UNL     1       8.717 -22.678 -17.460  1.00  0.00     0.000 C 
BRANCH  13  14
ATOM     14  C   UNL     1       7.977 -22.684 -18.809  1.00  0.00     0.000 C 
BRANCH  14  15
ATOM     15  C   UNL     1       8.930 -22.842 -20.004  1.00  0.00     0.000 C 
BRANCH  15  16
ATOM     16  C   UNL     1      10.021 -21.757 -20.034  1.00  0.00     0.006 C 
BRANCH  16  17
ATOM     17  C   UNL     1       9.628 -20.564 -20.914  1.00  0.00     0.053 C 
BRANCH  17  18
ATOM     18  C   UNL     1       9.300 -20.986 -22.314  1.00  0.00     0.041 C 
ATOM     19  O   UNL     1       8.124 -20.873 -22.750  1.00  0.00    -0.550 OA
ATOM     20  O   UNL     1      10.285 -21.534 -23.125  1.00  0.00    -0.550 OA
ENDBRANCH  17  18
ENDBRANCH  16  17
ENDBRANCH  15  16
ENDBRANCH  14  15
ENDBRANCH  13  14
ENDBRANCH  12  13
ENDBRANCH  11  12
ENDBRANCH   1  11
TORSDOF 15
ENDMDL
MODEL 6
REMARK VINA RESULT:    -2.057      2.172     12.328
REMARK INTER + INTRA:          -4.424
REMARK INTER:                  -3.888
REMARK INTRA:                  -0.535
REMARK UNBOUND:                -0.564
REMARK SMILES O=C([O-])CCCCCCCCCCCCCCC(=O)[O-]
REMARK SMILES IDX 10 1 9 2 8 3 7 4 6 5 5 6 4 7 2 8 1 9 3 10 11 11 12 12 13 13
REMARK SMILES IDX 14 14 15 15 16 16 17 17 18 18 19 19 20 20
REMARK H PARENT
REMARK Flexibility Score: inf
ROOT
ATOM      1  C   UNL     1       0.733 -22.274 -15.915  1.00  0.00     0.000 C 
ENDROOT
BRANCH   1   2
ATOM      2  C   UNL     1      -0.443 -23.058 -15.314  1.00  0.00     0.000 C 
BRANCH   2   3
ATOM      3  C   UNL     1      -1.763 -22.294 -15.502  1.00  0.00     0.000 C 
BRANCH   3   4
ATOM      4  C   UNL     1      -2.982 -23.077 -14.986  1.00  0.00     0.000 C 
BRANCH   4   5
ATOM      5  C   UNL     1      -3.211 -22.884 -13.476  1.00  0.00     0.000 C 
BRANCH   5   6
ATOM      6  C   UNL     1      -4.674 -23.118 -13.067  1.00  0.00     0.006 C 
BRANCH   6   7
ATOM      7  C   UNL     1      -5.666 -22.766 -14.184  1.00  0.00     0.053 C 
BRANCH   7   8
ATOM      8  C   UNL     1      -7.004 -22.428 -13.606  1.00  0.00     0.041 C 
ATOM      9  O   UNL     1      -8.055 -22.853 -14.153  1.00  0.00    -0.550 OA
ATOM     10  O   UNL     1      -7.092 -21.602 -12.493  1.00  0.00    -0.550 OA
ENDBRANCH   7   8
ENDBRANCH   6   7
ENDBRANCH   5   6
ENDBRANCH   4   5
ENDBRANCH   3   4
ENDBRANCH   2   3
ENDBRANCH   1   2
BRANCH   1  11
ATOM     11  C   UNL     1       2.095 -22.935 -15.643  1.00  0.00     0.000 C 
BRANCH  11  12
ATOM     12  C   UNL     1       3.303 -21.975 -15.652  1.00  0.00     0.000 C 
BRANCH  12  13
ATOM     13  C   UNL     1       4.399 -22.319 -16.676  1.00  0.00     0.000 C 
BRANCH  13  14
ATOM     14  C   UNL     1       5.799 -22.399 -16.045  1.00  0.00     0.000 C 
BRANCH  14  15
ATOM     15  C   UNL     1       6.577 -21.079 -16.165  1.00  0.00     0.000 C 
BRANCH  15  16
ATOM     16  C   UNL     1       8.100 -21.296 -16.214  1.00  0.00     0.006 C 
BRANCH  16  17
ATOM     17  C   UNL     1       8.489 -22.468 -17.124  1.00  0.00     0.053 C 
BRANCH  17  18
ATOM     18  C   UNL     1       8.292 -22.139 -18.573  1.00  0.00     0.041 C 
ATOM     19  O   UNL     1       9.019 -21.274 -19.129  1.00  0.00    -0.550 OA
ATOM     20  O   UNL     1       7.286 -22.763 -19.299  1.00  0.00    -0.550 OA
ENDBRANCH  17  18
ENDBRANCH  16  17
ENDBRANCH  15  16
ENDBRANCH  14  15
ENDBRANCH  13  14
ENDBRANCH  12  13
ENDBRANCH  11  12
ENDBRANCH   1  11
TORSDOF 15
ENDMDL
MODEL 7
REMARK VINA RESULT:    -2.026      7.716     11.513
REMARK INTER + INTRA:          -4.367
REMARK INTER:                  -3.677
REMARK INTRA:                  -0.689
REMARK UNBOUND:                -0.564
REMARK SMILES O=C([O-])CCCCCCCCCCCCCCC(=O)[O-]
REMARK SMILES IDX 10 1 9 2 8 3 7 4 6 5 5 6 4 7 2 8 1 9 3 10 11 11 12 12 13 13
REMARK SMILES IDX 14 14 15 15 16 16 17 17 18 18 19 19 20 20
REMARK H PARENT
REMARK Flexibility Score: inf
ROOT
ATOM      1  C   UNL     1       6.972 -22.398 -18.911  1.00  0.00     0.000 C 
ENDROOT
BRANCH   1   2
ATOM      2  C   UNL     1       6.752 -23.110 -20.254  1.00  0.00     0.000 C 
BRANCH   2   3
ATOM      3  C   UNL     1       8.044 -23.120 -21.086  1.00  0.00     0.000 C 
BRANCH   3   4
ATOM      4  C   UNL     1       7.912 -22.327 -22.397  1.00  0.00     0.000 C 
BRANCH   4   5
ATOM      5  C   UNL     1       8.868 -22.835 -23.491  1.00  0.00     0.000 C 
BRANCH   5   6
ATOM      6  C   UNL     1      10.295 -22.287 -23.327  1.00  0.00     0.006 C 
BRANCH   6   7
ATOM      7  C   UNL     1      10.319 -20.822 -22.873  1.00  0.00     0.053 C 
BRANCH   7   8
ATOM      8  C   UNL     1      10.812 -20.720 -21.464  1.00  0.00     0.041 C 
ATOM      9  O   UNL     1      11.124 -19.600 -20.982  1.00  0.00    -0.550 OA
ATOM     10  O   UNL     1      10.975 -21.869 -20.700  1.00  0.00    -0.550 OA
ENDBRANCH   7   8
ENDBRANCH   6   7
ENDBRANCH   5   6
ENDBRANCH   4   5
ENDBRANCH   3   4
ENDBRANCH   2   3
ENDBRANCH   1   2
BRANCH   1  11
ATOM     11  C   UNL     1       8.458 -22.279 -18.532  1.00  0.00     0.000 C 
BRANCH  11  12
ATOM     12  C   UNL     1       8.871 -23.037 -17.252  1.00  0.00     0.000 C 
BRANCH  12  13
ATOM     13  C   UNL     1       8.263 -22.490 -15.949  1.00  0.00     0.000 C 
BRANCH  13  14
ATOM     14  C   UNL     1       7.843 -21.015 -16.062  1.00  0.00     0.000 C 
BRANCH  14  15
ATOM     15  C   UNL     1       6.537 -20.713 -15.310  1.00  0.00     0.000 C 
BRANCH  15  16
ATOM     16  C   UNL     1       5.334 -21.478 -15.888  1.00  0.00     0.006 C 
BRANCH  16  17
ATOM     17  C   UNL     1       4.038 -21.185 -15.121  1.00  0.00     0.053 C 
BRANCH  17  18
ATOM     18  C   UNL     1       2.852 -21.847 -15.755  1.00  0.00     0.041 C 
ATOM     19  O   UNL     1       1.738 -21.260 -15.781  1.00  0.00    -0.550 OA
ATOM     20  O   UNL     1       2.969 -23.124 -16.287  1.00  0.00    -0.550 OA
ENDBRANCH  17  18
ENDBRANCH  16  17
ENDBRANCH  15  16
ENDBRANCH  14  15
ENDBRANCH  13  14
ENDBRANCH  12  13
ENDBRANCH  11  12
ENDBRANCH   1  11
TORSDOF 15
ENDMDL
MODEL 8
REMARK VINA RESULT:    -1.716      8.516     14.212
REMARK INTER + INTRA:          -3.783
REMARK INTER:                  -2.560
REMARK INTRA:                  -1.224
REMARK UNBOUND:                -0.564
REMARK SMILES O=C([O-])CCCCCCCCCCCCCCC(=O)[O-]
REMARK SMILES IDX 10 1 9 2 8 3 7 4 6 5 5 6 4 7 2 8 1 9 3 10 11 11 12 12 13 13
REMARK SMILES IDX 14 14 15 15 16 16 17 17 18 18 19 19 20 20
REMARK H PARENT
REMARK Flexibility Score: inf
ROOT
ATOM      1  C   UNL     1      10.785 -20.056 -15.615  1.00  0.00     0.000 C 
ENDROOT
BRANCH   1   2
ATOM      2  C   UNL     1      10.059 -20.871 -14.534  1.00  0.00     0.000 C 
BRANCH   2   3
ATOM      3  C   UNL     1       8.536 -20.718 -14.664  1.00  0.00     0.000 C 
BRANCH   3   4
ATOM      4  C   UNL     1       7.796 -22.065 -14.613  1.00  0.00     0.000 C 
BRANCH   4   5
ATOM      5  C   UNL     1       7.396 -22.570 -16.010  1.00  0.00     0.000 C 
BRANCH   5   6
ATOM      6  C   UNL     1       6.312 -21.698 -16.664  1.00  0.00     0.006 C 
BRANCH   6   7
ATOM      7  C   UNL     1       5.252 -21.220 -15.663  1.00  0.00     0.053 C 
BRANCH   7   8
ATOM      8  C   UNL     1       3.951 -21.919 -15.905  1.00  0.00     0.041 C 
ATOM      9  O   UNL     1       2.881 -21.443 -15.447  1.00  0.00    -0.550 OA
ATOM     10  O   UNL     1       3.929 -23.125 -16.595  1.00  0.00    -0.550 OA
ENDBRANCH   7   8
ENDBRANCH   6   7
ENDBRANCH   5   6
ENDBRANCH   4   5
ENDBRANCH   3   4
ENDBRANCH   2   3
ENDBRANCH   1   2
BRANCH   1  11
ATOM     11  C   UNL     1      10.863 -20.788 -16.967  1.00  0.00     0.000 C 
BRANCH  11  12
ATOM     12  C   UNL     1      11.119 -22.307 -16.876  1.00  0.00     0.000 C 
BRANCH  12  13
ATOM     13  C   UNL     1      11.125 -23.046 -18.225  1.00  0.00     0.000 C 
BRANCH  13  14
ATOM     14  C   UNL     1       9.766 -22.983 -18.944  1.00  0.00     0.000 C 
BRANCH  14  15
ATOM     15  C   UNL     1       9.906 -23.003 -20.474  1.00  0.00     0.000 C 
BRANCH  15  16
ATOM     16  C   UNL     1       8.544 -23.043 -21.189  1.00  0.00     0.006 C 
BRANCH  16  17
ATOM     17  C   UNL     1       8.524 -22.165 -22.447  1.00  0.00     0.053 C 
BRANCH  17  18
ATOM     18  C   UNL     1       9.461 -21.002 -22.330  1.00  0.00     0.041 C 
ATOM     19  O   UNL     1       9.215 -20.069 -21.520  1.00  0.00    -0.550 OA
ATOM     20  O   UNL     1      10.588 -20.931 -23.138  1.00  0.00    -0.550 OA
ENDBRANCH  17  18
ENDBRANCH  16  17
ENDBRANCH  15  16
ENDBRANCH  14  15
ENDBRANCH  13  14
ENDBRANCH  12  13
ENDBRANCH  11  12
ENDBRANCH   1  11
TORSDOF 15
ENDMDL
MODEL 9
REMARK VINA RESULT:    -0.206      1.752     12.259
REMARK INTER + INTRA:          -0.950
REMARK INTER:                  -0.581
REMARK INTRA:                  -0.368
REMARK UNBOUND:                -0.564
REMARK SMILES O=C([O-])CCCCCCCCCCCCCCC(=O)[O-]
REMARK SMILES IDX 10 1 9 2 8 3 7 4 6 5 5 6 4 7 2 8 1 9 3 10 11 11 12 12 13 13
REMARK SMILES IDX 14 14 15 15 16 16 17 17 18 18 19 19 20 20
REMARK H PARENT
REMARK Flexibility Score: inf
ROOT
ATOM      1  C   UNL     1      -0.862 -22.178 -15.596  1.00  0.00     0.000 C 
ENDROOT
BRANCH   1   2
ATOM      2  C   UNL     1      -1.634 -23.125 -14.665  1.00  0.00     0.000 C 
BRANCH   2   3
ATOM      3  C   UNL     1      -3.139 -23.088 -14.970  1.00  0.00     0.000 C 
BRANCH   3   4
ATOM      4  C   UNL     1      -4.000 -22.961 -13.702  1.00  0.00     0.000 C 
BRANCH   4   5
ATOM      5  C   UNL     1      -5.497 -22.803 -14.020  1.00  0.00     0.000 C 
BRANCH   5   6
ATOM      6  C   UNL     1      -6.328 -22.438 -12.779  1.00  0.00     0.006 C 
BRANCH   6   7
ATOM      7  C   UNL     1      -7.829 -22.334 -13.079  1.00  0.00     0.053 C 
BRANCH   7   8
ATOM      8  C   UNL     1      -8.216 -20.909 -13.322  1.00  0.00     0.041 C 
ATOM      9  O   UNL     1      -8.444 -20.506 -14.492  1.00  0.00    -0.550 OA
ATOM     10  O   UNL     1      -8.274 -20.014 -12.261  1.00  0.00    -0.550 OA
ENDBRANCH   7   8
ENDBRANCH   6   7
ENDBRANCH   5   6
ENDBRANCH   4   5
ENDBRANCH   3   4
ENDBRANCH   2   3
ENDBRANCH   1   2
BRANCH   1  11
ATOM     11  C   UNL     1       0.540 -22.701 -15.955  1.00  0.00     0.000 C 
BRANCH  11  12
ATOM     12  C   UNL     1       1.580 -21.611 -16.288  1.00  0.00     0.000 C 
BRANCH  12  13
ATOM     13  C   UNL     1       2.786 -21.551 -15.334  1.00  0.00     0.000 C 
BRANCH  13  14
ATOM     14  C   UNL     1       4.070 -22.120 -15.961  1.00  0.00     0.000 C 
BRANCH  14  15
ATOM     15  C   UNL     1       5.325 -21.331 -15.557  1.00  0.00     0.000 C 
BRANCH  15  16
ATOM     16  C   UNL     1       6.304 -21.142 -16.729  1.00  0.00     0.006 C 
BRANCH  16  17
ATOM     17  C   UNL     1       7.240 -22.347 -16.901  1.00  0.00     0.053 C 
BRANCH  17  18
ATOM     18  C   UNL     1       8.676 -21.930 -16.985  1.00  0.00     0.041 C 
ATOM     19  O   UNL     1       9.371 -22.250 -17.986  1.00  0.00    -0.550 OA
ATOM     20  O   UNL     1       9.257 -21.217 -15.944  1.00  0.00    -0.550 OA
ENDBRANCH  17  18
ENDBRANCH  16  17
ENDBRANCH  15  16
ENDBRANCH  14  15
ENDBRANCH  13  14
ENDBRANCH  12  13
ENDBRANCH  11  12
ENDBRANCH   1  11
TORSDOF 15
ENDMDL
