MODEL 1
REMARK VINA RESULT:    -4.123      0.000      0.000
REMARK INTER + INTRA:          -4.071
REMARK INTER:                  -5.087
REMARK INTRA:                   1.016
REMARK UNBOUND:                 1.016
REMARK SMILES C=C1[C@H]2CC[C@@H]3[C@H]2C(C)(C)CCC[C@]13C
REMARK SMILES IDX 14 1 6 2 7 3 3 4 2 5 1 6 4 7 5 8 15 9 8 10 9 11 10 12 11 13
REMARK SMILES IDX 13 15 12 16
REMARK H PARENT
REMARK Flexibility Score: 80.00
ROOT
ATOM      1  C   UNL     1     166.981 163.687 199.975  1.00  0.00    -0.008 C 
ATOM      2  C   UNL     1     167.629 164.152 198.614  1.00  0.00     0.003 C 
ATOM      3  C   UNL     1     168.760 165.119 199.030  1.00  0.00     0.006 C 
ATOM      4  C   UNL     1     169.389 164.136 200.009  1.00  0.00     0.019 C 
ATOM      5  C   UNL     1     168.209 163.748 200.855  1.00  0.00    -0.068 C 
ATOM      6  C   UNL     1     168.278 163.411 202.150  1.00  0.00     0.009 C 
ATOM      7  C   UNL     1     169.675 162.940 199.072  1.00  0.00     0.008 C 
ATOM      8  C   UNL     1     168.515 163.010 198.046  1.00  0.00     0.005 C 
ATOM      9  C   UNL     1     166.421 162.239 199.948  1.00  0.00     0.016 C 
ENDROOT
BRANCH   3  10
ATOM     10  C   UNL     1     168.428 166.577 199.529  1.00  0.00    -0.032 C 
ATOM     11  C   UNL     1     169.703 167.196 200.152  1.00  0.00     0.011 C 
ATOM     12  C   UNL     1     168.070 167.446 198.293  1.00  0.00     0.011 C 
BRANCH  10  13
ATOM     13  C   UNL     1     167.301 166.686 200.594  1.00  0.00     0.007 CG0
ATOM     14  G   UNL     1     165.961 166.089 200.163  1.00  0.00     0.000 G0
ENDBRANCH  10  13
ENDBRANCH   3  10
BRANCH   1  15
ATOM     15  C   UNL     1     165.831 164.612 200.471  1.00  0.00     0.011 C 
BRANCH  15  16
ATOM     16  C   UNL     1     165.958 166.103 200.168  1.00  0.00     0.001 CG0
ATOM     17  G   UNL     1     167.303 166.688 200.599  1.00  0.00     0.000 G0
ENDBRANCH  15  16
ENDBRANCH   1  15
TORSDOF 0
ENDMDL
MODEL 2
REMARK VINA RESULT:    -4.106      2.964      5.822
REMARK INTER + INTRA:          -4.051
REMARK INTER:                  -5.072
REMARK INTRA:                   1.022
REMARK UNBOUND:                 1.016
REMARK SMILES C=C1[C@H]2CC[C@@H]3[C@H]2C(C)(C)CCC[C@]13C
REMARK SMILES IDX 14 1 6 2 7 3 3 4 2 5 1 6 4 7 5 8 15 9 8 10 9 11 10 12 11 13
REMARK SMILES IDX 13 15 12 16
REMARK H PARENT
REMARK Flexibility Score: 80.00
ROOT
ATOM      1  C   UNL     1     165.106 168.574 199.933  1.00  0.00    -0.008 C 
ATOM      2  C   UNL     1     164.285 167.893 198.770  1.00  0.00     0.003 C 
ATOM      3  C   UNL     1     163.307 166.939 199.492  1.00  0.00     0.006 C 
ATOM      4  C   UNL     1     162.774 168.017 200.427  1.00  0.00     0.019 C 
ATOM      5  C   UNL     1     164.043 168.575 201.006  1.00  0.00    -0.068 C 
ATOM      6  C   UNL     1     164.157 169.085 202.240  1.00  0.00     0.009 C 
ATOM      7  C   UNL     1     162.257 169.056 199.405  1.00  0.00     0.008 C 
ATOM      8  C   UNL     1     163.240 168.900 198.217  1.00  0.00     0.005 C 
ATOM      9  C   UNL     1     165.551 170.030 199.626  1.00  0.00     0.016 C 
ENDROOT
BRANCH   3  10
ATOM     10  C   UNL     1     163.817 165.582 200.112  1.00  0.00    -0.032 C 
ATOM     11  C   UNL     1     162.703 164.992 201.011  1.00  0.00     0.011 C 
ATOM     12  C   UNL     1     164.037 164.570 198.955  1.00  0.00     0.011 C 
BRANCH  10  13
ATOM     13  C   UNL     1     165.102 165.678 200.980  1.00  0.00     0.007 CG0
ATOM     14  G   UNL     1     166.317 166.256 200.254  1.00  0.00     0.000 G0
ENDBRANCH  10  13
ENDBRANCH   3  10
BRANCH   1  15
ATOM     15  C   UNL     1     166.384 167.784 200.344  1.00  0.00     0.011 C 
BRANCH  15  16
ATOM     16  C   UNL     1     166.314 166.261 200.269  1.00  0.00     0.001 CG0
ATOM     17  G   UNL     1     165.096 165.682 200.989  1.00  0.00     0.000 G0
ENDBRANCH  15  16
ENDBRANCH   1  15
TORSDOF 0
ENDMDL
MODEL 3
REMARK VINA RESULT:    -3.984      2.003      3.636
REMARK INTER + INTRA:          -3.900
REMARK INTER:                  -4.910
REMARK INTRA:                   1.010
REMARK UNBOUND:                 1.016
REMARK SMILES C=C1[C@H]2CC[C@@H]3[C@H]2C(C)(C)CCC[C@]13C
REMARK SMILES IDX 14 1 6 2 7 3 3 4 2 5 1 6 4 7 5 8 15 9 8 10 9 11 10 12 11 13
REMARK SMILES IDX 13 15 12 16
REMARK H PARENT
REMARK Flexibility Score: 80.00
ROOT
ATOM      1  C   UNL     1     164.057 164.666 199.744  1.00  0.00    -0.008 C 
ATOM      2  C   UNL     1     164.510 164.109 198.339  1.00  0.00     0.003 C 
ATOM      3  C   UNL     1     165.705 163.181 198.654  1.00  0.00     0.006 C 
ATOM      4  C   UNL     1     164.947 162.385 199.710  1.00  0.00     0.019 C 
ATOM      5  C   UNL     1     164.425 163.477 200.601  1.00  0.00    -0.068 C 
ATOM      6  C   UNL     1     164.225 163.353 201.920  1.00  0.00     0.009 C 
ATOM      7  C   UNL     1     163.746 161.876 198.881  1.00  0.00     0.008 C 
ATOM      8  C   UNL     1     163.507 163.023 197.866  1.00  0.00     0.005 C 
ATOM      9  C   UNL     1     162.534 164.947 199.853  1.00  0.00     0.016 C 
ENDROOT
BRANCH   3  10
ATOM     10  C   UNL     1     167.114 163.781 199.025  1.00  0.00    -0.032 C 
ATOM     11  C   UNL     1     168.012 162.648 199.579  1.00  0.00     0.011 C 
ATOM     12  C   UNL     1     167.788 164.284 197.719  1.00  0.00     0.011 C 
BRANCH  10  13
ATOM     13  C   UNL     1     167.106 164.917 200.085  1.00  0.00     0.007 CG0
ATOM     14  G   UNL     1     166.249 166.127 199.713  1.00  0.00     0.000 G0
ENDBRANCH  10  13
ENDBRANCH   3  10
BRANCH   1  15
ATOM     15  C   UNL     1     164.793 165.972 200.168  1.00  0.00     0.011 C 
BRANCH  15  16
ATOM     16  C   UNL     1     166.246 166.126 199.725  1.00  0.00     0.001 CG0
ATOM     17  G   UNL     1     167.114 164.922 200.090  1.00  0.00     0.000 G0
ENDBRANCH  15  16
ENDBRANCH   1  15
TORSDOF 0
ENDMDL
MODEL 4
REMARK VINA RESULT:    -3.983      3.040      5.308
REMARK INTER + INTRA:          -3.899
REMARK INTER:                  -4.903
REMARK INTRA:                   1.004
REMARK UNBOUND:                 1.016
REMARK SMILES C=C1[C@H]2CC[C@@H]3[C@H]2C(C)(C)CCC[C@]13C
REMARK SMILES IDX 14 1 6 2 7 3 3 4 2 5 1 6 4 7 5 8 15 9 8 10 9 11 10 12 11 13
REMARK SMILES IDX 13 15 12 16
REMARK H PARENT
REMARK Flexibility Score: 80.00
ROOT
ATOM      1  C   UNL     1     164.396 167.189 201.517  1.00  0.00    -0.008 C 
ATOM      2  C   UNL     1     165.655 167.868 202.183  1.00  0.00     0.003 C 
ATOM      3  C   UNL     1     165.999 169.051 201.250  1.00  0.00     0.006 C 
ATOM      4  C   UNL     1     164.585 169.618 201.270  1.00  0.00     0.019 C 
ATOM      5  C   UNL     1     163.767 168.415 200.896  1.00  0.00    -0.068 C 
ATOM      6  C   UNL     1     162.614 168.460 200.215  1.00  0.00     0.009 C 
ATOM      7  C   UNL     1     164.384 169.838 202.786  1.00  0.00     0.008 C 
ATOM      8  C   UNL     1     165.207 168.689 203.422  1.00  0.00     0.005 C 
ATOM      9  C   UNL     1     163.413 166.547 202.532  1.00  0.00     0.016 C 
ENDROOT
BRANCH   3  10
ATOM     10  C   UNL     1     166.696 168.802 199.859  1.00  0.00    -0.032 C 
ATOM     11  C   UNL     1     166.635 170.107 199.027  1.00  0.00     0.011 C 
ATOM     12  C   UNL     1     168.200 168.508 200.112  1.00  0.00     0.011 C 
BRANCH  10  13
ATOM     13  C   UNL     1     166.078 167.675 198.986  1.00  0.00     0.007 CG0
ATOM     14  G   UNL     1     166.037 166.302 199.659  1.00  0.00     0.000 G0
ENDBRANCH  10  13
ENDBRANCH   3  10
BRANCH   1  15
ATOM     15  C   UNL     1     164.753 166.093 200.471  1.00  0.00     0.011 C 
BRANCH  15  16
ATOM     16  C   UNL     1     166.025 166.301 199.652  1.00  0.00     0.001 CG0
ATOM     17  G   UNL     1     166.081 167.670 198.972  1.00  0.00     0.000 G0
ENDBRANCH  15  16
ENDBRANCH   1  15
TORSDOF 0
ENDMDL
MODEL 5
REMARK VINA RESULT:    -3.960      2.964      4.803
REMARK INTER + INTRA:          -3.871
REMARK INTER:                  -4.875
REMARK INTRA:                   1.004
REMARK UNBOUND:                 1.016
REMARK SMILES C=C1[C@H]2CC[C@@H]3[C@H]2C(C)(C)CCC[C@]13C
REMARK SMILES IDX 14 1 6 2 7 3 3 4 2 5 1 6 4 7 5 8 15 9 8 10 9 11 10 12 11 13
REMARK SMILES IDX 13 15 12 16
REMARK H PARENT
REMARK Flexibility Score: 80.00
ROOT
ATOM      1  C   UNL     1     167.067 167.485 198.411  1.00  0.00    -0.008 C 
ATOM      2  C   UNL     1     166.187 168.639 197.791  1.00  0.00     0.003 C 
ATOM      3  C   UNL     1     165.709 169.462 199.009  1.00  0.00     0.006 C 
ATOM      4  C   UNL     1     167.112 169.638 199.577  1.00  0.00     0.019 C 
ATOM      5  C   UNL     1     167.608 168.220 199.615  1.00  0.00    -0.068 C 
ATOM      6  C   UNL     1     168.473 167.741 200.518  1.00  0.00     0.009 C 
ATOM      7  C   UNL     1     167.821 170.324 198.387  1.00  0.00     0.008 C 
ATOM      8  C   UNL     1     167.112 169.710 197.153  1.00  0.00     0.005 C 
ATOM      9  C   UNL     1     168.238 167.025 197.502  1.00  0.00     0.016 C 
ENDROOT
BRANCH   3  10
ATOM     10  C   UNL     1     164.572 168.914 199.954  1.00  0.00    -0.032 C 
ATOM     11  C   UNL     1     164.524 169.782 201.235  1.00  0.00     0.011 C 
ATOM     12  C   UNL     1     163.209 169.105 199.236  1.00  0.00     0.011 C 
BRANCH  10  13
ATOM     13  C   UNL     1     164.727 167.436 200.409  1.00  0.00     0.007 CG0
ATOM     14  G   UNL     1     164.820 166.426 199.265  1.00  0.00     0.000 G0
ENDBRANCH  10  13
ENDBRANCH   3  10
BRANCH   1  15
ATOM     15  C   UNL     1     166.255 166.211 198.789  1.00  0.00     0.011 C 
BRANCH  15  16
ATOM     16  C   UNL     1     164.822 166.418 199.273  1.00  0.00     0.001 CG0
ATOM     17  G   UNL     1     164.716 167.431 200.414  1.00  0.00     0.000 G0
ENDBRANCH  15  16
ENDBRANCH   1  15
TORSDOF 0
ENDMDL
MODEL 6
REMARK VINA RESULT:    -3.942      1.605      3.821
REMARK INTER + INTRA:          -3.847
REMARK INTER:                  -4.864
REMARK INTRA:                   1.016
REMARK UNBOUND:                 1.016
REMARK SMILES C=C1[C@H]2CC[C@@H]3[C@H]2C(C)(C)CCC[C@]13C
REMARK SMILES IDX 14 1 6 2 7 3 3 4 2 5 1 6 4 7 5 8 15 9 8 10 9 11 10 12 11 13
REMARK SMILES IDX 13 15 12 16
REMARK H PARENT
REMARK Flexibility Score: 80.00
ROOT
ATOM      1  C   UNL     1     167.597 164.780 200.792  1.00  0.00    -0.008 C 
ATOM      2  C   UNL     1     166.315 164.213 201.517  1.00  0.00     0.003 C 
ATOM      3  C   UNL     1     165.900 162.987 200.672  1.00  0.00     0.006 C 
ATOM      4  C   UNL     1     167.284 162.352 200.715  1.00  0.00     0.019 C 
ATOM      5  C   UNL     1     168.156 163.484 200.250  1.00  0.00    -0.068 C 
ATOM      6  C   UNL     1     169.295 163.335 199.561  1.00  0.00     0.009 C 
ATOM      7  C   UNL     1     167.496 162.226 202.241  1.00  0.00     0.008 C 
ATOM      8  C   UNL     1     166.741 163.457 202.805  1.00  0.00     0.005 C 
ATOM      9  C   UNL     1     168.625 165.440 201.750  1.00  0.00     0.016 C 
ENDROOT
BRANCH   3  10
ATOM     10  C   UNL     1     165.195 163.175 199.274  1.00  0.00    -0.032 C 
ATOM     11  C   UNL     1     165.176 161.815 198.536  1.00  0.00     0.011 C 
ATOM     12  C   UNL     1     163.713 163.566 199.524  1.00  0.00     0.011 C 
BRANCH  10  13
ATOM     13  C   UNL     1     165.858 164.205 198.318  1.00  0.00     0.007 CG0
ATOM     14  G   UNL     1     165.965 165.621 198.885  1.00  0.00     0.000 G0
ENDBRANCH  10  13
ENDBRANCH   3  10
BRANCH   1  15
ATOM     15  C   UNL     1     167.279 165.819 199.677  1.00  0.00     0.011 C 
BRANCH  15  16
ATOM     16  C   UNL     1     165.988 165.619 198.887  1.00  0.00     0.001 CG0
ATOM     17  G   UNL     1     165.847 164.206 198.320  1.00  0.00     0.000 G0
ENDBRANCH  15  16
ENDBRANCH   1  15
TORSDOF 0
ENDMDL
MODEL 7
REMARK VINA RESULT:    -3.890      2.916      5.260
REMARK INTER + INTRA:          -3.783
REMARK INTER:                  -4.806
REMARK INTRA:                   1.022
REMARK UNBOUND:                 1.016
REMARK SMILES C=C1[C@H]2CC[C@@H]3[C@H]2C(C)(C)CCC[C@]13C
REMARK SMILES IDX 14 1 6 2 7 3 3 4 2 5 1 6 4 7 5 8 15 9 8 10 9 11 10 12 11 13
REMARK SMILES IDX 13 15 12 16
REMARK H PARENT
REMARK Flexibility Score: 80.00
ROOT
ATOM      1  C   UNL     1     163.963 166.592 199.292  1.00  0.00    -0.008 C 
ATOM      2  C   UNL     1     164.045 167.878 200.201  1.00  0.00     0.003 C 
ATOM      3  C   UNL     1     164.778 168.924 199.332  1.00  0.00     0.006 C 
ATOM      4  C   UNL     1     163.843 168.750 198.142  1.00  0.00     0.019 C 
ATOM      5  C   UNL     1     163.877 167.262 197.940  1.00  0.00    -0.068 C 
ATOM      6  C   UNL     1     163.741 166.651 196.755  1.00  0.00     0.009 C 
ATOM      7  C   UNL     1     162.481 169.079 198.795  1.00  0.00     0.008 C 
ATOM      8  C   UNL     1     162.655 168.568 200.248  1.00  0.00     0.005 C 
ATOM      9  C   UNL     1     162.698 165.725 199.534  1.00  0.00     0.016 C 
ENDROOT
BRANCH   3  10
ATOM     10  C   UNL     1     166.333 168.825 199.094  1.00  0.00    -0.032 C 
ATOM     11  C   UNL     1     166.732 169.807 197.966  1.00  0.00     0.011 C 
ATOM     12  C   UNL     1     167.055 169.309 200.381  1.00  0.00     0.011 C 
BRANCH  10  13
ATOM     13  C   UNL     1     166.865 167.422 198.687  1.00  0.00     0.007 CG0
ATOM     14  G   UNL     1     166.558 166.311 199.691  1.00  0.00     0.000 G0
ENDBRANCH  10  13
ENDBRANCH   3  10
BRANCH   1  15
ATOM     15  C   UNL     1     165.195 165.648 199.426  1.00  0.00     0.011 C 
BRANCH  15  16
ATOM     16  C   UNL     1     166.548 166.306 199.686  1.00  0.00     0.001 CG0
ATOM     17  G   UNL     1     166.873 167.420 198.690  1.00  0.00     0.000 G0
ENDBRANCH  15  16
ENDBRANCH   1  15
TORSDOF 0
ENDMDL
MODEL 8
REMARK VINA RESULT:    -3.870      1.289      3.641
REMARK INTER + INTRA:          -3.759
REMARK INTER:                  -4.780
REMARK INTRA:                   1.022
REMARK UNBOUND:                 1.016
REMARK SMILES C=C1[C@H]2CC[C@@H]3[C@H]2C(C)(C)CCC[C@]13C
REMARK SMILES IDX 14 1 6 2 7 3 3 4 2 5 1 6 4 7 5 8 15 9 8 10 9 11 10 12 11 13
REMARK SMILES IDX 13 15 12 16
REMARK H PARENT
REMARK Flexibility Score: 80.00
ROOT
ATOM      1  C   UNL     1     167.996 165.442 199.505  1.00  0.00    -0.008 C 
ATOM      2  C   UNL     1     167.935 164.129 200.379  1.00  0.00     0.003 C 
ATOM      3  C   UNL     1     167.189 163.106 199.494  1.00  0.00     0.006 C 
ATOM      4  C   UNL     1     168.101 163.317 198.292  1.00  0.00     0.019 C 
ATOM      5  C   UNL     1     168.059 164.810 198.133  1.00  0.00    -0.068 C 
ATOM      6  C   UNL     1     168.170 165.455 196.964  1.00  0.00     0.009 C 
ATOM      7  C   UNL     1     169.476 162.975 198.910  1.00  0.00     0.008 C 
ATOM      8  C   UNL     1     169.328 163.444 200.380  1.00  0.00     0.005 C 
ATOM      9  C   UNL     1     169.263 166.306 199.748  1.00  0.00     0.016 C 
ENDROOT
BRANCH   3  10
ATOM     10  C   UNL     1     165.629 163.206 199.288  1.00  0.00    -0.032 C 
ATOM     11  C   UNL     1     165.212 162.252 198.143  1.00  0.00     0.011 C 
ATOM     12  C   UNL     1     164.934 162.686 200.575  1.00  0.00     0.011 C 
BRANCH  10  13
ATOM     13  C   UNL     1     165.085 164.617 198.928  1.00  0.00     0.007 CG0
ATOM     14  G   UNL     1     165.424 165.707 199.946  1.00  0.00     0.000 G0
ENDBRANCH  10  13
ENDBRANCH   3  10
BRANCH   1  15
ATOM     15  C   UNL     1     166.764 166.376 199.689  1.00  0.00     0.011 C 
BRANCH  15  16
ATOM     16  C   UNL     1     165.416 165.706 199.946  1.00  0.00     0.001 CG0
ATOM     17  G   UNL     1     165.083 164.620 198.923  1.00  0.00     0.000 G0
ENDBRANCH  15  16
ENDBRANCH   1  15
TORSDOF 0
ENDMDL
MODEL 9
REMARK VINA RESULT:    -3.774      3.346      5.732
REMARK INTER + INTRA:          -3.641
REMARK INTER:                  -4.663
REMARK INTRA:                   1.022
REMARK UNBOUND:                 1.016
REMARK SMILES C=C1[C@H]2CC[C@@H]3[C@H]2C(C)(C)CCC[C@]13C
REMARK SMILES IDX 14 1 6 2 7 3 3 4 2 5 1 6 4 7 5 8 15 9 8 10 9 11 10 12 11 13
REMARK SMILES IDX 13 15 12 16
REMARK H PARENT
REMARK Flexibility Score: 80.00
ROOT
ATOM      1  C   UNL     1     164.784 167.188 199.613  1.00  0.00    -0.008 C 
ATOM      2  C   UNL     1     163.423 167.183 200.410  1.00  0.00     0.003 C 
ATOM      3  C   UNL     1     163.469 168.468 201.269  1.00  0.00     0.006 C 
ATOM      4  C   UNL     1     163.789 169.375 200.088  1.00  0.00     0.019 C 
ATOM      5  C   UNL     1     164.977 168.682 199.481  1.00  0.00    -0.068 C 
ATOM      6  C   UNL     1     165.975 169.303 198.839  1.00  0.00     0.009 C 
ATOM      7  C   UNL     1     162.585 169.083 199.164  1.00  0.00     0.008 C 
ATOM      8  C   UNL     1     162.266 167.595 199.461  1.00  0.00     0.005 C 
ATOM      9  C   UNL     1     164.696 166.540 198.205  1.00  0.00     0.016 C 
ENDROOT
BRANCH   3  10
ATOM     10  C   UNL     1     164.379 168.545 202.553  1.00  0.00    -0.032 C 
ATOM     11  C   UNL     1     164.452 170.016 203.028  1.00  0.00     0.011 C 
ATOM     12  C   UNL     1     163.687 167.745 203.690  1.00  0.00     0.011 C 
BRANCH  10  13
ATOM     13  C   UNL     1     165.842 168.050 202.374  1.00  0.00     0.007 CG0
ATOM     14  G   UNL     1     165.968 166.603 201.895  1.00  0.00     0.000 G0
ENDBRANCH  10  13
ENDBRANCH   3  10
BRANCH   1  15
ATOM     15  C   UNL     1     165.955 166.489 200.366  1.00  0.00     0.011 C 
BRANCH  15  16
ATOM     16  C   UNL     1     165.973 166.609 201.887  1.00  0.00     0.001 CG0
ATOM     17  G   UNL     1     165.835 168.051 202.375  1.00  0.00     0.000 G0
ENDBRANCH  15  16
ENDBRANCH   1  15
TORSDOF 0
ENDMDL
