MODEL 1
REMARK VINA RESULT:    -8.018      0.000      0.000
REMARK INTER + INTRA:          -8.253
REMARK INTER:                  -8.253
REMARK INTRA:                   0.000
REMARK UNBOUND:                 0.000
REMARK SMILES C[C@@H]1CC[C@@]2(OC1)O[C@H]1C[C@@H]3[C@H]4CC=C5C[C@@H](O)CC[C@@]5(C)[C@H]4CC[C@]3(C)[C@@H]1[C@@H]2C
REMARK SMILES IDX 1 1 2 2 3 3 4 4 5 5 29 6 28 7 9 8 8 9 10 10 11 11 26 12
REMARK SMILES IDX 25 13 24 14 23 15 12 16 13 17 14 18 15 19 21 20 20 21 19 22
REMARK SMILES IDX 17 23 16 24 22 25 27 26 30 27 6 28 7 29 18 30
REMARK H PARENT 18 31
REMARK Flexibility Score: inf
ROOT
ATOM      1  C   UNL     1      28.547   9.625  23.915  1.00  0.00     0.010 C 
ATOM      2  C   UNL     1      28.659  10.524  25.152  1.00  0.00     0.012 C 
ATOM      3  C   UNL     1      30.126  10.723  25.550  1.00  0.00     0.011 C 
ATOM      4  C   UNL     1      30.211  11.509  26.858  1.00  0.00     0.066 C 
ATOM      5  C   UNL     1      29.322  10.865  27.950  1.00  0.00     0.171 C 
ATOM      6  C   UNL     1      29.380  11.750  29.259  1.00  0.00     0.052 C 
ATOM      7  C   UNL     1      30.237  10.847  30.131  1.00  0.00     0.033 C 
ATOM      8  C   UNL     1      29.812   9.514  29.668  1.00  0.00     0.126 C 
ATOM      9  O   UNL     1      29.841   9.568  28.270  1.00  0.00    -0.346 OA
ATOM     10  C   UNL     1      30.798   8.599  30.359  1.00  0.00     0.037 C 
ATOM     11  C   UNL     1      30.819   9.165  31.815  1.00  0.00     0.002 C 
ATOM     12  C   UNL     1      30.448  10.697  31.667  1.00  0.00    -0.024 C 
ATOM     13  C   UNL     1      29.215  11.059  32.516  1.00  0.00     0.008 C 
ATOM     14  C   UNL     1      29.354  10.514  33.936  1.00  0.00     0.005 C 
ATOM     15  C   UNL     1      29.190   8.982  33.976  1.00  0.00     0.003 C 
ATOM     16  C   UNL     1      29.875   8.283  32.728  1.00  0.00     0.000 C 
ATOM     17  C   UNL     1      30.611   6.977  33.096  1.00  0.00     0.031 C 
ATOM     18  C   UNL     1      31.419   7.132  34.344  1.00  0.00    -0.027 C 
ATOM     19  C   UNL     1      30.916   7.735  35.435  1.00  0.00    -0.065 C 
ATOM     20  C   UNL     1      29.494   8.314  35.399  1.00  0.00    -0.008 C 
ATOM     21  C   UNL     1      29.295   9.325  36.584  1.00  0.00     0.014 C 
ATOM     22  C   UNL     1      29.837   8.816  37.923  1.00  0.00     0.033 C 
ATOM     23  C   UNL     1      31.344   8.553  37.819  1.00  0.00     0.118 C 
ATOM     24  C   UNL     1      31.639   7.497  36.752  1.00  0.00     0.063 C 
ATOM     25  C   UNL     1      28.490   7.147  35.630  1.00  0.00     0.016 C 
ATOM     26  C   UNL     1      31.651  11.595  32.079  1.00  0.00     0.012 C 
ATOM     27  C   UNL     1      27.990  12.114  29.810  1.00  0.00     0.014 C 
ATOM     28  O   UNL     1      27.979  10.756  27.482  1.00  0.00    -0.349 OA
ATOM     29  C   UNL     1      27.883   9.925  26.337  1.00  0.00     0.167 C 
ENDROOT
BRANCH  23  30
ATOM     30  O   UNL     1      32.038   9.736  37.513  1.00  0.00    -0.393 OA
ATOM     31  H   UNL     1      31.590  10.469  38.010  1.00  0.00     0.210 HD
ENDBRANCH  23  30
TORSDOF 1
ENDMDL
MODEL 2
REMARK VINA RESULT:    -7.711      2.126      9.294
REMARK INTER + INTRA:          -7.936
REMARK INTER:                  -7.936
REMARK INTRA:                   0.000
REMARK UNBOUND:                 0.000
REMARK SMILES C[C@@H]1CC[C@@]2(OC1)O[C@H]1C[C@@H]3[C@H]4CC=C5C[C@@H](O)CC[C@@]5(C)[C@H]4CC[C@]3(C)[C@@H]1[C@@H]2C
REMARK SMILES IDX 1 1 2 2 3 3 4 4 5 5 29 6 28 7 9 8 8 9 10 10 11 11 26 12
REMARK SMILES IDX 25 13 24 14 23 15 12 16 13 17 14 18 15 19 21 20 20 21 19 22
REMARK SMILES IDX 17 23 16 24 22 25 27 26 30 27 6 28 7 29 18 30
REMARK H PARENT 18 31
REMARK Flexibility Score: inf
ROOT
ATOM      1  C   UNL     1      31.594   7.053  34.724  1.00  0.00     0.010 C 
ATOM      2  C   UNL     1      31.237   8.415  34.120  1.00  0.00     0.012 C 
ATOM      3  C   UNL     1      29.740   8.495  33.800  1.00  0.00     0.011 C 
ATOM      4  C   UNL     1      29.428   9.807  33.079  1.00  0.00     0.066 C 
ATOM      5  C   UNL     1      30.365  10.007  31.863  1.00  0.00     0.171 C 
ATOM      6  C   UNL     1      30.061  11.406  31.194  1.00  0.00     0.052 C 
ATOM      7  C   UNL     1      29.353  10.931  29.935  1.00  0.00     0.033 C 
ATOM      8  C   UNL     1      30.060   9.664  29.670  1.00  0.00     0.126 C 
ATOM      9  O   UNL     1      30.098   8.985  30.893  1.00  0.00    -0.346 OA
ATOM     10  C   UNL     1      29.239   9.060  28.554  1.00  0.00     0.037 C 
ATOM     11  C   UNL     1      29.026  10.276  27.597  1.00  0.00     0.002 C 
ATOM     12  C   UNL     1      29.092  11.552  28.532  1.00  0.00    -0.024 C 
ATOM     13  C   UNL     1      30.180  12.536  28.059  1.00  0.00     0.008 C 
ATOM     14  C   UNL     1      30.073  12.783  26.556  1.00  0.00     0.005 C 
ATOM     15  C   UNL     1      30.536  11.557  25.744  1.00  0.00     0.003 C 
ATOM     16  C   UNL     1      30.074  10.197  26.415  1.00  0.00     0.000 C 
ATOM     17  C   UNL     1      29.593   9.150  25.388  1.00  0.00     0.031 C 
ATOM     18  C   UNL     1      28.702   9.760  24.354  1.00  0.00    -0.027 C 
ATOM     19  C   UNL     1      29.015  10.924  23.758  1.00  0.00    -0.065 C 
ATOM     20  C   UNL     1      30.293  11.671  24.165  1.00  0.00    -0.008 C 
ATOM     21  C   UNL     1      30.221  13.163  23.682  1.00  0.00     0.014 C 
ATOM     22  C   UNL     1      29.718  13.319  22.243  1.00  0.00     0.033 C 
ATOM     23  C   UNL     1      28.301  12.747  22.113  1.00  0.00     0.118 C 
ATOM     24  C   UNL     1      28.282  11.259  22.467  1.00  0.00     0.063 C 
ATOM     25  C   UNL     1      31.494  11.015  23.425  1.00  0.00     0.016 C 
ATOM     26  C   UNL     1      27.713  12.274  28.573  1.00  0.00     0.012 C 
ATOM     27  C   UNL     1      31.318  12.268  30.987  1.00  0.00     0.014 C 
ATOM     28  O   UNL     1      31.728   9.941  32.282  1.00  0.00    -0.349 OA
ATOM     29  C   UNL     1      32.050   8.679  32.841  1.00  0.00     0.167 C 
ENDROOT
BRANCH  23  30
ATOM     30  O   UNL     1      27.404  13.439  22.944  1.00  0.00    -0.393 OA
ATOM     31  H   UNL     1      27.896  14.220  23.310  1.00  0.00     0.210 HD
ENDBRANCH  23  30
TORSDOF 1
ENDMDL
MODEL 3
REMARK VINA RESULT:    -6.794      5.349      9.719
REMARK INTER + INTRA:          -6.993
REMARK INTER:                  -6.993
REMARK INTRA:                   0.000
REMARK UNBOUND:                 0.000
REMARK SMILES C[C@@H]1CC[C@@]2(OC1)O[C@H]1C[C@@H]3[C@H]4CC=C5C[C@@H](O)CC[C@@]5(C)[C@H]4CC[C@]3(C)[C@@H]1[C@@H]2C
REMARK SMILES IDX 1 1 2 2 3 3 4 4 5 5 29 6 28 7 9 8 8 9 10 10 11 11 26 12
REMARK SMILES IDX 25 13 24 14 23 15 12 16 13 17 14 18 15 19 21 20 20 21 19 22
REMARK SMILES IDX 17 23 16 24 22 25 27 26 30 27 6 28 7 29 18 30
REMARK H PARENT 18 31
REMARK Flexibility Score: inf
ROOT
ATOM      1  C   UNL     1      26.639  17.089  31.527  1.00  0.00     0.010 C 
ATOM      2  C   UNL     1      26.555  15.599  31.179  1.00  0.00     0.012 C 
ATOM      3  C   UNL     1      27.875  14.888  31.500  1.00  0.00     0.011 C 
ATOM      4  C   UNL     1      27.817  13.437  31.024  1.00  0.00     0.066 C 
ATOM      5  C   UNL     1      27.379  13.357  29.541  1.00  0.00     0.171 C 
ATOM      6  C   UNL     1      27.259  11.840  29.113  1.00  0.00     0.052 C 
ATOM      7  C   UNL     1      28.495  11.732  28.233  1.00  0.00     0.033 C 
ATOM      8  C   UNL     1      28.551  13.085  27.651  1.00  0.00     0.126 C 
ATOM      9  O   UNL     1      28.385  13.969  28.723  1.00  0.00    -0.346 OA
ATOM     10  C   UNL     1      29.886  13.079  26.942  1.00  0.00     0.037 C 
ATOM     11  C   UNL     1      29.871  11.701  26.206  1.00  0.00     0.002 C 
ATOM     12  C   UNL     1      28.934  10.776  27.086  1.00  0.00    -0.024 C 
ATOM     13  C   UNL     1      27.770  10.206  26.252  1.00  0.00     0.008 C 
ATOM     14  C   UNL     1      28.279   9.625  24.935  1.00  0.00     0.005 C 
ATOM     15  C   UNL     1      28.712  10.733  23.954  1.00  0.00     0.003 C 
ATOM     16  C   UNL     1      29.451  11.923  24.698  1.00  0.00     0.000 C 
ATOM     17  C   UNL     1      30.664  12.464  23.914  1.00  0.00     0.031 C 
ATOM     18  C   UNL     1      31.502  11.356  23.359  1.00  0.00    -0.027 C 
ATOM     19  C   UNL     1      30.946  10.302  22.736  1.00  0.00    -0.065 C 
ATOM     20  C   UNL     1      29.418  10.204  22.618  1.00  0.00    -0.008 C 
ATOM     21  C   UNL     1      29.000   8.732  22.268  1.00  0.00     0.014 C 
ATOM     22  C   UNL     1      29.855   8.095  21.167  1.00  0.00     0.033 C 
ATOM     23  C   UNL     1      31.324   8.042  21.602  1.00  0.00     0.118 C 
ATOM     24  C   UNL     1      31.861   9.448  21.871  1.00  0.00     0.063 C 
ATOM     25  C   UNL     1      28.966  11.096  21.425  1.00  0.00     0.016 C 
ATOM     26  C   UNL     1      29.750   9.609  27.715  1.00  0.00     0.012 C 
ATOM     27  C   UNL     1      25.915  11.500  28.448  1.00  0.00     0.014 C 
ATOM     28  O   UNL     1      26.130  14.024  29.366  1.00  0.00    -0.349 OA
ATOM     29  C   UNL     1      26.215  15.401  29.692  1.00  0.00     0.167 C 
ENDROOT
BRANCH  23  30
ATOM     30  O   UNL     1      31.476   7.253  22.755  1.00  0.00    -0.393 OA
ATOM     31  H   UNL     1      31.561   6.312  22.449  1.00  0.00     0.210 HD
ENDBRANCH  23  30
TORSDOF 1
ENDMDL
MODEL 4
REMARK VINA RESULT:    -6.768      5.850      7.224
REMARK INTER + INTRA:          -6.966
REMARK INTER:                  -6.966
REMARK INTRA:                   0.000
REMARK UNBOUND:                 0.000
REMARK SMILES C[C@@H]1CC[C@@]2(OC1)O[C@H]1C[C@@H]3[C@H]4CC=C5C[C@@H](O)CC[C@@]5(C)[C@H]4CC[C@]3(C)[C@@H]1[C@@H]2C
REMARK SMILES IDX 1 1 2 2 3 3 4 4 5 5 29 6 28 7 9 8 8 9 10 10 11 11 26 12
REMARK SMILES IDX 25 13 24 14 23 15 12 16 13 17 14 18 15 19 21 20 20 21 19 22
REMARK SMILES IDX 17 23 16 24 22 25 27 26 30 27 6 28 7 29 18 30
REMARK H PARENT 18 31
REMARK Flexibility Score: inf
ROOT
ATOM      1  C   UNL     1      29.622   7.000  21.024  1.00  0.00     0.010 C 
ATOM      2  C   UNL     1      30.146   8.290  21.665  1.00  0.00     0.012 C 
ATOM      3  C   UNL     1      30.853   7.992  22.992  1.00  0.00     0.011 C 
ATOM      4  C   UNL     1      31.250   9.299  23.679  1.00  0.00     0.066 C 
ATOM      5  C   UNL     1      30.039  10.257  23.788  1.00  0.00     0.171 C 
ATOM      6  C   UNL     1      30.510  11.622  24.433  1.00  0.00     0.052 C 
ATOM      7  C   UNL     1      29.880  11.476  25.809  1.00  0.00     0.033 C 
ATOM      8  C   UNL     1      28.654  10.725  25.485  1.00  0.00     0.126 C 
ATOM      9  O   UNL     1      29.057   9.674  24.655  1.00  0.00    -0.346 OA
ATOM     10  C   UNL     1      28.115  10.375  26.854  1.00  0.00     0.037 C 
ATOM     11  C   UNL     1      28.256  11.726  27.627  1.00  0.00     0.002 C 
ATOM     12  C   UNL     1      29.463  12.475  26.928  1.00  0.00    -0.024 C 
ATOM     13  C   UNL     1      29.037  13.863  26.413  1.00  0.00     0.008 C 
ATOM     14  C   UNL     1      28.274  14.631  27.490  1.00  0.00     0.005 C 
ATOM     15  C   UNL     1      26.863  14.051  27.712  1.00  0.00     0.003 C 
ATOM     16  C   UNL     1      26.859  12.467  27.636  1.00  0.00     0.000 C 
ATOM     17  C   UNL     1      25.952  11.814  28.700  1.00  0.00     0.031 C 
ATOM     18  C   UNL     1      26.128  12.451  30.041  1.00  0.00    -0.027 C 
ATOM     19  C   UNL     1      26.166  13.788  30.183  1.00  0.00    -0.065 C 
ATOM     20  C   UNL     1      26.064  14.689  28.944  1.00  0.00    -0.008 C 
ATOM     21  C   UNL     1      26.564  16.137  29.290  1.00  0.00     0.014 C 
ATOM     22  C   UNL     1      26.026  16.671  30.622  1.00  0.00     0.033 C 
ATOM     23  C   UNL     1      26.473  15.764  31.775  1.00  0.00     0.118 C 
ATOM     24  C   UNL     1      25.946  14.342  31.583  1.00  0.00     0.063 C 
ATOM     25  C   UNL     1      24.562  14.813  28.557  1.00  0.00     0.016 C 
ATOM     26  C   UNL     1      30.659  12.625  27.912  1.00  0.00     0.012 C 
ATOM     27  C   UNL     1      30.091  12.857  23.618  1.00  0.00     0.014 C 
ATOM     28  O   UNL     1      29.480  10.485  22.495  1.00  0.00    -0.349 OA
ATOM     29  C   UNL     1      29.000   9.287  21.908  1.00  0.00     0.167 C 
ENDROOT
BRANCH  23  30
ATOM     30  O   UNL     1      27.875  15.736  31.875  1.00  0.00    -0.393 OA
ATOM     31  H   UNL     1      28.227  16.272  31.116  1.00  0.00     0.210 HD
ENDBRANCH  23  30
TORSDOF 1
ENDMDL
MODEL 5
REMARK VINA RESULT:    -6.343      4.360      8.779
REMARK INTER + INTRA:          -6.528
REMARK INTER:                  -6.528
REMARK INTRA:                   0.000
REMARK UNBOUND:                 0.000
REMARK SMILES C[C@@H]1CC[C@@]2(OC1)O[C@H]1C[C@@H]3[C@H]4CC=C5C[C@@H](O)CC[C@@]5(C)[C@H]4CC[C@]3(C)[C@@H]1[C@@H]2C
REMARK SMILES IDX 1 1 2 2 3 3 4 4 5 5 29 6 28 7 9 8 8 9 10 10 11 11 26 12
REMARK SMILES IDX 25 13 24 14 23 15 12 16 13 17 14 18 15 19 21 20 20 21 19 22
REMARK SMILES IDX 17 23 16 24 22 25 27 26 30 27 6 28 7 29 18 30
REMARK H PARENT 18 31
REMARK Flexibility Score: inf
ROOT
ATOM      1  C   UNL     1      32.759   9.906  33.757  1.00  0.00     0.010 C 
ATOM      2  C   UNL     1      32.174  10.314  32.401  1.00  0.00     0.012 C 
ATOM      3  C   UNL     1      32.009  11.836  32.313  1.00  0.00     0.011 C 
ATOM      4  C   UNL     1      31.304  12.211  31.010  1.00  0.00     0.066 C 
ATOM      5  C   UNL     1      29.994  11.404  30.836  1.00  0.00     0.171 C 
ATOM      6  C   UNL     1      29.337  11.766  29.445  1.00  0.00     0.052 C 
ATOM      7  C   UNL     1      28.167  12.604  29.933  1.00  0.00     0.033 C 
ATOM      8  C   UNL     1      27.850  11.937  31.210  1.00  0.00     0.126 C 
ATOM      9  O   UNL     1      29.074  11.778  31.870  1.00  0.00    -0.346 OA
ATOM     10  C   UNL     1      26.835  12.874  31.824  1.00  0.00     0.037 C 
ATOM     11  C   UNL     1      25.885  13.176  30.620  1.00  0.00     0.002 C 
ATOM     12  C   UNL     1      26.788  13.005  29.331  1.00  0.00    -0.024 C 
ATOM     13  C   UNL     1      26.190  11.966  28.364  1.00  0.00     0.008 C 
ATOM     14  C   UNL     1      24.703  12.225  28.139  1.00  0.00     0.005 C 
ATOM     15  C   UNL     1      23.866  11.857  29.381  1.00  0.00     0.003 C 
ATOM     16  C   UNL     1      24.604  12.257  30.727  1.00  0.00     0.000 C 
ATOM     17  C   UNL     1      23.648  12.849  31.785  1.00  0.00     0.031 C 
ATOM     18  C   UNL     1      22.702  13.838  31.183  1.00  0.00    -0.027 C 
ATOM     19  C   UNL     1      22.058  13.581  30.031  1.00  0.00    -0.065 C 
ATOM     20  C   UNL     1      22.320  12.262  29.289  1.00  0.00    -0.008 C 
ATOM     21  C   UNL     1      21.822  12.374  27.804  1.00  0.00     0.014 C 
ATOM     22  C   UNL     1      20.441  13.022  27.666  1.00  0.00     0.033 C 
ATOM     23  C   UNL     1      20.467  14.449  28.228  1.00  0.00     0.118 C 
ATOM     24  C   UNL     1      20.846  14.441  29.710  1.00  0.00     0.063 C 
ATOM     25  C   UNL     1      21.469  11.148  29.966  1.00  0.00     0.016 C 
ATOM     26  C   UNL     1      26.960  14.367  28.597  1.00  0.00     0.012 C 
ATOM     27  C   UNL     1      28.988  10.532  28.596  1.00  0.00     0.014 C 
ATOM     28  O   UNL     1      30.271  10.006  30.907  1.00  0.00    -0.349 OA
ATOM     29  C   UNL     1      30.814   9.637  32.163  1.00  0.00     0.167 C 
ENDROOT
BRANCH  23  30
ATOM     30  O   UNL     1      21.376  15.250  27.515  1.00  0.00    -0.393 OA
ATOM     31  H   UNL     1      21.640  14.736  26.708  1.00  0.00     0.210 HD
ENDBRANCH  23  30
TORSDOF 1
ENDMDL
MODEL 6
REMARK VINA RESULT:    -6.339     10.043     12.574
REMARK INTER + INTRA:          -6.525
REMARK INTER:                  -6.525
REMARK INTRA:                   0.000
REMARK UNBOUND:                 0.000
REMARK SMILES C[C@@H]1CC[C@@]2(OC1)O[C@H]1C[C@@H]3[C@H]4CC=C5C[C@@H](O)CC[C@@]5(C)[C@H]4CC[C@]3(C)[C@@H]1[C@@H]2C
REMARK SMILES IDX 1 1 2 2 3 3 4 4 5 5 29 6 28 7 9 8 8 9 10 10 11 11 26 12
REMARK SMILES IDX 25 13 24 14 23 15 12 16 13 17 14 18 15 19 21 20 20 21 19 22
REMARK SMILES IDX 17 23 16 24 22 25 27 26 30 27 6 28 7 29 18 30
REMARK H PARENT 18 31
REMARK Flexibility Score: inf
ROOT
ATOM      1  C   UNL     1      15.965  18.640  22.342  1.00  0.00     0.010 C 
ATOM      2  C   UNL     1      17.233  17.825  22.621  1.00  0.00     0.012 C 
ATOM      3  C   UNL     1      17.040  16.359  22.219  1.00  0.00     0.011 C 
ATOM      4  C   UNL     1      18.263  15.539  22.627  1.00  0.00     0.066 C 
ATOM      5  C   UNL     1      18.609  15.764  24.120  1.00  0.00     0.171 C 
ATOM      6  C   UNL     1      19.922  14.959  24.479  1.00  0.00     0.052 C 
ATOM      7  C   UNL     1      19.308  13.842  25.307  1.00  0.00     0.033 C 
ATOM      8  C   UNL     1      18.185  14.546  25.951  1.00  0.00     0.126 C 
ATOM      9  O   UNL     1      17.542  15.253  24.929  1.00  0.00    -0.346 OA
ATOM     10  C   UNL     1      17.427  13.416  26.611  1.00  0.00     0.037 C 
ATOM     11  C   UNL     1      18.571  12.589  27.280  1.00  0.00     0.002 C 
ATOM     12  C   UNL     1      19.852  12.866  26.392  1.00  0.00    -0.024 C 
ATOM     13  C   UNL     1      21.007  13.435  27.238  1.00  0.00     0.008 C 
ATOM     14  C   UNL     1      21.208  12.610  28.507  1.00  0.00     0.005 C 
ATOM     15  C   UNL     1      20.073  12.843  29.524  1.00  0.00     0.003 C 
ATOM     16  C   UNL     1      18.662  12.974  28.811  1.00  0.00     0.000 C 
ATOM     17  C   UNL     1      17.531  12.255  29.577  1.00  0.00     0.031 C 
ATOM     18  C   UNL     1      17.956  10.901  30.048  1.00  0.00    -0.027 C 
ATOM     19  C   UNL     1      19.148  10.707  30.639  1.00  0.00    -0.065 C 
ATOM     20  C   UNL     1      20.117  11.886  30.807  1.00  0.00    -0.008 C 
ATOM     21  C   UNL     1      21.565  11.355  31.101  1.00  0.00     0.014 C 
ATOM     22  C   UNL     1      21.607  10.228  32.138  1.00  0.00     0.033 C 
ATOM     23  C   UNL     1      20.789   9.027  31.649  1.00  0.00     0.118 C 
ATOM     24  C   UNL     1      19.327   9.419  31.428  1.00  0.00     0.063 C 
ATOM     25  C   UNL     1      19.675  12.703  32.056  1.00  0.00     0.016 C 
ATOM     26  C   UNL     1      20.317  11.562  25.679  1.00  0.00     0.012 C 
ATOM     27  C   UNL     1      20.991  15.818  25.175  1.00  0.00     0.014 C 
ATOM     28  O   UNL     1      18.794  17.156  24.371  1.00  0.00    -0.349 OA
ATOM     29  C   UNL     1      17.618  17.903  24.108  1.00  0.00     0.167 C 
ENDROOT
BRANCH  23  30
ATOM     30  O   UNL     1      21.322   8.512  30.455  1.00  0.00    -0.393 OA
ATOM     31  H   UNL     1      20.557   8.361  29.841  1.00  0.00     0.210 HD
ENDBRANCH  23  30
TORSDOF 1
ENDMDL
MODEL 7
REMARK VINA RESULT:    -6.234      5.543      7.386
REMARK INTER + INTRA:          -6.416
REMARK INTER:                  -6.416
REMARK INTRA:                   0.000
REMARK UNBOUND:                 0.000
REMARK SMILES C[C@@H]1CC[C@@]2(OC1)O[C@H]1C[C@@H]3[C@H]4CC=C5C[C@@H](O)CC[C@@]5(C)[C@H]4CC[C@]3(C)[C@@H]1[C@@H]2C
REMARK SMILES IDX 1 1 2 2 3 3 4 4 5 5 29 6 28 7 9 8 8 9 10 10 11 11 26 12
REMARK SMILES IDX 25 13 24 14 23 15 12 16 13 17 14 18 15 19 21 20 20 21 19 22
REMARK SMILES IDX 17 23 16 24 22 25 27 26 30 27 6 28 7 29 18 30
REMARK H PARENT 18 31
REMARK Flexibility Score: inf
ROOT
ATOM      1  C   UNL     1      32.345   9.553  20.558  1.00  0.00     0.010 C 
ATOM      2  C   UNL     1      31.624  10.839  20.977  1.00  0.00     0.012 C 
ATOM      3  C   UNL     1      32.459  11.625  21.994  1.00  0.00     0.011 C 
ATOM      4  C   UNL     1      31.668  12.832  22.499  1.00  0.00     0.066 C 
ATOM      5  C   UNL     1      30.265  12.407  22.999  1.00  0.00     0.171 C 
ATOM      6  C   UNL     1      29.455  13.691  23.439  1.00  0.00     0.052 C 
ATOM      7  C   UNL     1      29.498  13.506  24.947  1.00  0.00     0.033 C 
ATOM      8  C   UNL     1      29.462  12.036  25.057  1.00  0.00     0.126 C 
ATOM      9  O   UNL     1      30.415  11.562  24.148  1.00  0.00    -0.346 OA
ATOM     10  C   UNL     1      29.721  11.813  26.530  1.00  0.00     0.037 C 
ATOM     11  C   UNL     1      28.780  12.864  27.200  1.00  0.00     0.002 C 
ATOM     12  C   UNL     1      28.632  14.024  26.133  1.00  0.00    -0.024 C 
ATOM     13  C   UNL     1      27.154  14.273  25.779  1.00  0.00     0.008 C 
ATOM     14  C   UNL     1      26.303  14.381  27.042  1.00  0.00     0.005 C 
ATOM     15  C   UNL     1      26.124  13.012  27.727  1.00  0.00     0.003 C 
ATOM     16  C   UNL     1      27.452  12.146  27.669  1.00  0.00     0.000 C 
ATOM     17  C   UNL     1      27.731  11.381  28.980  1.00  0.00     0.031 C 
ATOM     18  C   UNL     1      27.508  12.244  30.181  1.00  0.00    -0.027 C 
ATOM     19  C   UNL     1      26.418  13.024  30.291  1.00  0.00    -0.065 C 
ATOM     20  C   UNL     1      25.392  13.066  29.150  1.00  0.00    -0.008 C 
ATOM     21  C   UNL     1      24.475  14.332  29.298  1.00  0.00     0.014 C 
ATOM     22  C   UNL     1      23.980  14.568  30.728  1.00  0.00     0.033 C 
ATOM     23  C   UNL     1      25.169  14.775  31.674  1.00  0.00     0.118 C 
ATOM     24  C   UNL     1      26.077  13.544  31.679  1.00  0.00     0.063 C 
ATOM     25  C   UNL     1      24.466  11.822  29.285  1.00  0.00     0.016 C 
ATOM     26  C   UNL     1      29.274  15.340  26.661  1.00  0.00     0.012 C 
ATOM     27  C   UNL     1      28.059  13.778  22.800  1.00  0.00     0.014 C 
ATOM     28  O   UNL     1      29.571  11.710  21.964  1.00  0.00    -0.349 OA
ATOM     29  C   UNL     1      30.244  10.524  21.581  1.00  0.00     0.167 C 
ENDROOT
BRANCH  23  30
ATOM     30  O   UNL     1      25.914  15.906  31.300  1.00  0.00    -0.393 OA
ATOM     31  H   UNL     1      26.827  15.785  31.673  1.00  0.00     0.210 HD
ENDBRANCH  23  30
TORSDOF 1
ENDMDL
MODEL 8
REMARK VINA RESULT:    -6.084      5.425      8.654
REMARK INTER + INTRA:          -6.262
REMARK INTER:                  -6.262
REMARK INTRA:                   0.000
REMARK UNBOUND:                 0.000
REMARK SMILES C[C@@H]1CC[C@@]2(OC1)O[C@H]1C[C@@H]3[C@H]4CC=C5C[C@@H](O)CC[C@@]5(C)[C@H]4CC[C@]3(C)[C@@H]1[C@@H]2C
REMARK SMILES IDX 1 1 2 2 3 3 4 4 5 5 29 6 28 7 9 8 8 9 10 10 11 11 26 12
REMARK SMILES IDX 25 13 24 14 23 15 12 16 13 17 14 18 15 19 21 20 20 21 19 22
REMARK SMILES IDX 17 23 16 24 22 25 27 26 30 27 6 28 7 29 18 30
REMARK H PARENT 18 31
REMARK Flexibility Score: inf
ROOT
ATOM      1  C   UNL     1      25.107  20.801  28.213  1.00  0.00     0.010 C 
ATOM      2  C   UNL     1      25.072  19.412  28.861  1.00  0.00     0.012 C 
ATOM      3  C   UNL     1      26.373  19.130  29.619  1.00  0.00     0.011 C 
ATOM      4  C   UNL     1      26.373  17.694  30.144  1.00  0.00     0.066 C 
ATOM      5  C   UNL     1      26.050  16.690  29.011  1.00  0.00     0.171 C 
ATOM      6  C   UNL     1      25.984  15.229  29.610  1.00  0.00     0.052 C 
ATOM      7  C   UNL     1      27.284  14.673  29.051  1.00  0.00     0.033 C 
ATOM      8  C   UNL     1      27.365  15.378  27.758  1.00  0.00     0.126 C 
ATOM      9  O   UNL     1      27.105  16.724  28.041  1.00  0.00    -0.346 OA
ATOM     10  C   UNL     1      28.750  15.013  27.274  1.00  0.00     0.037 C 
ATOM     11  C   UNL     1      28.810  13.477  27.552  1.00  0.00     0.002 C 
ATOM     12  C   UNL     1      27.823  13.240  28.767  1.00  0.00    -0.024 C 
ATOM     13  C   UNL     1      26.734  12.210  28.410  1.00  0.00     0.008 C 
ATOM     14  C   UNL     1      27.348  10.971  27.765  1.00  0.00     0.005 C 
ATOM     15  C   UNL     1      27.838  11.259  26.332  1.00  0.00     0.003 C 
ATOM     16  C   UNL     1      28.501  12.695  26.213  1.00  0.00     0.000 C 
ATOM     17  C   UNL     1      29.763  12.705  25.324  1.00  0.00     0.031 C 
ATOM     18  C   UNL     1      30.656  11.543  25.619  1.00  0.00    -0.027 C 
ATOM     19  C   UNL     1      30.164  10.299  25.757  1.00  0.00    -0.065 C 
ATOM     20  C   UNL     1      28.651  10.060  25.649  1.00  0.00    -0.008 C 
ATOM     21  C   UNL     1      28.282   8.665  26.267  1.00  0.00     0.014 C 
ATOM     22  C   UNL     1      29.226   7.536  25.843  1.00  0.00     0.033 C 
ATOM     23  C   UNL     1      30.660   7.848  26.291  1.00  0.00     0.118 C 
ATOM     24  C   UNL     1      31.154   9.149  25.656  1.00  0.00     0.063 C 
ATOM     25  C   UNL     1      28.277   9.997  24.140  1.00  0.00     0.016 C 
ATOM     26  C   UNL     1      28.605  12.761  30.025  1.00  0.00     0.012 C 
ATOM     27  C   UNL     1      24.699  14.473  29.233  1.00  0.00     0.014 C 
ATOM     28  O   UNL     1      24.808  17.033  28.397  1.00  0.00    -0.349 OA
ATOM     29  C   UNL     1      24.848  18.319  27.802  1.00  0.00     0.167 C 
ENDROOT
BRANCH  23  30
ATOM     30  O   UNL     1      30.736   7.950  27.690  1.00  0.00    -0.393 OA
ATOM     31  H   UNL     1      29.970   8.512  27.979  1.00  0.00     0.210 HD
ENDBRANCH  23  30
TORSDOF 1
ENDMDL
MODEL 9
REMARK VINA RESULT:    -6.081      2.198      8.571
REMARK INTER + INTRA:          -6.259
REMARK INTER:                  -6.259
REMARK INTRA:                   0.000
REMARK UNBOUND:                 0.000
REMARK SMILES C[C@@H]1CC[C@@]2(OC1)O[C@H]1C[C@@H]3[C@H]4CC=C5C[C@@H](O)CC[C@@]5(C)[C@H]4CC[C@]3(C)[C@@H]1[C@@H]2C
REMARK SMILES IDX 1 1 2 2 3 3 4 4 5 5 29 6 28 7 9 8 8 9 10 10 11 11 26 12
REMARK SMILES IDX 25 13 24 14 23 15 12 16 13 17 14 18 15 19 21 20 20 21 19 22
REMARK SMILES IDX 17 23 16 24 22 25 27 26 30 27 6 28 7 29 18 30
REMARK H PARENT 18 31
REMARK Flexibility Score: inf
ROOT
ATOM      1  C   UNL     1      26.204  11.027  38.351  1.00  0.00     0.010 C 
ATOM      2  C   UNL     1      27.420  10.621  37.510  1.00  0.00     0.012 C 
ATOM      3  C   UNL     1      28.254  11.849  37.129  1.00  0.00     0.011 C 
ATOM      4  C   UNL     1      29.383  11.441  36.183  1.00  0.00     0.066 C 
ATOM      5  C   UNL     1      28.836  10.628  34.984  1.00  0.00     0.171 C 
ATOM      6  C   UNL     1      30.042  10.163  34.074  1.00  0.00     0.052 C 
ATOM      7  C   UNL     1      29.835  11.096  32.892  1.00  0.00     0.033 C 
ATOM      8  C   UNL     1      28.366  11.214  32.873  1.00  0.00     0.126 C 
ATOM      9  O   UNL     1      27.987  11.473  34.195  1.00  0.00    -0.346 OA
ATOM     10  C   UNL     1      28.140  12.302  31.849  1.00  0.00     0.037 C 
ATOM     11  C   UNL     1      29.098  11.879  30.690  1.00  0.00     0.002 C 
ATOM     12  C   UNL     1      30.261  11.067  31.394  1.00  0.00    -0.024 C 
ATOM     13  C   UNL     1      30.394   9.652  30.799  1.00  0.00     0.008 C 
ATOM     14  C   UNL     1      30.411   9.705  29.273  1.00  0.00     0.005 C 
ATOM     15  C   UNL     1      29.020  10.040  28.700  1.00  0.00     0.003 C 
ATOM     16  C   UNL     1      28.266  11.124  29.578  1.00  0.00     0.000 C 
ATOM     17  C   UNL     1      27.505  12.164  28.729  1.00  0.00     0.031 C 
ATOM     18  C   UNL     1      28.326  12.643  27.575  1.00  0.00    -0.027 C 
ATOM     19  C   UNL     1      29.012  11.786  26.799  1.00  0.00    -0.065 C 
ATOM     20  C   UNL     1      28.990  10.284  27.117  1.00  0.00    -0.008 C 
ATOM     21  C   UNL     1      30.174   9.562  26.383  1.00  0.00     0.014 C 
ATOM     22  C   UNL     1      30.344   9.991  24.922  1.00  0.00     0.033 C 
ATOM     23  C   UNL     1      30.631  11.495  24.842  1.00  0.00     0.118 C 
ATOM     24  C   UNL     1      29.479  12.300  25.446  1.00  0.00     0.063 C 
ATOM     25  C   UNL     1      27.672   9.686  26.543  1.00  0.00     0.016 C 
ATOM     26  C   UNL     1      31.616  11.822  31.263  1.00  0.00     0.012 C 
ATOM     27  C   UNL     1      30.026   8.656  33.767  1.00  0.00     0.014 C 
ATOM     28  O   UNL     1      28.103   9.498  35.456  1.00  0.00    -0.349 OA
ATOM     29  C   UNL     1      26.983   9.882  36.234  1.00  0.00     0.167 C 
ENDROOT
BRANCH  23  30
ATOM     30  O   UNL     1      31.826  11.813  25.510  1.00  0.00    -0.393 OA
ATOM     31  H   UNL     1      31.939  11.140  26.231  1.00  0.00     0.210 HD
ENDBRANCH  23  30
TORSDOF 1
ENDMDL
