MODEL 1
REMARK VINA RESULT:    -3.292      0.000      0.000
REMARK INTER + INTRA:          -3.824
REMARK INTER:                  -3.774
REMARK INTRA:                  -0.050
REMARK UNBOUND:                -0.050
REMARK SMILES CC(C)[C@@H]([NH3+])C(=O)[O-]
REMARK SMILES IDX 4 1 5 2 6 6 7 7 8 8 2 9 1 10 3 11
REMARK H PARENT 5 3 5 4 5 5
REMARK Flexibility Score: inf
ROOT
ATOM      1  C   UNL     1      86.603 133.270  59.871  1.00  0.00     0.230 C 
ENDROOT
BRANCH   1   2
ATOM      2  N   UNL     1      86.315 134.709  59.970  1.00  0.00    -0.350 N 
ATOM      3  H   UNL     1      87.170 135.239  60.258  1.00  0.00     0.345 HD
ATOM      4  H   UNL     1      85.984 135.074  59.047  1.00  0.00     0.345 HD
ATOM      5  H   UNL     1      85.549 134.878  60.661  1.00  0.00     0.345 HD
ENDBRANCH   1   2
BRANCH   1   6
ATOM      6  C   UNL     1      85.444 132.571  59.205  1.00  0.00     0.099 C 
ATOM      7  O   UNL     1      85.348 132.548  57.949  1.00  0.00    -0.544 OA
ATOM      8  O   UNL     1      84.477 131.939  59.977  1.00  0.00    -0.544 OA
ENDBRANCH   1   6
BRANCH   1   9
ATOM      9  C   UNL     1      87.933 132.994  59.104  1.00  0.00     0.047 C 
ATOM     10  C   UNL     1      89.009 132.421  60.043  1.00  0.00     0.014 C 
ATOM     11  C   UNL     1      88.478 134.264  58.429  1.00  0.00     0.014 C 
ENDBRANCH   1   9
TORSDOF 3
ENDMDL
MODEL 2
REMARK VINA RESULT:    -3.167      2.502      3.236
REMARK INTER + INTRA:          -3.680
REMARK INTER:                  -3.634
REMARK INTRA:                  -0.046
REMARK UNBOUND:                -0.050
REMARK SMILES CC(C)[C@@H]([NH3+])C(=O)[O-]
REMARK SMILES IDX 4 1 5 2 6 6 7 7 8 8 2 9 1 10 3 11
REMARK H PARENT 5 3 5 4 5 5
REMARK Flexibility Score: inf
ROOT
ATOM      1  C   UNL     1      87.881 133.707  57.849  1.00  0.00     0.230 C 
ENDROOT
BRANCH   1   2
ATOM      2  N   UNL     1      89.125 134.487  57.952  1.00  0.00    -0.350 N 
ATOM      3  H   UNL     1      89.200 135.170  57.164  1.00  0.00     0.345 HD
ATOM      4  H   UNL     1      89.147 135.009  58.859  1.00  0.00     0.345 HD
ATOM      5  H   UNL     1      89.953 133.850  57.944  1.00  0.00     0.345 HD
ENDBRANCH   1   2
BRANCH   1   6
ATOM      6  C   UNL     1      87.946 132.819  56.631  1.00  0.00     0.099 C 
ATOM      7  O   UNL     1      87.090 132.931  55.712  1.00  0.00    -0.544 OA
ATOM      8  O   UNL     1      88.960 131.876  56.511  1.00  0.00    -0.544 OA
ENDBRANCH   1   6
BRANCH   1   9
ATOM      9  C   UNL     1      87.613 132.867  59.135  1.00  0.00     0.047 C 
ATOM     10  C   UNL     1      86.490 133.489  59.983  1.00  0.00     0.014 C 
ATOM     11  C   UNL     1      88.877 132.723  60.000  1.00  0.00     0.014 C 
ENDBRANCH   1   9
TORSDOF 3
ENDMDL
MODEL 3
REMARK VINA RESULT:    -3.145      2.807      3.301
REMARK INTER + INTRA:          -3.655
REMARK INTER:                  -3.595
REMARK INTRA:                  -0.060
REMARK UNBOUND:                -0.050
REMARK SMILES CC(C)[C@@H]([NH3+])C(=O)[O-]
REMARK SMILES IDX 4 1 5 2 6 6 7 7 8 8 2 9 1 10 3 11
REMARK H PARENT 5 3 5 4 5 5
REMARK Flexibility Score: inf
ROOT
ATOM      1  C   UNL     1      87.677 132.666  57.807  1.00  0.00     0.230 C 
ENDROOT
BRANCH   1   2
ATOM      2  N   UNL     1      86.327 132.235  57.412  1.00  0.00    -0.350 N 
ATOM      3  H   UNL     1      86.224 131.199  57.513  1.00  0.00     0.345 HD
ATOM      4  H   UNL     1      85.609 132.708  58.009  1.00  0.00     0.345 HD
ATOM      5  H   UNL     1      86.134 132.512  56.423  1.00  0.00     0.345 HD
ENDBRANCH   1   2
BRANCH   1   6
ATOM      6  C   UNL     1      88.101 133.835  56.951  1.00  0.00     0.099 C 
ATOM      7  O   UNL     1      88.153 133.722  55.697  1.00  0.00    -0.544 OA
ATOM      8  O   UNL     1      88.428 135.048  57.544  1.00  0.00    -0.544 OA
ENDBRANCH   1   6
BRANCH   1   9
ATOM      9  C   UNL     1      87.751 133.031  59.322  1.00  0.00     0.047 C 
ATOM     10  C   UNL     1      88.960 132.360  59.997  1.00  0.00     0.014 C 
ATOM     11  C   UNL     1      86.469 132.631  60.070  1.00  0.00     0.014 C 
ENDBRANCH   1   9
TORSDOF 3
ENDMDL
MODEL 4
REMARK VINA RESULT:    -3.139      2.742      3.373
REMARK INTER + INTRA:          -3.648
REMARK INTER:                  -3.584
REMARK INTRA:                  -0.064
REMARK UNBOUND:                -0.050
REMARK SMILES CC(C)[C@@H]([NH3+])C(=O)[O-]
REMARK SMILES IDX 4 1 5 2 6 6 7 7 8 8 2 9 1 10 3 11
REMARK H PARENT 5 3 5 4 5 5
REMARK Flexibility Score: inf
ROOT
ATOM      1  C   UNL     1      87.773 132.808  57.810  1.00  0.00     0.230 C 
ENDROOT
BRANCH   1   2
ATOM      2  N   UNL     1      86.492 132.208  57.406  1.00  0.00    -0.350 N 
ATOM      3  H   UNL     1      86.621 131.204  57.139  1.00  0.00     0.345 HD
ATOM      4  H   UNL     1      85.805 132.264  58.193  1.00  0.00     0.345 HD
ATOM      5  H   UNL     1      86.083 132.735  56.602  1.00  0.00     0.345 HD
ENDBRANCH   1   2
BRANCH   1   6
ATOM      6  C   UNL     1      87.951 134.131  57.106  1.00  0.00     0.099 C 
ATOM      7  O   UNL     1      88.058 135.198  57.768  1.00  0.00    -0.544 OA
ATOM      8  O   UNL     1      88.008 134.178  55.719  1.00  0.00    -0.544 OA
ENDBRANCH   1   6
BRANCH   1   9
ATOM      9  C   UNL     1      87.871 132.984  59.357  1.00  0.00     0.047 C 
ATOM     10  C   UNL     1      88.986 132.103  59.948  1.00  0.00     0.014 C 
ATOM     11  C   UNL     1      86.542 132.653  60.056  1.00  0.00     0.014 C 
ENDBRANCH   1   9
TORSDOF 3
ENDMDL
MODEL 5
REMARK VINA RESULT:    -3.113      2.215      2.769
REMARK INTER + INTRA:          -3.618
REMARK INTER:                  -3.540
REMARK INTRA:                  -0.078
REMARK UNBOUND:                -0.050
REMARK SMILES CC(C)[C@@H]([NH3+])C(=O)[O-]
REMARK SMILES IDX 4 1 5 2 6 6 7 7 8 8 2 9 1 10 3 11
REMARK H PARENT 5 3 5 4 5 5
REMARK Flexibility Score: inf
ROOT
ATOM      1  C   UNL     1      87.860 134.327  58.681  1.00  0.00     0.230 C 
ENDROOT
BRANCH   1   2
ATOM      2  N   UNL     1      89.130 134.519  57.961  1.00  0.00    -0.350 N 
ATOM      3  H   UNL     1      89.113 134.022  57.041  1.00  0.00     0.345 HD
ATOM      4  H   UNL     1      89.299 135.538  57.795  1.00  0.00     0.345 HD
ATOM      5  H   UNL     1      89.928 134.164  58.536  1.00  0.00     0.345 HD
ENDBRANCH   1   2
BRANCH   1   6
ATOM      6  C   UNL     1      86.710 134.664  57.765  1.00  0.00     0.099 C 
ATOM      7  O   UNL     1      86.546 134.033  56.686  1.00  0.00    -0.544 OA
ATOM      8  O   UNL     1      85.816 135.670  58.112  1.00  0.00    -0.544 OA
ENDBRANCH   1   6
BRANCH   1   9
ATOM      9  C   UNL     1      87.721 132.877  59.238  1.00  0.00     0.047 C 
ATOM     10  C   UNL     1      86.470 132.739  60.125  1.00  0.00     0.014 C 
ATOM     11  C   UNL     1      88.960 132.452  60.044  1.00  0.00     0.014 C 
ENDBRANCH   1   9
TORSDOF 3
ENDMDL
MODEL 6
REMARK VINA RESULT:    -3.109      1.956      2.731
REMARK INTER + INTRA:          -3.614
REMARK INTER:                  -3.776
REMARK INTRA:                   0.162
REMARK UNBOUND:                -0.050
REMARK SMILES CC(C)[C@@H]([NH3+])C(=O)[O-]
REMARK SMILES IDX 4 1 5 2 6 6 7 7 8 8 2 9 1 10 3 11
REMARK H PARENT 5 3 5 4 5 5
REMARK Flexibility Score: inf
ROOT
ATOM      1  C   UNL     1      87.821 133.973  58.330  1.00  0.00     0.230 C 
ENDROOT
BRANCH   1   2
ATOM      2  N   UNL     1      89.125 134.499  57.898  1.00  0.00    -0.350 N 
ATOM      3  H   UNL     1      89.847 134.356  58.642  1.00  0.00     0.345 HD
ATOM      4  H   UNL     1      89.436 134.014  57.024  1.00  0.00     0.345 HD
ATOM      5  H   UNL     1      89.049 135.517  57.675  1.00  0.00     0.345 HD
ENDBRANCH   1   2
BRANCH   1   6
ATOM      6  C   UNL     1      87.312 132.990  57.306  1.00  0.00     0.099 C 
ATOM      7  O   UNL     1      86.101 132.998  56.957  1.00  0.00    -0.544 OA
ATOM      8  O   UNL     1      88.183 132.071  56.732  1.00  0.00    -0.544 OA
ENDBRANCH   1   6
BRANCH   1   9
ATOM      9  C   UNL     1      87.897 133.316  59.742  1.00  0.00     0.047 C 
ATOM     10  C   UNL     1      89.043 132.291  59.818  1.00  0.00     0.014 C 
ATOM     11  C   UNL     1      86.578 132.625  60.125  1.00  0.00     0.014 C 
ENDBRANCH   1   9
TORSDOF 3
ENDMDL
MODEL 7
REMARK VINA RESULT:    -2.951      1.629      2.114
REMARK INTER + INTRA:          -3.432
REMARK INTER:                  -3.442
REMARK INTRA:                   0.009
REMARK UNBOUND:                -0.050
REMARK SMILES CC(C)[C@@H]([NH3+])C(=O)[O-]
REMARK SMILES IDX 4 1 5 2 6 6 7 7 8 8 2 9 1 10 3 11
REMARK H PARENT 5 3 5 4 5 5
REMARK Flexibility Score: inf
ROOT
ATOM      1  C   UNL     1      86.357 133.428  58.467  1.00  0.00     0.230 C 
ENDROOT
BRANCH   1   2
ATOM      2  N   UNL     1      86.400 132.251  57.584  1.00  0.00    -0.350 N 
ATOM      3  H   UNL     1      87.039 132.420  56.773  1.00  0.00     0.345 HD
ATOM      4  H   UNL     1      86.739 131.416  58.116  1.00  0.00     0.345 HD
ATOM      5  H   UNL     1      85.442 132.025  57.235  1.00  0.00     0.345 HD
ENDBRANCH   1   2
BRANCH   1   6
ATOM      6  C   UNL     1      85.395 133.170  59.600  1.00  0.00     0.099 C 
ATOM      7  O   UNL     1      84.754 134.120  60.124  1.00  0.00    -0.544 OA
ATOM      8  O   UNL     1      85.202 131.875  60.067  1.00  0.00    -0.544 OA
ENDBRANCH   1   6
BRANCH   1   9
ATOM      9  C   UNL     1      87.770 133.799  59.011  1.00  0.00     0.047 C 
ATOM     10  C   UNL     1      88.699 134.268  57.877  1.00  0.00     0.014 C 
ATOM     11  C   UNL     1      88.428 132.620  59.747  1.00  0.00     0.014 C 
ENDBRANCH   1   9
TORSDOF 3
ENDMDL
MODEL 8
REMARK VINA RESULT:    -2.891      2.355      3.252
REMARK INTER + INTRA:          -3.363
REMARK INTER:                  -3.315
REMARK INTRA:                  -0.048
REMARK UNBOUND:                -0.050
REMARK SMILES CC(C)[C@@H]([NH3+])C(=O)[O-]
REMARK SMILES IDX 4 1 5 2 6 6 7 7 8 8 2 9 1 10 3 11
REMARK H PARENT 5 3 5 4 5 5
REMARK Flexibility Score: inf
ROOT
ATOM      1  C   UNL     1      87.593 133.677  58.640  1.00  0.00     0.230 C 
ENDROOT
BRANCH   1   2
ATOM      2  N   UNL     1      87.974 134.894  59.375  1.00  0.00    -0.350 N 
ATOM      3  H   UNL     1      88.905 134.771  59.838  1.00  0.00     0.345 HD
ATOM      4  H   UNL     1      88.026 135.708  58.720  1.00  0.00     0.345 HD
ATOM      5  H   UNL     1      87.252 135.123  60.095  1.00  0.00     0.345 HD
ENDBRANCH   1   2
BRANCH   1   6
ATOM      6  C   UNL     1      88.650 132.619  58.840  1.00  0.00     0.099 C 
ATOM      7  O   UNL     1      89.190 132.059  57.848  1.00  0.00    -0.544 OA
ATOM      8  O   UNL     1      89.041 132.261  60.125  1.00  0.00    -0.544 OA
ENDBRANCH   1   6
BRANCH   1   9
ATOM      9  C   UNL     1      86.191 133.151  59.074  1.00  0.00     0.047 C 
ATOM     10  C   UNL     1      85.395 132.625  57.867  1.00  0.00     0.014 C 
ATOM     11  C   UNL     1      85.367 134.237  59.786  1.00  0.00     0.014 C 
ENDBRANCH   1   9
TORSDOF 3
ENDMDL
MODEL 9
REMARK VINA RESULT:    -2.875      2.572      3.356
REMARK INTER + INTRA:          -3.346
REMARK INTER:                  -3.269
REMARK INTRA:                  -0.077
REMARK UNBOUND:                -0.050
REMARK SMILES CC(C)[C@@H]([NH3+])C(=O)[O-]
REMARK SMILES IDX 4 1 5 2 6 6 7 7 8 8 2 9 1 10 3 11
REMARK H PARENT 5 3 5 4 5 5
REMARK Flexibility Score: inf
ROOT
ATOM      1  C   UNL     1      86.925 132.789  59.155  1.00  0.00     0.230 C 
ENDROOT
BRANCH   1   2
ATOM      2  N   UNL     1      86.323 132.440  57.859  1.00  0.00    -0.350 N 
ATOM      3  H   UNL     1      85.603 133.147  57.583  1.00  0.00     0.345 HD
ATOM      4  H   UNL     1      87.061 132.400  57.118  1.00  0.00     0.345 HD
ATOM      5  H   UNL     1      85.883 131.493  57.907  1.00  0.00     0.345 HD
ENDBRANCH   1   2
BRANCH   1   6
ATOM      6  C   UNL     1      88.420 132.596  59.081  1.00  0.00     0.099 C 
ATOM      7  O   UNL     1      89.124 132.654  60.125  1.00  0.00    -0.544 OA
ATOM      8  O   UNL     1      89.029 132.344  57.858  1.00  0.00    -0.544 OA
ENDBRANCH   1   6
BRANCH   1   9
ATOM      9  C   UNL     1      86.573 134.246  59.587  1.00  0.00     0.047 C 
ATOM     10  C   UNL     1      85.050 134.451  59.664  1.00  0.00     0.014 C 
ATOM     11  C   UNL     1      87.175 135.288  58.629  1.00  0.00     0.014 C 
ENDBRANCH   1   9
TORSDOF 3
ENDMDL
