MODEL 1
REMARK VINA RESULT:    13.840      0.000      0.000
REMARK INTER + INTRA:          14.393
REMARK INTER:                  14.649
REMARK INTRA:                  -0.256
REMARK UNBOUND:                -0.256
REMARK SMILES CC1=C[C@@H]2C(=C(C)CC[C@@H]2C(C)C)CC1
REMARK SMILES IDX 1 1 2 2 3 3 4 4 10 5 9 6 8 7 6 8 5 9 14 10 15 11 7 12 11 13
REMARK SMILES IDX 12 14 13 15
REMARK H PARENT
REMARK Flexibility Score: inf
ROOT
ATOM      1  C   UNL     1       2.173   2.491  -9.656  1.00  0.00     0.039 C 
ATOM      2  C   UNL     1       1.751   3.927  -9.793  1.00  0.00    -0.076 C 
ATOM      3  C   UNL     1       0.598   4.239 -10.418  1.00  0.00    -0.020 C 
ATOM      4  C   UNL     1       0.184   5.695 -10.496  1.00  0.00     0.041 C 
ATOM      5  C   UNL     1      -1.202   5.967 -11.160  1.00  0.00     0.003 C 
ATOM      6  C   UNL     1      -2.306   5.776 -10.109  1.00  0.00     0.009 C 
ATOM      7  C   UNL     1      -2.120   6.797  -8.985  1.00  0.00     0.031 C 
ATOM      8  C   UNL     1      -0.729   6.758  -8.389  1.00  0.00    -0.073 C 
ATOM      9  C   UNL     1       0.331   6.261  -9.085  1.00  0.00    -0.064 C 
ATOM     10  C   UNL     1       1.677   6.025  -8.397  1.00  0.00     0.036 C 
ATOM     11  C   UNL     1       2.577   5.048  -9.187  1.00  0.00     0.035 C 
ATOM     12  C   UNL     1      -0.553   7.343  -7.006  1.00  0.00     0.039 C 
ENDROOT
BRANCH   5  13
ATOM     13  C   UNL     1      -1.466   5.168 -12.483  1.00  0.00    -0.013 C 
ATOM     14  C   UNL     1      -0.548   5.641 -13.627  1.00  0.00     0.007 C 
ATOM     15  C   UNL     1      -2.930   5.299 -12.949  1.00  0.00     0.007 C 
ENDBRANCH   5  13
TORSDOF 1
ENDMDL
MODEL 2
REMARK VINA RESULT:    16.698      1.151      4.584
REMARK INTER + INTRA:          17.418
REMARK INTER:                  17.534
REMARK INTRA:                  -0.116
REMARK UNBOUND:                -0.256
REMARK SMILES CC1=C[C@@H]2C(=C(C)CC[C@@H]2C(C)C)CC1
REMARK SMILES IDX 1 1 2 2 3 3 4 4 10 5 9 6 8 7 6 8 5 9 14 10 15 11 7 12 11 13
REMARK SMILES IDX 12 14 13 15
REMARK H PARENT
REMARK Flexibility Score: inf
ROOT
ATOM      1  C   UNL     1      -3.247   5.521 -12.259  1.00  0.00     0.039 C 
ATOM      2  C   UNL     1      -1.844   5.807 -11.801  1.00  0.00    -0.076 C 
ATOM      3  C   UNL     1      -1.612   6.210 -10.536  1.00  0.00    -0.020 C 
ATOM      4  C   UNL     1      -0.180   6.445 -10.098  1.00  0.00     0.041 C 
ATOM      5  C   UNL     1       0.012   6.828  -8.597  1.00  0.00     0.003 C 
ATOM      6  C   UNL     1       0.032   5.545  -7.752  1.00  0.00     0.009 C 
ATOM      7  C   UNL     1       1.224   4.681  -8.169  1.00  0.00     0.031 C 
ATOM      8  C   UNL     1       1.250   4.403  -9.657  1.00  0.00    -0.073 C 
ATOM      9  C   UNL     1       0.614   5.218 -10.545  1.00  0.00    -0.064 C 
ATOM     10  C   UNL     1       0.462   4.809 -12.011  1.00  0.00     0.036 C 
ATOM     11  C   UNL     1      -0.658   5.597 -12.727  1.00  0.00     0.035 C 
ATOM     12  C   UNL     1       2.056   3.214 -10.125  1.00  0.00     0.039 C 
ENDROOT
BRANCH   5  13
ATOM     13  C   UNL     1      -0.992   7.905  -8.059  1.00  0.00    -0.013 C 
ATOM     14  C   UNL     1      -0.324   8.846  -7.038  1.00  0.00     0.007 C 
ATOM     15  C   UNL     1      -2.222   7.258  -7.392  1.00  0.00     0.007 C 
ENDBRANCH   5  13
TORSDOF 1
ENDMDL
