MODEL 1
REMARK VINA RESULT:    -3.493      0.000      0.000
REMARK INTER + INTRA:          -5.173
REMARK INTER:                  -5.331
REMARK INTRA:                   0.158
REMARK UNBOUND:                 0.158
REMARK SMILES CC1=CCC[C@H](C)C(=O)C[C@H](C(C)C)C(=O)C1
REMARK SMILES IDX 8 1 9 2 6 3 7 4 5 5 4 6 3 7 2 8 1 9 10 11 11 12 15 13 16 14
REMARK SMILES IDX 17 15 12 17 13 18 14 19
REMARK H PARENT
REMARK Flexibility Score: 70.00
ROOT
ATOM      1  C   UNL     1     -13.286 -15.261  27.958  1.00  0.00     0.136 C 
ATOM      2  O   UNL     1     -14.072 -14.403  27.580  1.00  0.00    -0.299 OA
ENDROOT
BRANCH   1   3
ATOM      3  C   UNL     1     -13.130 -16.531  27.144  1.00  0.00     0.053 C 
ATOM      4  C   UNL     1     -13.987 -16.470  25.873  1.00  0.00     0.016 C 
BRANCH   3   5
ATOM      5  C   UNL     1     -11.629 -16.748  26.808  1.00  0.00     0.015 C 
BRANCH   5   6
ATOM      6  C   UNL     1     -10.977 -17.963  27.495  1.00  0.00     0.028 C 
BRANCH   6   7
ATOM      7  C   UNL     1     -11.912 -18.873  28.268  1.00  0.00    -0.028 C 
ATOM      8  C   UNL     1     -11.908 -19.085  29.605  1.00  0.00    -0.070 CG0
ATOM      9  C   UNL     1     -12.877 -20.097  30.166  1.00  0.00     0.039 C 
ATOM     10  G   UNL     1     -11.031 -18.315  30.575  1.00  0.00     0.000 G0
ENDBRANCH   6   7
ENDBRANCH   5   6
ENDBRANCH   3   5
ENDBRANCH   1   3
BRANCH   1  11
ATOM     11  C   UNL     1     -12.497 -15.017  29.227  1.00  0.00     0.087 C 
BRANCH  11  12
ATOM     12  C   UNL     1     -12.614 -16.161  30.274  1.00  0.00     0.066 C 
BRANCH  12  13
ATOM     13  C   UNL     1     -11.264 -16.809  30.578  1.00  0.00     0.140 C 
ATOM     14  O   UNL     1     -10.318 -16.091  30.868  1.00  0.00    -0.299 OA
BRANCH  13  15
ATOM     15  C   UNL     1     -11.028 -18.311  30.568  1.00  0.00     0.106 CG0
ATOM     16  G   UNL     1     -11.903 -19.076  29.593  1.00  0.00     0.000 G0
ENDBRANCH  13  15
ENDBRANCH  12  13
BRANCH  12  17
ATOM     17  C   UNL     1     -13.337 -15.742  31.591  1.00  0.00    -0.006 C 
ATOM     18  C   UNL     1     -14.461 -14.707  31.399  1.00  0.00     0.008 C 
ATOM     19  C   UNL     1     -13.874 -16.960  32.361  1.00  0.00     0.008 C 
ENDBRANCH  12  17
ENDBRANCH  11  12
ENDBRANCH   1  11
TORSDOF 1
ENDMDL
MODEL 2
REMARK VINA RESULT:    -3.168      1.831      3.892
REMARK INTER + INTRA:          -4.677
REMARK INTER:                  -5.652
REMARK INTRA:                   0.975
REMARK UNBOUND:                 0.158
REMARK SMILES CC1=CCC[C@H](C)C(=O)C[C@H](C(C)C)C(=O)C1
REMARK SMILES IDX 8 1 9 2 6 3 7 4 5 5 4 6 3 7 2 8 1 9 10 11 11 12 15 13 16 14
REMARK SMILES IDX 17 15 12 17 13 18 14 19
REMARK H PARENT
REMARK Flexibility Score: 70.00
ROOT
ATOM      1  C   UNL     1     -13.031 -16.246  31.102  1.00  0.00     0.136 C 
ATOM      2  O   UNL     1     -12.339 -15.667  31.928  1.00  0.00    -0.299 OA
ENDROOT
BRANCH   1   3
ATOM      3  C   UNL     1     -13.919 -15.434  30.180  1.00  0.00     0.053 C 
ATOM      4  C   UNL     1     -14.619 -14.308  30.953  1.00  0.00     0.016 C 
BRANCH   3   5
ATOM      5  C   UNL     1     -13.070 -14.874  29.006  1.00  0.00     0.015 C 
BRANCH   5   6
ATOM      6  C   UNL     1     -13.619 -15.181  27.600  1.00  0.00     0.028 C 
BRANCH   6   7
ATOM      7  C   UNL     1     -12.838 -16.194  26.786  1.00  0.00    -0.028 C 
ATOM      8  C   UNL     1     -11.624 -16.710  27.090  1.00  0.00    -0.070 CG0
ATOM      9  C   UNL     1     -10.984 -17.649  26.098  1.00  0.00     0.039 C 
ATOM     10  G   UNL     1     -10.905 -16.449  28.400  1.00  0.00     0.000 G0
ENDBRANCH   6   7
ENDBRANCH   5   6
ENDBRANCH   3   5
ENDBRANCH   1   3
BRANCH   1  11
ATOM     11  C   UNL     1     -12.971 -17.758  31.035  1.00  0.00     0.087 C 
BRANCH  11  12
ATOM     12  C   UNL     1     -12.335 -18.307  29.726  1.00  0.00     0.066 C 
BRANCH  12  13
ATOM     13  C   UNL     1     -11.015 -17.614  29.389  1.00  0.00     0.140 C 
ATOM     14  O   UNL     1      -9.990 -18.001  29.933  1.00  0.00    -0.299 OA
BRANCH  13  15
ATOM     15  C   UNL     1     -10.892 -16.477  28.387  1.00  0.00     0.106 CG0
ATOM     16  G   UNL     1     -11.617 -16.716  27.076  1.00  0.00     0.000 G0
ENDBRANCH  13  15
ENDBRANCH  12  13
BRANCH  12  17
ATOM     17  C   UNL     1     -12.167 -19.858  29.706  1.00  0.00    -0.006 C 
ATOM     18  C   UNL     1     -12.153 -20.514  31.099  1.00  0.00     0.008 C 
ATOM     19  C   UNL     1     -13.225 -20.536  28.821  1.00  0.00     0.008 C 
ENDBRANCH  12  17
ENDBRANCH  11  12
ENDBRANCH   1  11
TORSDOF 1
ENDMDL
MODEL 3
REMARK VINA RESULT:    -2.672      1.892      3.805
REMARK INTER + INTRA:          -3.920
REMARK INTER:                  -4.874
REMARK INTRA:                   0.954
REMARK UNBOUND:                 0.158
REMARK SMILES CC1=CCC[C@H](C)C(=O)C[C@H](C(C)C)C(=O)C1
REMARK SMILES IDX 8 1 9 2 6 3 7 4 5 5 4 6 3 7 2 8 1 9 10 11 11 12 15 13 16 14
REMARK SMILES IDX 17 15 12 17 13 18 14 19
REMARK H PARENT
REMARK Flexibility Score: 70.00
ROOT
ATOM      1  C   UNL     1     -12.721 -19.171  30.225  1.00  0.00     0.136 C 
ATOM      2  O   UNL     1     -12.811 -19.878  29.230  1.00  0.00    -0.299 OA
ENDROOT
BRANCH   1   3
ATOM      3  C   UNL     1     -11.742 -19.555  31.317  1.00  0.00     0.053 C 
ATOM      4  C   UNL     1     -12.073 -20.942  31.882  1.00  0.00     0.016 C 
BRANCH   3   5
ATOM      5  C   UNL     1     -10.294 -19.502  30.755  1.00  0.00     0.015 C 
BRANCH   5   6
ATOM      6  C   UNL     1      -9.894 -18.160  30.112  1.00  0.00     0.028 C 
BRANCH   6   7
ATOM      7  C   UNL     1     -10.097 -18.054  28.613  1.00  0.00    -0.028 C 
ATOM      8  C   UNL     1     -10.715 -17.046  27.951  1.00  0.00    -0.070 CG0
ATOM      9  C   UNL     1     -10.881 -17.175  26.458  1.00  0.00     0.039 C 
ATOM     10  G   UNL     1     -11.187 -15.769  28.620  1.00  0.00     0.000 G0
ENDBRANCH   6   7
ENDBRANCH   5   6
ENDBRANCH   3   5
ENDBRANCH   1   3
BRANCH   1  11
ATOM     11  C   UNL     1     -13.594 -17.938  30.324  1.00  0.00     0.087 C 
BRANCH  11  12
ATOM     12  C   UNL     1     -12.803 -16.622  30.574  1.00  0.00     0.066 C 
BRANCH  12  13
ATOM     13  C   UNL     1     -12.543 -15.848  29.282  1.00  0.00     0.140 C 
ATOM     14  O   UNL     1     -13.472 -15.253  28.755  1.00  0.00    -0.299 OA
BRANCH  13  15
ATOM     15  C   UNL     1     -11.179 -15.749  28.619  1.00  0.00     0.106 CG0
ATOM     16  G   UNL     1     -10.707 -17.032  27.961  1.00  0.00     0.000 G0
ENDBRANCH  13  15
ENDBRANCH  12  13
BRANCH  12  17
ATOM     17  C   UNL     1     -13.440 -15.697  31.656  1.00  0.00    -0.006 C 
ATOM     18  C   UNL     1     -14.384 -14.618  31.095  1.00  0.00     0.008 C 
ATOM     19  C   UNL     1     -14.161 -16.506  32.746  1.00  0.00     0.008 C 
ENDBRANCH  12  17
ENDBRANCH  11  12
ENDBRANCH   1  11
TORSDOF 1
ENDMDL
MODEL 4
REMARK VINA RESULT:    -2.552      1.706      3.776
REMARK INTER + INTRA:          -3.737
REMARK INTER:                  -3.919
REMARK INTRA:                   0.182
REMARK UNBOUND:                 0.158
REMARK SMILES CC1=CCC[C@H](C)C(=O)C[C@H](C(C)C)C(=O)C1
REMARK SMILES IDX 8 1 9 2 6 3 7 4 5 5 4 6 3 7 2 8 1 9 10 11 11 12 15 13 16 14
REMARK SMILES IDX 17 15 12 17 13 18 14 19
REMARK H PARENT
REMARK Flexibility Score: 70.00
ROOT
ATOM      1  C   UNL     1     -11.785 -18.007  30.778  1.00  0.00     0.136 C 
ATOM      2  O   UNL     1     -10.732 -17.421  30.992  1.00  0.00    -0.299 OA
ENDROOT
BRANCH   1   3
ATOM      3  C   UNL     1     -11.751 -19.372  30.120  1.00  0.00     0.053 C 
ATOM      4  C   UNL     1     -12.437 -20.420  31.005  1.00  0.00     0.016 C 
BRANCH   3   5
ATOM      5  C   UNL     1     -12.419 -19.286  28.720  1.00  0.00     0.015 C 
BRANCH   5   6
ATOM      6  C   UNL     1     -11.781 -18.268  27.755  1.00  0.00     0.028 C 
BRANCH   6   7
ATOM      7  C   UNL     1     -12.734 -17.294  27.089  1.00  0.00    -0.028 C 
ATOM      8  C   UNL     1     -13.037 -16.044  27.511  1.00  0.00    -0.070 CG0
ATOM      9  C   UNL     1     -14.076 -15.267  26.742  1.00  0.00     0.039 C 
ATOM     10  G   UNL     1     -12.341 -15.359  28.673  1.00  0.00     0.000 G0
ENDBRANCH   6   7
ENDBRANCH   5   6
ENDBRANCH   3   5
ENDBRANCH   1   3
BRANCH   1  11
ATOM     11  C   UNL     1     -13.083 -17.340  31.183  1.00  0.00     0.087 C 
BRANCH  11  12
ATOM     12  C   UNL     1     -13.001 -15.789  31.257  1.00  0.00     0.066 C 
BRANCH  12  13
ATOM     13  C   UNL     1     -13.229 -15.131  29.896  1.00  0.00     0.140 C 
ATOM     14  O   UNL     1     -14.155 -14.344  29.770  1.00  0.00    -0.299 OA
BRANCH  13  15
ATOM     15  C   UNL     1     -12.347 -15.380  28.682  1.00  0.00     0.106 CG0
ATOM     16  G   UNL     1     -13.055 -16.046  27.518  1.00  0.00     0.000 G0
ENDBRANCH  13  15
ENDBRANCH  12  13
BRANCH  12  17
ATOM     17  C   UNL     1     -13.930 -15.157  32.340  1.00  0.00    -0.006 C 
ATOM     18  C   UNL     1     -15.248 -15.918  32.570  1.00  0.00     0.008 C 
ATOM     19  C   UNL     1     -13.198 -14.964  33.678  1.00  0.00     0.008 C 
ENDBRANCH  12  17
ENDBRANCH  11  12
ENDBRANCH   1  11
TORSDOF 1
ENDMDL
MODEL 5
REMARK VINA RESULT:    -2.401      1.955      3.934
REMARK INTER + INTRA:          -3.506
REMARK INTER:                  -3.668
REMARK INTRA:                   0.162
REMARK UNBOUND:                 0.158
REMARK SMILES CC1=CCC[C@H](C)C(=O)C[C@H](C(C)C)C(=O)C1
REMARK SMILES IDX 8 1 9 2 6 3 7 4 5 5 4 6 3 7 2 8 1 9 10 11 11 12 15 13 16 14
REMARK SMILES IDX 17 15 12 17 13 18 14 19
REMARK H PARENT
REMARK Flexibility Score: 70.00
ROOT
ATOM      1  C   UNL     1     -12.345 -16.776  27.834  1.00  0.00     0.136 C 
ATOM      2  O   UNL     1     -11.150 -16.619  28.043  1.00  0.00    -0.299 OA
ENDROOT
BRANCH   1   3
ATOM      3  C   UNL     1     -13.056 -15.843  26.873  1.00  0.00     0.053 C 
ATOM      4  C   UNL     1     -13.645 -16.626  25.692  1.00  0.00     0.016 C 
BRANCH   3   5
ATOM      5  C   UNL     1     -14.156 -15.055  27.636  1.00  0.00     0.015 C 
BRANCH   5   6
ATOM      6  C   UNL     1     -13.637 -14.121  28.745  1.00  0.00     0.028 C 
BRANCH   6   7
ATOM      7  C   UNL     1     -14.335 -14.226  30.087  1.00  0.00    -0.028 C 
ATOM      8  C   UNL     1     -13.991 -15.037  31.115  1.00  0.00    -0.070 CG0
ATOM      9  C   UNL     1     -14.873 -15.044  32.339  1.00  0.00     0.039 C 
ATOM     10  G   UNL     1     -12.734 -15.886  31.130  1.00  0.00     0.000 G0
ENDBRANCH   6   7
ENDBRANCH   5   6
ENDBRANCH   3   5
ENDBRANCH   1   3
BRANCH   1  11
ATOM     11  C   UNL     1     -13.068 -17.900  28.547  1.00  0.00     0.087 C 
BRANCH  11  12
ATOM     12  C   UNL     1     -12.447 -18.279  29.921  1.00  0.00     0.066 C 
BRANCH  12  13
ATOM     13  C   UNL     1     -12.969 -17.398  31.056  1.00  0.00     0.140 C 
ATOM     14  O   UNL     1     -13.605 -17.918  31.961  1.00  0.00    -0.299 OA
BRANCH  13  15
ATOM     15  C   UNL     1     -12.720 -15.900  31.141  1.00  0.00     0.106 CG0
ATOM     16  G   UNL     1     -13.980 -15.054  31.127  1.00  0.00     0.000 G0
ENDBRANCH  13  15
ENDBRANCH  12  13
BRANCH  12  17
ATOM     17  C   UNL     1     -12.588 -19.790  30.284  1.00  0.00    -0.006 C 
ATOM     18  C   UNL     1     -12.701 -20.728  29.069  1.00  0.00     0.008 C 
ATOM     19  C   UNL     1     -11.453 -20.264  31.206  1.00  0.00     0.008 C 
ENDBRANCH  12  17
ENDBRANCH  11  12
ENDBRANCH   1  11
TORSDOF 1
ENDMDL
MODEL 6
REMARK VINA RESULT:    -2.354      1.762      3.736
REMARK INTER + INTRA:          -3.435
REMARK INTER:                  -5.150
REMARK INTRA:                   1.715
REMARK UNBOUND:                 0.158
REMARK SMILES CC1=CCC[C@H](C)C(=O)C[C@H](C(C)C)C(=O)C1
REMARK SMILES IDX 8 1 9 2 6 3 7 4 5 5 4 6 3 7 2 8 1 9 10 11 11 12 15 13 16 14
REMARK SMILES IDX 17 15 12 17 13 18 14 19
REMARK H PARENT
REMARK Flexibility Score: 70.00
ROOT
ATOM      1  C   UNL     1     -11.541 -18.617  30.520  1.00  0.00     0.136 C 
ATOM      2  O   UNL     1     -10.407 -18.163  30.463  1.00  0.00    -0.299 OA
ENDROOT
BRANCH   1   3
ATOM      3  C   UNL     1     -11.749 -20.110  30.357  1.00  0.00     0.053 C 
ATOM      4  C   UNL     1     -12.122 -20.757  31.698  1.00  0.00     0.016 C 
BRANCH   3   5
ATOM      5  C   UNL     1     -12.840 -20.365  29.281  1.00  0.00     0.015 C 
BRANCH   5   6
ATOM      6  C   UNL     1     -13.354 -19.103  28.563  1.00  0.00     0.028 C 
BRANCH   6   7
ATOM      7  C   UNL     1     -12.453 -18.538  27.482  1.00  0.00    -0.028 C 
ATOM      8  C   UNL     1     -12.251 -17.229  27.201  1.00  0.00    -0.070 CG0
ATOM      9  C   UNL     1     -11.371 -16.882  26.026  1.00  0.00     0.039 C 
ATOM     10  G   UNL     1     -12.807 -16.095  28.043  1.00  0.00     0.000 G0
ENDBRANCH   6   7
ENDBRANCH   5   6
ENDBRANCH   3   5
ENDBRANCH   1   3
BRANCH   1  11
ATOM     11  C   UNL     1     -12.696 -17.665  30.754  1.00  0.00     0.087 C 
BRANCH  11  12
ATOM     12  C   UNL     1     -12.299 -16.163  30.684  1.00  0.00     0.066 C 
BRANCH  12  13
ATOM     13  C   UNL     1     -11.971 -15.715  29.260  1.00  0.00     0.140 C 
ATOM     14  O   UNL     1     -10.967 -15.044  29.070  1.00  0.00    -0.299 OA
BRANCH  13  15
ATOM     15  C   UNL     1     -12.811 -16.082  28.047  1.00  0.00     0.106 CG0
ATOM     16  G   UNL     1     -12.247 -17.216  27.212  1.00  0.00     0.000 G0
ENDBRANCH  13  15
ENDBRANCH  12  13
BRANCH  12  17
ATOM     17  C   UNL     1     -13.339 -15.203  31.340  1.00  0.00    -0.006 C 
ATOM     18  C   UNL     1     -14.363 -14.606  30.357  1.00  0.00     0.008 C 
ATOM     19  C   UNL     1     -14.072 -15.871  32.515  1.00  0.00     0.008 C 
ENDBRANCH  12  17
ENDBRANCH  11  12
ENDBRANCH   1  11
TORSDOF 1
ENDMDL
MODEL 7
REMARK VINA RESULT:    -2.223      1.825      4.692
REMARK INTER + INTRA:          -3.235
REMARK INTER:                  -3.455
REMARK INTRA:                   0.221
REMARK UNBOUND:                 0.158
REMARK SMILES CC1=CCC[C@H](C)C(=O)C[C@H](C(C)C)C(=O)C1
REMARK SMILES IDX 8 1 9 2 6 3 7 4 5 5 4 6 3 7 2 8 1 9 10 11 11 12 15 13 16 14
REMARK SMILES IDX 17 15 12 17 13 18 14 19
REMARK H PARENT
REMARK Flexibility Score: 70.00
ROOT
ATOM      1  C   UNL     1     -11.725 -19.425  29.241  1.00  0.00     0.136 C 
ATOM      2  O   UNL     1     -12.483 -20.138  28.599  1.00  0.00    -0.299 OA
ENDROOT
BRANCH   1   3
ATOM      3  C   UNL     1     -11.293 -19.863  30.627  1.00  0.00     0.053 C 
ATOM      4  C   UNL     1     -10.098 -19.032  31.111  1.00  0.00     0.016 C 
BRANCH   3   5
ATOM      5  C   UNL     1     -12.497 -19.750  31.602  1.00  0.00     0.015 C 
BRANCH   5   6
ATOM      6  C   UNL     1     -13.615 -18.791  31.149  1.00  0.00     0.028 C 
BRANCH   6   7
ATOM      7  C   UNL     1     -13.773 -17.521  31.961  1.00  0.00    -0.028 C 
ATOM      8  C   UNL     1     -13.039 -16.389  31.842  1.00  0.00    -0.070 CG0
ATOM      9  C   UNL     1     -13.309 -15.263  32.808  1.00  0.00     0.039 C 
ATOM     10  G   UNL     1     -12.009 -16.169  30.750  1.00  0.00     0.000 G0
ENDBRANCH   6   7
ENDBRANCH   5   6
ENDBRANCH   3   5
ENDBRANCH   1   3
BRANCH   1  11
ATOM     11  C   UNL     1     -11.246 -18.128  28.621  1.00  0.00     0.087 C 
BRANCH  11  12
ATOM     12  C   UNL     1     -12.391 -17.137  28.266  1.00  0.00     0.066 C 
BRANCH  12  13
ATOM     13  C   UNL     1     -12.573 -16.057  29.332  1.00  0.00     0.140 C 
ATOM     14  O   UNL     1     -13.228 -15.062  29.056  1.00  0.00    -0.299 OA
BRANCH  13  15
ATOM     15  C   UNL     1     -12.007 -16.158  30.739  1.00  0.00     0.106 CG0
ATOM     16  G   UNL     1     -13.047 -16.389  31.819  1.00  0.00     0.000 G0
ENDBRANCH  13  15
ENDBRANCH  12  13
BRANCH  12  17
ATOM     17  C   UNL     1     -12.259 -16.500  26.848  1.00  0.00    -0.006 C 
ATOM     18  C   UNL     1     -11.185 -17.149  25.957  1.00  0.00     0.008 C 
ATOM     19  C   UNL     1     -13.606 -16.472  26.107  1.00  0.00     0.008 C 
ENDBRANCH  12  17
ENDBRANCH  11  12
ENDBRANCH   1  11
TORSDOF 1
ENDMDL
MODEL 8
REMARK VINA RESULT:    -2.188      1.497      2.234
REMARK INTER + INTRA:          -3.182
REMARK INTER:                  -3.472
REMARK INTRA:                   0.290
REMARK UNBOUND:                 0.158
REMARK SMILES CC1=CCC[C@H](C)C(=O)C[C@H](C(C)C)C(=O)C1
REMARK SMILES IDX 8 1 9 2 6 3 7 4 5 5 4 6 3 7 2 8 1 9 10 11 11 12 15 13 16 14
REMARK SMILES IDX 17 15 12 17 13 18 14 19
REMARK H PARENT
REMARK Flexibility Score: 70.00
ROOT
ATOM      1  C   UNL     1     -11.720 -15.721  29.475  1.00  0.00     0.136 C 
ATOM      2  O   UNL     1     -10.602 -15.356  29.138  1.00  0.00    -0.299 OA
ENDROOT
BRANCH   1   3
ATOM      3  C   UNL     1     -12.775 -15.949  28.410  1.00  0.00     0.053 C 
ATOM      4  C   UNL     1     -13.392 -14.617  27.962  1.00  0.00     0.016 C 
BRANCH   3   5
ATOM      5  C   UNL     1     -12.144 -16.713  27.213  1.00  0.00     0.015 C 
BRANCH   5   6
ATOM      6  C   UNL     1     -12.054 -18.241  27.391  1.00  0.00     0.028 C 
BRANCH   6   7
ATOM      7  C   UNL     1     -11.177 -18.729  28.527  1.00  0.00    -0.028 C 
ATOM      8  C   UNL     1     -11.574 -19.012  29.790  1.00  0.00    -0.070 CG0
ATOM      9  C   UNL     1     -10.521 -19.409  30.794  1.00  0.00     0.039 C 
ATOM     10  G   UNL     1     -13.026 -19.016  30.232  1.00  0.00     0.000 G0
ENDBRANCH   6   7
ENDBRANCH   5   6
ENDBRANCH   3   5
ENDBRANCH   1   3
BRANCH   1  11
ATOM     11  C   UNL     1     -12.005 -15.931  30.947  1.00  0.00     0.087 C 
BRANCH  11  12
ATOM     12  C   UNL     1     -13.403 -16.546  31.239  1.00  0.00     0.066 C 
BRANCH  12  13
ATOM     13  C   UNL     1     -13.347 -18.066  31.390  1.00  0.00     0.140 C 
ATOM     14  O   UNL     1     -13.589 -18.559  32.482  1.00  0.00    -0.299 OA
BRANCH  13  15
ATOM     15  C   UNL     1     -13.032 -19.015  30.244  1.00  0.00     0.106 CG0
ATOM     16  G   UNL     1     -11.582 -18.996  29.795  1.00  0.00     0.000 G0
ENDBRANCH  13  15
ENDBRANCH  12  13
BRANCH  12  17
ATOM     17  C   UNL     1     -14.140 -15.895  32.451  1.00  0.00    -0.006 C 
ATOM     18  C   UNL     1     -13.205 -15.352  33.546  1.00  0.00     0.008 C 
ATOM     19  C   UNL     1     -15.115 -14.795  32.003  1.00  0.00     0.008 C 
ENDBRANCH  12  17
ENDBRANCH  11  12
ENDBRANCH   1  11
TORSDOF 1
ENDMDL
MODEL 9
REMARK VINA RESULT:    -1.997      1.936      3.628
REMARK INTER + INTRA:          -2.890
REMARK INTER:                  -4.077
REMARK INTRA:                   1.187
REMARK UNBOUND:                 0.158
REMARK SMILES CC1=CCC[C@H](C)C(=O)C[C@H](C(C)C)C(=O)C1
REMARK SMILES IDX 8 1 9 2 6 3 7 4 5 5 4 6 3 7 2 8 1 9 10 11 11 12 15 13 16 14
REMARK SMILES IDX 17 15 12 17 13 18 14 19
REMARK H PARENT
REMARK Flexibility Score: 70.00
ROOT
ATOM      1  C   UNL     1     -13.130 -18.303  30.616  1.00  0.00     0.136 C 
ATOM      2  O   UNL     1     -13.367 -17.818  31.714  1.00  0.00    -0.299 OA
ENDROOT
BRANCH   1   3
ATOM      3  C   UNL     1     -12.731 -19.763  30.523  1.00  0.00     0.053 C 
ATOM      4  C   UNL     1     -12.864 -20.271  29.082  1.00  0.00     0.016 C 
BRANCH   3   5
ATOM      5  C   UNL     1     -11.281 -19.937  31.054  1.00  0.00     0.015 C 
BRANCH   5   6
ATOM      6  C   UNL     1     -10.261 -18.920  30.508  1.00  0.00     0.028 C 
BRANCH   6   7
ATOM      7  C   UNL     1     -10.225 -18.756  29.001  1.00  0.00    -0.028 C 
ATOM      8  C   UNL     1     -10.236 -17.588  28.316  1.00  0.00    -0.070 CG0
ATOM      9  C   UNL     1     -10.276 -17.649  26.809  1.00  0.00     0.039 C 
ATOM     10  G   UNL     1     -10.142 -16.226  28.977  1.00  0.00     0.000 G0
ENDBRANCH   6   7
ENDBRANCH   5   6
ENDBRANCH   3   5
ENDBRANCH   1   3
BRANCH   1  11
ATOM     11  C   UNL     1     -13.246 -17.420  29.391  1.00  0.00     0.087 C 
BRANCH  11  12
ATOM     12  C   UNL     1     -12.729 -15.969  29.606  1.00  0.00     0.066 C 
BRANCH  12  13
ATOM     13  C   UNL     1     -11.240 -15.929  29.950  1.00  0.00     0.140 C 
ATOM     14  O   UNL     1     -10.908 -15.666  31.097  1.00  0.00    -0.299 OA
BRANCH  13  15
ATOM     15  C   UNL     1     -10.136 -16.227  28.949  1.00  0.00     0.106 CG0
ATOM     16  G   UNL     1     -10.231 -17.594  28.298  1.00  0.00     0.000 G0
ENDBRANCH  13  15
ENDBRANCH  12  13
BRANCH  12  17
ATOM     17  C   UNL     1     -13.050 -15.002  28.425  1.00  0.00    -0.006 C 
ATOM     18  C   UNL     1     -13.399 -15.707  27.102  1.00  0.00     0.008 C 
ATOM     19  C   UNL     1     -14.159 -14.001  28.792  1.00  0.00     0.008 C 
ENDBRANCH  12  17
ENDBRANCH  11  12
ENDBRANCH   1  11
TORSDOF 1
ENDMDL
