MODEL 1
REMARK VINA RESULT:    -3.322      0.000      0.000
REMARK INTER + INTRA:          -5.361
REMARK INTER:                  -4.487
REMARK INTRA:                  -0.874
REMARK UNBOUND:                -0.874
REMARK SMILES O=C[C@@H](O)[C@H](O)[C@@H](O)CO
REMARK SMILES IDX 7 1 9 2 10 3 5 5 3 6 2 7 1 8 4 9 6 11 8 13
REMARK H PARENT 10 4 4 10 6 12 8 14
REMARK Flexibility Score: inf
ROOT
ATOM      1  C   UNL     1       4.376 -10.824  -6.484  1.00  0.00     0.171 C 
ENDROOT
BRANCH   1   2
ATOM      2  C   UNL     1       3.040 -11.543  -6.747  1.00  0.00     0.190 C 
BRANCH   2   3
ATOM      3  O   UNL     1       2.007 -10.615  -6.947  1.00  0.00    -0.394 OA
ATOM      4  H   UNL     1       1.557 -10.488  -6.070  1.00  0.00     0.210 HD
ENDBRANCH   2   3
ENDBRANCH   1   2
BRANCH   1   5
ATOM      5  C   UNL     1       4.826  -9.933  -7.676  1.00  0.00     0.181 C 
BRANCH   5   6
ATOM      6  C   UNL     1       4.656  -8.424  -7.370  1.00  0.00     0.209 C 
BRANCH   6   7
ATOM      7  C   UNL     1       4.992  -7.557  -8.558  1.00  0.00     0.258 C 
ATOM      8  O   UNL     1       4.157  -7.324  -9.417  1.00  0.00    -0.300 OA
ENDBRANCH   6   7
BRANCH   6   9
ATOM      9  O   UNL     1       3.351  -8.146  -6.927  1.00  0.00    -0.383 OA
ATOM     10  H   UNL     1       3.287  -7.166  -6.770  1.00  0.00     0.211 HD
ENDBRANCH   6   9
ENDBRANCH   5   6
BRANCH   5  11
ATOM     11  O   UNL     1       4.073 -10.246  -8.822  1.00  0.00    -0.387 OA
ATOM     12  H   UNL     1       3.730  -9.391  -9.192  1.00  0.00     0.211 HD
ENDBRANCH   5  11
ENDBRANCH   1   5
BRANCH   1  13
ATOM     13  O   UNL     1       4.301 -10.079  -5.293  1.00  0.00    -0.388 OA
ATOM     14  H   UNL     1       5.230  -9.899  -4.991  1.00  0.00     0.211 HD
ENDBRANCH   1  13
TORSDOF 8
ENDMDL
MODEL 2
REMARK VINA RESULT:    -3.264      2.618      4.168
REMARK INTER + INTRA:          -5.283
REMARK INTER:                  -4.760
REMARK INTRA:                  -0.523
REMARK UNBOUND:                -0.874
REMARK SMILES O=C[C@@H](O)[C@H](O)[C@@H](O)CO
REMARK SMILES IDX 7 1 9 2 10 3 5 5 3 6 2 7 1 8 4 9 6 11 8 13
REMARK H PARENT 10 4 4 10 6 12 8 14
REMARK Flexibility Score: inf
ROOT
ATOM      1  C   UNL     1       4.939 -11.958  -3.603  1.00  0.00     0.171 C 
ENDROOT
BRANCH   1   2
ATOM      2  C   UNL     1       4.695 -11.332  -2.217  1.00  0.00     0.190 C 
BRANCH   2   3
ATOM      3  O   UNL     1       5.647 -10.337  -1.947  1.00  0.00    -0.394 OA
ATOM      4  H   UNL     1       6.472 -10.800  -1.645  1.00  0.00     0.210 HD
ENDBRANCH   2   3
ENDBRANCH   1   2
BRANCH   1   5
ATOM      5  C   UNL     1       3.725 -11.793  -4.560  1.00  0.00     0.181 C 
BRANCH   5   6
ATOM      6  C   UNL     1       4.125 -11.112  -5.893  1.00  0.00     0.209 C 
BRANCH   6   7
ATOM      7  C   UNL     1       3.038 -11.208  -6.934  1.00  0.00     0.258 C 
ATOM      8  O   UNL     1       2.081 -10.449  -6.912  1.00  0.00    -0.300 OA
ENDBRANCH   6   7
BRANCH   6   9
ATOM      9  O   UNL     1       4.469  -9.765  -5.683  1.00  0.00    -0.383 OA
ATOM     10  H   UNL     1       3.902  -9.210  -6.283  1.00  0.00     0.211 HD
ENDBRANCH   6   9
ENDBRANCH   5   6
BRANCH   5  11
ATOM     11  O   UNL     1       2.726 -11.020  -3.943  1.00  0.00    -0.387 OA
ATOM     12  H   UNL     1       3.148 -10.548  -3.179  1.00  0.00     0.211 HD
ENDBRANCH   5  11
ENDBRANCH   1   5
BRANCH   1  13
ATOM     13  O   UNL     1       6.111 -11.433  -4.175  1.00  0.00    -0.388 OA
ATOM     14  H   UNL     1       6.692 -12.198  -4.430  1.00  0.00     0.211 HD
ENDBRANCH   1  13
TORSDOF 8
ENDMDL
MODEL 3
REMARK VINA RESULT:    -3.199      7.595      8.370
REMARK INTER + INTRA:          -5.196
REMARK INTER:                  -4.511
REMARK INTRA:                  -0.685
REMARK UNBOUND:                -0.874
REMARK SMILES O=C[C@@H](O)[C@H](O)[C@@H](O)CO
REMARK SMILES IDX 7 1 9 2 10 3 5 5 3 6 2 7 1 8 4 9 6 11 8 13
REMARK H PARENT 10 4 4 10 6 12 8 14
REMARK Flexibility Score: inf
ROOT
ATOM      1  C   UNL     1      -4.486 -10.481  -9.763  1.00  0.00     0.171 C 
ENDROOT
BRANCH   1   2
ATOM      2  C   UNL     1      -4.003 -11.782  -9.095  1.00  0.00     0.190 C 
BRANCH   2   3
ATOM      3  O   UNL     1      -2.829 -11.558  -8.360  1.00  0.00    -0.394 OA
ATOM      4  H   UNL     1      -2.821 -10.596  -8.113  1.00  0.00     0.210 HD
ENDBRANCH   2   3
ENDBRANCH   1   2
BRANCH   1   5
ATOM      5  C   UNL     1      -3.572  -9.265  -9.444  1.00  0.00     0.181 C 
BRANCH   5   6
ATOM      6  C   UNL     1      -4.314  -7.918  -9.625  1.00  0.00     0.209 C 
BRANCH   6   7
ATOM      7  C   UNL     1      -3.364  -6.754  -9.765  1.00  0.00     0.258 C 
ATOM      8  O   UNL     1      -2.789  -6.542 -10.821  1.00  0.00    -0.300 OA
ENDBRANCH   6   7
BRANCH   6   9
ATOM      9  O   UNL     1      -5.179  -7.966 -10.732  1.00  0.00    -0.383 OA
ATOM     10  H   UNL     1      -6.032  -8.381 -10.433  1.00  0.00     0.211 HD
ENDBRANCH   6   9
ENDBRANCH   5   6
BRANCH   5  11
ATOM     11  O   UNL     1      -2.447  -9.273 -10.287  1.00  0.00    -0.387 OA
ATOM     12  H   UNL     1      -2.757  -9.028 -11.197  1.00  0.00     0.211 HD
ENDBRANCH   5  11
ENDBRANCH   1   5
BRANCH   1  13
ATOM     13  O   UNL     1      -4.617 -10.668 -11.151  1.00  0.00    -0.388 OA
ATOM     14  H   UNL     1      -5.524 -11.035 -11.322  1.00  0.00     0.211 HD
ENDBRANCH   1  13
TORSDOF 8
ENDMDL
MODEL 4
REMARK VINA RESULT:    -3.139      0.994      3.941
REMARK INTER + INTRA:          -5.114
REMARK INTER:                  -4.141
REMARK INTRA:                  -0.973
REMARK UNBOUND:                -0.874
REMARK SMILES O=C[C@@H](O)[C@H](O)[C@@H](O)CO
REMARK SMILES IDX 7 1 9 2 10 3 5 5 3 6 2 7 1 8 4 9 6 11 8 13
REMARK H PARENT 10 4 4 10 6 12 8 14
REMARK Flexibility Score: inf
ROOT
ATOM      1  C   UNL     1       4.982 -10.107  -7.815  1.00  0.00     0.171 C 
ENDROOT
BRANCH   1   2
ATOM      2  C   UNL     1       5.123  -8.580  -7.674  1.00  0.00     0.190 C 
BRANCH   2   3
ATOM      3  O   UNL     1       3.862  -7.968  -7.622  1.00  0.00    -0.394 OA
ATOM      4  H   UNL     1       3.422  -8.136  -8.496  1.00  0.00     0.210 HD
ENDBRANCH   2   3
ENDBRANCH   1   2
BRANCH   1   5
ATOM      5  C   UNL     1       4.483 -10.789  -6.510  1.00  0.00     0.181 C 
BRANCH   5   6
ATOM      6  C   UNL     1       3.035 -11.322  -6.651  1.00  0.00     0.209 C 
BRANCH   6   7
ATOM      7  C   UNL     1       2.601 -12.125  -5.450  1.00  0.00     0.258 C 
ATOM      8  O   UNL     1       2.653 -11.649  -4.327  1.00  0.00    -0.300 OA
ENDBRANCH   6   7
BRANCH   6   9
ATOM      9  O   UNL     1       2.132 -10.267  -6.873  1.00  0.00    -0.383 OA
ATOM     10  H   UNL     1       1.384 -10.620  -7.424  1.00  0.00     0.211 HD
ENDBRANCH   6   9
ENDBRANCH   5   6
BRANCH   5  11
ATOM     11  O   UNL     1       4.522  -9.874  -5.443  1.00  0.00    -0.387 OA
ATOM     12  H   UNL     1       4.355  -8.972  -5.820  1.00  0.00     0.211 HD
ENDBRANCH   5  11
ENDBRANCH   1   5
BRANCH   1  13
ATOM     13  O   UNL     1       4.148 -10.421  -8.903  1.00  0.00    -0.388 OA
ATOM     14  H   UNL     1       4.364  -9.790  -9.639  1.00  0.00     0.211 HD
ENDBRANCH   1  13
TORSDOF 8
ENDMDL
MODEL 5
REMARK VINA RESULT:    -3.110      1.571      2.192
REMARK INTER + INTRA:          -5.075
REMARK INTER:                  -4.476
REMARK INTRA:                  -0.599
REMARK UNBOUND:                -0.874
REMARK SMILES O=C[C@@H](O)[C@H](O)[C@@H](O)CO
REMARK SMILES IDX 7 1 9 2 10 3 5 5 3 6 2 7 1 8 4 9 6 11 8 13
REMARK H PARENT 10 4 4 10 6 12 8 14
REMARK Flexibility Score: inf
ROOT
ATOM      1  C   UNL     1       3.999 -11.257  -5.335  1.00  0.00     0.171 C 
ENDROOT
BRANCH   1   2
ATOM      2  C   UNL     1       2.859 -12.026  -4.641  1.00  0.00     0.190 C 
BRANCH   2   3
ATOM      3  O   UNL     1       2.356 -11.295  -3.554  1.00  0.00    -0.394 OA
ATOM      4  H   UNL     1       2.650 -11.763  -2.730  1.00  0.00     0.210 HD
ENDBRANCH   2   3
ENDBRANCH   1   2
BRANCH   1   5
ATOM      5  C   UNL     1       3.536 -10.534  -6.631  1.00  0.00     0.181 C 
BRANCH   5   6
ATOM      6  C   UNL     1       4.709  -9.819  -7.347  1.00  0.00     0.209 C 
BRANCH   6   7
ATOM      7  C   UNL     1       4.556  -8.318  -7.338  1.00  0.00     0.258 C 
ATOM      8  O   UNL     1       3.995  -7.741  -8.257  1.00  0.00    -0.300 OA
ENDBRANCH   6   7
BRANCH   6   9
ATOM      9  O   UNL     1       5.941 -10.178  -6.773  1.00  0.00    -0.383 OA
ATOM     10  H   UNL     1       5.797 -10.294  -5.796  1.00  0.00     0.211 HD
ENDBRANCH   6   9
ENDBRANCH   5   6
BRANCH   5  11
ATOM     11  O   UNL     1       2.549  -9.580  -6.325  1.00  0.00    -0.387 OA
ATOM     12  H   UNL     1       1.718  -9.854  -6.794  1.00  0.00     0.211 HD
ENDBRANCH   5  11
ENDBRANCH   1   5
BRANCH   1  13
ATOM     13  O   UNL     1       4.595 -10.355  -4.436  1.00  0.00    -0.388 OA
ATOM     14  H   UNL     1       4.511  -9.443  -4.822  1.00  0.00     0.211 HD
ENDBRANCH   1  13
TORSDOF 8
ENDMDL
MODEL 6
REMARK VINA RESULT:    -2.931      1.550      3.832
REMARK INTER + INTRA:          -4.833
REMARK INTER:                  -3.880
REMARK INTRA:                  -0.953
REMARK UNBOUND:                -0.874
REMARK SMILES O=C[C@@H](O)[C@H](O)[C@@H](O)CO
REMARK SMILES IDX 7 1 9 2 10 3 5 5 3 6 2 7 1 8 4 9 6 11 8 13
REMARK H PARENT 10 4 4 10 6 12 8 14
REMARK Flexibility Score: inf
ROOT
ATOM      1  C   UNL     1       5.255  -9.046  -8.083  1.00  0.00     0.171 C 
ENDROOT
BRANCH   1   2
ATOM      2  C   UNL     1       6.469  -8.150  -7.778  1.00  0.00     0.190 C 
BRANCH   2   3
ATOM      3  O   UNL     1       7.396  -8.827  -6.971  1.00  0.00    -0.394 OA
ATOM      4  H   UNL     1       8.161  -9.075  -7.554  1.00  0.00     0.210 HD
ENDBRANCH   2   3
ENDBRANCH   1   2
BRANCH   1   5
ATOM      5  C   UNL     1       5.114 -10.231  -7.086  1.00  0.00     0.181 C 
BRANCH   5   6
ATOM      6  C   UNL     1       4.071 -11.271  -7.564  1.00  0.00     0.209 C 
BRANCH   6   7
ATOM      7  C   UNL     1       2.789 -11.203  -6.771  1.00  0.00     0.258 C 
ATOM      8  O   UNL     1       2.113 -10.186  -6.763  1.00  0.00    -0.300 OA
ENDBRANCH   6   7
BRANCH   6   9
ATOM      9  O   UNL     1       3.796 -11.113  -8.933  1.00  0.00    -0.383 OA
ATOM     10  H   UNL     1       2.810 -11.035  -9.037  1.00  0.00     0.211 HD
ENDBRANCH   6   9
ENDBRANCH   5   6
BRANCH   5  11
ATOM     11  O   UNL     1       4.726  -9.754  -5.822  1.00  0.00    -0.387 OA
ATOM     12  H   UNL     1       5.020  -8.808  -5.760  1.00  0.00     0.211 HD
ENDBRANCH   5  11
ENDBRANCH   1   5
BRANCH   1  13
ATOM     13  O   UNL     1       4.080  -8.275  -8.124  1.00  0.00    -0.388 OA
ATOM     14  H   UNL     1       4.181  -7.608  -8.853  1.00  0.00     0.211 HD
ENDBRANCH   1  13
TORSDOF 8
ENDMDL
MODEL 7
REMARK VINA RESULT:    -2.889      7.725      9.103
REMARK INTER + INTRA:          -4.776
REMARK INTER:                  -3.838
REMARK INTRA:                  -0.938
REMARK UNBOUND:                -0.874
REMARK SMILES O=C[C@@H](O)[C@H](O)[C@@H](O)CO
REMARK SMILES IDX 7 1 9 2 10 3 5 5 3 6 2 7 1 8 4 9 6 11 8 13
REMARK H PARENT 10 4 4 10 6 12 8 14
REMARK Flexibility Score: inf
ROOT
ATOM      1  C   UNL     1      -3.449  -8.273  -9.237  1.00  0.00     0.171 C 
ENDROOT
BRANCH   1   2
ATOM      2  C   UNL     1      -3.470  -6.773  -9.584  1.00  0.00     0.190 C 
BRANCH   2   3
ATOM      3  O   UNL     1      -3.615  -6.584 -10.966  1.00  0.00    -0.394 OA
ATOM      4  H   UNL     1      -3.055  -7.271 -11.413  1.00  0.00     0.210 HD
ENDBRANCH   2   3
ENDBRANCH   1   2
BRANCH   1   5
ATOM      5  C   UNL     1      -4.865  -8.915  -9.252  1.00  0.00     0.181 C 
BRANCH   5   6
ATOM      6  C   UNL     1      -4.885 -10.292  -8.544  1.00  0.00     0.209 C 
BRANCH   6   7
ATOM      7  C   UNL     1      -4.964 -11.438  -9.522  1.00  0.00     0.258 C 
ATOM      8  O   UNL     1      -4.093 -11.604 -10.362  1.00  0.00    -0.300 OA
ENDBRANCH   6   7
BRANCH   6   9
ATOM      9  O   UNL     1      -3.761 -10.446  -7.715  1.00  0.00    -0.383 OA
ATOM     10  H   UNL     1      -3.878  -9.847  -6.930  1.00  0.00     0.211 HD
ENDBRANCH   6   9
ENDBRANCH   5   6
BRANCH   5  11
ATOM     11  O   UNL     1      -5.303  -9.085 -10.577  1.00  0.00    -0.387 OA
ATOM     12  H   UNL     1      -6.074  -9.709 -10.555  1.00  0.00     0.211 HD
ENDBRANCH   5  11
ENDBRANCH   1   5
BRANCH   1  13
ATOM     13  O   UNL     1      -2.572  -8.958 -10.096  1.00  0.00    -0.388 OA
ATOM     14  H   UNL     1      -1.645  -8.788  -9.781  1.00  0.00     0.211 HD
ENDBRANCH   1  13
TORSDOF 8
ENDMDL
MODEL 8
REMARK VINA RESULT:    -2.750      8.195      9.695
REMARK INTER + INTRA:          -4.588
REMARK INTER:                  -3.656
REMARK INTRA:                  -0.932
REMARK UNBOUND:                -0.874
REMARK SMILES O=C[C@@H](O)[C@H](O)[C@@H](O)CO
REMARK SMILES IDX 7 1 9 2 10 3 5 5 3 6 2 7 1 8 4 9 6 11 8 13
REMARK H PARENT 10 4 4 10 6 12 8 14
REMARK Flexibility Score: inf
ROOT
ATOM      1  C   UNL     1      -3.821 -10.716  -8.899  1.00  0.00     0.171 C 
ENDROOT
BRANCH   1   2
ATOM      2  C   UNL     1      -2.365 -10.268  -9.121  1.00  0.00     0.190 C 
BRANCH   2   3
ATOM      3  O   UNL     1      -2.256  -9.490 -10.283  1.00  0.00    -0.394 OA
ATOM      4  H   UNL     1      -3.171  -9.183 -10.513  1.00  0.00     0.210 HD
ENDBRANCH   2   3
ENDBRANCH   1   2
BRANCH   1   5
ATOM      5  C   UNL     1      -4.837  -9.914  -9.761  1.00  0.00     0.181 C 
BRANCH   5   6
ATOM      6  C   UNL     1      -6.290 -10.080  -9.251  1.00  0.00     0.209 C 
BRANCH   6   7
ATOM      7  C   UNL     1      -7.120 -10.952 -10.161  1.00  0.00     0.258 C 
ATOM      8  O   UNL     1      -6.831 -12.125 -10.337  1.00  0.00    -0.300 OA
ENDBRANCH   6   7
BRANCH   6   9
ATOM      9  O   UNL     1      -6.306 -10.600  -7.945  1.00  0.00    -0.383 OA
ATOM     10  H   UNL     1      -6.723  -9.918  -7.353  1.00  0.00     0.211 HD
ENDBRANCH   6   9
ENDBRANCH   5   6
BRANCH   5  11
ATOM     11  O   UNL     1      -4.778 -10.344 -11.098  1.00  0.00    -0.387 OA
ATOM     12  H   UNL     1      -4.076  -9.808 -11.550  1.00  0.00     0.211 HD
ENDBRANCH   5  11
ENDBRANCH   1   5
BRANCH   1  13
ATOM     13  O   UNL     1      -3.944 -12.099  -9.124  1.00  0.00    -0.388 OA
ATOM     14  H   UNL     1      -3.857 -12.557  -8.247  1.00  0.00     0.211 HD
ENDBRANCH   1  13
TORSDOF 8
ENDMDL
