MODEL 1
REMARK VINA RESULT:    -0.259      0.000      0.000
REMARK INTER + INTRA:          -0.267
REMARK INTER:                  -0.267
REMARK INTRA:                   0.000
REMARK UNBOUND:                 0.000
REMARK SMILES Oc1ccc2[nH]ccc2c1
REMARK SMILES IDX 3 1 4 2 5 3 9 4 8 5 7 6 6 7 10 8 2 9 1 11
REMARK H PARENT 6 10 1 12
REMARK Flexibility Score: inf
ROOT
ATOM      1  C   UNL     1     135.991 137.439 140.958  1.00  0.00     0.048 A 
ATOM      2  C   UNL     1     136.663 138.564 141.471  1.00  0.00     0.030 A 
ATOM      3  C   UNL     1     138.043 138.470 141.652  1.00  0.00     0.046 A 
ATOM      4  C   UNL     1     138.732 137.327 141.347  1.00  0.00     0.003 A 
ATOM      5  C   UNL     1     140.060 137.557 141.638  1.00  0.00     0.028 A 
ATOM      6  C   UNL     1     140.105 138.862 142.117  1.00  0.00     0.083 A 
ATOM      7  N   UNL     1     138.870 139.416 142.125  1.00  0.00    -0.361 N 
ATOM      8  C   UNL     1     138.097 136.197 140.838  1.00  0.00     0.056 A 
ATOM      9  C   UNL     1     136.704 136.256 140.641  1.00  0.00     0.116 A 
ATOM     10  H   UNL     1     138.618 140.380 142.434  1.00  0.00     0.166 HD
ENDROOT
BRANCH   9  11
ATOM     11  O   UNL     1     136.037 135.144 140.134  1.00  0.00    -0.508 OA
ATOM     12  H   UNL     1     135.462 134.557 140.727  1.00  0.00     0.293 HD
ENDBRANCH   9  11
TORSDOF 1
ENDMDL
MODEL 2
REMARK VINA RESULT:    -0.251      2.558      2.860
REMARK INTER + INTRA:          -0.258
REMARK INTER:                  -0.258
REMARK INTRA:                   0.000
REMARK UNBOUND:                 0.000
REMARK SMILES Oc1ccc2[nH]ccc2c1
REMARK SMILES IDX 3 1 4 2 5 3 9 4 8 5 7 6 6 7 10 8 2 9 1 11
REMARK H PARENT 6 10 1 12
REMARK Flexibility Score: inf
ROOT
ATOM      1  C   UNL     1     137.060 137.916 139.040  1.00  0.00     0.048 A 
ATOM      2  C   UNL     1     137.557 137.541 140.301  1.00  0.00     0.030 A 
ATOM      3  C   UNL     1     138.587 138.306 140.848  1.00  0.00     0.046 A 
ATOM      4  C   UNL     1     139.107 139.388 140.190  1.00  0.00     0.003 A 
ATOM      5  C   UNL     1     140.096 139.919 140.988  1.00  0.00     0.028 A 
ATOM      6  C   UNL     1     140.125 139.109 142.119  1.00  0.00     0.083 A 
ATOM      7  N   UNL     1     139.201 138.124 142.028  1.00  0.00    -0.361 N 
ATOM      8  C   UNL     1     138.637 139.785 138.940  1.00  0.00     0.056 A 
ATOM      9  C   UNL     1     137.597 139.036 138.358  1.00  0.00     0.116 A 
ATOM     10  H   UNL     1     139.009 137.379 142.734  1.00  0.00     0.166 HD
ENDROOT
BRANCH   9  11
ATOM     11  O   UNL     1     137.104 139.406 137.109  1.00  0.00    -0.508 OA
ATOM     12  H   UNL     1     137.695 139.854 136.420  1.00  0.00     0.293 HD
ENDBRANCH   9  11
TORSDOF 1
ENDMDL
MODEL 3
REMARK VINA RESULT:    -0.206      1.547      1.615
REMARK INTER + INTRA:          -0.213
REMARK INTER:                  -0.213
REMARK INTRA:                   0.000
REMARK UNBOUND:                 0.000
REMARK SMILES Oc1ccc2[nH]ccc2c1
REMARK SMILES IDX 3 1 4 2 5 3 9 4 8 5 7 6 6 7 10 8 2 9 1 11
REMARK H PARENT 6 10 1 12
REMARK Flexibility Score: inf
ROOT
ATOM      1  C   UNL     1     137.454 136.593 139.002  1.00  0.00     0.048 A 
ATOM      2  C   UNL     1     138.050 137.868 139.027  1.00  0.00     0.030 A 
ATOM      3  C   UNL     1     138.843 138.193 140.126  1.00  0.00     0.046 A 
ATOM      4  C   UNL     1     139.044 137.312 141.155  1.00  0.00     0.003 A 
ATOM      5  C   UNL     1     139.865 137.931 142.073  1.00  0.00     0.028 A 
ATOM      6  C   UNL     1     140.125 139.189 141.537  1.00  0.00     0.083 A 
ATOM      7  N   UNL     1     139.498 139.345 140.348  1.00  0.00    -0.361 N 
ATOM      8  C   UNL     1     138.470 136.044 141.161  1.00  0.00     0.056 A 
ATOM      9  C   UNL     1     137.662 135.680 140.066  1.00  0.00     0.116 A 
ATOM     10  H   UNL     1     139.522 140.187 139.733  1.00  0.00     0.166 HD
ENDROOT
BRANCH   9  11
ATOM     11  O   UNL     1     137.071 134.419 140.040  1.00  0.00    -0.508 OA
ATOM     12  H   UNL     1     136.787 133.952 140.893  1.00  0.00     0.293 HD
ENDBRANCH   9  11
TORSDOF 1
ENDMDL
MODEL 4
REMARK VINA RESULT:    -0.206      1.629      2.518
REMARK INTER + INTRA:          -0.212
REMARK INTER:                  -0.212
REMARK INTRA:                   0.000
REMARK UNBOUND:                 0.000
REMARK SMILES Oc1ccc2[nH]ccc2c1
REMARK SMILES IDX 3 1 4 2 5 3 9 4 8 5 7 6 6 7 10 8 2 9 1 11
REMARK H PARENT 6 10 1 12
REMARK Flexibility Score: inf
ROOT
ATOM      1  C   UNL     1     137.109 134.201 140.773  1.00  0.00     0.048 A 
ATOM      2  C   UNL     1     138.389 134.319 141.347  1.00  0.00     0.030 A 
ATOM      3  C   UNL     1     138.885 135.602 141.572  1.00  0.00     0.046 A 
ATOM      4  C   UNL     1     138.162 136.720 141.250  1.00  0.00     0.003 A 
ATOM      5  C   UNL     1     138.923 137.815 141.594  1.00  0.00     0.028 A 
ATOM      6  C   UNL     1     140.099 137.290 142.121  1.00  0.00     0.083 A 
ATOM      7  N   UNL     1     140.071 135.937 142.105  1.00  0.00    -0.361 N 
ATOM      8  C   UNL     1     136.894 136.638 140.681  1.00  0.00     0.056 A 
ATOM      9  C   UNL     1     136.361 135.357 140.439  1.00  0.00     0.116 A 
ATOM     10  H   UNL     1     140.820 135.291 142.439  1.00  0.00     0.166 HD
ENDROOT
BRANCH   9  11
ATOM     11  O   UNL     1     135.094 135.239 139.871  1.00  0.00    -0.508 OA
ATOM     12  H   UNL     1     134.562 134.380 139.941  1.00  0.00     0.293 HD
ENDBRANCH   9  11
TORSDOF 1
ENDMDL
MODEL 5
REMARK VINA RESULT:    -0.158     20.260     21.830
REMARK INTER + INTRA:          -0.163
REMARK INTER:                  -0.163
REMARK INTRA:                   0.000
REMARK UNBOUND:                 0.000
REMARK SMILES Oc1ccc2[nH]ccc2c1
REMARK SMILES IDX 3 1 4 2 5 3 9 4 8 5 7 6 6 7 10 8 2 9 1 11
REMARK H PARENT 6 10 1 12
REMARK Flexibility Score: inf
ROOT
ATOM      1  C   UNL     1     122.691 124.455 141.547  1.00  0.00     0.048 A 
ATOM      2  C   UNL     1     121.452 123.799 141.663  1.00  0.00     0.030 A 
ATOM      3  C   UNL     1     121.462 122.416 141.843  1.00  0.00     0.046 A 
ATOM      4  C   UNL     1     122.633 121.708 141.906  1.00  0.00     0.003 A 
ATOM      5  C   UNL     1     122.302 120.382 142.087  1.00  0.00     0.028 A 
ATOM      6  C   UNL     1     120.911 120.357 142.125  1.00  0.00     0.083 A 
ATOM      7  N   UNL     1     120.403 121.602 141.974  1.00  0.00    -0.361 N 
ATOM      8  C   UNL     1     123.875 122.327 141.795  1.00  0.00     0.056 A 
ATOM      9  C   UNL     1     123.902 123.723 141.613  1.00  0.00     0.116 A 
ATOM     10  H   UNL     1     119.394 121.870 141.964  1.00  0.00     0.166 HD
ENDROOT
BRANCH   9  11
ATOM     11  O   UNL     1     125.129 124.374 141.498  1.00  0.00    -0.508 OA
ATOM     12  H   UNL     1     125.841 124.048 140.857  1.00  0.00     0.293 HD
ENDBRANCH   9  11
TORSDOF 1
ENDMDL
MODEL 6
REMARK VINA RESULT:    -0.156      3.220      4.348
REMARK INTER + INTRA:          -0.160
REMARK INTER:                  -0.160
REMARK INTRA:                   0.000
REMARK UNBOUND:                 0.000
REMARK SMILES Oc1ccc2[nH]ccc2c1
REMARK SMILES IDX 3 1 4 2 5 3 9 4 8 5 7 6 6 7 10 8 2 9 1 11
REMARK H PARENT 6 10 1 12
REMARK Flexibility Score: inf
ROOT
ATOM      1  C   UNL     1     139.817 139.220 139.707  1.00  0.00     0.048 A 
ATOM      2  C   UNL     1     139.057 139.628 138.595  1.00  0.00     0.030 A 
ATOM      3  C   UNL     1     137.670 139.669 138.736  1.00  0.00     0.046 A 
ATOM      4  C   UNL     1     137.056 139.325 139.911  1.00  0.00     0.003 A 
ATOM      5  C   UNL     1     135.698 139.471 139.723  1.00  0.00     0.028 A 
ATOM      6  C   UNL     1     135.558 139.907 138.409  1.00  0.00     0.083 A 
ATOM      7  N   UNL     1     136.766 140.026 137.810  1.00  0.00    -0.361 N 
ATOM      8  C   UNL     1     137.779 138.918 141.029  1.00  0.00     0.056 A 
ATOM      9  C   UNL     1     139.183 138.865 140.923  1.00  0.00     0.116 A 
ATOM     10  H   UNL     1     136.951 140.333 136.830  1.00  0.00     0.166 HD
ENDROOT
BRANCH   9  11
ATOM     11  O   UNL     1     139.937 138.461 142.022  1.00  0.00    -0.508 OA
ATOM     12  H   UNL     1     140.366 137.544 142.059  1.00  0.00     0.293 HD
ENDBRANCH   9  11
TORSDOF 1
ENDMDL
MODEL 7
REMARK VINA RESULT:    -0.149      4.206      4.886
REMARK INTER + INTRA:          -0.154
REMARK INTER:                  -0.154
REMARK INTRA:                   0.000
REMARK UNBOUND:                 0.000
REMARK SMILES Oc1ccc2[nH]ccc2c1
REMARK SMILES IDX 3 1 4 2 5 3 9 4 8 5 7 6 6 7 10 8 2 9 1 11
REMARK H PARENT 6 10 1 12
REMARK Flexibility Score: inf
ROOT
ATOM      1  C   UNL     1     139.511 137.127 140.236  1.00  0.00     0.048 A 
ATOM      2  C   UNL     1     139.304 136.429 139.032  1.00  0.00     0.030 A 
ATOM      3  C   UNL     1     139.515 137.116 137.838  1.00  0.00     0.046 A 
ATOM      4  C   UNL     1     139.910 138.428 137.822  1.00  0.00     0.003 A 
ATOM      5  C   UNL     1     140.028 138.806 136.502  1.00  0.00     0.028 A 
ATOM      6  C   UNL     1     139.689 137.674 135.768  1.00  0.00     0.083 A 
ATOM      7  N   UNL     1     139.376 136.644 136.588  1.00  0.00    -0.361 N 
ATOM      8  C   UNL     1     140.124 139.146 138.995  1.00  0.00     0.056 A 
ATOM      9  C   UNL     1     139.920 138.483 140.222  1.00  0.00     0.116 A 
ATOM     10  H   UNL     1     139.087 135.682 136.304  1.00  0.00     0.166 HD
ENDROOT
BRANCH   9  11
ATOM     11  O   UNL     1     140.125 139.173 141.414  1.00  0.00    -0.508 OA
ATOM     12  H   UNL     1     141.048 139.482 141.694  1.00  0.00     0.293 HD
ENDBRANCH   9  11
TORSDOF 1
ENDMDL
MODEL 8
REMARK VINA RESULT:    -0.148      3.430      3.879
REMARK INTER + INTRA:          -0.152
REMARK INTER:                  -0.152
REMARK INTRA:                   0.000
REMARK UNBOUND:                 0.000
REMARK SMILES Oc1ccc2[nH]ccc2c1
REMARK SMILES IDX 3 1 4 2 5 3 9 4 8 5 7 6 6 7 10 8 2 9 1 11
REMARK H PARENT 6 10 1 12
REMARK Flexibility Score: inf
ROOT
ATOM      1  C   UNL     1     138.394 138.795 140.985  1.00  0.00     0.048 A 
ATOM      2  C   UNL     1     137.771 139.215 139.795  1.00  0.00     0.030 A 
ATOM      3  C   UNL     1     138.267 138.717 138.591  1.00  0.00     0.046 A 
ATOM      4  C   UNL     1     139.326 137.849 138.552  1.00  0.00     0.003 A 
ATOM      5  C   UNL     1     139.566 137.551 137.229  1.00  0.00     0.028 A 
ATOM      6  C   UNL     1     138.616 138.274 136.515  1.00  0.00     0.083 A 
ATOM      7  N   UNL     1     137.825 138.986 137.352  1.00  0.00    -0.361 N 
ATOM      8  C   UNL     1     139.964 137.414 139.711  1.00  0.00     0.056 A 
ATOM      9  C   UNL     1     139.489 137.896 140.946  1.00  0.00     0.116 A 
ATOM     10  H   UNL     1     137.033 139.612 137.085  1.00  0.00     0.166 HD
ENDROOT
BRANCH   9  11
ATOM     11  O   UNL     1     140.105 137.482 142.125  1.00  0.00    -0.508 OA
ATOM     12  H   UNL     1     140.731 138.092 142.636  1.00  0.00     0.293 HD
ENDBRANCH   9  11
TORSDOF 1
ENDMDL
MODEL 9
REMARK VINA RESULT:     0.516      2.780      3.491
REMARK INTER + INTRA:           0.531
REMARK INTER:                   0.531
REMARK INTRA:                   0.000
REMARK UNBOUND:                 0.000
REMARK SMILES Oc1ccc2[nH]ccc2c1
REMARK SMILES IDX 3 1 4 2 5 3 9 4 8 5 7 6 6 7 10 8 2 9 1 11
REMARK H PARENT 6 10 1 12
REMARK Flexibility Score: inf
ROOT
ATOM      1  C   UNL     1     138.690 136.138 137.809  1.00  0.00     0.048 A 
ATOM      2  C   UNL     1     139.316 135.307 138.756  1.00  0.00     0.030 A 
ATOM      3  C   UNL     1     139.546 135.829 140.028  1.00  0.00     0.046 A 
ATOM      4  C   UNL     1     139.182 137.108 140.358  1.00  0.00     0.003 A 
ATOM      5  C   UNL     1     139.544 137.313 141.671  1.00  0.00     0.028 A 
ATOM      6  C   UNL     1     140.125 136.116 142.079  1.00  0.00     0.083 A 
ATOM      7  N   UNL     1     140.125 135.213 141.071  1.00  0.00    -0.361 N 
ATOM      8  C   UNL     1     138.561 137.955 139.444  1.00  0.00     0.056 A 
ATOM      9  C   UNL     1     138.312 137.461 138.149  1.00  0.00     0.116 A 
ATOM     10  H   UNL     1     140.497 134.238 141.103  1.00  0.00     0.166 HD
ENDROOT
BRANCH   9  11
ATOM     11  O   UNL     1     137.693 138.282 137.210  1.00  0.00    -0.508 OA
ATOM     12  H   UNL     1     137.923 139.266 137.136  1.00  0.00     0.293 HD
ENDBRANCH   9  11
TORSDOF 1
ENDMDL
