MODEL 1
REMARK VINA RESULT:    -5.443      0.000      0.000
REMARK INTER + INTRA:         -11.704
REMARK INTER:                 -10.533
REMARK INTRA:                  -1.171
REMARK UNBOUND:                -1.171
REMARK SMILES CCCCCCCCCCCCCCCCCC(=O)[O-]
REMARK SMILES IDX 10 1 11 2 12 3 13 4 14 5 15 6 16 7 17 8 18 9 19 10 20 11
REMARK SMILES IDX 9 12 8 13 7 14 6 15 5 16 4 17 3 18 2 19 1 20
REMARK H PARENT
REMARK Flexibility Score: inf
ROOT
ATOM      1  C   UNL     1      44.467  -6.677  27.438  1.00  0.00     0.000 C 
ENDROOT
BRANCH   1   2
ATOM      2  C   UNL     1      45.478  -7.288  26.452  1.00  0.00     0.000 C 
BRANCH   2   3
ATOM      3  C   UNL     1      45.105  -7.026  24.982  1.00  0.00     0.000 C 
BRANCH   3   4
ATOM      4  C   UNL     1      45.809  -7.990  24.008  1.00  0.00     0.000 C 
BRANCH   4   5
ATOM      5  C   UNL     1      46.593  -7.313  22.868  1.00  0.00     0.000 C 
BRANCH   5   6
ATOM      6  C   UNL     1      48.113  -7.534  22.973  1.00  0.00     0.000 C 
BRANCH   6   7
ATOM      7  C   UNL     1      48.593  -7.652  24.429  1.00  0.00     0.006 C 
BRANCH   7   8
ATOM      8  C   UNL     1      49.811  -6.767  24.727  1.00  0.00     0.053 C 
BRANCH   8   9
ATOM      9  C   UNL     1      49.402  -5.568  25.524  1.00  0.00     0.041 C 
ATOM     10  O   UNL     1      50.233  -4.994  26.276  1.00  0.00    -0.550 OA
ATOM     11  O   UNL     1      48.094  -5.102  25.463  1.00  0.00    -0.550 OA
ENDBRANCH   8   9
ENDBRANCH   7   8
ENDBRANCH   6   7
ENDBRANCH   5   6
ENDBRANCH   4   5
ENDBRANCH   3   4
ENDBRANCH   2   3
ENDBRANCH   1   2
BRANCH   1  12
ATOM     12  C   UNL     1      43.729  -5.459  26.852  1.00  0.00     0.000 C 
BRANCH  12  13
ATOM     13  C   UNL     1      43.450  -4.378  27.909  1.00  0.00    -0.000 C 
BRANCH  13  14
ATOM     14  C   UNL     1      41.971  -3.955  27.941  1.00  0.00    -0.000 C 
BRANCH  14  15
ATOM     15  C   UNL     1      41.117  -4.689  26.892  1.00  0.00    -0.000 C 
BRANCH  15  16
ATOM     16  C   UNL     1      39.791  -3.994  26.521  1.00  0.00    -0.000 C 
BRANCH  16  17
ATOM     17  C   UNL     1      38.593  -4.938  26.317  1.00  0.00    -0.000 C 
BRANCH  17  18
ATOM     18  C   UNL     1      38.932  -6.405  26.618  1.00  0.00    -0.000 C 
BRANCH  18  19
ATOM     19  C   UNL     1      38.579  -7.304  25.427  1.00  0.00    -0.003 C 
ATOM     20  C   UNL     1      37.207  -6.954  24.858  1.00  0.00     0.004 C 
ENDBRANCH  18  19
ENDBRANCH  17  18
ENDBRANCH  16  17
ENDBRANCH  15  16
ENDBRANCH  14  15
ENDBRANCH  13  14
ENDBRANCH  12  13
ENDBRANCH   1  12
TORSDOF 16
ENDMDL
MODEL 2
REMARK VINA RESULT:    -5.384      4.367      9.172
REMARK INTER + INTRA:         -11.591
REMARK INTER:                 -10.331
REMARK INTRA:                  -1.260
REMARK UNBOUND:                -1.171
REMARK SMILES CCCCCCCCCCCCCCCCCC(=O)[O-]
REMARK SMILES IDX 10 1 11 2 12 3 13 4 14 5 15 6 16 7 17 8 18 9 19 10 20 11
REMARK SMILES IDX 9 12 8 13 7 14 6 15 5 16 4 17 3 18 2 19 1 20
REMARK H PARENT
REMARK Flexibility Score: inf
ROOT
ATOM      1  C   UNL     1      44.110  -5.811  27.461  1.00  0.00     0.000 C 
ENDROOT
BRANCH   1   2
ATOM      2  C   UNL     1      42.636  -5.652  27.872  1.00  0.00     0.000 C 
BRANCH   2   3
ATOM      3  C   UNL     1      41.759  -5.108  26.730  1.00  0.00     0.000 C 
BRANCH   3   4
ATOM      4  C   UNL     1      40.536  -4.322  27.240  1.00  0.00     0.000 C 
BRANCH   4   5
ATOM      5  C   UNL     1      39.168  -4.924  26.868  1.00  0.00     0.000 C 
BRANCH   5   6
ATOM      6  C   UNL     1      39.080  -6.433  27.154  1.00  0.00     0.000 C 
BRANCH   6   7
ATOM      7  C   UNL     1      38.813  -7.260  25.885  1.00  0.00     0.006 C 
BRANCH   7   8
ATOM      8  C   UNL     1      37.909  -6.533  24.881  1.00  0.00     0.053 C 
BRANCH   8   9
ATOM      9  C   UNL     1      36.546  -7.151  24.862  1.00  0.00     0.041 C 
ATOM     10  O   UNL     1      35.772  -6.947  23.890  1.00  0.00    -0.550 OA
ATOM     11  O   UNL     1      36.117  -7.926  25.932  1.00  0.00    -0.550 OA
ENDBRANCH   8   9
ENDBRANCH   7   8
ENDBRANCH   6   7
ENDBRANCH   5   6
ENDBRANCH   4   5
ENDBRANCH   3   4
ENDBRANCH   2   3
ENDBRANCH   1   2
BRANCH   1  12
ATOM     12  C   UNL     1      44.313  -5.743  25.937  1.00  0.00     0.000 C 
BRANCH  12  13
ATOM     13  C   UNL     1      44.968  -7.015  25.373  1.00  0.00    -0.000 C 
BRANCH  13  14
ATOM     14  C   UNL     1      46.066  -7.569  26.296  1.00  0.00    -0.000 C 
BRANCH  14  15
ATOM     15  C   UNL     1      47.424  -6.873  26.094  1.00  0.00    -0.000 C 
BRANCH  15  16
ATOM     16  C   UNL     1      48.424  -7.630  25.196  1.00  0.00    -0.000 C 
BRANCH  16  17
ATOM     17  C   UNL     1      49.120  -6.772  24.125  1.00  0.00    -0.000 C 
BRANCH  17  18
ATOM     18  C   UNL     1      48.148  -6.241  23.061  1.00  0.00    -0.000 C 
BRANCH  18  19
ATOM     19  C   UNL     1      47.699  -7.364  22.119  1.00  0.00    -0.003 C 
ATOM     20  C   UNL     1      48.897  -8.102  21.530  1.00  0.00     0.004 C 
ENDBRANCH  18  19
ENDBRANCH  17  18
ENDBRANCH  16  17
ENDBRANCH  15  16
ENDBRANCH  14  15
ENDBRANCH  13  14
ENDBRANCH  12  13
ENDBRANCH   1  12
TORSDOF 16
ENDMDL
MODEL 3
REMARK VINA RESULT:    -5.306      5.165     10.450
REMARK INTER + INTRA:         -11.439
REMARK INTER:                 -10.699
REMARK INTRA:                  -0.741
REMARK UNBOUND:                -1.171
REMARK SMILES CCCCCCCCCCCCCCCCCC(=O)[O-]
REMARK SMILES IDX 10 1 11 2 12 3 13 4 14 5 15 6 16 7 17 8 18 9 19 10 20 11
REMARK SMILES IDX 9 12 8 13 7 14 6 15 5 16 4 17 3 18 2 19 1 20
REMARK H PARENT
REMARK Flexibility Score: inf
ROOT
ATOM      1  C   UNL     1      40.887  -5.130  27.556  1.00  0.00     0.000 C 
ENDROOT
BRANCH   1   2
ATOM      2  C   UNL     1      39.789  -6.109  27.105  1.00  0.00     0.000 C 
BRANCH   2   3
ATOM      3  C   UNL     1      38.749  -5.448  26.183  1.00  0.00     0.000 C 
BRANCH   3   4
ATOM      4  C   UNL     1      38.287  -6.376  25.044  1.00  0.00     0.000 C 
BRANCH   4   5
ATOM      5  C   UNL     1      36.945  -7.093  25.286  1.00  0.00     0.000 C 
BRANCH   5   6
ATOM      6  C   UNL     1      36.023  -7.070  24.054  1.00  0.00     0.000 C 
BRANCH   6   7
ATOM      7  C   UNL     1      34.636  -7.668  24.342  1.00  0.00     0.006 C 
BRANCH   7   8
ATOM      8  C   UNL     1      33.551  -6.597  24.519  1.00  0.00     0.053 C 
BRANCH   8   9
ATOM      9  C   UNL     1      32.964  -6.670  25.894  1.00  0.00     0.041 C 
ATOM     10  O   UNL     1      31.739  -6.917  26.047  1.00  0.00    -0.550 OA
ATOM     11  O   UNL     1      33.761  -6.431  27.007  1.00  0.00    -0.550 OA
ENDBRANCH   8   9
ENDBRANCH   7   8
ENDBRANCH   6   7
ENDBRANCH   5   6
ENDBRANCH   4   5
ENDBRANCH   3   4
ENDBRANCH   2   3
ENDBRANCH   1   2
BRANCH   1  12
ATOM     12  C   UNL     1      42.091  -5.106  26.598  1.00  0.00     0.000 C 
BRANCH  12  13
ATOM     13  C   UNL     1      43.432  -4.987  27.342  1.00  0.00    -0.000 C 
BRANCH  13  14
ATOM     14  C   UNL     1      44.605  -5.573  26.538  1.00  0.00    -0.000 C 
BRANCH  14  15
ATOM     15  C   UNL     1      44.976  -7.001  26.979  1.00  0.00    -0.000 C 
BRANCH  15  16
ATOM     16  C   UNL     1      46.092  -7.674  26.154  1.00  0.00    -0.000 C 
BRANCH  16  17
ATOM     17  C   UNL     1      46.147  -7.266  24.672  1.00  0.00    -0.000 C 
BRANCH  17  18
ATOM     18  C   UNL     1      47.576  -7.001  24.178  1.00  0.00    -0.000 C 
BRANCH  18  19
ATOM     19  C   UNL     1      48.608  -7.601  25.140  1.00  0.00    -0.003 C 
ATOM     20  C   UNL     1      49.912  -6.809  25.116  1.00  0.00     0.004 C 
ENDBRANCH  18  19
ENDBRANCH  17  18
ENDBRANCH  16  17
ENDBRANCH  15  16
ENDBRANCH  14  15
ENDBRANCH  13  14
ENDBRANCH  12  13
ENDBRANCH   1  12
TORSDOF 16
ENDMDL
MODEL 4
REMARK VINA RESULT:    -5.261      5.274     10.076
REMARK INTER + INTRA:         -11.354
REMARK INTER:                 -10.690
REMARK INTRA:                  -0.663
REMARK UNBOUND:                -1.171
REMARK SMILES CCCCCCCCCCCCCCCCCC(=O)[O-]
REMARK SMILES IDX 10 1 11 2 12 3 13 4 14 5 15 6 16 7 17 8 18 9 19 10 20 11
REMARK SMILES IDX 9 12 8 13 7 14 6 15 5 16 4 17 3 18 2 19 1 20
REMARK H PARENT
REMARK Flexibility Score: inf
ROOT
ATOM      1  C   UNL     1      41.764  -4.371  27.905  1.00  0.00     0.000 C 
ENDROOT
BRANCH   1   2
ATOM      2  C   UNL     1      40.261  -4.690  27.989  1.00  0.00     0.000 C 
BRANCH   2   3
ATOM      3  C   UNL     1      39.587  -4.736  26.606  1.00  0.00     0.000 C 
BRANCH   3   4
ATOM      4  C   UNL     1      39.072  -6.142  26.241  1.00  0.00     0.000 C 
BRANCH   4   5
ATOM      5  C   UNL     1      38.051  -6.187  25.088  1.00  0.00     0.000 C 
BRANCH   5   6
ATOM      6  C   UNL     1      37.150  -7.434  25.135  1.00  0.00     0.000 C 
BRANCH   6   7
ATOM      7  C   UNL     1      35.703  -7.102  25.538  1.00  0.00     0.006 C 
BRANCH   7   8
ATOM      8  C   UNL     1      34.689  -7.422  24.432  1.00  0.00     0.053 C 
BRANCH   8   9
ATOM      9  C   UNL     1      33.424  -6.652  24.645  1.00  0.00     0.041 C 
ATOM     10  O   UNL     1      32.662  -6.939  25.606  1.00  0.00    -0.550 OA
ATOM     11  O   UNL     1      33.067  -5.639  23.763  1.00  0.00    -0.550 OA
ENDBRANCH   8   9
ENDBRANCH   7   8
ENDBRANCH   6   7
ENDBRANCH   5   6
ENDBRANCH   4   5
ENDBRANCH   3   4
ENDBRANCH   2   3
ENDBRANCH   1   2
BRANCH   1  12
ATOM     12  C   UNL     1      42.464  -5.112  26.751  1.00  0.00     0.000 C 
BRANCH  12  13
ATOM     13  C   UNL     1      43.966  -5.317  27.011  1.00  0.00    -0.000 C 
BRANCH  13  14
ATOM     14  C   UNL     1      44.650  -6.129  25.897  1.00  0.00    -0.000 C 
BRANCH  14  15
ATOM     15  C   UNL     1      45.171  -7.492  26.387  1.00  0.00    -0.000 C 
BRANCH  15  16
ATOM     16  C   UNL     1      46.691  -7.708  26.233  1.00  0.00    -0.000 C 
BRANCH  16  17
ATOM     17  C   UNL     1      47.394  -6.742  25.264  1.00  0.00    -0.000 C 
BRANCH  17  18
ATOM     18  C   UNL     1      48.427  -7.442  24.369  1.00  0.00    -0.000 C 
BRANCH  18  19
ATOM     19  C   UNL     1      48.246  -7.034  22.902  1.00  0.00    -0.003 C 
ATOM     20  C   UNL     1      47.097  -7.799  22.254  1.00  0.00     0.004 C 
ENDBRANCH  18  19
ENDBRANCH  17  18
ENDBRANCH  16  17
ENDBRANCH  15  16
ENDBRANCH  14  15
ENDBRANCH  13  14
ENDBRANCH  12  13
ENDBRANCH   1  12
TORSDOF 16
ENDMDL
MODEL 5
REMARK VINA RESULT:    -5.241      1.668      3.974
REMARK INTER + INTRA:         -11.313
REMARK INTER:                 -10.238
REMARK INTRA:                  -1.075
REMARK UNBOUND:                -1.171
REMARK SMILES CCCCCCCCCCCCCCCCCC(=O)[O-]
REMARK SMILES IDX 10 1 11 2 12 3 13 4 14 5 15 6 16 7 17 8 18 9 19 10 20 11
REMARK SMILES IDX 9 12 8 13 7 14 6 15 5 16 4 17 3 18 2 19 1 20
REMARK H PARENT
REMARK Flexibility Score: inf
ROOT
ATOM      1  C   UNL     1      40.717  -4.190  26.853  1.00  0.00     0.000 C 
ENDROOT
BRANCH   1   2
ATOM      2  C   UNL     1      41.902  -5.162  26.719  1.00  0.00     0.000 C 
BRANCH   2   3
ATOM      3  C   UNL     1      42.787  -5.194  27.978  1.00  0.00     0.000 C 
BRANCH   3   4
ATOM      4  C   UNL     1      44.113  -5.948  27.756  1.00  0.00     0.000 C 
BRANCH   4   5
ATOM      5  C   UNL     1      44.450  -6.260  26.286  1.00  0.00     0.000 C 
BRANCH   5   6
ATOM      6  C   UNL     1      45.316  -7.522  26.126  1.00  0.00     0.000 C 
BRANCH   6   7
ATOM      7  C   UNL     1      46.158  -7.502  24.839  1.00  0.00     0.006 C 
BRANCH   7   8
ATOM      8  C   UNL     1      47.653  -7.285  25.109  1.00  0.00     0.053 C 
BRANCH   8   9
ATOM      9  C   UNL     1      48.021  -5.851  24.888  1.00  0.00     0.041 C 
ATOM     10  O   UNL     1      48.642  -5.510  23.847  1.00  0.00    -0.550 OA
ATOM     11  O   UNL     1      47.708  -4.895  25.846  1.00  0.00    -0.550 OA
ENDBRANCH   8   9
ENDBRANCH   7   8
ENDBRANCH   6   7
ENDBRANCH   5   6
ENDBRANCH   4   5
ENDBRANCH   3   4
ENDBRANCH   2   3
ENDBRANCH   1   2
BRANCH   1  12
ATOM     12  C   UNL     1      39.373  -4.836  26.472  1.00  0.00     0.000 C 
BRANCH  12  13
ATOM     13  C   UNL     1      39.138  -6.173  27.195  1.00  0.00    -0.000 C 
BRANCH  13  14
ATOM     14  C   UNL     1      38.811  -7.318  26.223  1.00  0.00    -0.000 C 
BRANCH  14  15
ATOM     15  C   UNL     1      38.392  -6.818  24.829  1.00  0.00    -0.000 C 
BRANCH  15  16
ATOM     16  C   UNL     1      36.907  -7.031  24.473  1.00  0.00    -0.000 C 
BRANCH  16  17
ATOM     17  C   UNL     1      35.986  -7.342  25.666  1.00  0.00    -0.000 C 
BRANCH  17  18
ATOM     18  C   UNL     1      34.704  -8.079  25.255  1.00  0.00    -0.000 C 
BRANCH  18  19
ATOM     19  C   UNL     1      33.481  -7.162  25.378  1.00  0.00    -0.003 C 
ATOM     20  C   UNL     1      33.377  -6.218  24.183  1.00  0.00     0.004 C 
ENDBRANCH  18  19
ENDBRANCH  17  18
ENDBRANCH  16  17
ENDBRANCH  15  16
ENDBRANCH  14  15
ENDBRANCH  13  14
ENDBRANCH  12  13
ENDBRANCH   1  12
TORSDOF 16
ENDMDL
MODEL 6
REMARK VINA RESULT:    -5.209      3.530      8.031
REMARK INTER + INTRA:         -11.253
REMARK INTER:                  -9.832
REMARK INTRA:                  -1.421
REMARK UNBOUND:                -1.171
REMARK SMILES CCCCCCCCCCCCCCCCCC(=O)[O-]
REMARK SMILES IDX 10 1 11 2 12 3 13 4 14 5 15 6 16 7 17 8 18 9 19 10 20 11
REMARK SMILES IDX 9 12 8 13 7 14 6 15 5 16 4 17 3 18 2 19 1 20
REMARK H PARENT
REMARK Flexibility Score: inf
ROOT
ATOM      1  C   UNL     1      44.439  -2.207  28.620  1.00  0.00     0.000 C 
ENDROOT
BRANCH   1   2
ATOM      2  C   UNL     1      43.816  -1.306  29.701  1.00  0.00     0.000 C 
BRANCH   2   3
ATOM      3  C   UNL     1      42.867  -2.076  30.637  1.00  0.00     0.000 C 
BRANCH   3   4
ATOM      4  C   UNL     1      42.656  -3.539  30.201  1.00  0.00     0.000 C 
BRANCH   4   5
ATOM      5  C   UNL     1      41.208  -3.909  29.829  1.00  0.00     0.000 C 
BRANCH   5   6
ATOM      6  C   UNL     1      41.087  -5.321  29.228  1.00  0.00     0.000 C 
BRANCH   6   7
ATOM      7  C   UNL     1      41.949  -5.502  27.968  1.00  0.00     0.006 C 
BRANCH   7   8
ATOM      8  C   UNL     1      41.457  -4.660  26.783  1.00  0.00     0.053 C 
BRANCH   8   9
ATOM      9  C   UNL     1      40.016  -4.949  26.500  1.00  0.00     0.041 C 
ATOM     10  O   UNL     1      39.647  -6.122  26.225  1.00  0.00    -0.550 OA
ATOM     11  O   UNL     1      39.083  -3.919  26.505  1.00  0.00    -0.550 OA
ENDBRANCH   8   9
ENDBRANCH   7   8
ENDBRANCH   6   7
ENDBRANCH   5   6
ENDBRANCH   4   5
ENDBRANCH   3   4
ENDBRANCH   2   3
ENDBRANCH   1   2
BRANCH   1  12
ATOM     12  C   UNL     1      45.706  -1.594  27.995  1.00  0.00     0.000 C 
BRANCH  12  13
ATOM     13  C   UNL     1      46.479  -2.601  27.127  1.00  0.00    -0.000 C 
BRANCH  13  14
ATOM     14  C   UNL     1      45.990  -4.046  27.326  1.00  0.00    -0.000 C 
BRANCH  14  15
ATOM     15  C   UNL     1      46.554  -5.018  26.274  1.00  0.00    -0.000 C 
BRANCH  15  16
ATOM     16  C   UNL     1      45.802  -6.358  26.146  1.00  0.00    -0.000 C 
BRANCH  16  17
ATOM     17  C   UNL     1      46.519  -7.433  25.311  1.00  0.00    -0.000 C 
BRANCH  17  18
ATOM     18  C   UNL     1      47.977  -7.069  24.994  1.00  0.00    -0.000 C 
BRANCH  18  19
ATOM     19  C   UNL     1      48.371  -7.555  23.594  1.00  0.00    -0.003 C 
ATOM     20  C   UNL     1      47.215  -7.402  22.610  1.00  0.00     0.004 C 
ENDBRANCH  18  19
ENDBRANCH  17  18
ENDBRANCH  16  17
ENDBRANCH  15  16
ENDBRANCH  14  15
ENDBRANCH  13  14
ENDBRANCH  12  13
ENDBRANCH   1  12
TORSDOF 16
ENDMDL
MODEL 7
REMARK VINA RESULT:    -5.181      3.255      8.201
REMARK INTER + INTRA:         -11.198
REMARK INTER:                  -9.485
REMARK INTRA:                  -1.714
REMARK UNBOUND:                -1.171
REMARK SMILES CCCCCCCCCCCCCCCCCC(=O)[O-]
REMARK SMILES IDX 10 1 11 2 12 3 13 4 14 5 15 6 16 7 17 8 18 9 19 10 20 11
REMARK SMILES IDX 9 12 8 13 7 14 6 15 5 16 4 17 3 18 2 19 1 20
REMARK H PARENT
REMARK Flexibility Score: inf
ROOT
ATOM      1  C   UNL     1      45.875  -1.905  27.851  1.00  0.00     0.000 C 
ENDROOT
BRANCH   1   2
ATOM      2  C   UNL     1      44.591  -2.264  28.620  1.00  0.00     0.000 C 
BRANCH   2   3
ATOM      3  C   UNL     1      44.020  -1.071  29.408  1.00  0.00     0.000 C 
BRANCH   3   4
ATOM      4  C   UNL     1      42.905  -1.483  30.388  1.00  0.00     0.000 C 
BRANCH   4   5
ATOM      5  C   UNL     1      42.950  -2.952  30.852  1.00  0.00     0.000 C 
BRANCH   5   6
ATOM      6  C   UNL     1      41.759  -3.779  30.337  1.00  0.00     0.000 C 
BRANCH   6   7
ATOM      7  C   UNL     1      42.083  -5.279  30.232  1.00  0.00     0.006 C 
BRANCH   7   8
ATOM      8  C   UNL     1      42.777  -5.647  28.914  1.00  0.00     0.053 C 
BRANCH   8   9
ATOM      9  C   UNL     1      41.826  -5.509  27.767  1.00  0.00     0.041 C 
ATOM     10  O   UNL     1      42.112  -4.765  26.792  1.00  0.00    -0.550 OA
ATOM     11  O   UNL     1      40.606  -6.176  27.788  1.00  0.00    -0.550 OA
ENDBRANCH   8   9
ENDBRANCH   7   8
ENDBRANCH   6   7
ENDBRANCH   5   6
ENDBRANCH   4   5
ENDBRANCH   3   4
ENDBRANCH   2   3
ENDBRANCH   1   2
BRANCH   1  12
ATOM     12  C   UNL     1      46.486  -3.114  27.119  1.00  0.00     0.000 C 
BRANCH  12  13
ATOM     13  C   UNL     1      45.561  -4.342  27.140  1.00  0.00    -0.000 C 
BRANCH  13  14
ATOM     14  C   UNL     1      46.341  -5.667  27.109  1.00  0.00    -0.000 C 
BRANCH  14  15
ATOM     15  C   UNL     1      45.563  -6.803  26.421  1.00  0.00    -0.000 C 
BRANCH  15  16
ATOM     16  C   UNL     1      46.261  -7.431  25.198  1.00  0.00    -0.000 C 
BRANCH  16  17
ATOM     17  C   UNL     1      47.487  -6.661  24.677  1.00  0.00    -0.000 C 
BRANCH  17  18
ATOM     18  C   UNL     1      48.714  -7.561  24.472  1.00  0.00    -0.000 C 
BRANCH  18  19
ATOM     19  C   UNL     1      49.925  -7.021  25.240  1.00  0.00    -0.003 C 
ATOM     20  C   UNL     1      49.746  -5.545  25.586  1.00  0.00     0.004 C 
ENDBRANCH  18  19
ENDBRANCH  17  18
ENDBRANCH  16  17
ENDBRANCH  15  16
ENDBRANCH  14  15
ENDBRANCH  13  14
ENDBRANCH  12  13
ENDBRANCH   1  12
TORSDOF 16
ENDMDL
MODEL 8
REMARK VINA RESULT:    -5.177      1.292      2.441
REMARK INTER + INTRA:         -11.190
REMARK INTER:                 -10.187
REMARK INTRA:                  -1.003
REMARK UNBOUND:                -1.171
REMARK SMILES CCCCCCCCCCCCCCCCCC(=O)[O-]
REMARK SMILES IDX 10 1 11 2 12 3 13 4 14 5 15 6 16 7 17 8 18 9 19 10 20 11
REMARK SMILES IDX 9 12 8 13 7 14 6 15 5 16 4 17 3 18 2 19 1 20
REMARK H PARENT
REMARK Flexibility Score: inf
ROOT
ATOM      1  C   UNL     1      43.035  -5.081  27.090  1.00  0.00     0.000 C 
ENDROOT
BRANCH   1   2
ATOM      2  C   UNL     1      43.961  -6.234  27.515  1.00  0.00     0.000 C 
BRANCH   2   3
ATOM      3  C   UNL     1      45.283  -6.252  26.726  1.00  0.00     0.000 C 
BRANCH   3   4
ATOM      4  C   UNL     1      45.715  -7.675  26.321  1.00  0.00     0.000 C 
BRANCH   4   5
ATOM      5  C   UNL     1      45.396  -8.067  24.866  1.00  0.00     0.000 C 
BRANCH   5   6
ATOM      6  C   UNL     1      45.979  -7.080  23.839  1.00  0.00     0.000 C 
BRANCH   6   7
ATOM      7  C   UNL     1      47.053  -7.722  22.946  1.00  0.00     0.006 C 
BRANCH   7   8
ATOM      8  C   UNL     1      48.358  -6.915  22.910  1.00  0.00     0.053 C 
BRANCH   8   9
ATOM      9  C   UNL     1      48.852  -6.660  24.300  1.00  0.00     0.041 C 
ATOM     10  O   UNL     1      49.011  -5.480  24.709  1.00  0.00    -0.550 OA
ATOM     11  O   UNL     1      49.169  -7.725  25.134  1.00  0.00    -0.550 OA
ENDBRANCH   8   9
ENDBRANCH   7   8
ENDBRANCH   6   7
ENDBRANCH   5   6
ENDBRANCH   4   5
ENDBRANCH   3   4
ENDBRANCH   2   3
ENDBRANCH   1   2
BRANCH   1  12
ATOM     12  C   UNL     1      41.556  -5.356  27.418  1.00  0.00     0.000 C 
BRANCH  12  13
ATOM     13  C   UNL     1      40.701  -4.077  27.393  1.00  0.00    -0.000 C 
BRANCH  13  14
ATOM     14  C   UNL     1      39.500  -4.191  26.439  1.00  0.00    -0.000 C 
BRANCH  14  15
ATOM     15  C   UNL     1      38.888  -5.603  26.415  1.00  0.00    -0.000 C 
BRANCH  15  16
ATOM     16  C   UNL     1      37.605  -5.777  27.254  1.00  0.00    -0.000 C 
BRANCH  16  17
ATOM     17  C   UNL     1      36.524  -6.667  26.617  1.00  0.00    -0.000 C 
BRANCH  17  18
ATOM     18  C   UNL     1      37.017  -7.401  25.361  1.00  0.00    -0.000 C 
BRANCH  18  19
ATOM     19  C   UNL     1      36.133  -7.074  24.153  1.00  0.00    -0.003 C 
ATOM     20  C   UNL     1      34.654  -7.228  24.493  1.00  0.00     0.004 C 
ENDBRANCH  18  19
ENDBRANCH  17  18
ENDBRANCH  16  17
ENDBRANCH  15  16
ENDBRANCH  14  15
ENDBRANCH  13  14
ENDBRANCH  12  13
ENDBRANCH   1  12
TORSDOF 16
ENDMDL
MODEL 9
REMARK VINA RESULT:    -5.161      2.986      6.648
REMARK INTER + INTRA:         -11.159
REMARK INTER:                  -9.037
REMARK INTRA:                  -2.122
REMARK UNBOUND:                -1.171
REMARK SMILES CCCCCCCCCCCCCCCCCC(=O)[O-]
REMARK SMILES IDX 10 1 11 2 12 3 13 4 14 5 15 6 16 7 17 8 18 9 19 10 20 11
REMARK SMILES IDX 9 12 8 13 7 14 6 15 5 16 4 17 3 18 2 19 1 20
REMARK H PARENT
REMARK Flexibility Score: inf
ROOT
ATOM      1  C   UNL     1      38.169  -2.688  27.532  1.00  0.00     0.000 C 
ENDROOT
BRANCH   1   2
ATOM      2  C   UNL     1      38.534  -4.175  27.388  1.00  0.00     0.000 C 
BRANCH   2   3
ATOM      3  C   UNL     1      39.587  -4.423  26.292  1.00  0.00     0.000 C 
BRANCH   3   4
ATOM      4  C   UNL     1      41.026  -4.446  26.843  1.00  0.00     0.000 C 
BRANCH   4   5
ATOM      5  C   UNL     1      41.263  -5.413  28.018  1.00  0.00     0.000 C 
BRANCH   5   6
ATOM      6  C   UNL     1      42.754  -5.697  28.268  1.00  0.00     0.000 C 
BRANCH   6   7
ATOM      7  C   UNL     1      43.620  -5.445  27.022  1.00  0.00     0.006 C 
BRANCH   7   8
ATOM      8  C   UNL     1      45.028  -6.044  27.145  1.00  0.00     0.053 C 
BRANCH   8   9
ATOM      9  C   UNL     1      45.215  -7.146  26.150  1.00  0.00     0.041 C 
ATOM     10  O   UNL     1      45.012  -6.934  24.925  1.00  0.00    -0.550 OA
ATOM     11  O   UNL     1      45.581  -8.417  26.576  1.00  0.00    -0.550 OA
ENDBRANCH   8   9
ENDBRANCH   7   8
ENDBRANCH   6   7
ENDBRANCH   5   6
ENDBRANCH   4   5
ENDBRANCH   3   4
ENDBRANCH   2   3
ENDBRANCH   1   2
BRANCH   1  12
ATOM     12  C   UNL     1      38.241  -2.197  28.990  1.00  0.00     0.000 C 
BRANCH  12  13
ATOM     13  C   UNL     1      38.766  -3.280  29.948  1.00  0.00    -0.000 C 
BRANCH  13  14
ATOM     14  C   UNL     1      39.917  -2.773  30.834  1.00  0.00    -0.000 C 
BRANCH  14  15
ATOM     15  C   UNL     1      41.129  -2.289  30.018  1.00  0.00    -0.000 C 
BRANCH  15  16
ATOM     16  C   UNL     1      42.349  -1.846  30.853  1.00  0.00    -0.000 C 
BRANCH  16  17
ATOM     17  C   UNL     1      43.572  -1.397  30.035  1.00  0.00    -0.000 C 
BRANCH  17  18
ATOM     18  C   UNL     1      43.800  -2.255  28.782  1.00  0.00    -0.000 C 
BRANCH  18  19
ATOM     19  C   UNL     1      45.223  -2.068  28.241  1.00  0.00    -0.003 C 
ATOM     20  C   UNL     1      45.625  -0.596  28.242  1.00  0.00     0.004 C 
ENDBRANCH  18  19
ENDBRANCH  17  18
ENDBRANCH  16  17
ENDBRANCH  15  16
ENDBRANCH  14  15
ENDBRANCH  13  14
ENDBRANCH  12  13
ENDBRANCH   1  12
TORSDOF 16
ENDMDL
