MODEL 1
REMARK VINA RESULT:    -4.013      0.000      0.000
REMARK INTER + INTRA:          -5.245
REMARK INTER:                  -4.834
REMARK INTRA:                  -0.410
REMARK UNBOUND:                -0.410
REMARK SMILES NC(=O)C[C@H]([NH3+])C(=O)[O-]
REMARK SMILES IDX 4 1 5 2 6 3 7 7 8 8 9 9 2 10 3 11 1 12
REMARK H PARENT 6 4 6 5 6 6 1 13 1 14
REMARK Flexibility Score: inf
ROOT
ATOM      1  C   UNL     1     158.746 151.084 149.921  1.00  0.00     0.171 C 
ENDROOT
BRANCH   1   2
ATOM      2  C   UNL     1     157.826 152.251 150.341  1.00  0.00     0.237 C 
BRANCH   2   3
ATOM      3  N   UNL     1     158.371 152.990 151.488  1.00  0.00    -0.350 N 
ATOM      4  H   UNL     1     157.606 153.349 152.104  1.00  0.00     0.345 HD
ATOM      5  H   UNL     1     158.937 153.800 151.146  1.00  0.00     0.345 HD
ATOM      6  H   UNL     1     158.997 152.366 152.047  1.00  0.00     0.345 HD
ENDBRANCH   2   3
BRANCH   2   7
ATOM      7  C   UNL     1     156.423 151.773 150.616  1.00  0.00     0.100 C 
ATOM      8  O   UNL     1     155.981 150.749 150.031  1.00  0.00    -0.544 OA
ATOM      9  O   UNL     1     155.624 152.423 151.551  1.00  0.00    -0.544 OA
ENDBRANCH   2   7
ENDBRANCH   1   2
BRANCH   1  10
ATOM     10  C   UNL     1     159.022 150.115 151.037  1.00  0.00     0.223 C 
ATOM     11  O   UNL     1     159.897 150.387 151.903  1.00  0.00    -0.275 OA
ATOM     12  N   UNL     1     158.315 148.876 151.113  1.00  0.00    -0.369 N 
ATOM     13  H   UNL     1     157.593 148.630 150.400  1.00  0.00     0.159 HD
ATOM     14  H   UNL     1     158.517 148.201 151.883  1.00  0.00     0.159 HD
ENDBRANCH   1  10
TORSDOF 4
ENDMDL
MODEL 2
REMARK VINA RESULT:    -4.010     15.984     16.747
REMARK INTER + INTRA:          -5.241
REMARK INTER:                  -4.814
REMARK INTRA:                  -0.427
REMARK UNBOUND:                -0.410
REMARK SMILES NC(=O)C[C@H]([NH3+])C(=O)[O-]
REMARK SMILES IDX 4 1 5 2 6 3 7 7 8 8 9 9 2 10 3 11 1 12
REMARK H PARENT 6 4 6 5 6 6 1 13 1 14
REMARK Flexibility Score: inf
ROOT
ATOM      1  C   UNL     1     159.333 151.012 168.185  1.00  0.00     0.171 C 
ENDROOT
BRANCH   1   2
ATOM      2  C   UNL     1     160.147 152.250 167.751  1.00  0.00     0.237 C 
BRANCH   2   3
ATOM      3  N   UNL     1     159.509 152.960 166.635  1.00  0.00    -0.350 N 
ATOM      4  H   UNL     1     158.466 152.905 166.697  1.00  0.00     0.345 HD
ATOM      5  H   UNL     1     159.815 152.536 165.729  1.00  0.00     0.345 HD
ATOM      6  H   UNL     1     159.799 153.965 166.640  1.00  0.00     0.345 HD
ENDBRANCH   2   3
BRANCH   2   7
ATOM      7  C   UNL     1     161.572 151.884 167.421  1.00  0.00     0.100 C 
ATOM      8  O   UNL     1     162.093 150.858 167.935  1.00  0.00    -0.544 OA
ATOM      9  O   UNL     1     162.305 152.639 166.512  1.00  0.00    -0.544 OA
ENDBRANCH   2   7
ENDBRANCH   1   2
BRANCH   1  10
ATOM     10  C   UNL     1     159.007 150.087 167.046  1.00  0.00     0.223 C 
ATOM     11  O   UNL     1     158.068 150.371 166.255  1.00  0.00    -0.275 OA
ATOM     12  N   UNL     1     159.741 148.875 166.863  1.00  0.00    -0.369 N 
ATOM     13  H   UNL     1     160.518 148.619 167.513  1.00  0.00     0.159 HD
ATOM     14  H   UNL     1     159.505 148.230 166.078  1.00  0.00     0.159 HD
ENDBRANCH   1  10
TORSDOF 4
ENDMDL
MODEL 3
REMARK VINA RESULT:    -3.969     16.938     17.402
REMARK INTER + INTRA:          -5.192
REMARK INTER:                  -4.882
REMARK INTRA:                  -0.310
REMARK UNBOUND:                -0.410
REMARK SMILES NC(=O)C[C@H]([NH3+])C(=O)[O-]
REMARK SMILES IDX 4 1 5 2 6 3 7 7 8 8 9 9 2 10 3 11 1 12
REMARK H PARENT 6 4 6 5 6 6 1 13 1 14
REMARK Flexibility Score: inf
ROOT
ATOM      1  C   UNL     1     159.525 150.816 168.531  1.00  0.00     0.171 C 
ENDROOT
BRANCH   1   2
ATOM      2  C   UNL     1     159.234 152.176 167.860  1.00  0.00     0.237 C 
BRANCH   2   3
ATOM      3  N   UNL     1     159.755 152.231 166.488  1.00  0.00    -0.350 N 
ATOM      4  H   UNL     1     160.753 152.545 166.474  1.00  0.00     0.345 HD
ATOM      5  H   UNL     1     159.184 152.899 165.922  1.00  0.00     0.345 HD
ATOM      6  H   UNL     1     159.687 151.286 166.045  1.00  0.00     0.345 HD
ENDBRANCH   2   3
BRANCH   2   7
ATOM      7  C   UNL     1     159.759 153.321 168.689  1.00  0.00     0.100 C 
ATOM      8  O   UNL     1     158.966 154.198 169.124  1.00  0.00    -0.544 OA
ATOM      9  O   UNL     1     161.107 153.395 169.022  1.00  0.00    -0.544 OA
ENDBRANCH   2   7
ENDBRANCH   1   2
BRANCH   1  10
ATOM     10  C   UNL     1     160.355 149.899 167.677  1.00  0.00     0.223 C 
ATOM     11  O   UNL     1     161.606 150.043 167.634  1.00  0.00    -0.275 OA
ATOM     12  N   UNL     1     159.735 148.875 166.897  1.00  0.00    -0.369 N 
ATOM     13  H   UNL     1     158.699 148.746 166.914  1.00  0.00     0.159 HD
ATOM     14  H   UNL     1     160.313 148.247 166.297  1.00  0.00     0.159 HD
ENDBRANCH   1  10
TORSDOF 4
ENDMDL
MODEL 4
REMARK VINA RESULT:    -3.955     14.312     15.585
REMARK INTER + INTRA:          -5.175
REMARK INTER:                  -4.817
REMARK INTRA:                  -0.358
REMARK UNBOUND:                -0.410
REMARK SMILES NC(=O)C[C@H]([NH3+])C(=O)[O-]
REMARK SMILES IDX 4 1 5 2 6 3 7 7 8 8 9 9 2 10 3 11 1 12
REMARK H PARENT 6 4 6 5 6 6 1 13 1 14
REMARK Flexibility Score: inf
ROOT
ATOM      1  C   UNL     1     159.188 166.969 149.891  1.00  0.00     0.171 C 
ENDROOT
BRANCH   1   2
ATOM      2  C   UNL     1     159.331 165.606 150.604  1.00  0.00     0.237 C 
BRANCH   2   3
ATOM      3  N   UNL     1     160.065 165.728 151.871  1.00  0.00    -0.350 N 
ATOM      4  H   UNL     1     160.424 166.700 152.009  1.00  0.00     0.345 HD
ATOM      5  H   UNL     1     160.874 165.066 151.873  1.00  0.00     0.345 HD
ATOM      6  H   UNL     1     159.437 165.479 152.670  1.00  0.00     0.345 HD
ENDBRANCH   2   3
BRANCH   2   7
ATOM      7  C   UNL     1     159.967 164.578 149.703  1.00  0.00     0.100 C 
ATOM      8  O   UNL     1     159.259 163.944 148.876  1.00  0.00    -0.544 OA
ATOM      9  O   UNL     1     161.339 164.356 149.740  1.00  0.00    -0.544 OA
ENDBRANCH   2   7
ENDBRANCH   1   2
BRANCH   1  10
ATOM     10  C   UNL     1     160.130 168.016 150.416  1.00  0.00     0.223 C 
ATOM     11  O   UNL     1     161.368 167.908 150.208  1.00  0.00    -0.275 OA
ATOM     12  N   UNL     1     159.636 169.124 151.169  1.00  0.00    -0.369 N 
ATOM     13  H   UNL     1     158.614 169.226 151.359  1.00  0.00     0.159 HD
ATOM     14  H   UNL     1     160.294 169.843 151.542  1.00  0.00     0.159 HD
ENDBRANCH   1  10
TORSDOF 4
ENDMDL
MODEL 5
REMARK VINA RESULT:    -3.946      1.844      2.259
REMARK INTER + INTRA:          -5.164
REMARK INTER:                  -4.791
REMARK INTRA:                  -0.373
REMARK UNBOUND:                -0.410
REMARK SMILES NC(=O)C[C@H]([NH3+])C(=O)[O-]
REMARK SMILES IDX 4 1 5 2 6 3 7 7 8 8 9 9 2 10 3 11 1 12
REMARK H PARENT 6 4 6 5 6 6 1 13 1 14
REMARK Flexibility Score: inf
ROOT
ATOM      1  C   UNL     1     159.016 151.084 150.025  1.00  0.00     0.171 C 
ENDROOT
BRANCH   1   2
ATOM      2  C   UNL     1     158.635 152.446 150.646  1.00  0.00     0.237 C 
BRANCH   2   3
ATOM      3  N   UNL     1     157.836 152.285 151.868  1.00  0.00    -0.350 N 
ATOM      4  H   UNL     1     156.888 152.714 151.760  1.00  0.00     0.345 HD
ATOM      5  H   UNL     1     158.325 152.746 152.670  1.00  0.00     0.345 HD
ATOM      6  H   UNL     1     157.729 151.269 152.090  1.00  0.00     0.345 HD
ENDBRANCH   2   3
BRANCH   2   7
ATOM      7  C   UNL     1     157.931 153.328 149.646  1.00  0.00     0.100 C 
ATOM      8  O   UNL     1     158.601 154.065 148.875  1.00  0.00    -0.544 OA
ATOM      9  O   UNL     1     156.545 153.301 149.530  1.00  0.00    -0.544 OA
ENDBRANCH   2   7
ENDBRANCH   1   2
BRANCH   1  10
ATOM     10  C   UNL     1     158.110 149.963 150.452  1.00  0.00     0.223 C 
ATOM     11  O   UNL     1     156.890 149.987 150.136  1.00  0.00    -0.275 OA
ATOM     12  N   UNL     1     158.616 148.879 151.233  1.00  0.00    -0.369 N 
ATOM     13  H   UNL     1     159.622 148.847 151.511  1.00  0.00     0.159 HD
ATOM     14  H   UNL     1     157.982 148.108 151.537  1.00  0.00     0.159 HD
ENDBRANCH   1  10
TORSDOF 4
ENDMDL
MODEL 6
REMARK VINA RESULT:    -3.912      1.647      2.035
REMARK INTER + INTRA:          -5.123
REMARK INTER:                  -4.834
REMARK INTRA:                  -0.289
REMARK UNBOUND:                -0.410
REMARK SMILES NC(=O)C[C@H]([NH3+])C(=O)[O-]
REMARK SMILES IDX 4 1 5 2 6 3 7 7 8 8 9 9 2 10 3 11 1 12
REMARK H PARENT 6 4 6 5 6 6 1 13 1 14
REMARK Flexibility Score: inf
ROOT
ATOM      1  C   UNL     1     156.988 150.913 150.367  1.00  0.00     0.171 C 
ENDROOT
BRANCH   1   2
ATOM      2  C   UNL     1     157.548 152.336 150.577  1.00  0.00     0.237 C 
BRANCH   2   3
ATOM      3  N   UNL     1     159.005 152.327 150.768  1.00  0.00    -0.350 N 
ATOM      4  H   UNL     1     159.490 152.854 150.006  1.00  0.00     0.345 HD
ATOM      5  H   UNL     1     159.352 151.341 150.770  1.00  0.00     0.345 HD
ATOM      6  H   UNL     1     159.245 152.760 151.689  1.00  0.00     0.345 HD
ENDBRANCH   2   3
BRANCH   2   7
ATOM      7  C   UNL     1     156.854 153.037 151.717  1.00  0.00     0.100 C 
ATOM      8  O   UNL     1     157.375 154.058 152.239  1.00  0.00    -0.544 OA
ATOM      9  O   UNL     1     155.614 152.598 152.169  1.00  0.00    -0.544 OA
ENDBRANCH   2   7
ENDBRANCH   1   2
BRANCH   1  10
ATOM     10  C   UNL     1     158.058 149.879 150.154  1.00  0.00     0.223 C 
ATOM     11  O   UNL     1     158.735 149.884 149.091  1.00  0.00    -0.275 OA
ATOM     12  N   UNL     1     158.303 148.875 151.141  1.00  0.00    -0.369 N 
ATOM     13  H   UNL     1     157.747 148.850 152.025  1.00  0.00     0.159 HD
ATOM     14  H   UNL     1     159.039 148.152 150.986  1.00  0.00     0.159 HD
ENDBRANCH   1  10
TORSDOF 4
ENDMDL
MODEL 7
REMARK VINA RESULT:    -3.879     14.527     15.899
REMARK INTER + INTRA:          -5.083
REMARK INTER:                  -4.790
REMARK INTRA:                  -0.293
REMARK UNBOUND:                -0.410
REMARK SMILES NC(=O)C[C@H]([NH3+])C(=O)[O-]
REMARK SMILES IDX 4 1 5 2 6 3 7 7 8 8 9 9 2 10 3 11 1 12
REMARK H PARENT 6 4 6 5 6 6 1 13 1 14
REMARK Flexibility Score: inf
ROOT
ATOM      1  C   UNL     1     161.037 167.064 150.378  1.00  0.00     0.171 C 
ENDROOT
BRANCH   1   2
ATOM      2  C   UNL     1     160.486 165.635 150.578  1.00  0.00     0.237 C 
BRANCH   2   3
ATOM      3  N   UNL     1     159.034 165.636 150.801  1.00  0.00    -0.350 N 
ATOM      4  H   UNL     1     158.523 165.272 149.965  1.00  0.00     0.345 HD
ATOM      5  H   UNL     1     158.710 166.611 150.997  1.00  0.00     0.345 HD
ATOM      6  H   UNL     1     158.802 165.042 151.630  1.00  0.00     0.345 HD
ENDBRANCH   2   3
BRANCH   2   7
ATOM      7  C   UNL     1     161.208 164.920 151.691  1.00  0.00     0.100 C 
ATOM      8  O   UNL     1     162.297 165.376 152.131  1.00  0.00    -0.544 OA
ATOM      9  O   UNL     1     160.660 163.783 152.276  1.00  0.00    -0.544 OA
ENDBRANCH   2   7
ENDBRANCH   1   2
BRANCH   1  10
ATOM     10  C   UNL     1     159.960 168.090 150.158  1.00  0.00     0.223 C 
ATOM     11  O   UNL     1     159.259 168.050 149.112  1.00  0.00    -0.275 OA
ATOM     12  N   UNL     1     159.738 169.125 151.117  1.00  0.00    -0.369 N 
ATOM     13  H   UNL     1     160.314 169.179 151.986  1.00  0.00     0.159 HD
ATOM     14  H   UNL     1     158.997 169.842 150.956  1.00  0.00     0.159 HD
ENDBRANCH   1  10
TORSDOF 4
ENDMDL
MODEL 8
REMARK VINA RESULT:    -3.872     21.707     22.717
REMARK INTER + INTRA:          -5.075
REMARK INTER:                  -4.673
REMARK INTRA:                  -0.402
REMARK UNBOUND:                -0.410
REMARK SMILES NC(=O)C[C@H]([NH3+])C(=O)[O-]
REMARK SMILES IDX 4 1 5 2 6 3 7 7 8 8 9 9 2 10 3 11 1 12
REMARK H PARENT 6 4 6 5 6 6 1 13 1 14
REMARK Flexibility Score: inf
ROOT
ATOM      1  C   UNL     1     158.841 166.937 168.215  1.00  0.00     0.171 C 
ENDROOT
BRANCH   1   2
ATOM      2  C   UNL     1     158.023 165.677 167.858  1.00  0.00     0.237 C 
BRANCH   2   3
ATOM      3  N   UNL     1     158.707 164.847 166.857  1.00  0.00    -0.350 N 
ATOM      4  H   UNL     1     159.142 164.004 167.297  1.00  0.00     0.345 HD
ATOM      5  H   UNL     1     159.456 165.408 166.390  1.00  0.00     0.345 HD
ATOM      6  H   UNL     1     158.025 164.540 166.126  1.00  0.00     0.345 HD
ENDBRANCH   2   3
BRANCH   2   7
ATOM      7  C   UNL     1     156.629 166.036 167.409  1.00  0.00     0.100 C 
ATOM      8  O   UNL     1     156.000 166.961 167.989  1.00  0.00    -0.544 OA
ATOM      9  O   UNL     1     156.046 165.389 166.325  1.00  0.00    -0.544 OA
ENDBRANCH   2   7
ENDBRANCH   1   2
BRANCH   1  10
ATOM     10  C   UNL     1     158.979 167.900 167.068  1.00  0.00     0.223 C 
ATOM     11  O   UNL     1     159.761 167.635 166.117  1.00  0.00    -0.275 OA
ATOM     12  N   UNL     1     158.245 169.125 167.058  1.00  0.00    -0.369 N 
ATOM     13  H   UNL     1     157.598 169.365 167.842  1.00  0.00     0.159 HD
ATOM     14  H   UNL     1     158.351 169.796 166.266  1.00  0.00     0.159 HD
ENDBRANCH   1  10
TORSDOF 4
ENDMDL
MODEL 9
REMARK VINA RESULT:    -3.844     22.068     23.090
REMARK INTER + INTRA:          -5.041
REMARK INTER:                  -4.707
REMARK INTRA:                  -0.334
REMARK UNBOUND:                -0.410
REMARK SMILES NC(=O)C[C@H]([NH3+])C(=O)[O-]
REMARK SMILES IDX 4 1 5 2 6 3 7 7 8 8 9 9 2 10 3 11 1 12
REMARK H PARENT 6 4 6 5 6 6 1 13 1 14
REMARK Flexibility Score: inf
ROOT
ATOM      1  C   UNL     1     158.411 167.036 168.653  1.00  0.00     0.171 C 
ENDROOT
BRANCH   1   2
ATOM      2  C   UNL     1     158.761 165.730 167.908  1.00  0.00     0.237 C 
BRANCH   2   3
ATOM      3  N   UNL     1     158.250 165.733 166.530  1.00  0.00    -0.350 N 
ATOM      4  H   UNL     1     158.807 165.093 165.918  1.00  0.00     0.345 HD
ATOM      5  H   UNL     1     158.301 166.702 166.140  1.00  0.00     0.345 HD
ATOM      6  H   UNL     1     157.249 165.429 166.523  1.00  0.00     0.345 HD
ENDBRANCH   2   3
BRANCH   2   7
ATOM      7  C   UNL     1     158.280 164.519 168.665  1.00  0.00     0.100 C 
ATOM      8  O   UNL     1     157.053 164.382 168.918  1.00  0.00    -0.544 OA
ATOM      9  O   UNL     1     159.171 163.521 169.046  1.00  0.00    -0.544 OA
ENDBRANCH   2   7
ENDBRANCH   1   2
BRANCH   1  10
ATOM     10  C   UNL     1     157.616 168.001 167.818  1.00  0.00     0.223 C 
ATOM     11  O   UNL     1     156.383 167.809 167.640  1.00  0.00    -0.275 OA
ATOM     12  N   UNL     1     158.250 169.125 167.207  1.00  0.00    -0.369 N 
ATOM     13  H   UNL     1     159.272 169.296 167.337  1.00  0.00     0.159 HD
ATOM     14  H   UNL     1     157.698 169.787 166.619  1.00  0.00     0.159 HD
ENDBRANCH   1  10
TORSDOF 4
ENDMDL
