MODEL 1
REMARK VINA RESULT:    -3.605      0.000      0.000
REMARK INTER + INTRA:          -5.739
REMARK INTER:                  -5.713
REMARK INTRA:                  -0.027
REMARK UNBOUND:                -0.027
REMARK SMILES CCCCCCCCCCCC(=O)[O-]
REMARK SMILES IDX 7 1 8 2 9 3 10 4 11 5 12 6 13 7 14 8 6 9 5 10 4 11 3 12 2 13
REMARK SMILES IDX 1 14
REMARK H PARENT
REMARK Flexibility Score: inf
ROOT
ATOM      1  C   UNL     1      -2.736  37.572  19.421  1.00  0.00     0.000 C 
ENDROOT
BRANCH   1   2
ATOM      2  C   UNL     1      -2.053  37.443  18.042  1.00  0.00     0.000 C 
BRANCH   2   3
ATOM      3  C   UNL     1      -2.992  36.933  16.937  1.00  0.00     0.000 C 
BRANCH   3   4
ATOM      4  C   UNL     1      -2.236  36.319  15.747  1.00  0.00     0.006 C 
BRANCH   4   5
ATOM      5  C   UNL     1      -2.457  37.108  14.450  1.00  0.00     0.053 C 
BRANCH   5   6
ATOM      6  C   UNL     1      -3.824  37.718  14.399  1.00  0.00     0.041 C 
ATOM      7  O   UNL     1      -4.809  37.036  14.012  1.00  0.00    -0.550 OA
ATOM      8  O   UNL     1      -4.016  39.031  14.812  1.00  0.00    -0.550 OA
ENDBRANCH   5   6
ENDBRANCH   4   5
ENDBRANCH   3   4
ENDBRANCH   2   3
ENDBRANCH   1   2
BRANCH   1   9
ATOM      9  C   UNL     1      -4.259  37.367  19.335  1.00  0.00     0.000 C 
BRANCH   9  10
ATOM     10  C   UNL     1      -4.659  35.884  19.391  1.00  0.00    -0.000 C 
BRANCH  10  11
ATOM     11  C   UNL     1      -4.306  35.227  20.735  1.00  0.00    -0.000 C 
BRANCH  11  12
ATOM     12  C   UNL     1      -5.125  35.796  21.905  1.00  0.00    -0.000 C 
BRANCH  12  13
ATOM     13  C   UNL     1      -5.062  34.909  23.156  1.00  0.00    -0.003 C 
ATOM     14  C   UNL     1      -5.107  35.750  24.429  1.00  0.00     0.004 C 
ENDBRANCH  12  13
ENDBRANCH  11  12
ENDBRANCH  10  11
ENDBRANCH   9  10
ENDBRANCH   1   9
TORSDOF 10
ENDMDL
MODEL 2
REMARK VINA RESULT:    -2.993      1.173      1.536
REMARK INTER + INTRA:          -4.769
REMARK INTER:                  -4.579
REMARK INTRA:                  -0.190
REMARK UNBOUND:                -0.027
REMARK SMILES CCCCCCCCCCCC(=O)[O-]
REMARK SMILES IDX 7 1 8 2 9 3 10 4 11 5 12 6 13 7 14 8 6 9 5 10 4 11 3 12 2 13
REMARK SMILES IDX 1 14
REMARK H PARENT
REMARK Flexibility Score: inf
ROOT
ATOM      1  C   UNL     1      -2.204  37.905  19.615  1.00  0.00     0.000 C 
ENDROOT
BRANCH   1   2
ATOM      2  C   UNL     1      -1.168  37.665  18.495  1.00  0.00     0.000 C 
BRANCH   2   3
ATOM      3  C   UNL     1      -1.796  37.535  17.097  1.00  0.00     0.000 C 
BRANCH   3   4
ATOM      4  C   UNL     1      -2.245  36.100  16.775  1.00  0.00     0.006 C 
BRANCH   4   5
ATOM      5  C   UNL     1      -3.478  36.070  15.861  1.00  0.00     0.053 C 
BRANCH   5   6
ATOM      6  C   UNL     1      -3.275  36.902  14.632  1.00  0.00     0.041 C 
ATOM      7  O   UNL     1      -4.135  37.759  14.297  1.00  0.00    -0.550 OA
ATOM      8  O   UNL     1      -2.120  36.754  13.875  1.00  0.00    -0.550 OA
ENDBRANCH   5   6
ENDBRANCH   4   5
ENDBRANCH   3   4
ENDBRANCH   2   3
ENDBRANCH   1   2
BRANCH   1   9
ATOM      9  C   UNL     1      -3.596  37.367  19.242  1.00  0.00     0.000 C 
BRANCH   9  10
ATOM     10  C   UNL     1      -4.696  37.865  20.193  1.00  0.00    -0.000 C 
BRANCH  10  11
ATOM     11  C   UNL     1      -5.125  36.796  21.212  1.00  0.00    -0.000 C 
BRANCH  11  12
ATOM     12  C   UNL     1      -4.443  35.440  20.968  1.00  0.00    -0.000 C 
BRANCH  12  13
ATOM     13  C   UNL     1      -4.200  34.660  22.268  1.00  0.00    -0.003 C 
ATOM     14  C   UNL     1      -5.056  35.208  23.407  1.00  0.00     0.004 C 
ENDBRANCH  12  13
ENDBRANCH  11  12
ENDBRANCH  10  11
ENDBRANCH   9  10
ENDBRANCH   1   9
TORSDOF 10
ENDMDL
MODEL 3
REMARK VINA RESULT:    -2.093      1.747      3.335
REMARK INTER + INTRA:          -3.342
REMARK INTER:                  -3.069
REMARK INTRA:                  -0.273
REMARK UNBOUND:                -0.027
REMARK SMILES CCCCCCCCCCCC(=O)[O-]
REMARK SMILES IDX 7 1 8 2 9 3 10 4 11 5 12 6 13 7 14 8 6 9 5 10 4 11 3 12 2 13
REMARK SMILES IDX 1 14
REMARK H PARENT
REMARK Flexibility Score: inf
ROOT
ATOM      1  C   UNL     1      -5.091  34.364  19.176  1.00  0.00     0.000 C 
ENDROOT
BRANCH   1   2
ATOM      2  C   UNL     1      -4.525  34.474  17.744  1.00  0.00     0.000 C 
BRANCH   2   3
ATOM      3  C   UNL     1      -4.034  35.886  17.384  1.00  0.00     0.000 C 
BRANCH   3   4
ATOM      4  C   UNL     1      -2.912  35.880  16.333  1.00  0.00     0.006 C 
BRANCH   4   5
ATOM      5  C   UNL     1      -2.654  37.277  15.753  1.00  0.00     0.053 C 
BRANCH   5   6
ATOM      6  C   UNL     1      -3.623  37.610  14.661  1.00  0.00     0.041 C 
ATOM      7  O   UNL     1      -4.027  36.713  13.875  1.00  0.00    -0.550 OA
ATOM      8  O   UNL     1      -4.107  38.906  14.532  1.00  0.00    -0.550 OA
ENDBRANCH   5   6
ENDBRANCH   4   5
ENDBRANCH   3   4
ENDBRANCH   2   3
ENDBRANCH   1   2
BRANCH   1   9
ATOM      9  C   UNL     1      -4.523  35.447  20.109  1.00  0.00     0.000 C 
BRANCH   9  10
ATOM     10  C   UNL     1      -5.026  36.855  19.755  1.00  0.00    -0.000 C 
BRANCH  10  11
ATOM     11  C   UNL     1      -4.063  37.961  20.218  1.00  0.00    -0.000 C 
BRANCH  11  12
ATOM     12  C   UNL     1      -2.597  37.501  20.230  1.00  0.00    -0.000 C 
BRANCH  12  13
ATOM     13  C   UNL     1      -1.740  38.234  19.188  1.00  0.00    -0.003 C 
ATOM     14  C   UNL     1      -0.502  37.420  18.823  1.00  0.00     0.004 C 
ENDBRANCH  12  13
ENDBRANCH  11  12
ENDBRANCH  10  11
ENDBRANCH   9  10
ENDBRANCH   1   9
TORSDOF 10
ENDMDL
MODEL 4
REMARK VINA RESULT:    -1.910      2.446      5.975
REMARK INTER + INTRA:          -3.052
REMARK INTER:                  -2.254
REMARK INTRA:                  -0.799
REMARK UNBOUND:                -0.027
REMARK SMILES CCCCCCCCCCCC(=O)[O-]
REMARK SMILES IDX 7 1 8 2 9 3 10 4 11 5 12 6 13 7 14 8 6 9 5 10 4 11 3 12 2 13
REMARK SMILES IDX 1 14
REMARK H PARENT
REMARK Flexibility Score: inf
ROOT
ATOM      1  C   UNL     1      -4.701  34.594  19.197  1.00  0.00     0.000 C 
ENDROOT
BRANCH   1   2
ATOM      2  C   UNL     1      -5.125  35.948  19.806  1.00  0.00     0.000 C 
BRANCH   2   3
ATOM      3  C   UNL     1      -4.303  36.351  21.041  1.00  0.00     0.000 C 
BRANCH   3   4
ATOM      4  C   UNL     1      -2.807  36.528  20.732  1.00  0.00     0.006 C 
BRANCH   4   5
ATOM      5  C   UNL     1      -2.550  37.690  19.762  1.00  0.00     0.053 C 
BRANCH   5   6
ATOM      6  C   UNL     1      -1.147  37.672  19.237  1.00  0.00     0.041 C 
ATOM      7  O   UNL     1      -0.181  37.456  20.016  1.00  0.00    -0.550 OA
ATOM      8  O   UNL     1      -0.910  37.860  17.882  1.00  0.00    -0.550 OA
ENDBRANCH   5   6
ENDBRANCH   4   5
ENDBRANCH   3   4
ENDBRANCH   2   3
ENDBRANCH   1   2
BRANCH   1   9
ATOM      9  C   UNL     1      -4.635  34.644  17.661  1.00  0.00     0.000 C 
BRANCH   9  10
ATOM     10  C   UNL     1      -4.000  35.942  17.139  1.00  0.00    -0.000 C 
BRANCH  10  11
ATOM     11  C   UNL     1      -2.882  35.684  16.115  1.00  0.00    -0.000 C 
BRANCH  11  12
ATOM     12  C   UNL     1      -2.627  36.894  15.201  1.00  0.00    -0.000 C 
BRANCH  12  13
ATOM     13  C   UNL     1      -3.741  37.094  14.165  1.00  0.00    -0.003 C 
ATOM     14  C   UNL     1      -4.326  38.502  14.252  1.00  0.00     0.004 C 
ENDBRANCH  12  13
ENDBRANCH  11  12
ENDBRANCH  10  11
ENDBRANCH   9  10
ENDBRANCH   1   9
TORSDOF 10
ENDMDL
