MODEL 1
REMARK VINA RESULT:    -1.021      0.000      0.000
REMARK INTER + INTRA:          -1.330
REMARK INTER:                  -1.171
REMARK INTRA:                  -0.159
REMARK UNBOUND:                -0.159
REMARK SMILES COc1ccc(C(C)=O)c(O)c1
REMARK SMILES IDX 6 1 10 2 12 3 3 4 4 5 5 6 7 7 8 8 9 9 11 10 2 12 1 13
REMARK H PARENT 11 11
REMARK Flexibility Score: inf
ROOT
ATOM      1  C   UNL     1      11.020  14.205   1.036  1.00  0.00     0.059 A 
ATOM      2  C   UNL     1      11.076  15.563   1.430  1.00  0.00     0.130 A 
ATOM      3  C   UNL     1       9.901  16.240   1.788  1.00  0.00     0.093 A 
ATOM      4  C   UNL     1       8.662  15.595   1.757  1.00  0.00     0.122 A 
ATOM      5  C   UNL     1       8.601  14.248   1.364  1.00  0.00     0.047 A 
ATOM      6  C   UNL     1       9.766  13.564   1.008  1.00  0.00     0.019 A 
ENDROOT
BRANCH   1   7
ATOM      7  C   UNL     1      12.254  13.457   0.661  1.00  0.00     0.163 C 
ATOM      8  C   UNL     1      13.172  12.880   1.697  1.00  0.00     0.093 C 
ATOM      9  O   UNL     1      12.567  13.319  -0.552  1.00  0.00    -0.294 OA
ENDBRANCH   1   7
BRANCH   2  10
ATOM     10  O   UNL     1      12.293  16.245   1.457  1.00  0.00    -0.507 OA
ATOM     11  H   UNL     1      12.854  16.301   2.300  1.00  0.00     0.293 HD
ENDBRANCH   2  10
BRANCH   4  12
ATOM     12  O   UNL     1       7.521  16.325   2.125  1.00  0.00    -0.497 OA
ATOM     13  C   UNL     1       7.415  17.743   2.053  1.00  0.00     0.278 C 
ENDBRANCH   4  12
TORSDOF 3
ENDMDL
MODEL 2
REMARK VINA RESULT:     0.514      1.166      1.408
REMARK INTER + INTRA:           0.431
REMARK INTER:                   0.689
REMARK INTRA:                  -0.259
REMARK UNBOUND:                -0.159
REMARK SMILES COc1ccc(C(C)=O)c(O)c1
REMARK SMILES IDX 6 1 10 2 12 3 3 4 4 5 5 6 7 7 8 8 9 9 11 10 2 12 1 13
REMARK H PARENT 11 11
REMARK Flexibility Score: inf
ROOT
ATOM      1  C   UNL     1      10.863  14.085   0.248  1.00  0.00     0.059 A 
ATOM      2  C   UNL     1      11.040  14.823   1.442  1.00  0.00     0.130 A 
ATOM      3  C   UNL     1       9.945  15.459   2.044  1.00  0.00     0.093 A 
ATOM      4  C   UNL     1       8.669  15.382   1.478  1.00  0.00     0.122 A 
ATOM      5  C   UNL     1       8.490  14.653   0.292  1.00  0.00     0.047 A 
ATOM      6  C   UNL     1       9.574  14.013  -0.314  1.00  0.00     0.019 A 
ENDROOT
BRANCH   1   7
ATOM      7  C   UNL     1      12.009  13.389  -0.407  1.00  0.00     0.163 C 
ATOM      8  C   UNL     1      11.983  13.028  -1.863  1.00  0.00     0.093 C 
ATOM      9  O   UNL     1      13.021  13.060   0.268  1.00  0.00    -0.294 OA
ENDBRANCH   1   7
BRANCH   2  10
ATOM     10  O   UNL     1      12.301  14.936   2.028  1.00  0.00    -0.507 OA
ATOM     11  H   UNL     1      12.769  14.139   2.445  1.00  0.00     0.293 HD
ENDBRANCH   2  10
BRANCH   4  12
ATOM     12  O   UNL     1       7.612  16.040   2.125  1.00  0.00    -0.497 OA
ATOM     13  C   UNL     1       7.421  17.451   2.121  1.00  0.00     0.278 C 
ENDBRANCH   4  12
TORSDOF 3
ENDMDL
MODEL 3
REMARK VINA RESULT:     0.835      1.451      4.491
REMARK INTER + INTRA:           0.799
REMARK INTER:                   1.099
REMARK INTRA:                  -0.301
REMARK UNBOUND:                -0.159
REMARK SMILES COc1ccc(C(C)=O)c(O)c1
REMARK SMILES IDX 6 1 10 2 12 3 3 4 4 5 5 6 7 7 8 8 9 9 11 10 2 12 1 13
REMARK H PARENT 11 11
REMARK Flexibility Score: inf
ROOT
ATOM      1  C   UNL     1       9.675  15.957   1.428  1.00  0.00     0.059 A 
ATOM      2  C   UNL     1      11.010  16.251   1.795  1.00  0.00     0.130 A 
ATOM      3  C   UNL     1      11.923  15.211   2.017  1.00  0.00     0.093 A 
ATOM      4  C   UNL     1      11.536  13.875   1.887  1.00  0.00     0.122 A 
ATOM      5  C   UNL     1      10.211  13.578   1.527  1.00  0.00     0.047 A 
ATOM      6  C   UNL     1       9.294  14.608   1.301  1.00  0.00     0.019 A 
ENDROOT
BRANCH   1   7
ATOM      7  C   UNL     1       8.685  17.044   1.176  1.00  0.00     0.163 C 
ATOM      8  C   UNL     1       7.506  17.261   2.076  1.00  0.00     0.093 C 
ATOM      9  O   UNL     1       8.808  17.791   0.168  1.00  0.00    -0.294 OA
ENDBRANCH   1   7
BRANCH   2  10
ATOM     10  O   UNL     1      11.430  17.573   1.950  1.00  0.00    -0.507 OA
ATOM     11  H   UNL     1      10.770  18.342   1.976  1.00  0.00     0.293 HD
ENDBRANCH   2  10
BRANCH   4  12
ATOM     12  O   UNL     1      12.494  12.876   2.123  1.00  0.00    -0.497 OA
ATOM     13  C   UNL     1      13.893  13.039   1.917  1.00  0.00     0.278 C 
ENDBRANCH   4  12
TORSDOF 3
ENDMDL
