MODEL 1
REMARK VINA RESULT:    -3.126      0.000      0.000
REMARK INTER + INTRA:          -3.513
REMARK INTER:                  -3.491
REMARK INTRA:                  -0.022
REMARK UNBOUND:                -0.022
REMARK SMILES CCCC(=O)[O-]
REMARK SMILES IDX 3 1 4 2 5 3 6 4 2 5 1 6
REMARK H PARENT
REMARK Flexibility Score: inf
ROOT
ATOM      1  C   UNL     1     -27.256 -20.356 -27.223  1.00  0.00     0.052 C 
ENDROOT
BRANCH   1   2
ATOM      2  C   UNL     1     -28.223 -19.694 -26.291  1.00  0.00     0.041 C 
ATOM      3  O   UNL     1     -27.846 -19.318 -25.150  1.00  0.00    -0.550 OA
ATOM      4  O   UNL     1     -29.526 -19.447 -26.702  1.00  0.00    -0.550 OA
ENDBRANCH   1   2
BRANCH   1   5
ATOM      5  C   UNL     1     -27.991 -21.313 -28.165  1.00  0.00     0.003 C 
ATOM      6  C   UNL     1     -28.075 -20.739 -29.576  1.00  0.00     0.004 C 
ENDBRANCH   1   5
TORSDOF 2
ENDMDL
MODEL 2
REMARK VINA RESULT:    -3.104      2.654      3.394
REMARK INTER + INTRA:          -3.489
REMARK INTER:                  -3.484
REMARK INTRA:                  -0.006
REMARK UNBOUND:                -0.022
REMARK SMILES CCCC(=O)[O-]
REMARK SMILES IDX 3 1 4 2 5 3 6 4 2 5 1 6
REMARK H PARENT
REMARK Flexibility Score: inf
ROOT
ATOM      1  C   UNL     1     -28.216 -20.214 -28.104  1.00  0.00     0.052 C 
ENDROOT
BRANCH   1   2
ATOM      2  C   UNL     1     -26.934 -20.714 -28.692  1.00  0.00     0.041 C 
ATOM      3  O   UNL     1     -26.090 -19.903 -29.155  1.00  0.00    -0.550 OA
ATOM      4  O   UNL     1     -26.650 -22.074 -28.685  1.00  0.00    -0.550 OA
ENDBRANCH   1   2
BRANCH   1   5
ATOM      5  C   UNL     1     -28.086 -20.064 -26.585  1.00  0.00     0.003 C 
ATOM      6  C   UNL     1     -29.228 -19.228 -26.015  1.00  0.00     0.004 C 
ENDBRANCH   1   5
TORSDOF 2
ENDMDL
MODEL 3
REMARK VINA RESULT:    -2.801      1.786      2.023
REMARK INTER + INTRA:          -3.151
REMARK INTER:                  -3.122
REMARK INTRA:                  -0.028
REMARK UNBOUND:                -0.022
REMARK SMILES CCCC(=O)[O-]
REMARK SMILES IDX 3 1 4 2 5 3 6 4 2 5 1 6
REMARK H PARENT
REMARK Flexibility Score: inf
ROOT
ATOM      1  C   UNL     1     -26.634 -20.473 -28.545  1.00  0.00     0.052 C 
ENDROOT
BRANCH   1   2
ATOM      2  C   UNL     1     -27.709 -20.100 -27.572  1.00  0.00     0.041 C 
ATOM      3  O   UNL     1     -27.461 -20.062 -26.339  1.00  0.00    -0.550 OA
ATOM      4  O   UNL     1     -28.970 -19.747 -28.032  1.00  0.00    -0.550 OA
ENDBRANCH   1   2
BRANCH   1   5
ATOM      5  C   UNL     1     -26.544 -21.995 -28.686  1.00  0.00     0.003 C 
ATOM      6  C   UNL     1     -25.152 -22.500 -28.316  1.00  0.00     0.004 C 
ENDBRANCH   1   5
TORSDOF 2
ENDMDL
MODEL 4
REMARK VINA RESULT:    -2.778     16.977     17.758
REMARK INTER + INTRA:          -3.125
REMARK INTER:                  -3.065
REMARK INTRA:                  -0.060
REMARK UNBOUND:                -0.022
REMARK SMILES CCCC(=O)[O-]
REMARK SMILES IDX 3 1 4 2 5 3 6 4 2 5 1 6
REMARK H PARENT
REMARK Flexibility Score: inf
ROOT
ATOM      1  C   UNL     1     -20.867 -22.124 -10.930  1.00  0.00     0.052 C 
ENDROOT
BRANCH   1   2
ATOM      2  C   UNL     1     -20.332 -20.744 -11.151  1.00  0.00     0.041 C 
ATOM      3  O   UNL     1     -20.631 -20.109 -12.195  1.00  0.00    -0.550 OA
ATOM      4  O   UNL     1     -19.545 -20.140 -10.179  1.00  0.00    -0.550 OA
ENDBRANCH   1   2
BRANCH   1   5
ATOM      5  C   UNL     1     -20.659 -22.985 -12.179  1.00  0.00     0.003 C 
ATOM      6  C   UNL     1     -19.205 -23.431 -12.304  1.00  0.00     0.004 C 
ENDBRANCH   1   5
TORSDOF 2
ENDMDL
MODEL 5
REMARK VINA RESULT:    -2.767     13.965     14.687
REMARK INTER + INTRA:          -3.113
REMARK INTER:                  -3.094
REMARK INTRA:                  -0.019
REMARK UNBOUND:                -0.022
REMARK SMILES CCCC(=O)[O-]
REMARK SMILES IDX 3 1 4 2 5 3 6 4 2 5 1 6
REMARK H PARENT
REMARK Flexibility Score: inf
ROOT
ATOM      1  C   UNL     1     -22.841 -13.358 -14.787  1.00  0.00     0.052 C 
ENDROOT
BRANCH   1   2
ATOM      2  C   UNL     1     -24.038 -14.101 -14.281  1.00  0.00     0.041 C 
ATOM      3  O   UNL     1     -24.023 -15.358 -14.219  1.00  0.00    -0.550 OA
ATOM      4  O   UNL     1     -25.150 -13.402 -13.831  1.00  0.00    -0.550 OA
ENDBRANCH   1   2
BRANCH   1   5
ATOM      5  C   UNL     1     -23.267 -12.249 -15.753  1.00  0.00     0.003 C 
ATOM      6  C   UNL     1     -22.811 -12.555 -17.177  1.00  0.00     0.004 C 
ENDBRANCH   1   5
TORSDOF 2
ENDMDL
MODEL 6
REMARK VINA RESULT:    -2.757     14.171     14.841
REMARK INTER + INTRA:          -3.102
REMARK INTER:                  -3.063
REMARK INTRA:                  -0.038
REMARK UNBOUND:                -0.022
REMARK SMILES CCCC(=O)[O-]
REMARK SMILES IDX 3 1 4 2 5 3 6 4 2 5 1 6
REMARK H PARENT
REMARK Flexibility Score: inf
ROOT
ATOM      1  C   UNL     1     -23.594 -14.369 -14.563  1.00  0.00     0.052 C 
ENDROOT
BRANCH   1   2
ATOM      2  C   UNL     1     -24.824 -13.720 -14.011  1.00  0.00     0.041 C 
ATOM      3  O   UNL     1     -24.779 -12.536 -13.586  1.00  0.00    -0.550 OA
ATOM      4  O   UNL     1     -26.032 -14.406 -14.013  1.00  0.00    -0.550 OA
ENDBRANCH   1   2
BRANCH   1   5
ATOM      5  C   UNL     1     -22.586 -13.309 -15.015  1.00  0.00     0.003 C 
ATOM      6  C   UNL     1     -22.787 -12.950 -16.485  1.00  0.00     0.004 C 
ENDBRANCH   1   5
TORSDOF 2
ENDMDL
MODEL 7
REMARK VINA RESULT:    -2.729     13.869     14.702
REMARK INTER + INTRA:          -3.070
REMARK INTER:                  -3.040
REMARK INTRA:                  -0.030
REMARK UNBOUND:                -0.022
REMARK SMILES CCCC(=O)[O-]
REMARK SMILES IDX 3 1 4 2 5 3 6 4 2 5 1 6
REMARK H PARENT
REMARK Flexibility Score: inf
ROOT
ATOM      1  C   UNL     1     -22.705 -13.556 -15.135  1.00  0.00     0.052 C 
ENDROOT
BRANCH   1   2
ATOM      2  C   UNL     1     -22.314 -13.277 -16.552  1.00  0.00     0.041 C 
ATOM      3  O   UNL     1     -23.091 -12.641 -17.310  1.00  0.00    -0.550 OA
ATOM      4  O   UNL     1     -21.069 -13.677 -17.021  1.00  0.00    -0.550 OA
ENDBRANCH   1   2
BRANCH   1   5
ATOM      5  C   UNL     1     -23.772 -12.562 -14.668  1.00  0.00     0.003 C 
ATOM      6  C   UNL     1     -24.923 -13.279 -13.968  1.00  0.00     0.004 C 
ENDBRANCH   1   5
TORSDOF 2
ENDMDL
MODEL 8
REMARK VINA RESULT:    -2.662     18.118     18.750
REMARK INTER + INTRA:          -2.995
REMARK INTER:                  -2.990
REMARK INTRA:                  -0.005
REMARK UNBOUND:                -0.022
REMARK SMILES CCCC(=O)[O-]
REMARK SMILES IDX 3 1 4 2 5 3 6 4 2 5 1 6
REMARK H PARENT
REMARK Flexibility Score: inf
ROOT
ATOM      1  C   UNL     1     -27.724 -31.262 -12.884  1.00  0.00     0.052 C 
ENDROOT
BRANCH   1   2
ATOM      2  C   UNL     1     -28.974 -30.862 -12.163  1.00  0.00     0.041 C 
ATOM      3  O   UNL     1     -29.831 -31.729 -11.853  1.00  0.00    -0.550 OA
ATOM      4  O   UNL     1     -29.167 -29.538 -11.791  1.00  0.00    -0.550 OA
ENDBRANCH   1   2
BRANCH   1   5
ATOM      5  C   UNL     1     -26.668 -31.756 -11.891  1.00  0.00     0.003 C 
ATOM      6  C   UNL     1     -25.371 -32.124 -12.606  1.00  0.00     0.004 C 
ENDBRANCH   1   5
TORSDOF 2
ENDMDL
MODEL 9
REMARK VINA RESULT:    -2.627     13.486     14.042
REMARK INTER + INTRA:          -2.956
REMARK INTER:                  -2.895
REMARK INTRA:                  -0.061
REMARK UNBOUND:                -0.022
REMARK SMILES CCCC(=O)[O-]
REMARK SMILES IDX 3 1 4 2 5 3 6 4 2 5 1 6
REMARK H PARENT
REMARK Flexibility Score: inf
ROOT
ATOM      1  C   UNL     1     -22.612 -31.552 -22.139  1.00  0.00     0.052 C 
ENDROOT
BRANCH   1   2
ATOM      2  C   UNL     1     -21.184 -31.643 -22.578  1.00  0.00     0.041 C 
ATOM      3  O   UNL     1     -20.314 -32.125 -21.806  1.00  0.00    -0.550 OA
ATOM      4  O   UNL     1     -20.823 -31.241 -23.857  1.00  0.00    -0.550 OA
ENDBRANCH   1   2
BRANCH   1   5
ATOM      5  C   UNL     1     -22.716 -30.813 -20.802  1.00  0.00     0.003 C 
ATOM      6  C   UNL     1     -22.593 -29.304 -20.996  1.00  0.00     0.004 C 
ENDBRANCH   1   5
TORSDOF 2
ENDMDL
