MODEL 1
REMARK VINA RESULT:    -4.878      0.000      0.000
REMARK INTER + INTRA:          -7.247
REMARK INTER:                  -6.589
REMARK INTRA:                  -0.658
REMARK UNBOUND:                -0.658
REMARK SMILES CC(=O)CCC=C(C)CCC=C(C)C
REMARK SMILES IDX 7 1 6 2 8 3 9 4 10 5 11 6 13 7 12 8 14 9 5 10 4 11 2 12 3 13
REMARK SMILES IDX 1 14
REMARK H PARENT
REMARK Flexibility Score: inf
ROOT
ATOM      1  C   UNL     1     -13.054   0.422  29.371  1.00  0.00    -0.077 C 
ATOM      2  C   UNL     1     -12.601  -0.110  30.529  1.00  0.00    -0.028 C 
ATOM      3  C   UNL     1     -12.130   0.432  28.181  1.00  0.00     0.039 C 
ENDROOT
BRANCH   1   4
ATOM      4  C   UNL     1     -14.468   0.935  29.193  1.00  0.00     0.034 C 
BRANCH   4   5
ATOM      5  C   UNL     1     -14.475   2.460  29.050  1.00  0.00     0.032 C 
BRANCH   5   6
ATOM      6  C   UNL     1     -14.912   2.866  27.665  1.00  0.00    -0.028 C 
ATOM      7  C   UNL     1     -16.487   3.429  25.864  1.00  0.00     0.039 C 
ATOM      8  C   UNL     1     -16.198   3.065  27.298  1.00  0.00    -0.080 C 
ATOM      9  C   UNL     1     -17.338   2.950  28.282  1.00  0.00     0.039 C 
ENDBRANCH   5   6
ENDBRANCH   4   5
ENDBRANCH   1   4
BRANCH   2  10
ATOM     10  C   UNL     1     -13.396  -0.189  31.811  1.00  0.00     0.035 C 
BRANCH  10  11
ATOM     11  C   UNL     1     -12.715   0.571  32.959  1.00  0.00     0.079 C 
BRANCH  11  12
ATOM     12  C   UNL     1     -13.562   1.719  33.448  1.00  0.00     0.130 C 
ATOM     13  O   UNL     1     -13.847   2.627  32.683  1.00  0.00    -0.300 OA
ATOM     14  C   UNL     1     -14.078   1.762  34.856  1.00  0.00     0.087 C 
ENDBRANCH  11  12
ENDBRANCH  10  11
ENDBRANCH   2  10
TORSDOF 6
ENDMDL
MODEL 2
REMARK VINA RESULT:    -4.822      3.127      5.372
REMARK INTER + INTRA:          -7.172
REMARK INTER:                  -5.981
REMARK INTRA:                  -1.190
REMARK UNBOUND:                -0.658
REMARK SMILES CC(=O)CCC=C(C)CCC=C(C)C
REMARK SMILES IDX 7 1 6 2 8 3 9 4 10 5 11 6 13 7 12 8 14 9 5 10 4 11 2 12 3 13
REMARK SMILES IDX 1 14
REMARK H PARENT
REMARK Flexibility Score: inf
ROOT
ATOM      1  C   UNL     1     -13.811   2.955  33.809  1.00  0.00    -0.077 C 
ATOM      2  C   UNL     1     -15.010   3.498  33.495  1.00  0.00    -0.028 C 
ATOM      3  C   UNL     1     -13.767   1.881  34.864  1.00  0.00     0.039 C 
ENDROOT
BRANCH   1   4
ATOM      4  C   UNL     1     -12.525   3.323  33.097  1.00  0.00     0.034 C 
BRANCH   4   5
ATOM      5  C   UNL     1     -11.930   2.099  32.393  1.00  0.00     0.032 C 
BRANCH   5   6
ATOM      6  C   UNL     1     -12.638   1.836  31.087  1.00  0.00    -0.028 C 
ATOM      7  C   UNL     1     -13.979   0.582  29.454  1.00  0.00     0.039 C 
ATOM      8  C   UNL     1     -13.360   0.726  30.821  1.00  0.00    -0.080 C 
ATOM      9  C   UNL     1     -13.576  -0.356  31.854  1.00  0.00     0.039 C 
ENDBRANCH   5   6
ENDBRANCH   4   5
ENDBRANCH   1   4
BRANCH   2  10
ATOM     10  C   UNL     1     -15.223   4.586  32.470  1.00  0.00     0.035 C 
BRANCH  10  11
ATOM     11  C   UNL     1     -16.137   5.702  32.996  1.00  0.00     0.079 C 
BRANCH  11  12
ATOM     12  C   UNL     1     -15.455   6.529  34.057  1.00  0.00     0.130 C 
ATOM     13  O   UNL     1     -16.017   6.722  35.125  1.00  0.00    -0.300 OA
ATOM     14  C   UNL     1     -14.090   7.110  33.835  1.00  0.00     0.087 C 
ENDBRANCH  11  12
ENDBRANCH  10  11
ENDBRANCH   2  10
TORSDOF 6
ENDMDL
MODEL 3
REMARK VINA RESULT:    -4.774      2.088      5.371
REMARK INTER + INTRA:          -7.107
REMARK INTER:                  -6.045
REMARK INTRA:                  -1.062
REMARK UNBOUND:                -0.658
REMARK SMILES CC(=O)CCC=C(C)CCC=C(C)C
REMARK SMILES IDX 7 1 6 2 8 3 9 4 10 5 11 6 13 7 12 8 14 9 5 10 4 11 2 12 3 13
REMARK SMILES IDX 1 14
REMARK H PARENT
REMARK Flexibility Score: inf
ROOT
ATOM      1  C   UNL     1     -13.290   0.747  30.636  1.00  0.00    -0.077 C 
ATOM      2  C   UNL     1     -14.140   0.728  29.583  1.00  0.00    -0.028 C 
ATOM      3  C   UNL     1     -13.400  -0.351  31.662  1.00  0.00     0.039 C 
ENDROOT
BRANCH   1   4
ATOM      4  C   UNL     1     -12.186   1.773  30.790  1.00  0.00     0.034 C 
BRANCH   4   5
ATOM      5  C   UNL     1     -12.201   2.374  32.199  1.00  0.00     0.032 C 
BRANCH   5   6
ATOM      6  C   UNL     1     -13.308   3.389  32.336  1.00  0.00    -0.028 C 
ATOM      7  C   UNL     1     -15.338   4.409  33.274  1.00  0.00     0.039 C 
ATOM      8  C   UNL     1     -14.269   3.346  33.286  1.00  0.00    -0.080 C 
ATOM      9  C   UNL     1     -14.290   2.281  34.357  1.00  0.00     0.039 C 
ENDBRANCH   5   6
ENDBRANCH   4   5
ENDBRANCH   1   4
BRANCH   2  10
ATOM     10  C   UNL     1     -14.165   1.756  28.478  1.00  0.00     0.035 C 
BRANCH  10  11
ATOM     11  C   UNL     1     -15.107   2.926  28.799  1.00  0.00     0.079 C 
BRANCH  11  12
ATOM     12  C   UNL     1     -16.333   2.913  27.921  1.00  0.00     0.130 C 
ATOM     13  O   UNL     1     -17.408   2.571  28.391  1.00  0.00    -0.300 OA
ATOM     14  C   UNL     1     -16.265   3.327  26.482  1.00  0.00     0.087 C 
ENDBRANCH  11  12
ENDBRANCH  10  11
ENDBRANCH   2  10
TORSDOF 6
ENDMDL
MODEL 4
REMARK VINA RESULT:    -4.768     10.243     12.313
REMARK INTER + INTRA:          -7.098
REMARK INTER:                  -5.378
REMARK INTRA:                  -1.721
REMARK UNBOUND:                -0.658
REMARK SMILES CC(=O)CCC=C(C)CCC=C(C)C
REMARK SMILES IDX 7 1 6 2 8 3 9 4 10 5 11 6 13 7 12 8 14 9 5 10 4 11 2 12 3 13
REMARK SMILES IDX 1 14
REMARK H PARENT
REMARK Flexibility Score: inf
ROOT
ATOM      1  C   UNL     1      -2.713  -0.029  27.415  1.00  0.00    -0.077 C 
ATOM      2  C   UNL     1      -3.289  -0.690  28.446  1.00  0.00    -0.028 C 
ATOM      3  C   UNL     1      -1.802  -0.798  26.494  1.00  0.00     0.039 C 
ENDROOT
BRANCH   1   4
ATOM      4  C   UNL     1      -3.001   1.425  27.100  1.00  0.00     0.034 C 
BRANCH   4   5
ATOM      5  C   UNL     1      -1.699   2.227  27.015  1.00  0.00     0.032 C 
BRANCH   5   6
ATOM      6  C   UNL     1      -1.434   2.957  28.308  1.00  0.00    -0.028 C 
ATOM      7  C   UNL     1      -0.551   3.291  30.577  1.00  0.00     0.039 C 
ATOM      8  C   UNL     1      -0.696   2.462  29.326  1.00  0.00    -0.080 C 
ATOM      9  C   UNL     1      -0.006   1.121  29.237  1.00  0.00     0.039 C 
ENDBRANCH   5   6
ENDBRANCH   4   5
ENDBRANCH   1   4
BRANCH   2  10
ATOM     10  C   UNL     1      -4.217  -0.065  29.460  1.00  0.00     0.035 C 
BRANCH  10  11
ATOM     11  C   UNL     1      -3.476   0.352  30.739  1.00  0.00     0.079 C 
BRANCH  11  12
ATOM     12  C   UNL     1      -3.852   1.746  31.173  1.00  0.00     0.130 C 
ATOM     13  O   UNL     1      -3.514   2.146  32.277  1.00  0.00    -0.300 OA
ATOM     14  C   UNL     1      -4.622   2.663  30.270  1.00  0.00     0.087 C 
ENDBRANCH  11  12
ENDBRANCH  10  11
ENDBRANCH   2  10
TORSDOF 6
ENDMDL
MODEL 5
REMARK VINA RESULT:    -4.748      9.941     12.095
REMARK INTER + INTRA:          -7.071
REMARK INTER:                  -5.787
REMARK INTRA:                  -1.284
REMARK UNBOUND:                -0.658
REMARK SMILES CC(=O)CCC=C(C)CCC=C(C)C
REMARK SMILES IDX 7 1 6 2 8 3 9 4 10 5 11 6 13 7 12 8 14 9 5 10 4 11 2 12 3 13
REMARK SMILES IDX 1 14
REMARK H PARENT
REMARK Flexibility Score: inf
ROOT
ATOM      1  C   UNL     1      -1.909   0.029  27.723  1.00  0.00    -0.077 C 
ATOM      2  C   UNL     1      -3.156  -0.336  28.100  1.00  0.00    -0.028 C 
ATOM      3  C   UNL     1      -1.653   0.295  26.262  1.00  0.00     0.039 C 
ENDROOT
BRANCH   1   4
ATOM      4  C   UNL     1      -0.780   0.258  28.708  1.00  0.00     0.034 C 
BRANCH   4   5
ATOM      5  C   UNL     1      -0.584   1.755  28.966  1.00  0.00     0.032 C 
BRANCH   5   6
ATOM      6  C   UNL     1      -0.749   2.072  30.431  1.00  0.00    -0.028 C 
ATOM      7  C   UNL     1      -1.778   3.069  32.428  1.00  0.00     0.039 C 
ATOM      8  C   UNL     1      -1.766   2.799  30.945  1.00  0.00    -0.080 C 
ATOM      9  C   UNL     1      -2.889   3.327  30.083  1.00  0.00     0.039 C 
ENDBRANCH   5   6
ENDBRANCH   4   5
ENDBRANCH   1   4
BRANCH   2  10
ATOM     10  C   UNL     1      -3.572  -0.645  29.518  1.00  0.00     0.035 C 
BRANCH  10  11
ATOM     11  C   UNL     1      -4.743   0.235  29.980  1.00  0.00     0.079 C 
BRANCH  11  12
ATOM     12  C   UNL     1      -5.073   0.006  31.434  1.00  0.00     0.130 C 
ATOM     13  O   UNL     1      -5.503  -1.081  31.791  1.00  0.00    -0.300 OA
ATOM     14  C   UNL     1      -4.871   1.083  32.458  1.00  0.00     0.087 C 
ENDBRANCH  11  12
ENDBRANCH  10  11
ENDBRANCH   2  10
TORSDOF 6
ENDMDL
MODEL 6
REMARK VINA RESULT:    -4.743     10.119     12.363
REMARK INTER + INTRA:          -7.065
REMARK INTER:                  -5.641
REMARK INTRA:                  -1.424
REMARK UNBOUND:                -0.658
REMARK SMILES CC(=O)CCC=C(C)CCC=C(C)C
REMARK SMILES IDX 7 1 6 2 8 3 9 4 10 5 11 6 13 7 12 8 14 9 5 10 4 11 2 12 3 13
REMARK SMILES IDX 1 14
REMARK H PARENT
REMARK Flexibility Score: inf
ROOT
ATOM      1  C   UNL     1      -1.935   3.059  30.444  1.00  0.00    -0.077 C 
ATOM      2  C   UNL     1      -3.231   3.207  30.086  1.00  0.00    -0.028 C 
ATOM      3  C   UNL     1      -1.156   4.289  30.831  1.00  0.00     0.039 C 
ENDROOT
BRANCH   1   4
ATOM      4  C   UNL     1      -1.255   1.709  30.550  1.00  0.00     0.034 C 
BRANCH   4   5
ATOM      5  C   UNL     1      -0.240   1.526  29.416  1.00  0.00     0.032 C 
BRANCH   5   6
ATOM      6  C   UNL     1      -0.656   0.401  28.502  1.00  0.00    -0.028 C 
ATOM      7  C   UNL     1      -1.749  -0.661  26.573  1.00  0.00     0.039 C 
ATOM      8  C   UNL     1      -1.370   0.564  27.366  1.00  0.00    -0.080 C 
ATOM      9  C   UNL     1      -1.780   1.930  26.867  1.00  0.00     0.039 C 
ENDBRANCH   5   6
ENDBRANCH   4   5
ENDBRANCH   1   4
BRANCH   2  10
ATOM     10  C   UNL     1      -4.143   2.080  29.665  1.00  0.00     0.035 C 
BRANCH  10  11
ATOM     11  C   UNL     1      -4.780   1.372  30.870  1.00  0.00     0.079 C 
BRANCH  11  12
ATOM     12  C   UNL     1      -4.793  -0.126  30.694  1.00  0.00     0.130 C 
ATOM     13  O   UNL     1      -5.426  -0.819  31.477  1.00  0.00    -0.300 OA
ATOM     14  C   UNL     1      -4.057  -0.785  29.566  1.00  0.00     0.087 C 
ENDBRANCH  11  12
ENDBRANCH  10  11
ENDBRANCH   2  10
TORSDOF 6
ENDMDL
MODEL 7
REMARK VINA RESULT:    -4.732      2.563      4.834
REMARK INTER + INTRA:          -7.050
REMARK INTER:                  -6.327
REMARK INTRA:                  -0.723
REMARK UNBOUND:                -0.658
REMARK SMILES CC(=O)CCC=C(C)CCC=C(C)C
REMARK SMILES IDX 7 1 6 2 8 3 9 4 10 5 11 6 13 7 12 8 14 9 5 10 4 11 2 12 3 13
REMARK SMILES IDX 1 14
REMARK H PARENT
REMARK Flexibility Score: inf
ROOT
ATOM      1  C   UNL     1     -13.422   1.914  33.914  1.00  0.00    -0.077 C 
ATOM      2  C   UNL     1     -12.884   0.766  33.441  1.00  0.00    -0.028 C 
ATOM      3  C   UNL     1     -14.318   1.837  35.124  1.00  0.00     0.039 C 
ENDROOT
BRANCH   1   4
ATOM      4  C   UNL     1     -13.107   3.277  33.334  1.00  0.00     0.034 C 
BRANCH   4   5
ATOM      5  C   UNL     1     -14.214   3.724  32.373  1.00  0.00     0.032 C 
BRANCH   5   6
ATOM      6  C   UNL     1     -15.324   4.417  33.122  1.00  0.00    -0.028 C 
ATOM      7  C   UNL     1     -17.427   5.656  33.413  1.00  0.00     0.039 C 
ATOM      8  C   UNL     1     -16.417   4.957  32.538  1.00  0.00    -0.080 C 
ATOM      9  C   UNL     1     -16.658   4.865  31.050  1.00  0.00     0.039 C 
ENDBRANCH   5   6
ENDBRANCH   4   5
ENDBRANCH   1   4
BRANCH   2  10
ATOM     10  C   UNL     1     -11.977   0.672  32.238  1.00  0.00     0.035 C 
BRANCH  10  11
ATOM     11  C   UNL     1     -12.670  -0.001  31.045  1.00  0.00     0.079 C 
BRANCH  11  12
ATOM     12  C   UNL     1     -13.052   1.001  29.984  1.00  0.00     0.130 C 
ATOM     13  O   UNL     1     -12.380   2.011  29.838  1.00  0.00    -0.300 OA
ATOM     14  C   UNL     1     -14.234   0.776  29.088  1.00  0.00     0.087 C 
ENDBRANCH  11  12
ENDBRANCH  10  11
ENDBRANCH   2  10
TORSDOF 6
ENDMDL
MODEL 8
REMARK VINA RESULT:    -4.726      9.090     10.936
REMARK INTER + INTRA:          -7.042
REMARK INTER:                  -6.323
REMARK INTRA:                  -0.718
REMARK UNBOUND:                -0.658
REMARK SMILES CC(=O)CCC=C(C)CCC=C(C)C
REMARK SMILES IDX 7 1 6 2 8 3 9 4 10 5 11 6 13 7 12 8 14 9 5 10 4 11 2 12 3 13
REMARK SMILES IDX 1 14
REMARK H PARENT
REMARK Flexibility Score: inf
ROOT
ATOM      1  C   UNL     1     -11.756  11.841  30.473  1.00  0.00    -0.077 C 
ATOM      2  C   UNL     1     -12.931  12.359  30.049  1.00  0.00    -0.028 C 
ATOM      3  C   UNL     1     -10.579  11.875  29.533  1.00  0.00     0.039 C 
ENDROOT
BRANCH   1   4
ATOM      4  C   UNL     1     -11.547  11.299  31.873  1.00  0.00     0.034 C 
BRANCH   4   5
ATOM      5  C   UNL     1     -11.376   9.777  31.842  1.00  0.00     0.032 C 
BRANCH   5   6
ATOM      6  C   UNL     1      -9.949   9.393  32.144  1.00  0.00    -0.028 C 
ATOM      7  C   UNL     1      -8.001   8.843  33.538  1.00  0.00     0.039 C 
ATOM      8  C   UNL     1      -9.462   9.181  33.387  1.00  0.00    -0.080 C 
ATOM      9  C   UNL     1     -10.340   9.258  34.615  1.00  0.00     0.039 C 
ENDBRANCH   5   6
ENDBRANCH   4   5
ENDBRANCH   1   4
BRANCH   2  10
ATOM     10  C   UNL     1     -14.202  12.394  30.863  1.00  0.00     0.035 C 
BRANCH  10  11
ATOM     11  C   UNL     1     -15.424  11.953  30.044  1.00  0.00     0.079 C 
BRANCH  11  12
ATOM     12  C   UNL     1     -16.115  10.765  30.666  1.00  0.00     0.130 C 
ATOM     13  O   UNL     1     -17.327  10.782  30.814  1.00  0.00    -0.300 OA
ATOM     14  C   UNL     1     -15.345   9.552  31.096  1.00  0.00     0.087 C 
ENDBRANCH  11  12
ENDBRANCH  10  11
ENDBRANCH   2  10
TORSDOF 6
ENDMDL
MODEL 9
REMARK VINA RESULT:    -4.688     10.460     12.507
REMARK INTER + INTRA:          -6.990
REMARK INTER:                  -5.224
REMARK INTRA:                  -1.766
REMARK UNBOUND:                -0.658
REMARK SMILES CC(=O)CCC=C(C)CCC=C(C)C
REMARK SMILES IDX 7 1 6 2 8 3 9 4 10 5 11 6 13 7 12 8 14 9 5 10 4 11 2 12 3 13
REMARK SMILES IDX 1 14
REMARK H PARENT
REMARK Flexibility Score: inf
ROOT
ATOM      1  C   UNL     1      -1.410   0.738  27.315  1.00  0.00    -0.077 C 
ATOM      2  C   UNL     1      -2.055   1.747  26.685  1.00  0.00    -0.028 C 
ATOM      3  C   UNL     1      -1.403  -0.620  26.663  1.00  0.00     0.039 C 
ENDROOT
BRANCH   1   4
ATOM      4  C   UNL     1      -0.633   0.928  28.601  1.00  0.00     0.034 C 
BRANCH   4   5
ATOM      5  C   UNL     1      -1.149  -0.019  29.688  1.00  0.00     0.032 C 
BRANCH   5   6
ATOM      6  C   UNL     1      -2.164   0.673  30.564  1.00  0.00    -0.028 C 
ATOM      7  C   UNL     1      -4.395   1.263  31.409  1.00  0.00     0.039 C 
ATOM      8  C   UNL     1      -3.498   0.467  30.495  1.00  0.00    -0.080 C 
ATOM      9  C   UNL     1      -4.105  -0.542  29.549  1.00  0.00     0.039 C 
ENDBRANCH   5   6
ENDBRANCH   4   5
ENDBRANCH   1   4
BRANCH   2  10
ATOM     10  C   UNL     1      -2.162   3.160  27.207  1.00  0.00     0.035 C 
BRANCH  10  11
ATOM     11  C   UNL     1      -3.416   3.363  28.070  1.00  0.00     0.079 C 
BRANCH  11  12
ATOM     12  C   UNL     1      -3.101   4.101  29.347  1.00  0.00     0.130 C 
ATOM     13  O   UNL     1      -4.014   4.542  30.029  1.00  0.00    -0.300 OA
ATOM     14  C   UNL     1      -1.688   4.293  29.809  1.00  0.00     0.087 C 
ENDBRANCH  11  12
ENDBRANCH  10  11
ENDBRANCH   2  10
TORSDOF 6
ENDMDL
