MODEL 1
REMARK VINA RESULT:    -4.813      0.000      0.000
REMARK INTER + INTRA:         -10.328
REMARK INTER:                  -9.034
REMARK INTRA:                  -1.294
REMARK UNBOUND:                -1.294
REMARK SMILES O=C([O-])CCCCCCCCCCCCCCC(=O)[O-]
REMARK SMILES IDX 10 1 9 2 8 3 7 4 6 5 5 6 4 7 2 8 1 9 3 10 11 11 12 12 13 13
REMARK SMILES IDX 14 14 15 15 16 16 17 17 18 18 19 19 20 20
REMARK H PARENT
REMARK Flexibility Score: inf
ROOT
ATOM      1  C   UNL     1       2.135  49.006  21.771  1.00  0.00     0.000 C 
ENDROOT
BRANCH   1   2
ATOM      2  C   UNL     1       1.706  50.403  21.289  1.00  0.00     0.000 C 
BRANCH   2   3
ATOM      3  C   UNL     1       2.142  51.519  22.254  1.00  0.00     0.000 C 
BRANCH   3   4
ATOM      4  C   UNL     1       1.001  51.977  23.180  1.00  0.00     0.000 C 
BRANCH   4   5
ATOM      5  C   UNL     1       1.022  51.260  24.540  1.00  0.00     0.000 C 
BRANCH   5   6
ATOM      6  C   UNL     1       2.441  50.861  24.980  1.00  0.00     0.006 C 
BRANCH   6   7
ATOM      7  C   UNL     1       2.478  49.471  25.628  1.00  0.00     0.053 C 
BRANCH   7   8
ATOM      8  C   UNL     1       2.610  49.557  27.118  1.00  0.00     0.041 C 
ATOM      9  O   UNL     1       3.472  48.861  27.718  1.00  0.00    -0.550 OA
ATOM     10  O   UNL     1       1.759  50.376  27.847  1.00  0.00    -0.550 OA
ENDBRANCH   7   8
ENDBRANCH   6   7
ENDBRANCH   5   6
ENDBRANCH   4   5
ENDBRANCH   3   4
ENDBRANCH   2   3
ENDBRANCH   1   2
BRANCH   1  11
ATOM     11  C   UNL     1       1.002  47.972  21.663  1.00  0.00     0.000 C 
BRANCH  11  12
ATOM     12  C   UNL     1       0.103  47.943  22.908  1.00  0.00     0.000 C 
BRANCH  12  13
ATOM     13  C   UNL     1      -0.511  46.549  23.108  1.00  0.00     0.000 C 
BRANCH  13  14
ATOM     14  C   UNL     1      -0.835  46.248  24.580  1.00  0.00     0.000 C 
BRANCH  14  15
ATOM     15  C   UNL     1      -2.343  46.325  24.881  1.00  0.00     0.000 C 
BRANCH  15  16
ATOM     16  C   UNL     1      -3.113  45.075  24.415  1.00  0.00     0.006 C 
BRANCH  16  17
ATOM     17  C   UNL     1      -4.641  45.188  24.565  1.00  0.00     0.053 C 
BRANCH  17  18
ATOM     18  C   UNL     1      -5.373  44.056  23.913  1.00  0.00     0.041 C 
ATOM     19  O   UNL     1      -5.245  42.882  24.348  1.00  0.00    -0.550 OA
ATOM     20  O   UNL     1      -6.176  44.295  22.805  1.00  0.00    -0.550 OA
ENDBRANCH  17  18
ENDBRANCH  16  17
ENDBRANCH  15  16
ENDBRANCH  14  15
ENDBRANCH  13  14
ENDBRANCH  12  13
ENDBRANCH  11  12
ENDBRANCH   1  11
TORSDOF 15
ENDMDL
MODEL 2
REMARK VINA RESULT:    -4.804      0.786      7.689
REMARK INTER + INTRA:         -10.309
REMARK INTER:                  -9.080
REMARK INTRA:                  -1.229
REMARK UNBOUND:                -1.294
REMARK SMILES O=C([O-])CCCCCCCCCCCCCCC(=O)[O-]
REMARK SMILES IDX 10 1 9 2 8 3 7 4 6 5 5 6 4 7 2 8 1 9 3 10 11 11 12 12 13 13
REMARK SMILES IDX 14 14 15 15 16 16 17 17 18 18 19 19 20 20
REMARK H PARENT
REMARK Flexibility Score: inf
ROOT
ATOM      1  C   UNL     1       0.927  48.122  21.744  1.00  0.00     0.000 C 
ENDROOT
BRANCH   1   2
ATOM      2  C   UNL     1       0.182  47.885  23.069  1.00  0.00     0.000 C 
BRANCH   2   3
ATOM      3  C   UNL     1      -0.588  46.553  23.083  1.00  0.00     0.000 C 
BRANCH   3   4
ATOM      4  C   UNL     1      -1.253  46.270  24.441  1.00  0.00     0.000 C 
BRANCH   4   5
ATOM      5  C   UNL     1      -2.640  46.921  24.566  1.00  0.00     0.000 C 
BRANCH   5   6
ATOM      6  C   UNL     1      -3.755  45.899  24.846  1.00  0.00     0.006 C 
BRANCH   6   7
ATOM      7  C   UNL     1      -3.480  44.544  24.180  1.00  0.00     0.053 C 
BRANCH   7   8
ATOM      8  C   UNL     1      -4.747  43.789  23.914  1.00  0.00     0.041 C 
ATOM      9  O   UNL     1      -5.685  44.334  23.273  1.00  0.00    -0.550 OA
ATOM     10  O   UNL     1      -4.906  42.500  24.403  1.00  0.00    -0.550 OA
ENDBRANCH   7   8
ENDBRANCH   6   7
ENDBRANCH   5   6
ENDBRANCH   4   5
ENDBRANCH   3   4
ENDBRANCH   2   3
ENDBRANCH   1   2
BRANCH   1  11
ATOM     11  C   UNL     1       2.098  49.106  21.893  1.00  0.00     0.000 C 
BRANCH  11  12
ATOM     12  C   UNL     1       1.674  50.569  21.691  1.00  0.00     0.000 C 
BRANCH  12  13
ATOM     13  C   UNL     1       2.497  51.506  22.589  1.00  0.00     0.000 C 
BRANCH  13  14
ATOM     14  C   UNL     1       1.847  51.730  23.965  1.00  0.00     0.000 C 
BRANCH  14  15
ATOM     15  C   UNL     1       2.487  50.868  25.067  1.00  0.00     0.000 C 
BRANCH  15  16
ATOM     16  C   UNL     1       1.491  49.894  25.723  1.00  0.00     0.006 C 
BRANCH  16  17
ATOM     17  C   UNL     1       2.145  48.633  26.317  1.00  0.00     0.053 C 
BRANCH  17  18
ATOM     18  C   UNL     1       2.715  48.865  27.682  1.00  0.00     0.041 C 
ATOM     19  O   UNL     1       1.964  48.870  28.692  1.00  0.00    -0.550 OA
ATOM     20  O   UNL     1       4.075  49.102  27.836  1.00  0.00    -0.550 OA
ENDBRANCH  17  18
ENDBRANCH  16  17
ENDBRANCH  15  16
ENDBRANCH  14  15
ENDBRANCH  13  14
ENDBRANCH  12  13
ENDBRANCH  11  12
ENDBRANCH   1  11
TORSDOF 15
ENDMDL
MODEL 3
REMARK VINA RESULT:    -4.690      1.896      6.667
REMARK INTER + INTRA:         -10.097
REMARK INTER:                  -8.474
REMARK INTRA:                  -1.622
REMARK UNBOUND:                -1.294
REMARK SMILES O=C([O-])CCCCCCCCCCCCCCC(=O)[O-]
REMARK SMILES IDX 10 1 9 2 8 3 7 4 6 5 5 6 4 7 2 8 1 9 3 10 11 11 12 12 13 13
REMARK SMILES IDX 14 14 15 15 16 16 17 17 18 18 19 19 20 20
REMARK H PARENT
REMARK Flexibility Score: inf
ROOT
ATOM      1  C   UNL     1       0.509  51.107  21.995  1.00  0.00     0.000 C 
ENDROOT
BRANCH   1   2
ATOM      2  C   UNL     1       1.732  50.536  21.255  1.00  0.00     0.000 C 
BRANCH   2   3
ATOM      3  C   UNL     1       2.120  49.133  21.752  1.00  0.00     0.000 C 
BRANCH   3   4
ATOM      4  C   UNL     1       0.958  48.129  21.652  1.00  0.00     0.000 C 
BRANCH   4   5
ATOM      5  C   UNL     1       0.230  47.935  22.992  1.00  0.00     0.000 C 
BRANCH   5   6
ATOM      6  C   UNL     1      -0.519  46.593  23.073  1.00  0.00     0.006 C 
BRANCH   6   7
ATOM      7  C   UNL     1      -0.720  46.127  24.521  1.00  0.00     0.053 C 
BRANCH   7   8
ATOM      8  C   UNL     1      -2.064  46.525  25.051  1.00  0.00     0.041 C 
ATOM      9  O   UNL     1      -3.102  45.931  24.655  1.00  0.00    -0.550 OA
ATOM     10  O   UNL     1      -2.174  47.575  25.953  1.00  0.00    -0.550 OA
ENDBRANCH   7   8
ENDBRANCH   6   7
ENDBRANCH   5   6
ENDBRANCH   4   5
ENDBRANCH   3   4
ENDBRANCH   2   3
ENDBRANCH   1   2
BRANCH   1  11
ATOM     11  C   UNL     1       0.533  52.642  22.077  1.00  0.00     0.000 C 
BRANCH  11  12
ATOM     12  C   UNL     1       1.957  53.218  22.028  1.00  0.00     0.000 C 
BRANCH  12  13
ATOM     13  C   UNL     1       2.433  53.620  23.433  1.00  0.00     0.000 C 
BRANCH  13  14
ATOM     14  C   UNL     1       3.211  52.497  24.139  1.00  0.00     0.000 C 
BRANCH  14  15
ATOM     15  C   UNL     1       2.359  51.755  25.184  1.00  0.00     0.000 C 
BRANCH  15  16
ATOM     16  C   UNL     1       2.455  50.223  25.059  1.00  0.00     0.006 C 
BRANCH  16  17
ATOM     17  C   UNL     1       1.604  49.455  26.086  1.00  0.00     0.053 C 
BRANCH  17  18
ATOM     18  C   UNL     1       2.412  48.926  27.230  1.00  0.00     0.041 C 
ATOM     19  O   UNL     1       3.581  48.500  27.039  1.00  0.00    -0.550 OA
ATOM     20  O   UNL     1       1.864  48.879  28.505  1.00  0.00    -0.550 OA
ENDBRANCH  17  18
ENDBRANCH  16  17
ENDBRANCH  15  16
ENDBRANCH  14  15
ENDBRANCH  13  14
ENDBRANCH  12  13
ENDBRANCH  11  12
ENDBRANCH   1  11
TORSDOF 15
ENDMDL
MODEL 4
REMARK VINA RESULT:    -4.681      1.427      2.213
REMARK INTER + INTRA:         -10.080
REMARK INTER:                  -8.365
REMARK INTRA:                  -1.715
REMARK UNBOUND:                -1.294
REMARK SMILES O=C([O-])CCCCCCCCCCCCCCC(=O)[O-]
REMARK SMILES IDX 10 1 9 2 8 3 7 4 6 5 5 6 4 7 2 8 1 9 3 10 11 11 12 12 13 13
REMARK SMILES IDX 14 14 15 15 16 16 17 17 18 18 19 19 20 20
REMARK H PARENT
REMARK Flexibility Score: inf
ROOT
ATOM      1  C   UNL     1       1.090  50.976  21.995  1.00  0.00     0.000 C 
ENDROOT
BRANCH   1   2
ATOM      2  C   UNL     1       1.921  52.103  22.633  1.00  0.00     0.000 C 
BRANCH   2   3
ATOM      3  C   UNL     1       1.427  52.474  24.042  1.00  0.00     0.000 C 
BRANCH   3   4
ATOM      4  C   UNL     1       1.207  51.239  24.934  1.00  0.00     0.000 C 
BRANCH   4   5
ATOM      5  C   UNL     1       2.528  50.583  25.369  1.00  0.00     0.000 C 
BRANCH   5   6
ATOM      6  C   UNL     1       2.370  49.087  25.695  1.00  0.00     0.006 C 
BRANCH   6   7
ATOM      7  C   UNL     1       3.300  48.640  26.831  1.00  0.00     0.053 C 
BRANCH   7   8
ATOM      8  C   UNL     1       2.883  49.219  28.148  1.00  0.00     0.041 C 
ATOM      9  O   UNL     1       3.725  49.815  28.872  1.00  0.00    -0.550 OA
ATOM     10  O   UNL     1       1.577  49.069  28.595  1.00  0.00    -0.550 OA
ENDBRANCH   7   8
ENDBRANCH   6   7
ENDBRANCH   5   6
ENDBRANCH   4   5
ENDBRANCH   3   4
ENDBRANCH   2   3
ENDBRANCH   1   2
BRANCH   1  11
ATOM     11  C   UNL     1       1.951  49.770  21.583  1.00  0.00     0.000 C 
BRANCH  11  12
ATOM     12  C   UNL     1       1.177  48.443  21.633  1.00  0.00     0.000 C 
BRANCH  12  13
ATOM     13  C   UNL     1       0.259  48.392  22.865  1.00  0.00     0.000 C 
BRANCH  13  14
ATOM     14  C   UNL     1      -0.311  46.987  23.121  1.00  0.00     0.000 C 
BRANCH  14  15
ATOM     15  C   UNL     1      -0.346  46.628  24.617  1.00  0.00     0.000 C 
BRANCH  15  16
ATOM     16  C   UNL     1      -1.514  47.293  25.368  1.00  0.00     0.006 C 
BRANCH  16  17
ATOM     17  C   UNL     1      -2.860  47.218  24.626  1.00  0.00     0.053 C 
BRANCH  17  18
ATOM     18  C   UNL     1      -3.600  45.944  24.894  1.00  0.00     0.041 C 
ATOM     19  O   UNL     1      -4.530  45.915  25.743  1.00  0.00    -0.550 OA
ATOM     20  O   UNL     1      -3.244  44.779  24.225  1.00  0.00    -0.550 OA
ENDBRANCH  17  18
ENDBRANCH  16  17
ENDBRANCH  15  16
ENDBRANCH  14  15
ENDBRANCH  13  14
ENDBRANCH  12  13
ENDBRANCH  11  12
ENDBRANCH   1  11
TORSDOF 15
ENDMDL
MODEL 5
REMARK VINA RESULT:    -4.644      3.039      6.769
REMARK INTER + INTRA:         -10.010
REMARK INTER:                  -7.873
REMARK INTRA:                  -2.138
REMARK UNBOUND:                -1.294
REMARK SMILES O=C([O-])CCCCCCCCCCCCCCC(=O)[O-]
REMARK SMILES IDX 10 1 9 2 8 3 7 4 6 5 5 6 4 7 2 8 1 9 3 10 11 11 12 12 13 13
REMARK SMILES IDX 14 14 15 15 16 16 17 17 18 18 19 19 20 20
REMARK H PARENT
REMARK Flexibility Score: inf
ROOT
ATOM      1  C   UNL     1       3.035  53.655  22.808  1.00  0.00     0.000 C 
ENDROOT
BRANCH   1   2
ATOM      2  C   UNL     1       1.569  53.610  22.340  1.00  0.00     0.000 C 
BRANCH   2   3
ATOM      3  C   UNL     1       1.328  52.541  21.261  1.00  0.00     0.000 C 
BRANCH   3   4
ATOM      4  C   UNL     1       0.927  51.180  21.857  1.00  0.00     0.000 C 
BRANCH   4   5
ATOM      5  C   UNL     1       1.902  50.057  21.469  1.00  0.00     0.000 C 
BRANCH   5   6
ATOM      6  C   UNL     1       1.498  48.691  22.051  1.00  0.00     0.006 C 
BRANCH   6   7
ATOM      7  C   UNL     1       0.180  48.761  22.834  1.00  0.00     0.053 C 
BRANCH   7   8
ATOM      8  C   UNL     1      -0.192  47.431  23.414  1.00  0.00     0.041 C 
ATOM      9  O   UNL     1      -0.088  47.230  24.654  1.00  0.00    -0.550 OA
ATOM     10  O   UNL     1      -0.620  46.403  22.584  1.00  0.00    -0.550 OA
ENDBRANCH   7   8
ENDBRANCH   6   7
ENDBRANCH   5   6
ENDBRANCH   4   5
ENDBRANCH   3   4
ENDBRANCH   2   3
ENDBRANCH   1   2
BRANCH   1  11
ATOM     11  C   UNL     1       3.267  52.853  24.099  1.00  0.00     0.000 C 
BRANCH  11  12
ATOM     12  C   UNL     1       2.098  52.971  25.090  1.00  0.00     0.000 C 
BRANCH  12  13
ATOM     13  C   UNL     1       1.593  51.581  25.507  1.00  0.00     0.000 C 
BRANCH  13  14
ATOM     14  C   UNL     1       2.575  50.457  25.137  1.00  0.00     0.000 C 
BRANCH  14  15
ATOM     15  C   UNL     1       2.442  49.230  26.056  1.00  0.00     0.000 C 
BRANCH  15  16
ATOM     16  C   UNL     1       3.613  49.091  27.046  1.00  0.00     0.006 C 
BRANCH  16  17
ATOM     17  C   UNL     1       3.192  49.138  28.526  1.00  0.00     0.053 C 
BRANCH  17  18
ATOM     18  C   UNL     1       2.318  50.312  28.843  1.00  0.00     0.041 C 
ATOM     19  O   UNL     1       1.091  50.148  29.068  1.00  0.00    -0.550 OA
ATOM     20  O   UNL     1       2.856  51.593  28.864  1.00  0.00    -0.550 OA
ENDBRANCH  17  18
ENDBRANCH  16  17
ENDBRANCH  15  16
ENDBRANCH  14  15
ENDBRANCH  13  14
ENDBRANCH  12  13
ENDBRANCH  11  12
ENDBRANCH   1  11
TORSDOF 15
ENDMDL
MODEL 6
REMARK VINA RESULT:    -4.618      2.188      6.589
REMARK INTER + INTRA:          -9.961
REMARK INTER:                  -8.398
REMARK INTRA:                  -1.563
REMARK UNBOUND:                -1.294
REMARK SMILES O=C([O-])CCCCCCCCCCCCCCC(=O)[O-]
REMARK SMILES IDX 10 1 9 2 8 3 7 4 6 5 5 6 4 7 2 8 1 9 3 10 11 11 12 12 13 13
REMARK SMILES IDX 14 14 15 15 16 16 17 17 18 18 19 19 20 20
REMARK H PARENT
REMARK Flexibility Score: inf
ROOT
ATOM      1  C   UNL     1       1.408  51.610  22.075  1.00  0.00     0.000 C 
ENDROOT
BRANCH   1   2
ATOM      2  C   UNL     1       1.737  50.447  21.122  1.00  0.00     0.000 C 
BRANCH   2   3
ATOM      3  C   UNL     1       2.070  49.146  21.872  1.00  0.00     0.000 C 
BRANCH   3   4
ATOM      4  C   UNL     1       0.964  48.085  21.736  1.00  0.00     0.000 C 
BRANCH   4   5
ATOM      5  C   UNL     1       0.069  48.004  22.983  1.00  0.00     0.000 C 
BRANCH   5   6
ATOM      6  C   UNL     1      -0.528  46.602  23.197  1.00  0.00     0.006 C 
BRANCH   6   7
ATOM      7  C   UNL     1      -0.694  46.263  24.684  1.00  0.00     0.053 C 
BRANCH   7   8
ATOM      8  C   UNL     1      -1.884  46.950  25.280  1.00  0.00     0.041 C 
ATOM      9  O   UNL     1      -3.045  46.652  24.893  1.00  0.00    -0.550 OA
ATOM     10  O   UNL     1      -1.710  47.942  26.237  1.00  0.00    -0.550 OA
ENDBRANCH   7   8
ENDBRANCH   6   7
ENDBRANCH   5   6
ENDBRANCH   4   5
ENDBRANCH   3   4
ENDBRANCH   2   3
ENDBRANCH   1   2
BRANCH   1  11
ATOM     11  C   UNL     1       2.528  51.871  23.095  1.00  0.00     0.000 C 
BRANCH  11  12
ATOM     12  C   UNL     1       2.007  51.974  24.536  1.00  0.00     0.000 C 
BRANCH  12  13
ATOM     13  C   UNL     1       2.602  50.862  25.414  1.00  0.00     0.000 C 
BRANCH  13  14
ATOM     14  C   UNL     1       1.600  49.732  25.700  1.00  0.00     0.000 C 
BRANCH  14  15
ATOM     15  C   UNL     1       2.222  48.582  26.512  1.00  0.00     0.000 C 
BRANCH  15  16
ATOM     16  C   UNL     1       3.554  48.970  27.180  1.00  0.00     0.006 C 
BRANCH  16  17
ATOM     17  C   UNL     1       3.443  49.243  28.690  1.00  0.00     0.053 C 
BRANCH  17  18
ATOM     18  C   UNL     1       2.141  49.878  29.070  1.00  0.00     0.041 C 
ATOM     19  O   UNL     1       1.190  49.173  29.497  1.00  0.00    -0.550 OA
ATOM     20  O   UNL     1       1.969  51.249  28.927  1.00  0.00    -0.550 OA
ENDBRANCH  17  18
ENDBRANCH  16  17
ENDBRANCH  15  16
ENDBRANCH  14  15
ENDBRANCH  13  14
ENDBRANCH  12  13
ENDBRANCH  11  12
ENDBRANCH   1  11
TORSDOF 15
ENDMDL
MODEL 7
REMARK VINA RESULT:    -4.592      3.834      6.054
REMARK INTER + INTRA:          -9.912
REMARK INTER:                  -7.988
REMARK INTRA:                  -1.924
REMARK UNBOUND:                -1.294
REMARK SMILES O=C([O-])CCCCCCCCCCCCCCC(=O)[O-]
REMARK SMILES IDX 10 1 9 2 8 3 7 4 6 5 5 6 4 7 2 8 1 9 3 10 11 11 12 12 13 13
REMARK SMILES IDX 14 14 15 15 16 16 17 17 18 18 19 19 20 20
REMARK H PARENT
REMARK Flexibility Score: inf
ROOT
ATOM      1  C   UNL     1      -0.098  48.606  22.903  1.00  0.00     0.000 C 
ENDROOT
BRANCH   1   2
ATOM      2  C   UNL     1      -0.451  47.674  24.075  1.00  0.00     0.000 C 
BRANCH   2   3
ATOM      3  C   UNL     1       0.390  47.961  25.331  1.00  0.00     0.000 C 
BRANCH   3   4
ATOM      4  C   UNL     1       0.924  49.404  25.366  1.00  0.00     0.000 C 
BRANCH   4   5
ATOM      5  C   UNL     1       2.441  49.465  25.604  1.00  0.00     0.000 C 
BRANCH   5   6
ATOM      6  C   UNL     1       2.908  48.508  26.715  1.00  0.00     0.006 C 
BRANCH   6   7
ATOM      7  C   UNL     1       3.745  49.224  27.783  1.00  0.00     0.053 C 
BRANCH   7   8
ATOM      8  C   UNL     1       2.941  49.518  29.013  1.00  0.00     0.041 C 
ATOM      9  O   UNL     1       3.515  49.906  30.066  1.00  0.00    -0.550 OA
ATOM     10  O   UNL     1       1.565  49.329  29.009  1.00  0.00    -0.550 OA
ENDBRANCH   7   8
ENDBRANCH   6   7
ENDBRANCH   5   6
ENDBRANCH   4   5
ENDBRANCH   3   4
ENDBRANCH   2   3
ENDBRANCH   1   2
BRANCH   1  11
ATOM     11  C   UNL     1       0.959  47.999  21.965  1.00  0.00     0.000 C 
BRANCH  11  12
ATOM     12  C   UNL     1       2.117  48.964  21.671  1.00  0.00     0.000 C 
BRANCH  12  13
ATOM     13  C   UNL     1       1.602  50.404  21.512  1.00  0.00     0.000 C 
BRANCH  13  14
ATOM     14  C   UNL     1       2.343  51.402  22.417  1.00  0.00     0.000 C 
BRANCH  14  15
ATOM     15  C   UNL     1       1.387  52.367  23.140  1.00  0.00     0.000 C 
BRANCH  15  16
ATOM     16  C   UNL     1      -0.048  52.321  22.583  1.00  0.00     0.006 C 
BRANCH  16  17
ATOM     17  C   UNL     1      -0.444  53.566  21.769  1.00  0.00     0.053 C 
BRANCH  17  18
ATOM     18  C   UNL     1      -1.924  53.680  21.568  1.00  0.00     0.041 C 
ATOM     19  O   UNL     1      -2.402  54.623  20.884  1.00  0.00    -0.550 OA
ATOM     20  O   UNL     1      -2.779  52.757  22.158  1.00  0.00    -0.550 OA
ENDBRANCH  17  18
ENDBRANCH  16  17
ENDBRANCH  15  16
ENDBRANCH  14  15
ENDBRANCH  13  14
ENDBRANCH  12  13
ENDBRANCH  11  12
ENDBRANCH   1  11
TORSDOF 15
ENDMDL
MODEL 8
REMARK VINA RESULT:    -4.591      4.348      6.388
REMARK INTER + INTRA:          -9.910
REMARK INTER:                  -7.965
REMARK INTRA:                  -1.945
REMARK UNBOUND:                -1.294
REMARK SMILES O=C([O-])CCCCCCCCCCCCCCC(=O)[O-]
REMARK SMILES IDX 10 1 9 2 8 3 7 4 6 5 5 6 4 7 2 8 1 9 3 10 11 11 12 12 13 13
REMARK SMILES IDX 14 14 15 15 16 16 17 17 18 18 19 19 20 20
REMARK H PARENT
REMARK Flexibility Score: inf
ROOT
ATOM      1  C   UNL     1       0.976  48.130  21.551  1.00  0.00     0.000 C 
ENDROOT
BRANCH   1   2
ATOM      2  C   UNL     1       2.124  49.097  21.891  1.00  0.00     0.000 C 
BRANCH   2   3
ATOM      3  C   UNL     1       1.924  50.490  21.270  1.00  0.00     0.000 C 
BRANCH   3   4
ATOM      4  C   UNL     1       1.947  51.614  22.322  1.00  0.00     0.000 C 
BRANCH   4   5
ATOM      5  C   UNL     1       0.825  52.643  22.108  1.00  0.00     0.000 C 
BRANCH   5   6
ATOM      6  C   UNL     1       0.887  53.808  23.112  1.00  0.00     0.006 C 
BRANCH   6   7
ATOM      7  C   UNL     1       1.909  53.557  24.229  1.00  0.00     0.053 C 
BRANCH   7   8
ATOM      8  C   UNL     1       2.969  54.615  24.259  1.00  0.00     0.041 C 
ATOM      9  O   UNL     1       3.264  55.245  23.208  1.00  0.00    -0.550 OA
ATOM     10  O   UNL     1       3.657  54.881  25.436  1.00  0.00    -0.550 OA
ENDBRANCH   7   8
ENDBRANCH   6   7
ENDBRANCH   5   6
ENDBRANCH   4   5
ENDBRANCH   3   4
ENDBRANCH   2   3
ENDBRANCH   1   2
BRANCH   1  11
ATOM     11  C   UNL     1       0.246  47.619  22.804  1.00  0.00     0.000 C 
BRANCH  11  12
ATOM     12  C   UNL     1      -0.353  48.755  23.647  1.00  0.00     0.000 C 
BRANCH  12  13
ATOM     13  C   UNL     1       0.189  48.714  25.085  1.00  0.00     0.000 C 
BRANCH  13  14
ATOM     14  C   UNL     1       0.971  49.984  25.460  1.00  0.00     0.000 C 
BRANCH  14  15
ATOM     15  C   UNL     1       2.489  49.745  25.525  1.00  0.00     0.000 C 
BRANCH  15  16
ATOM     16  C   UNL     1       2.877  48.598  26.478  1.00  0.00     0.006 C 
BRANCH  16  17
ATOM     17  C   UNL     1       3.849  49.014  27.596  1.00  0.00     0.053 C 
BRANCH  17  18
ATOM     18  C   UNL     1       3.154  49.639  28.766  1.00  0.00     0.041 C 
ATOM     19  O   UNL     1       1.985  49.287  29.073  1.00  0.00    -0.550 OA
ATOM     20  O   UNL     1       3.788  50.632  29.503  1.00  0.00    -0.550 OA
ENDBRANCH  17  18
ENDBRANCH  16  17
ENDBRANCH  15  16
ENDBRANCH  14  15
ENDBRANCH  13  14
ENDBRANCH  12  13
ENDBRANCH  11  12
ENDBRANCH   1  11
TORSDOF 15
ENDMDL
MODEL 9
REMARK VINA RESULT:    -4.526      2.571      9.237
REMARK INTER + INTRA:          -9.789
REMARK INTER:                  -8.953
REMARK INTRA:                  -0.836
REMARK UNBOUND:                -1.294
REMARK SMILES O=C([O-])CCCCCCCCCCCCCCC(=O)[O-]
REMARK SMILES IDX 10 1 9 2 8 3 7 4 6 5 5 6 4 7 2 8 1 9 3 10 11 11 12 12 13 13
REMARK SMILES IDX 14 14 15 15 16 16 17 17 18 18 19 19 20 20
REMARK H PARENT
REMARK Flexibility Score: inf
ROOT
ATOM      1  C   UNL     1      -0.490  46.554  23.060  1.00  0.00     0.000 C 
ENDROOT
BRANCH   1   2
ATOM      2  C   UNL     1      -1.080  46.240  24.446  1.00  0.00     0.000 C 
BRANCH   2   3
ATOM      3  C   UNL     1      -2.508  46.786  24.617  1.00  0.00     0.000 C 
BRANCH   3   4
ATOM      4  C   UNL     1      -3.539  45.674  24.878  1.00  0.00     0.000 C 
BRANCH   4   5
ATOM      5  C   UNL     1      -3.305  44.435  23.998  1.00  0.00     0.000 C 
BRANCH   5   6
ATOM      6  C   UNL     1      -4.572  43.578  23.830  1.00  0.00     0.006 C 
BRANCH   6   7
ATOM      7  C   UNL     1      -5.813  44.253  24.427  1.00  0.00     0.053 C 
BRANCH   7   8
ATOM      8  C   UNL     1      -6.750  44.734  23.361  1.00  0.00     0.041 C 
ATOM      9  O   UNL     1      -7.553  43.931  22.815  1.00  0.00    -0.550 OA
ATOM     10  O   UNL     1      -6.712  46.059  22.945  1.00  0.00    -0.550 OA
ENDBRANCH   7   8
ENDBRANCH   6   7
ENDBRANCH   5   6
ENDBRANCH   4   5
ENDBRANCH   3   4
ENDBRANCH   2   3
ENDBRANCH   1   2
BRANCH   1  11
ATOM     11  C   UNL     1       0.198  47.928  23.011  1.00  0.00     0.000 C 
BRANCH  11  12
ATOM     12  C   UNL     1       0.973  48.158  21.704  1.00  0.00     0.000 C 
BRANCH  12  13
ATOM     13  C   UNL     1       2.070  49.217  21.898  1.00  0.00     0.000 C 
BRANCH  13  14
ATOM     14  C   UNL     1       1.751  50.539  21.181  1.00  0.00     0.000 C 
BRANCH  14  15
ATOM     15  C   UNL     1       1.504  51.699  22.161  1.00  0.00     0.000 C 
BRANCH  15  16
ATOM     16  C   UNL     1       2.309  51.564  23.467  1.00  0.00     0.006 C 
BRANCH  16  17
ATOM     17  C   UNL     1       3.479  52.557  23.588  1.00  0.00     0.053 C 
BRANCH  17  18
ATOM     18  C   UNL     1       3.105  53.946  23.169  1.00  0.00     0.041 C 
ATOM     19  O   UNL     1       3.662  54.481  22.175  1.00  0.00    -0.550 OA
ATOM     20  O   UNL     1       2.159  54.660  23.894  1.00  0.00    -0.550 OA
ENDBRANCH  17  18
ENDBRANCH  16  17
ENDBRANCH  15  16
ENDBRANCH  14  15
ENDBRANCH  13  14
ENDBRANCH  12  13
ENDBRANCH  11  12
ENDBRANCH   1  11
TORSDOF 15
ENDMDL
