MODEL 1
REMARK VINA RESULT:    -5.580      0.000      0.000
REMARK INTER + INTRA:         -12.959
REMARK INTER:                 -10.474
REMARK INTRA:                  -2.485
REMARK UNBOUND:                -2.485
REMARK SMILES CCCCCCCCC=CCCCCCCCC(=O)[O-]
REMARK SMILES IDX 10 1 9 2 11 3 12 4 13 5 14 6 15 7 16 8 17 9 18 10 19 11
REMARK SMILES IDX 20 12 8 13 7 14 6 15 5 16 4 17 3 18 2 19 1 20
REMARK H PARENT
REMARK Flexibility Score: inf
ROOT
ATOM      1  C   UNL     1      -1.788   4.098 -19.106  1.00  0.00    -0.031 C 
ATOM      2  C   UNL     1      -2.739   4.481 -19.981  1.00  0.00    -0.031 C 
ENDROOT
BRANCH   1   3
ATOM      3  C   UNL     1      -0.551   4.898 -18.760  1.00  0.00     0.027 C 
BRANCH   3   4
ATOM      4  C   UNL     1      -0.799   5.804 -17.539  1.00  0.00     0.004 C 
BRANCH   4   5
ATOM      5  C   UNL     1      -0.882   7.290 -17.926  1.00  0.00     0.000 C 
BRANCH   5   6
ATOM      6  C   UNL     1      -2.137   7.955 -17.341  1.00  0.00     0.000 C 
BRANCH   6   7
ATOM      7  C   UNL     1      -3.218   6.901 -17.035  1.00  0.00     0.000 C 
BRANCH   7   8
ATOM      8  C   UNL     1      -4.497   7.102 -17.868  1.00  0.00     0.006 C 
BRANCH   8   9
ATOM      9  C   UNL     1      -5.528   5.980 -17.660  1.00  0.00     0.053 C 
BRANCH   9  10
ATOM     10  C   UNL     1      -6.637   6.466 -16.780  1.00  0.00     0.041 C 
ATOM     11  O   UNL     1      -6.853   5.911 -15.667  1.00  0.00    -0.550 OA
ATOM     12  O   UNL     1      -7.485   7.480 -17.229  1.00  0.00    -0.550 OA
ENDBRANCH   9  10
ENDBRANCH   8   9
ENDBRANCH   7   8
ENDBRANCH   6   7
ENDBRANCH   5   6
ENDBRANCH   4   5
ENDBRANCH   3   4
ENDBRANCH   1   3
BRANCH   2  13
ATOM     13  C   UNL     1      -2.763   5.820 -20.678  1.00  0.00     0.027 C 
BRANCH  13  14
ATOM     14  C   UNL     1      -3.513   5.724 -22.020  1.00  0.00     0.004 C 
BRANCH  14  15
ATOM     15  C   UNL     1      -4.275   7.025 -22.324  1.00  0.00     0.000 C 
BRANCH  15  16
ATOM     16  C   UNL     1      -5.490   6.805 -23.249  1.00  0.00     0.000 C 
BRANCH  16  17
ATOM     17  C   UNL     1      -6.862   6.954 -22.562  1.00  0.00    -0.000 C 
BRANCH  17  18
ATOM     18  C   UNL     1      -6.743   7.179 -21.039  1.00  0.00    -0.000 C 
BRANCH  18  19
ATOM     19  C   UNL     1      -7.418   8.484 -20.582  1.00  0.00    -0.003 C 
ATOM     20  C   UNL     1      -6.421   9.498 -20.028  1.00  0.00     0.004 C 
ENDBRANCH  18  19
ENDBRANCH  17  18
ENDBRANCH  16  17
ENDBRANCH  15  16
ENDBRANCH  14  15
ENDBRANCH  13  14
ENDBRANCH   2  13
TORSDOF 15
ENDMDL
MODEL 2
REMARK VINA RESULT:    -5.515      2.098      4.935
REMARK INTER + INTRA:         -12.837
REMARK INTER:                 -10.060
REMARK INTRA:                  -2.777
REMARK UNBOUND:                -2.485
REMARK SMILES CCCCCCCCC=CCCCCCCCC(=O)[O-]
REMARK SMILES IDX 10 1 9 2 11 3 12 4 13 5 14 6 15 7 16 8 17 9 18 10 19 11
REMARK SMILES IDX 20 12 8 13 7 14 6 15 5 16 4 17 3 18 2 19 1 20
REMARK H PARENT
REMARK Flexibility Score: inf
ROOT
ATOM      1  C   UNL     1      -2.960   4.493 -20.157  1.00  0.00    -0.031 C 
ATOM      2  C   UNL     1      -2.162   3.916 -19.237  1.00  0.00    -0.031 C 
ENDROOT
BRANCH   1   3
ATOM      3  C   UNL     1      -2.620   5.739 -20.946  1.00  0.00     0.027 C 
BRANCH   3   4
ATOM      4  C   UNL     1      -3.640   5.977 -22.075  1.00  0.00     0.004 C 
BRANCH   4   5
ATOM      5  C   UNL     1      -4.194   7.411 -22.064  1.00  0.00     0.000 C 
BRANCH   5   6
ATOM      6  C   UNL     1      -5.535   7.491 -21.318  1.00  0.00     0.000 C 
BRANCH   6   7
ATOM      7  C   UNL     1      -5.865   8.950 -20.949  1.00  0.00     0.000 C 
BRANCH   7   8
ATOM      8  C   UNL     1      -4.631   9.736 -20.471  1.00  0.00     0.006 C 
BRANCH   8   9
ATOM      9  C   UNL     1      -4.996  10.940 -19.585  1.00  0.00     0.053 C 
BRANCH   9  10
ATOM     10  C   UNL     1      -3.961  11.117 -18.517  1.00  0.00     0.041 C 
ATOM     11  O   UNL     1      -2.757  10.814 -18.743  1.00  0.00    -0.550 OA
ATOM     12  O   UNL     1      -4.345  11.541 -17.243  1.00  0.00    -0.550 OA
ENDBRANCH   9  10
ENDBRANCH   8   9
ENDBRANCH   7   8
ENDBRANCH   6   7
ENDBRANCH   5   6
ENDBRANCH   4   5
ENDBRANCH   3   4
ENDBRANCH   1   3
BRANCH   2  13
ATOM     13  C   UNL     1      -0.758   4.372 -18.923  1.00  0.00     0.027 C 
BRANCH  13  14
ATOM     14  C   UNL     1      -0.742   5.267 -17.669  1.00  0.00     0.004 C 
BRANCH  14  15
ATOM     15  C   UNL     1      -0.442   6.730 -18.035  1.00  0.00     0.000 C 
BRANCH  15  16
ATOM     16  C   UNL     1      -1.656   7.659 -17.825  1.00  0.00     0.000 C 
BRANCH  16  17
ATOM     17  C   UNL     1      -2.845   7.015 -17.084  1.00  0.00    -0.000 C 
BRANCH  17  18
ATOM     18  C   UNL     1      -4.173   7.151 -17.859  1.00  0.00    -0.000 C 
BRANCH  18  19
ATOM     19  C   UNL     1      -5.120   5.962 -17.620  1.00  0.00    -0.003 C 
ATOM     20  C   UNL     1      -6.562   6.270 -18.014  1.00  0.00     0.004 C 
ENDBRANCH  18  19
ENDBRANCH  17  18
ENDBRANCH  16  17
ENDBRANCH  15  16
ENDBRANCH  14  15
ENDBRANCH  13  14
ENDBRANCH   2  13
TORSDOF 15
ENDMDL
MODEL 3
REMARK VINA RESULT:    -5.498      1.984      2.799
REMARK INTER + INTRA:         -12.805
REMARK INTER:                 -10.316
REMARK INTRA:                  -2.489
REMARK UNBOUND:                -2.485
REMARK SMILES CCCCCCCCC=CCCCCCCCC(=O)[O-]
REMARK SMILES IDX 10 1 9 2 11 3 12 4 13 5 14 6 15 7 16 8 17 9 18 10 19 11
REMARK SMILES IDX 20 12 8 13 7 14 6 15 5 16 4 17 3 18 2 19 1 20
REMARK H PARENT
REMARK Flexibility Score: inf
ROOT
ATOM      1  C   UNL     1      -2.409   4.492 -20.387  1.00  0.00    -0.031 C 
ATOM      2  C   UNL     1      -3.055   5.517 -20.977  1.00  0.00    -0.031 C 
ENDROOT
BRANCH   1   3
ATOM      3  C   UNL     1      -2.344   4.246 -18.896  1.00  0.00     0.027 C 
BRANCH   3   4
ATOM      4  C   UNL     1      -0.933   4.530 -18.347  1.00  0.00     0.004 C 
BRANCH   4   5
ATOM      5  C   UNL     1      -0.925   5.687 -17.335  1.00  0.00     0.000 C 
BRANCH   5   6
ATOM      6  C   UNL     1      -0.517   7.012 -17.996  1.00  0.00     0.000 C 
BRANCH   6   7
ATOM      7  C   UNL     1      -1.582   8.096 -17.745  1.00  0.00     0.000 C 
BRANCH   7   8
ATOM      8  C   UNL     1      -2.770   7.580 -16.911  1.00  0.00     0.006 C 
BRANCH   8   9
ATOM      9  C   UNL     1      -4.007   8.490 -17.007  1.00  0.00     0.053 C 
BRANCH   9  10
ATOM     10  C   UNL     1      -3.740   9.785 -16.306  1.00  0.00     0.041 C 
ATOM     11  O   UNL     1      -3.747  10.869 -16.952  1.00  0.00    -0.550 OA
ATOM     12  O   UNL     1      -3.401   9.784 -14.952  1.00  0.00    -0.550 OA
ENDBRANCH   9  10
ENDBRANCH   8   9
ENDBRANCH   7   8
ENDBRANCH   6   7
ENDBRANCH   5   6
ENDBRANCH   4   5
ENDBRANCH   3   4
ENDBRANCH   1   3
BRANCH   2  13
ATOM     13  C   UNL     1      -3.899   6.527 -20.237  1.00  0.00     0.027 C 
BRANCH  13  14
ATOM     14  C   UNL     1      -4.548   7.520 -21.219  1.00  0.00     0.004 C 
BRANCH  14  15
ATOM     15  C   UNL     1      -5.374   6.784 -22.288  1.00  0.00     0.000 C 
BRANCH  15  16
ATOM     16  C   UNL     1      -6.894   6.975 -22.106  1.00  0.00     0.000 C 
BRANCH  16  17
ATOM     17  C   UNL     1      -7.293   8.001 -21.027  1.00  0.00    -0.000 C 
BRANCH  17  18
ATOM     18  C   UNL     1      -8.053   7.358 -19.847  1.00  0.00    -0.000 C 
BRANCH  18  19
ATOM     19  C   UNL     1      -7.315   7.529 -18.508  1.00  0.00    -0.003 C 
ATOM     20  C   UNL     1      -6.853   6.199 -17.917  1.00  0.00     0.004 C 
ENDBRANCH  18  19
ENDBRANCH  17  18
ENDBRANCH  16  17
ENDBRANCH  15  16
ENDBRANCH  14  15
ENDBRANCH  13  14
ENDBRANCH   2  13
TORSDOF 15
ENDMDL
MODEL 4
REMARK VINA RESULT:    -5.482      2.343      5.509
REMARK INTER + INTRA:         -12.775
REMARK INTER:                 -10.332
REMARK INTRA:                  -2.443
REMARK UNBOUND:                -2.485
REMARK SMILES CCCCCCCCC=CCCCCCCCC(=O)[O-]
REMARK SMILES IDX 10 1 9 2 11 3 12 4 13 5 14 6 15 7 16 8 17 9 18 10 19 11
REMARK SMILES IDX 20 12 8 13 7 14 6 15 5 16 4 17 3 18 2 19 1 20
REMARK H PARENT
REMARK Flexibility Score: inf
ROOT
ATOM      1  C   UNL     1      -7.185   8.095 -21.713  1.00  0.00    -0.031 C 
ATOM      2  C   UNL     1      -7.629   8.262 -20.451  1.00  0.00    -0.031 C 
ENDROOT
BRANCH   1   3
ATOM      3  C   UNL     1      -6.807   6.769 -22.335  1.00  0.00     0.027 C 
BRANCH   3   4
ATOM      4  C   UNL     1      -5.371   6.807 -22.891  1.00  0.00     0.004 C 
BRANCH   4   5
ATOM      5  C   UNL     1      -4.320   6.933 -21.776  1.00  0.00     0.000 C 
BRANCH   5   6
ATOM      6  C   UNL     1      -3.391   5.710 -21.736  1.00  0.00     0.000 C 
BRANCH   6   7
ATOM      7  C   UNL     1      -2.515   5.734 -20.470  1.00  0.00     0.000 C 
BRANCH   7   8
ATOM      8  C   UNL     1      -2.410   4.355 -19.792  1.00  0.00     0.006 C 
BRANCH   8   9
ATOM      9  C   UNL     1      -1.132   4.198 -18.951  1.00  0.00     0.053 C 
BRANCH   9  10
ATOM     10  C   UNL     1      -1.089   5.251 -17.889  1.00  0.00     0.041 C 
ATOM     11  O   UNL     1      -2.047   5.372 -17.076  1.00  0.00    -0.550 OA
ATOM     12  O   UNL     1      -0.025   6.154 -17.849  1.00  0.00    -0.550 OA
ENDBRANCH   9  10
ENDBRANCH   8   9
ENDBRANCH   7   8
ENDBRANCH   6   7
ENDBRANCH   5   6
ENDBRANCH   4   5
ENDBRANCH   3   4
ENDBRANCH   1   3
BRANCH   2  13
ATOM     13  C   UNL     1      -7.911   7.129 -19.493  1.00  0.00     0.027 C 
BRANCH  13  14
ATOM     14  C   UNL     1      -6.734   6.929 -18.521  1.00  0.00     0.004 C 
BRANCH  14  15
ATOM     15  C   UNL     1      -6.642   8.089 -17.515  1.00  0.00     0.000 C 
BRANCH  15  16
ATOM     16  C   UNL     1      -5.188   8.435 -17.131  1.00  0.00     0.000 C 
BRANCH  16  17
ATOM     17  C   UNL     1      -4.152   8.211 -18.252  1.00  0.00    -0.000 C 
BRANCH  17  18
ATOM     18  C   UNL     1      -3.606   9.534 -18.829  1.00  0.00    -0.000 C 
BRANCH  18  19
ATOM     19  C   UNL     1      -4.485  10.090 -19.962  1.00  0.00    -0.003 C 
ATOM     20  C   UNL     1      -5.314  11.295 -19.524  1.00  0.00     0.004 C 
ENDBRANCH  18  19
ENDBRANCH  17  18
ENDBRANCH  16  17
ENDBRANCH  15  16
ENDBRANCH  14  15
ENDBRANCH  13  14
ENDBRANCH   2  13
TORSDOF 15
ENDMDL
MODEL 5
REMARK VINA RESULT:    -5.461      1.085      2.103
REMARK INTER + INTRA:         -12.735
REMARK INTER:                 -10.173
REMARK INTRA:                  -2.562
REMARK UNBOUND:                -2.485
REMARK SMILES CCCCCCCCC=CCCCCCCCC(=O)[O-]
REMARK SMILES IDX 10 1 9 2 11 3 12 4 13 5 14 6 15 7 16 8 17 9 18 10 19 11
REMARK SMILES IDX 20 12 8 13 7 14 6 15 5 16 4 17 3 18 2 19 1 20
REMARK H PARENT
REMARK Flexibility Score: inf
ROOT
ATOM      1  C   UNL     1      -0.893   5.247 -17.558  1.00  0.00    -0.031 C 
ATOM      2  C   UNL     1      -1.217   4.202 -18.344  1.00  0.00    -0.031 C 
ENDROOT
BRANCH   1   3
ATOM      3  C   UNL     1      -0.533   6.631 -18.053  1.00  0.00     0.027 C 
BRANCH   3   4
ATOM      4  C   UNL     1      -1.672   7.632 -17.781  1.00  0.00     0.004 C 
BRANCH   4   5
ATOM      5  C   UNL     1      -2.791   7.019 -16.922  1.00  0.00     0.000 C 
BRANCH   5   6
ATOM      6  C   UNL     1      -4.170   7.217 -17.569  1.00  0.00     0.000 C 
BRANCH   6   7
ATOM      7  C   UNL     1      -4.966   5.897 -17.566  1.00  0.00     0.000 C 
BRANCH   7   8
ATOM      8  C   UNL     1      -6.486   6.121 -17.461  1.00  0.00     0.006 C 
BRANCH   8   9
ATOM      9  C   UNL     1      -6.865   7.161 -16.392  1.00  0.00     0.053 C 
BRANCH   9  10
ATOM     10  C   UNL     1      -6.743   6.556 -15.029  1.00  0.00     0.041 C 
ATOM     11  O   UNL     1      -6.148   7.181 -14.108  1.00  0.00    -0.550 OA
ATOM     12  O   UNL     1      -7.216   5.263 -14.799  1.00  0.00    -0.550 OA
ENDBRANCH   9  10
ENDBRANCH   8   9
ENDBRANCH   7   8
ENDBRANCH   6   7
ENDBRANCH   5   6
ENDBRANCH   4   5
ENDBRANCH   3   4
ENDBRANCH   1   3
BRANCH   2  13
ATOM     13  C   UNL     1      -1.366   4.281 -19.844  1.00  0.00     0.027 C 
BRANCH  13  14
ATOM     14  C   UNL     1      -2.826   4.582 -20.233  1.00  0.00     0.004 C 
BRANCH  14  15
ATOM     15  C   UNL     1      -2.967   6.005 -20.797  1.00  0.00     0.000 C 
BRANCH  15  16
ATOM     16  C   UNL     1      -3.515   6.025 -22.240  1.00  0.00     0.000 C 
BRANCH  16  17
ATOM     17  C   UNL     1      -4.976   6.502 -22.371  1.00  0.00    -0.000 C 
BRANCH  17  18
ATOM     18  C   UNL     1      -5.524   7.105 -21.060  1.00  0.00    -0.000 C 
BRANCH  18  19
ATOM     19  C   UNL     1      -6.971   7.608 -21.202  1.00  0.00    -0.003 C 
ATOM     20  C   UNL     1      -7.367   8.581 -20.094  1.00  0.00     0.004 C 
ENDBRANCH  18  19
ENDBRANCH  17  18
ENDBRANCH  16  17
ENDBRANCH  15  16
ENDBRANCH  14  15
ENDBRANCH  13  14
ENDBRANCH   2  13
TORSDOF 15
ENDMDL
MODEL 6
REMARK VINA RESULT:    -5.460      2.255      5.476
REMARK INTER + INTRA:         -12.734
REMARK INTER:                 -10.285
REMARK INTRA:                  -2.449
REMARK UNBOUND:                -2.485
REMARK SMILES CCCCCCCCC=CCCCCCCCC(=O)[O-]
REMARK SMILES IDX 10 1 9 2 11 3 12 4 13 5 14 6 15 7 16 8 17 9 18 10 19 11
REMARK SMILES IDX 20 12 8 13 7 14 6 15 5 16 4 17 3 18 2 19 1 20
REMARK H PARENT
REMARK Flexibility Score: inf
ROOT
ATOM      1  C   UNL     1      -7.009   7.084 -22.177  1.00  0.00    -0.031 C 
ATOM      2  C   UNL     1      -5.837   6.742 -22.748  1.00  0.00    -0.031 C 
ENDROOT
BRANCH   1   3
ATOM      3  C   UNL     1      -7.157   7.926 -20.929  1.00  0.00     0.027 C 
BRANCH   3   4
ATOM      4  C   UNL     1      -7.939   7.170 -19.839  1.00  0.00     0.004 C 
BRANCH   4   5
ATOM      5  C   UNL     1      -7.182   7.134 -18.500  1.00  0.00     0.000 C 
BRANCH   5   6
ATOM      6  C   UNL     1      -5.709   6.745 -18.697  1.00  0.00     0.000 C 
BRANCH   6   7
ATOM      7  C   UNL     1      -4.785   7.712 -17.931  1.00  0.00     0.000 C 
BRANCH   7   8
ATOM      8  C   UNL     1      -4.132   8.762 -18.848  1.00  0.00     0.006 C 
BRANCH   8   9
ATOM      9  C   UNL     1      -2.886   9.411 -18.221  1.00  0.00     0.053 C 
BRANCH   9  10
ATOM     10  C   UNL     1      -3.179  10.836 -17.867  1.00  0.00     0.041 C 
ATOM     11  O   UNL     1      -3.808  11.110 -16.808  1.00  0.00    -0.550 OA
ATOM     12  O   UNL     1      -2.827  11.857 -18.752  1.00  0.00    -0.550 OA
ENDBRANCH   9  10
ENDBRANCH   8   9
ENDBRANCH   7   8
ENDBRANCH   6   7
ENDBRANCH   5   6
ENDBRANCH   4   5
ENDBRANCH   3   4
ENDBRANCH   1   3
BRANCH   2  13
ATOM     13  C   UNL     1      -4.489   7.235 -22.281  1.00  0.00     0.027 C 
BRANCH  13  14
ATOM     14  C   UNL     1      -3.474   6.077 -22.221  1.00  0.00     0.004 C 
BRANCH  14  15
ATOM     15  C   UNL     1      -2.890   5.925 -20.807  1.00  0.00     0.000 C 
BRANCH  15  16
ATOM     16  C   UNL     1      -2.454   4.478 -20.493  1.00  0.00     0.000 C 
BRANCH  16  17
ATOM     17  C   UNL     1      -2.721   4.022 -19.044  1.00  0.00    -0.000 C 
BRANCH  17  18
ATOM     18  C   UNL     1      -2.200   5.031 -17.998  1.00  0.00    -0.000 C 
BRANCH  18  19
ATOM     19  C   UNL     1      -0.672   5.205 -18.058  1.00  0.00    -0.003 C 
ATOM     20  C   UNL     1      -0.251   6.670 -18.141  1.00  0.00     0.004 C 
ENDBRANCH  18  19
ENDBRANCH  17  18
ENDBRANCH  16  17
ENDBRANCH  15  16
ENDBRANCH  14  15
ENDBRANCH  13  14
ENDBRANCH   2  13
TORSDOF 15
ENDMDL
MODEL 7
REMARK VINA RESULT:    -5.460      1.945      4.943
REMARK INTER + INTRA:         -12.733
REMARK INTER:                 -10.031
REMARK INTRA:                  -2.702
REMARK UNBOUND:                -2.485
REMARK SMILES CCCCCCCCC=CCCCCCCCC(=O)[O-]
REMARK SMILES IDX 10 1 9 2 11 3 12 4 13 5 14 6 15 7 16 8 17 9 18 10 19 11
REMARK SMILES IDX 20 12 8 13 7 14 6 15 5 16 4 17 3 18 2 19 1 20
REMARK H PARENT
REMARK Flexibility Score: inf
ROOT
ATOM      1  C   UNL     1      -7.639   7.131 -19.818  1.00  0.00    -0.031 C 
ATOM      2  C   UNL     1      -6.979   7.627 -20.883  1.00  0.00    -0.031 C 
ENDROOT
BRANCH   1   3
ATOM      3  C   UNL     1      -7.296   7.415 -18.372  1.00  0.00     0.027 C 
BRANCH   3   4
ATOM      4  C   UNL     1      -6.802   6.142 -17.659  1.00  0.00     0.004 C 
BRANCH   4   5
ATOM      5  C   UNL     1      -5.280   5.960 -17.783  1.00  0.00     0.000 C 
BRANCH   5   6
ATOM      6  C   UNL     1      -4.609   5.869 -16.404  1.00  0.00     0.000 C 
BRANCH   6   7
ATOM      7  C   UNL     1      -3.368   6.779 -16.343  1.00  0.00     0.000 C 
BRANCH   7   8
ATOM      8  C   UNL     1      -3.160   7.588 -17.637  1.00  0.00     0.006 C 
BRANCH   8   9
ATOM      9  C   UNL     1      -2.441   8.927 -17.395  1.00  0.00     0.053 C 
BRANCH   9  10
ATOM     10  C   UNL     1      -3.314  10.060 -17.836  1.00  0.00     0.041 C 
ATOM     11  O   UNL     1      -4.569   9.971 -17.733  1.00  0.00    -0.550 OA
ATOM     12  O   UNL     1      -2.743  11.182 -18.440  1.00  0.00    -0.550 OA
ENDBRANCH   9  10
ENDBRANCH   8   9
ENDBRANCH   7   8
ENDBRANCH   6   7
ENDBRANCH   5   6
ENDBRANCH   4   5
ENDBRANCH   3   4
ENDBRANCH   1   3
BRANCH   2  13
ATOM     13  C   UNL     1      -5.851   8.627 -20.794  1.00  0.00     0.027 C 
BRANCH  13  14
ATOM     14  C   UNL     1      -4.491   7.937 -21.008  1.00  0.00     0.004 C 
BRANCH  14  15
ATOM     15  C   UNL     1      -4.546   6.957 -22.192  1.00  0.00     0.000 C 
BRANCH  15  16
ATOM     16  C   UNL     1      -3.652   5.717 -21.984  1.00  0.00     0.000 C 
BRANCH  16  17
ATOM     17  C   UNL     1      -2.862   5.703 -20.660  1.00  0.00    -0.000 C 
BRANCH  17  18
ATOM     18  C   UNL     1      -2.658   4.277 -20.106  1.00  0.00    -0.000 C 
BRANCH  18  19
ATOM     19  C   UNL     1      -2.005   4.274 -18.712  1.00  0.00    -0.003 C 
ATOM     20  C   UNL     1      -0.583   4.830 -18.728  1.00  0.00     0.004 C 
ENDBRANCH  18  19
ENDBRANCH  17  18
ENDBRANCH  16  17
ENDBRANCH  15  16
ENDBRANCH  14  15
ENDBRANCH  13  14
ENDBRANCH   2  13
TORSDOF 15
ENDMDL
MODEL 8
REMARK VINA RESULT:    -5.458      1.236      4.976
REMARK INTER + INTRA:         -12.729
REMARK INTER:                 -10.238
REMARK INTRA:                  -2.490
REMARK UNBOUND:                -2.485
REMARK SMILES CCCCCCCCC=CCCCCCCCC(=O)[O-]
REMARK SMILES IDX 10 1 9 2 11 3 12 4 13 5 14 6 15 7 16 8 17 9 18 10 19 11
REMARK SMILES IDX 20 12 8 13 7 14 6 15 5 16 4 17 3 18 2 19 1 20
REMARK H PARENT
REMARK Flexibility Score: inf
ROOT
ATOM      1  C   UNL     1      -3.659   5.945 -20.554  1.00  0.00    -0.031 C 
ATOM      2  C   UNL     1      -3.136   5.102 -19.642  1.00  0.00    -0.031 C 
ENDROOT
BRANCH   1   3
ATOM      3  C   UNL     1      -3.118   6.162 -21.950  1.00  0.00     0.027 C 
BRANCH   3   4
ATOM      4  C   UNL     1      -4.166   6.840 -22.852  1.00  0.00     0.004 C 
BRANCH   4   5
ATOM      5  C   UNL     1      -5.601   6.413 -22.499  1.00  0.00     0.000 C 
BRANCH   5   6
ATOM      6  C   UNL     1      -6.571   7.602 -22.548  1.00  0.00     0.000 C 
BRANCH   6   7
ATOM      7  C   UNL     1      -6.609   8.330 -21.191  1.00  0.00     0.000 C 
BRANCH   7   8
ATOM      8  C   UNL     1      -7.487   7.606 -20.153  1.00  0.00     0.006 C 
BRANCH   8   9
ATOM      9  C   UNL     1      -6.703   7.183 -18.898  1.00  0.00     0.053 C 
BRANCH   9  10
ATOM     10  C   UNL     1      -6.955   8.156 -17.789  1.00  0.00     0.041 C 
ATOM     11  O   UNL     1      -6.218   9.171 -17.655  1.00  0.00    -0.550 OA
ATOM     12  O   UNL     1      -7.957   7.895 -16.852  1.00  0.00    -0.550 OA
ENDBRANCH   9  10
ENDBRANCH   8   9
ENDBRANCH   7   8
ENDBRANCH   6   7
ENDBRANCH   5   6
ENDBRANCH   4   5
ENDBRANCH   3   4
ENDBRANCH   1   3
BRANCH   2  13
ATOM     13  C   UNL     1      -1.980   4.169 -19.912  1.00  0.00     0.027 C 
BRANCH  13  14
ATOM     14  C   UNL     1      -0.857   4.376 -18.878  1.00  0.00     0.004 C 
BRANCH  14  15
ATOM     15  C   UNL     1      -0.316   5.814 -18.927  1.00  0.00     0.000 C 
BRANCH  15  16
ATOM     16  C   UNL     1      -0.543   6.584 -17.609  1.00  0.00     0.000 C 
BRANCH  16  17
ATOM     17  C   UNL     1      -1.389   7.866 -17.746  1.00  0.00    -0.000 C 
BRANCH  17  18
ATOM     18  C   UNL     1      -2.787   7.726 -17.108  1.00  0.00    -0.000 C 
BRANCH  18  19
ATOM     19  C   UNL     1      -2.948   6.413 -16.323  1.00  0.00    -0.003 C 
ATOM     20  C   UNL     1      -4.406   5.975 -16.203  1.00  0.00     0.004 C 
ENDBRANCH  18  19
ENDBRANCH  17  18
ENDBRANCH  16  17
ENDBRANCH  15  16
ENDBRANCH  14  15
ENDBRANCH  13  14
ENDBRANCH   2  13
TORSDOF 15
ENDMDL
MODEL 9
REMARK VINA RESULT:    -5.429      2.195      5.429
REMARK INTER + INTRA:         -12.676
REMARK INTER:                 -10.311
REMARK INTRA:                  -2.364
REMARK UNBOUND:                -2.485
REMARK SMILES CCCCCCCCC=CCCCCCCCC(=O)[O-]
REMARK SMILES IDX 10 1 9 2 11 3 12 4 13 5 14 6 15 7 16 8 17 9 18 10 19 11
REMARK SMILES IDX 20 12 8 13 7 14 6 15 5 16 4 17 3 18 2 19 1 20
REMARK H PARENT
REMARK Flexibility Score: inf
ROOT
ATOM      1  C   UNL     1      -4.495   6.746 -22.946  1.00  0.00    -0.031 C 
ATOM      2  C   UNL     1      -3.424   6.316 -22.249  1.00  0.00    -0.031 C 
ENDROOT
BRANCH   1   3
ATOM      3  C   UNL     1      -5.934   6.619 -22.497  1.00  0.00     0.027 C 
BRANCH   3   4
ATOM      4  C   UNL     1      -6.379   7.861 -21.702  1.00  0.00     0.004 C 
BRANCH   4   5
ATOM      5  C   UNL     1      -6.683   7.530 -20.231  1.00  0.00     0.000 C 
BRANCH   5   6
ATOM      6  C   UNL     1      -6.049   8.556 -19.280  1.00  0.00     0.000 C 
BRANCH   6   7
ATOM      7  C   UNL     1      -4.717   9.078 -19.853  1.00  0.00     0.000 C 
BRANCH   7   8
ATOM      8  C   UNL     1      -4.580  10.607 -19.742  1.00  0.00     0.006 C 
BRANCH   8   9
ATOM      9  C   UNL     1      -3.493  11.038 -18.742  1.00  0.00     0.053 C 
BRANCH   9  10
ATOM     10  C   UNL     1      -4.095  11.219 -17.384  1.00  0.00     0.041 C 
ATOM     11  O   UNL     1      -3.381  11.092 -16.351  1.00  0.00    -0.550 OA
ATOM     12  O   UNL     1      -5.467  11.448 -17.258  1.00  0.00    -0.550 OA
ENDBRANCH   9  10
ENDBRANCH   8   9
ENDBRANCH   7   8
ENDBRANCH   6   7
ENDBRANCH   5   6
ENDBRANCH   4   5
ENDBRANCH   3   4
ENDBRANCH   1   3
BRANCH   2  13
ATOM     13  C   UNL     1      -3.495   5.726 -20.861  1.00  0.00     0.027 C 
BRANCH  13  14
ATOM     14  C   UNL     1      -2.102   5.265 -20.392  1.00  0.00     0.004 C 
BRANCH  14  15
ATOM     15  C   UNL     1      -2.210   4.093 -19.403  1.00  0.00     0.000 C 
BRANCH  15  16
ATOM     16  C   UNL     1      -1.118   4.127 -18.313  1.00  0.00     0.000 C 
BRANCH  16  17
ATOM     17  C   UNL     1      -1.007   5.463 -17.550  1.00  0.00    -0.000 C 
BRANCH  17  18
ATOM     18  C   UNL     1      -2.345   5.897 -16.914  1.00  0.00    -0.000 C 
BRANCH  18  19
ATOM     19  C   UNL     1      -2.664   7.381 -17.171  1.00  0.00    -0.003 C 
ATOM     20  C   UNL     1      -1.469   8.151 -17.726  1.00  0.00     0.004 C 
ENDBRANCH  18  19
ENDBRANCH  17  18
ENDBRANCH  16  17
ENDBRANCH  15  16
ENDBRANCH  14  15
ENDBRANCH  13  14
ENDBRANCH   2  13
TORSDOF 15
ENDMDL
