MODEL 1
REMARK VINA RESULT:    -3.204      0.000      0.000
REMARK INTER + INTRA:          -4.788
REMARK INTER:                  -4.890
REMARK INTRA:                   0.102
REMARK UNBOUND:                 0.102
REMARK SMILES CC1=CCC[C@@H](C)C(=O)C[C@H](C(C)C)C(=O)C1
REMARK SMILES IDX 8 1 9 2 6 3 7 4 5 5 4 6 3 7 2 8 1 9 10 11 11 12 15 13 16 14
REMARK SMILES IDX 17 15 12 17 13 18 14 19
REMARK H PARENT
REMARK Flexibility Score: 70.00
ROOT
ATOM      1  C   UNL     1      14.774  24.622  33.583  1.00  0.00     0.136 C 
ATOM      2  O   UNL     1      13.805  24.142  33.011  1.00  0.00    -0.299 OA
ENDROOT
BRANCH   1   3
ATOM      3  C   UNL     1      14.626  25.896  34.395  1.00  0.00     0.053 C 
ATOM      4  C   UNL     1      13.187  26.108  34.889  1.00  0.00     0.016 C 
BRANCH   3   5
ATOM      5  C   UNL     1      15.152  27.123  33.621  1.00  0.00     0.015 C 
BRANCH   5   6
ATOM      6  C   UNL     1      14.422  27.381  32.287  1.00  0.00     0.028 C 
BRANCH   6   7
ATOM      7  C   UNL     1      15.362  27.945  31.251  1.00  0.00    -0.028 C 
ATOM      8  C   UNL     1      16.102  27.201  30.394  1.00  0.00    -0.070 CG0
ATOM      9  C   UNL     1      17.026  27.924  29.447  1.00  0.00     0.039 C 
ATOM     10  G   UNL     1      16.035  25.683  30.338  1.00  0.00     0.000 G0
ENDBRANCH   6   7
ENDBRANCH   5   6
ENDBRANCH   3   5
ENDBRANCH   1   3
BRANCH   1  11
ATOM     11  C   UNL     1      16.110  23.928  33.464  1.00  0.00     0.087 C 
BRANCH  11  12
ATOM     12  C   UNL     1      16.512  23.683  31.986  1.00  0.00     0.066 C 
BRANCH  12  13
ATOM     13  C   UNL     1      16.932  24.999  31.351  1.00  0.00     0.140 C 
ATOM     14  O   UNL     1      18.027  25.476  31.621  1.00  0.00    -0.299 OA
BRANCH  13  15
ATOM     15  C   UNL     1      16.063  25.664  30.313  1.00  0.00     0.106 CG0
ATOM     16  G   UNL     1      16.109  27.183  30.399  1.00  0.00     0.000 G0
ENDBRANCH  13  15
ENDBRANCH  12  13
BRANCH  12  17
ATOM     17  C   UNL     1      17.647  22.616  31.838  1.00  0.00    -0.006 C 
ATOM     18  C   UNL     1      18.006  21.952  33.181  1.00  0.00     0.008 C 
ATOM     19  C   UNL     1      17.248  21.516  30.836  1.00  0.00     0.008 C 
ENDBRANCH  12  17
ENDBRANCH  11  12
ENDBRANCH   1  11
TORSDOF 1
ENDMDL
MODEL 2
REMARK VINA RESULT:    -3.183      7.222      9.773
REMARK INTER + INTRA:          -4.755
REMARK INTER:                  -4.412
REMARK INTRA:                  -0.343
REMARK UNBOUND:                 0.102
REMARK SMILES CC1=CCC[C@@H](C)C(=O)C[C@H](C(C)C)C(=O)C1
REMARK SMILES IDX 8 1 9 2 6 3 7 4 5 5 4 6 3 7 2 8 1 9 10 11 11 12 15 13 16 14
REMARK SMILES IDX 17 15 12 17 13 18 14 19
REMARK H PARENT
REMARK Flexibility Score: 70.00
ROOT
ATOM      1  C   UNL     1      11.416  29.814  23.472  1.00  0.00     0.136 C 
ATOM      2  O   UNL     1      10.409  29.718  22.782  1.00  0.00    -0.299 OA
ENDROOT
BRANCH   1   3
ATOM      3  C   UNL     1      12.743  29.281  22.962  1.00  0.00     0.053 C 
ATOM      4  C   UNL     1      13.220  30.017  21.701  1.00  0.00     0.016 C 
BRANCH   3   5
ATOM      5  C   UNL     1      12.694  27.754  22.750  1.00  0.00     0.015 C 
BRANCH   5   6
ATOM      6  C   UNL     1      12.918  26.936  24.038  1.00  0.00     0.028 C 
BRANCH   6   7
ATOM      7  C   UNL     1      14.146  27.407  24.777  1.00  0.00    -0.028 C 
ATOM      8  C   UNL     1      14.150  27.873  26.048  1.00  0.00    -0.070 CG0
ATOM      9  C   UNL     1      15.462  28.343  26.625  1.00  0.00     0.039 C 
ATOM     10  G   UNL     1      12.903  27.931  26.917  1.00  0.00     0.000 G0
ENDBRANCH   6   7
ENDBRANCH   5   6
ENDBRANCH   3   5
ENDBRANCH   1   3
BRANCH   1  11
ATOM     11  C   UNL     1      11.311  30.467  24.830  1.00  0.00     0.087 C 
BRANCH  11  12
ATOM     12  C   UNL     1      10.983  29.442  25.947  1.00  0.00     0.066 C 
BRANCH  12  13
ATOM     13  C   UNL     1      12.192  29.276  26.852  1.00  0.00     0.140 C 
ATOM     14  O   UNL     1      12.533  30.201  27.579  1.00  0.00    -0.299 OA
BRANCH  13  15
ATOM     15  C   UNL     1      12.909  27.952  26.944  1.00  0.00     0.106 CG0
ATOM     16  G   UNL     1      14.138  27.890  26.049  1.00  0.00     0.000 G0
ENDBRANCH  13  15
ENDBRANCH  12  13
BRANCH  12  17
ATOM     17  C   UNL     1       9.723  29.844  26.783  1.00  0.00    -0.006 C 
ATOM     18  C   UNL     1       8.471  30.029  25.904  1.00  0.00     0.008 C 
ATOM     19  C   UNL     1       9.415  28.791  27.864  1.00  0.00     0.008 C 
ENDBRANCH  12  17
ENDBRANCH  11  12
ENDBRANCH   1  11
TORSDOF 1
ENDMDL
MODEL 3
REMARK VINA RESULT:    -3.125      1.777      4.389
REMARK INTER + INTRA:          -4.668
REMARK INTER:                  -4.363
REMARK INTRA:                  -0.305
REMARK UNBOUND:                 0.102
REMARK SMILES CC1=CCC[C@@H](C)C(=O)C[C@H](C(C)C)C(=O)C1
REMARK SMILES IDX 8 1 9 2 6 3 7 4 5 5 4 6 3 7 2 8 1 9 10 11 11 12 15 13 16 14
REMARK SMILES IDX 17 15 12 17 13 18 14 19
REMARK H PARENT
REMARK Flexibility Score: 70.00
ROOT
ATOM      1  C   UNL     1      15.110  24.413  33.082  1.00  0.00     0.136 C 
ATOM      2  O   UNL     1      15.469  24.611  34.235  1.00  0.00    -0.299 OA
ENDROOT
BRANCH   1   3
ATOM      3  C   UNL     1      16.083  23.837  32.069  1.00  0.00     0.053 C 
ATOM      4  C   UNL     1      16.598  22.449  32.480  1.00  0.00     0.016 C 
BRANCH   3   5
ATOM      5  C   UNL     1      17.241  24.814  31.779  1.00  0.00     0.015 C 
BRANCH   5   6
ATOM      6  C   UNL     1      16.815  26.077  31.004  1.00  0.00     0.028 C 
BRANCH   6   7
ATOM      7  C   UNL     1      16.104  25.718  29.723  1.00  0.00    -0.028 C 
ATOM      8  C   UNL     1      14.891  26.194  29.354  1.00  0.00    -0.070 CG0
ATOM      9  C   UNL     1      14.302  25.699  28.057  1.00  0.00     0.039 C 
ATOM     10  G   UNL     1      14.109  27.206  30.177  1.00  0.00     0.000 G0
ENDBRANCH   6   7
ENDBRANCH   5   6
ENDBRANCH   3   5
ENDBRANCH   1   3
BRANCH   1  11
ATOM     11  C   UNL     1      13.691  24.752  32.690  1.00  0.00     0.087 C 
BRANCH  11  12
ATOM     12  C   UNL     1      13.477  26.281  32.536  1.00  0.00     0.066 C 
BRANCH  12  13
ATOM     13  C   UNL     1      13.096  26.596  31.099  1.00  0.00     0.140 C 
ATOM     14  O   UNL     1      11.945  26.411  30.725  1.00  0.00    -0.299 OA
BRANCH  13  15
ATOM     15  C   UNL     1      14.091  27.233  30.161  1.00  0.00     0.106 CG0
ATOM     16  G   UNL     1      14.881  26.207  29.362  1.00  0.00     0.000 G0
ENDBRANCH  13  15
ENDBRANCH  12  13
BRANCH  12  17
ATOM     17  C   UNL     1      12.402  26.842  33.523  1.00  0.00    -0.006 C 
ATOM     18  C   UNL     1      11.400  25.762  33.975  1.00  0.00     0.008 C 
ATOM     19  C   UNL     1      13.061  27.455  34.773  1.00  0.00     0.008 C 
ENDBRANCH  12  17
ENDBRANCH  11  12
ENDBRANCH   1  11
TORSDOF 1
ENDMDL
MODEL 4
REMARK VINA RESULT:    -3.095      5.605      7.965
REMARK INTER + INTRA:          -4.622
REMARK INTER:                  -4.401
REMARK INTRA:                  -0.221
REMARK UNBOUND:                 0.102
REMARK SMILES CC1=CCC[C@@H](C)C(=O)C[C@H](C(C)C)C(=O)C1
REMARK SMILES IDX 8 1 9 2 6 3 7 4 5 5 4 6 3 7 2 8 1 9 10 11 11 12 15 13 16 14
REMARK SMILES IDX 17 15 12 17 13 18 14 19
REMARK H PARENT
REMARK Flexibility Score: 70.00
ROOT
ATOM      1  C   UNL     1      11.924  28.979  25.210  1.00  0.00     0.136 C 
ATOM      2  O   UNL     1      10.771  28.977  24.800  1.00  0.00    -0.299 OA
ENDROOT
BRANCH   1   3
ATOM      3  C   UNL     1      13.070  28.673  24.263  1.00  0.00     0.053 C 
ATOM      4  C   UNL     1      13.198  29.719  23.145  1.00  0.00     0.016 C 
BRANCH   3   5
ATOM      5  C   UNL     1      12.968  27.241  23.697  1.00  0.00     0.015 C 
BRANCH   5   6
ATOM      6  C   UNL     1      13.465  26.149  24.667  1.00  0.00     0.028 C 
BRANCH   6   7
ATOM      7  C   UNL     1      14.912  26.362  25.033  1.00  0.00    -0.028 C 
ATOM      8  C   UNL     1      15.371  26.534  26.295  1.00  0.00    -0.070 CG0
ATOM      9  C   UNL     1      16.847  26.777  26.484  1.00  0.00     0.039 C 
ATOM     10  G   UNL     1      14.473  26.483  27.522  1.00  0.00     0.000 G0
ENDBRANCH   6   7
ENDBRANCH   5   6
ENDBRANCH   3   5
ENDBRANCH   1   3
BRANCH   1  11
ATOM     11  C   UNL     1      12.181  29.290  26.666  1.00  0.00     0.087 C 
BRANCH  11  12
ATOM     12  C   UNL     1      12.342  28.003  27.517  1.00  0.00     0.066 C 
BRANCH  12  13
ATOM     13  C   UNL     1      13.810  27.797  27.852  1.00  0.00     0.140 C 
ATOM     14  O   UNL     1      14.422  28.675  28.447  1.00  0.00    -0.299 OA
BRANCH  13  15
ATOM     15  C   UNL     1      14.490  26.483  27.555  1.00  0.00     0.106 CG0
ATOM     16  G   UNL     1      15.357  26.544  26.306  1.00  0.00     0.000 G0
ENDBRANCH  13  15
ENDBRANCH  12  13
BRANCH  12  17
ATOM     17  C   UNL     1      11.481  28.033  28.823  1.00  0.00    -0.006 C 
ATOM     18  C   UNL     1       9.984  28.261  28.534  1.00  0.00     0.008 C 
ATOM     19  C   UNL     1      11.635  26.724  29.621  1.00  0.00     0.008 C 
ENDBRANCH  12  17
ENDBRANCH  11  12
ENDBRANCH   1  11
TORSDOF 1
ENDMDL
MODEL 5
REMARK VINA RESULT:    -3.090      5.678      7.707
REMARK INTER + INTRA:          -4.614
REMARK INTER:                  -4.417
REMARK INTRA:                  -0.197
REMARK UNBOUND:                 0.102
REMARK SMILES CC1=CCC[C@@H](C)C(=O)C[C@H](C(C)C)C(=O)C1
REMARK SMILES IDX 8 1 9 2 6 3 7 4 5 5 4 6 3 7 2 8 1 9 10 11 11 12 15 13 16 14
REMARK SMILES IDX 17 15 12 17 13 18 14 19
REMARK H PARENT
REMARK Flexibility Score: 70.00
ROOT
ATOM      1  C   UNL     1      13.079  27.814  24.167  1.00  0.00     0.136 C 
ATOM      2  O   UNL     1      13.579  28.072  23.080  1.00  0.00    -0.299 OA
ENDROOT
BRANCH   1   3
ATOM      3  C   UNL     1      11.970  28.689  24.723  1.00  0.00     0.053 C 
ATOM      4  C   UNL     1      10.758  28.764  23.782  1.00  0.00     0.016 C 
BRANCH   3   5
ATOM      5  C   UNL     1      12.492  30.093  25.096  1.00  0.00     0.015 C 
BRANCH   5   6
ATOM      6  C   UNL     1      12.557  30.353  26.615  1.00  0.00     0.028 C 
BRANCH   6   7
ATOM      7  C   UNL     1      11.558  29.502  27.357  1.00  0.00    -0.028 C 
ATOM      8  C   UNL     1      11.871  28.409  28.092  1.00  0.00    -0.070 CG0
ATOM      9  C   UNL     1      10.744  27.644  28.739  1.00  0.00     0.039 C 
ATOM     10  G   UNL     1      13.300  27.928  28.301  1.00  0.00     0.000 G0
ENDBRANCH   6   7
ENDBRANCH   5   6
ENDBRANCH   3   5
ENDBRANCH   1   3
BRANCH   1  11
ATOM     11  C   UNL     1      13.583  26.617  24.937  1.00  0.00     0.087 C 
BRANCH  11  12
ATOM     12  C   UNL     1      14.470  27.029  26.141  1.00  0.00     0.066 C 
BRANCH  12  13
ATOM     13  C   UNL     1      13.713  26.782  27.436  1.00  0.00     0.140 C 
ATOM     14  O   UNL     1      13.500  25.632  27.800  1.00  0.00    -0.299 OA
BRANCH  13  15
ATOM     15  C   UNL     1      13.317  27.933  28.327  1.00  0.00     0.106 CG0
ATOM     16  G   UNL     1      11.891  28.402  28.076  1.00  0.00     0.000 G0
ENDBRANCH  13  15
ENDBRANCH  12  13
BRANCH  12  17
ATOM     17  C   UNL     1      15.845  26.283  26.160  1.00  0.00    -0.006 C 
ATOM     18  C   UNL     1      16.649  26.502  24.864  1.00  0.00     0.008 C 
ATOM     19  C   UNL     1      16.706  26.734  27.356  1.00  0.00     0.008 C 
ENDBRANCH  12  17
ENDBRANCH  11  12
ENDBRANCH   1  11
TORSDOF 1
ENDMDL
MODEL 6
REMARK VINA RESULT:    -3.069      6.427      7.910
REMARK INTER + INTRA:          -4.582
REMARK INTER:                  -4.376
REMARK INTRA:                  -0.206
REMARK UNBOUND:                 0.102
REMARK SMILES CC1=CCC[C@@H](C)C(=O)C[C@H](C(C)C)C(=O)C1
REMARK SMILES IDX 8 1 9 2 6 3 7 4 5 5 4 6 3 7 2 8 1 9 10 11 11 12 15 13 16 14
REMARK SMILES IDX 17 15 12 17 13 18 14 19
REMARK H PARENT
REMARK Flexibility Score: 70.00
ROOT
ATOM      1  C   UNL     1      12.802  27.574  28.287  1.00  0.00     0.136 C 
ATOM      2  O   UNL     1      13.002  26.369  28.362  1.00  0.00    -0.299 OA
ENDROOT
BRANCH   1   3
ATOM      3  C   UNL     1      11.780  28.235  29.195  1.00  0.00     0.053 C 
ATOM      4  C   UNL     1      11.887  27.745  30.647  1.00  0.00     0.016 C 
BRANCH   3   5
ATOM      5  C   UNL     1      10.348  28.077  28.642  1.00  0.00     0.015 C 
BRANCH   5   6
ATOM      6  C   UNL     1       9.728  29.392  28.126  1.00  0.00     0.028 C 
BRANCH   6   7
ATOM      7  C   UNL     1       9.402  29.301  26.656  1.00  0.00    -0.028 C 
ATOM      8  C   UNL     1      10.170  29.806  25.662  1.00  0.00    -0.070 CG0
ATOM      9  C   UNL     1       9.676  29.664  24.245  1.00  0.00     0.039 C 
ATOM     10  G   UNL     1      11.504  30.493  25.909  1.00  0.00     0.000 G0
ENDBRANCH   6   7
ENDBRANCH   5   6
ENDBRANCH   3   5
ENDBRANCH   1   3
BRANCH   1  11
ATOM     11  C   UNL     1      13.586  28.383  27.281  1.00  0.00     0.087 C 
BRANCH  11  12
ATOM     12  C   UNL     1      12.974  28.296  25.858  1.00  0.00     0.066 C 
BRANCH  12  13
ATOM     13  C   UNL     1      12.688  29.697  25.343  1.00  0.00     0.140 C 
ATOM     14  O   UNL     1      13.352  30.148  24.419  1.00  0.00    -0.299 OA
BRANCH  13  15
ATOM     15  C   UNL     1      11.527  30.494  25.885  1.00  0.00     0.106 CG0
ATOM     16  G   UNL     1      10.190  29.803  25.662  1.00  0.00     0.000 G0
ENDBRANCH  13  15
ENDBRANCH  12  13
BRANCH  12  17
ATOM     17  C   UNL     1      13.890  27.520  24.855  1.00  0.00    -0.006 C 
ATOM     18  C   UNL     1      15.348  27.425  25.344  1.00  0.00     0.008 C 
ATOM     19  C   UNL     1      13.360  26.095  24.607  1.00  0.00     0.008 C 
ENDBRANCH  12  17
ENDBRANCH  11  12
ENDBRANCH   1  11
TORSDOF 1
ENDMDL
MODEL 7
REMARK VINA RESULT:    -3.028      5.968      8.331
REMARK INTER + INTRA:          -4.519
REMARK INTER:                  -4.243
REMARK INTRA:                  -0.276
REMARK UNBOUND:                 0.102
REMARK SMILES CC1=CCC[C@@H](C)C(=O)C[C@H](C(C)C)C(=O)C1
REMARK SMILES IDX 8 1 9 2 6 3 7 4 5 5 4 6 3 7 2 8 1 9 10 11 11 12 15 13 16 14
REMARK SMILES IDX 17 15 12 17 13 18 14 19
REMARK H PARENT
REMARK Flexibility Score: 70.00
ROOT
ATOM      1  C   UNL     1      13.829  26.417  25.003  1.00  0.00     0.136 C 
ATOM      2  O   UNL     1      13.329  25.420  24.499  1.00  0.00    -0.299 OA
ENDROOT
BRANCH   1   3
ATOM      3  C   UNL     1      14.652  26.299  26.273  1.00  0.00     0.053 C 
ATOM      4  C   UNL     1      15.964  25.533  26.047  1.00  0.00     0.016 C 
BRANCH   3   5
ATOM      5  C   UNL     1      13.827  25.692  27.426  1.00  0.00     0.015 C 
BRANCH   5   6
ATOM      6  C   UNL     1      13.131  26.741  28.318  1.00  0.00     0.028 C 
BRANCH   6   7
ATOM      7  C   UNL     1      14.058  27.889  28.634  1.00  0.00    -0.028 C 
ATOM      8  C   UNL     1      13.885  29.161  28.203  1.00  0.00    -0.070 CG0
ATOM      9  C   UNL     1      14.930  30.182  28.576  1.00  0.00     0.039 C 
ATOM     10  G   UNL     1      12.688  29.604  27.375  1.00  0.00     0.000 G0
ENDBRANCH   6   7
ENDBRANCH   5   6
ENDBRANCH   3   5
ENDBRANCH   1   3
BRANCH   1  11
ATOM     11  C   UNL     1      13.611  27.758  24.341  1.00  0.00     0.087 C 
BRANCH  11  12
ATOM     12  C   UNL     1      12.433  28.540  24.981  1.00  0.00     0.066 C 
BRANCH  12  13
ATOM     13  C   UNL     1      12.982  29.633  25.883  1.00  0.00     0.140 C 
ATOM     14  O   UNL     1      13.592  30.573  25.389  1.00  0.00    -0.299 OA
BRANCH  13  15
ATOM     15  C   UNL     1      12.692  29.626  27.363  1.00  0.00     0.106 CG0
ATOM     16  G   UNL     1      13.884  29.168  28.190  1.00  0.00     0.000 G0
ENDBRANCH  13  15
ENDBRANCH  12  13
BRANCH  12  17
ATOM     17  C   UNL     1      11.463  29.146  23.914  1.00  0.00    -0.006 C 
ATOM     18  C   UNL     1      11.221  28.190  22.730  1.00  0.00     0.008 C 
ATOM     19  C   UNL     1      10.102  29.505  24.542  1.00  0.00     0.008 C 
ENDBRANCH  12  17
ENDBRANCH  11  12
ENDBRANCH   1  11
TORSDOF 1
ENDMDL
MODEL 8
REMARK VINA RESULT:    -2.972      2.052      2.731
REMARK INTER + INTRA:          -4.433
REMARK INTER:                  -4.140
REMARK INTRA:                  -0.293
REMARK UNBOUND:                 0.102
REMARK SMILES CC1=CCC[C@@H](C)C(=O)C[C@H](C(C)C)C(=O)C1
REMARK SMILES IDX 8 1 9 2 6 3 7 4 5 5 4 6 3 7 2 8 1 9 10 11 11 12 15 13 16 14
REMARK SMILES IDX 17 15 12 17 13 18 14 19
REMARK H PARENT
REMARK Flexibility Score: 70.00
ROOT
ATOM      1  C   UNL     1      13.210  25.733  31.934  1.00  0.00     0.136 C 
ATOM      2  O   UNL     1      12.551  24.878  32.511  1.00  0.00    -0.299 OA
ENDROOT
BRANCH   1   3
ATOM      3  C   UNL     1      12.572  26.588  30.854  1.00  0.00     0.053 C 
ATOM      4  C   UNL     1      11.401  27.426  31.391  1.00  0.00     0.016 C 
BRANCH   3   5
ATOM      5  C   UNL     1      12.156  25.740  29.634  1.00  0.00     0.015 C 
BRANCH   5   6
ATOM      6  C   UNL     1      13.125  25.846  28.439  1.00  0.00     0.028 C 
BRANCH   6   7
ATOM      7  C   UNL     1      13.850  27.169  28.440  1.00  0.00    -0.028 C 
ATOM      8  C   UNL     1      15.162  27.330  28.734  1.00  0.00    -0.070 CG0
ATOM      9  C   UNL     1      15.721  28.730  28.729  1.00  0.00     0.039 C 
ATOM     10  G   UNL     1      16.091  26.169  29.055  1.00  0.00     0.000 G0
ENDBRANCH   6   7
ENDBRANCH   5   6
ENDBRANCH   3   5
ENDBRANCH   1   3
BRANCH   1  11
ATOM     11  C   UNL     1      14.660  25.917  32.314  1.00  0.00     0.087 C 
BRANCH  11  12
ATOM     12  C   UNL     1      15.611  25.096  31.404  1.00  0.00     0.066 C 
BRANCH  12  13
ATOM     13  C   UNL     1      16.419  26.043  30.531  1.00  0.00     0.140 C 
ATOM     14  O   UNL     1      17.376  26.637  31.010  1.00  0.00    -0.299 OA
BRANCH  13  15
ATOM     15  C   UNL     1      16.119  26.175  29.058  1.00  0.00     0.106 CG0
ATOM     16  G   UNL     1      15.171  27.327  28.757  1.00  0.00     0.000 G0
ENDBRANCH  13  15
ENDBRANCH  12  13
BRANCH  12  17
ATOM     17  C   UNL     1      16.561  24.156  32.217  1.00  0.00    -0.006 C 
ATOM     18  C   UNL     1      15.959  23.746  33.575  1.00  0.00     0.008 C 
ATOM     19  C   UNL     1      16.895  22.880  31.421  1.00  0.00     0.008 C 
ENDBRANCH  12  17
ENDBRANCH  11  12
ENDBRANCH   1  11
TORSDOF 1
ENDMDL
MODEL 9
REMARK VINA RESULT:    -2.783      2.685      5.040
REMARK INTER + INTRA:          -4.145
REMARK INTER:                  -3.837
REMARK INTRA:                  -0.309
REMARK UNBOUND:                 0.102
REMARK SMILES CC1=CCC[C@@H](C)C(=O)C[C@H](C(C)C)C(=O)C1
REMARK SMILES IDX 8 1 9 2 6 3 7 4 5 5 4 6 3 7 2 8 1 9 10 11 11 12 15 13 16 14
REMARK SMILES IDX 17 15 12 17 13 18 14 19
REMARK H PARENT
REMARK Flexibility Score: 70.00
ROOT
ATOM      1  C   UNL     1      17.563  27.029  29.727  1.00  0.00     0.136 C 
ATOM      2  O   UNL     1      18.663  26.753  29.268  1.00  0.00    -0.299 OA
ENDROOT
BRANCH   1   3
ATOM      3  C   UNL     1      17.252  26.744  31.186  1.00  0.00     0.053 C 
ATOM      4  C   UNL     1      18.225  27.454  32.139  1.00  0.00     0.016 C 
BRANCH   3   5
ATOM      5  C   UNL     1      17.185  25.227  31.462  1.00  0.00     0.015 C 
BRANCH   5   6
ATOM      6  C   UNL     1      15.751  24.663  31.512  1.00  0.00     0.028 C 
BRANCH   6   7
ATOM      7  C   UNL     1      14.771  25.704  31.993  1.00  0.00    -0.028 C 
ATOM      8  C   UNL     1      13.804  26.265  31.230  1.00  0.00    -0.070 CG0
ATOM      9  C   UNL     1      12.933  27.324  31.857  1.00  0.00     0.039 C 
ATOM     10  G   UNL     1      13.552  25.870  29.782  1.00  0.00     0.000 G0
ENDBRANCH   6   7
ENDBRANCH   5   6
ENDBRANCH   3   5
ENDBRANCH   1   3
BRANCH   1  11
ATOM     11  C   UNL     1      16.529  27.655  28.821  1.00  0.00     0.087 C 
BRANCH  11  12
ATOM     12  C   UNL     1      15.546  26.603  28.243  1.00  0.00     0.066 C 
BRANCH  12  13
ATOM     13  C   UNL     1      14.153  26.853  28.797  1.00  0.00     0.140 C 
ATOM     14  O   UNL     1      13.498  27.799  28.378  1.00  0.00    -0.299 OA
BRANCH  13  15
ATOM     15  C   UNL     1      13.530  25.888  29.774  1.00  0.00     0.106 CG0
ATOM     16  G   UNL     1      13.807  26.263  31.222  1.00  0.00     0.000 G0
ENDBRANCH  13  15
ENDBRANCH  12  13
BRANCH  12  17
ATOM     17  C   UNL     1      15.521  26.598  26.678  1.00  0.00    -0.006 C 
ATOM     18  C   UNL     1      16.785  27.235  26.069  1.00  0.00     0.008 C 
ATOM     19  C   UNL     1      15.378  25.166  26.129  1.00  0.00     0.008 C 
ENDBRANCH  12  17
ENDBRANCH  11  12
ENDBRANCH   1  11
TORSDOF 1
ENDMDL
