MODEL 1
REMARK VINA RESULT:    -3.220      0.000      0.000
REMARK INTER + INTRA:          -4.251
REMARK INTER:                  -4.538
REMARK INTRA:                   0.287
REMARK UNBOUND:                 0.287
REMARK SMILES CC1=CCC(=C(C)C)C(=O)CC(C)=CCC1
REMARK SMILES IDX 12 1 14 2 13 3 15 4 16 5 2 6 1 7 3 8 11 10 9 11 10 12 5 13
REMARK SMILES IDX 6 14 7 15 8 16 4 17
REMARK H PARENT
REMARK Flexibility Score: 60.00
ROOT
ATOM      1  C   UNL     1      -6.536  30.721  58.169  1.00  0.00    -0.070 C 
ATOM      2  C   UNL     1      -6.012  29.478  58.282  1.00  0.00    -0.027 C 
ATOM      3  C   UNL     1      -6.420  31.650  59.351  1.00  0.00     0.039 C 
ENDROOT
BRANCH   2   4
ATOM      4  C   UNL     1      -5.985  28.442  57.183  1.00  0.00     0.032 C 
BRANCH   4   5
ATOM      5  C   UNL     1      -7.348  27.755  57.018  1.00  0.00     0.034 C 
BRANCH   5   6
ATOM      6  C   UNL     1      -7.846  27.729  55.579  1.00  0.00    -0.077 C 
ATOM      7  C   UNL     1      -7.029  27.001  54.542  1.00  0.00     0.039 C 
ATOM      8  C   UNL     1      -8.999  28.312  55.180  1.00  0.00    -0.023 CG0
ATOM      9  G   UNL     1      -9.911  29.140  56.054  1.00  0.00     0.000 G0
ENDBRANCH   5   6
ENDBRANCH   4   5
ENDBRANCH   2   4
BRANCH   1  10
ATOM     10  C   UNL     1      -7.233  31.213  56.915  1.00  0.00     0.111 C 
BRANCH  10  11
ATOM     11  C   UNL     1      -8.727  31.195  57.084  1.00  0.00     0.163 C 
ATOM     12  O   UNL     1      -9.237  31.679  58.129  1.00  0.00    -0.294 OA
BRANCH  11  13
ATOM     13  C   UNL     1      -9.616  30.636  56.032  1.00  0.00    -0.002 C 
ATOM     14  C   UNL     1     -10.142  31.449  55.076  1.00  0.00    -0.069 C 
ATOM     15  C   UNL     1      -9.766  32.912  54.998  1.00  0.00     0.039 C 
ATOM     16  C   UNL     1     -11.091  30.910  54.030  1.00  0.00     0.039 C 
BRANCH  13  17
ATOM     17  C   UNL     1      -9.928  29.144  56.040  1.00  0.00     0.066 CG0
ATOM     18  G   UNL     1      -8.988  28.321  55.190  1.00  0.00     0.000 G0
ENDBRANCH  13  17
ENDBRANCH  11  13
ENDBRANCH  10  11
ENDBRANCH   1  10
TORSDOF 0
ENDMDL
MODEL 2
REMARK VINA RESULT:    -3.209     13.564     14.995
REMARK INTER + INTRA:          -4.236
REMARK INTER:                  -4.501
REMARK INTRA:                   0.265
REMARK UNBOUND:                 0.287
REMARK SMILES CC1=CCC(=C(C)C)C(=O)CC(C)=CCC1
REMARK SMILES IDX 12 1 14 2 13 3 15 4 16 5 2 6 1 7 3 8 11 10 9 11 10 12 5 13
REMARK SMILES IDX 6 14 7 15 8 16 4 17
REMARK H PARENT
REMARK Flexibility Score: 60.00
ROOT
ATOM      1  C   UNL     1      -3.601  36.029  41.740  1.00  0.00    -0.070 C 
ATOM      2  C   UNL     1      -3.846  34.698  41.712  1.00  0.00    -0.027 C 
ATOM      3  C   UNL     1      -2.172  36.490  41.600  1.00  0.00     0.039 C 
ENDROOT
BRANCH   2   4
ATOM      4  C   UNL     1      -5.217  34.064  41.777  1.00  0.00     0.032 C 
BRANCH   4   5
ATOM      5  C   UNL     1      -5.616  33.726  43.221  1.00  0.00     0.034 C 
BRANCH   5   6
ATOM      6  C   UNL     1      -7.019  34.190  43.588  1.00  0.00    -0.077 C 
ATOM      7  C   UNL     1      -8.201  33.412  43.068  1.00  0.00     0.039 C 
ATOM      8  C   UNL     1      -7.266  35.261  44.377  1.00  0.00    -0.023 CG0
ATOM      9  G   UNL     1      -6.221  36.200  44.931  1.00  0.00     0.000 G0
ENDBRANCH   5   6
ENDBRANCH   4   5
ENDBRANCH   2   4
BRANCH   1  10
ATOM     10  C   UNL     1      -4.694  37.067  41.910  1.00  0.00     0.111 C 
BRANCH  10  11
ATOM     11  C   UNL     1      -4.739  37.579  43.322  1.00  0.00     0.163 C 
ATOM     12  O   UNL     1      -3.716  38.129  43.814  1.00  0.00    -0.294 OA
BRANCH  11  13
ATOM     13  C   UNL     1      -5.972  37.470  44.144  1.00  0.00    -0.002 C 
ATOM     14  C   UNL     1      -6.868  38.493  44.176  1.00  0.00    -0.069 C 
ATOM     15  C   UNL     1      -6.686  39.721  43.311  1.00  0.00     0.039 C 
ATOM     16  C   UNL     1      -8.101  38.423  45.047  1.00  0.00     0.039 C 
BRANCH  13  17
ATOM     17  C   UNL     1      -6.218  36.198  44.948  1.00  0.00     0.066 CG0
ATOM     18  G   UNL     1      -7.269  35.294  44.350  1.00  0.00     0.000 G0
ENDBRANCH  13  17
ENDBRANCH  11  13
ENDBRANCH  10  11
ENDBRANCH   1  10
TORSDOF 0
ENDMDL
MODEL 3
REMARK VINA RESULT:    -3.081     13.076     15.161
REMARK INTER + INTRA:          -4.056
REMARK INTER:                  -4.516
REMARK INTRA:                   0.461
REMARK UNBOUND:                 0.287
REMARK SMILES CC1=CCC(=C(C)C)C(=O)CC(C)=CCC1
REMARK SMILES IDX 12 1 14 2 13 3 15 4 16 5 2 6 1 7 3 8 11 10 9 11 10 12 5 13
REMARK SMILES IDX 6 14 7 15 8 16 4 17
REMARK H PARENT
REMARK Flexibility Score: 60.00
ROOT
ATOM      1  C   UNL     1      -7.455  35.654  45.189  1.00  0.00    -0.070 C 
ATOM      2  C   UNL     1      -7.918  36.903  45.431  1.00  0.00    -0.027 C 
ATOM      3  C   UNL     1      -7.529  34.641  46.303  1.00  0.00     0.039 C 
ENDROOT
BRANCH   2   4
ATOM      4  C   UNL     1      -7.979  38.021  44.417  1.00  0.00     0.032 C 
BRANCH   4   5
ATOM      5  C   UNL     1      -7.183  39.251  44.881  1.00  0.00     0.034 C 
BRANCH   5   6
ATOM      6  C   UNL     1      -5.790  38.914  45.394  1.00  0.00    -0.077 C 
ATOM      7  C   UNL     1      -5.442  39.248  46.823  1.00  0.00     0.039 C 
ATOM      8  C   UNL     1      -4.844  38.311  44.639  1.00  0.00    -0.023 CG0
ATOM      9  G   UNL     1      -4.981  37.965  43.175  1.00  0.00     0.000 G0
ENDBRANCH   5   6
ENDBRANCH   4   5
ENDBRANCH   2   4
BRANCH   1  10
ATOM     10  C   UNL     1      -6.867  35.236  43.854  1.00  0.00     0.111 C 
BRANCH  10  11
ATOM     11  C   UNL     1      -5.386  35.489  43.813  1.00  0.00     0.163 C 
ATOM     12  O   UNL     1      -4.626  34.837  44.578  1.00  0.00    -0.294 OA
BRANCH  11  13
ATOM     13  C   UNL     1      -4.798  36.478  42.873  1.00  0.00    -0.002 C 
ATOM     14  C   UNL     1      -4.131  36.058  41.764  1.00  0.00    -0.069 C 
ATOM     15  C   UNL     1      -4.051  34.590  41.408  1.00  0.00     0.039 C 
ATOM     16  C   UNL     1      -3.479  37.046  40.824  1.00  0.00     0.039 C 
BRANCH  13  17
ATOM     17  C   UNL     1      -4.953  37.966  43.168  1.00  0.00     0.066 CG0
ATOM     18  G   UNL     1      -4.832  38.311  44.633  1.00  0.00     0.000 G0
ENDBRANCH  13  17
ENDBRANCH  11  13
ENDBRANCH  10  11
ENDBRANCH   1  10
TORSDOF 0
ENDMDL
MODEL 4
REMARK VINA RESULT:    -2.968     13.028     14.949
REMARK INTER + INTRA:          -3.897
REMARK INTER:                  -4.146
REMARK INTRA:                   0.250
REMARK UNBOUND:                 0.287
REMARK SMILES CC1=CCC(=C(C)C)C(=O)CC(C)=CCC1
REMARK SMILES IDX 12 1 14 2 13 3 15 4 16 5 2 6 1 7 3 8 11 10 9 11 10 12 5 13
REMARK SMILES IDX 6 14 7 15 8 16 4 17
REMARK H PARENT
REMARK Flexibility Score: 60.00
ROOT
ATOM      1  C   UNL     1      -7.092  38.776  44.570  1.00  0.00    -0.070 C 
ATOM      2  C   UNL     1      -6.238  39.443  43.760  1.00  0.00    -0.027 C 
ATOM      3  C   UNL     1      -7.669  39.512  45.753  1.00  0.00     0.039 C 
ENDROOT
BRANCH   2   4
ATOM      4  C   UNL     1      -5.616  38.884  42.501  1.00  0.00     0.032 C 
BRANCH   4   5
ATOM      5  C   UNL     1      -4.257  38.226  42.785  1.00  0.00     0.034 C 
BRANCH   5   6
ATOM      6  C   UNL     1      -4.073  36.887  42.084  1.00  0.00    -0.077 C 
ATOM      7  C   UNL     1      -3.824  36.875  40.596  1.00  0.00     0.039 C 
ATOM      8  C   UNL     1      -4.102  35.698  42.729  1.00  0.00    -0.023 CG0
ATOM      9  G   UNL     1      -4.406  35.505  44.196  1.00  0.00     0.000 G0
ENDBRANCH   5   6
ENDBRANCH   4   5
ENDBRANCH   2   4
BRANCH   1  10
ATOM     10  C   UNL     1      -7.489  37.330  44.341  1.00  0.00     0.111 C 
BRANCH  10  11
ATOM     11  C   UNL     1      -6.645  36.401  45.168  1.00  0.00     0.163 C 
ATOM     12  O   UNL     1      -6.598  36.555  46.417  1.00  0.00    -0.294 OA
BRANCH  11  13
ATOM     13  C   UNL     1      -5.882  35.289  44.543  1.00  0.00    -0.002 C 
ATOM     14  C   UNL     1      -6.495  34.106  44.266  1.00  0.00    -0.069 C 
ATOM     15  C   UNL     1      -7.979  33.921  44.496  1.00  0.00     0.039 C 
ATOM     16  C   UNL     1      -5.724  32.946  43.681  1.00  0.00     0.039 C 
BRANCH  13  17
ATOM     17  C   UNL     1      -4.407  35.492  44.217  1.00  0.00     0.066 CG0
ATOM     18  G   UNL     1      -4.131  35.696  42.746  1.00  0.00     0.000 G0
ENDBRANCH  13  17
ENDBRANCH  11  13
ENDBRANCH  10  11
ENDBRANCH   1  10
TORSDOF 0
ENDMDL
MODEL 5
REMARK VINA RESULT:    -2.967     12.443     14.189
REMARK INTER + INTRA:          -3.895
REMARK INTER:                  -4.172
REMARK INTRA:                   0.277
REMARK UNBOUND:                 0.287
REMARK SMILES CC1=CCC(=C(C)C)C(=O)CC(C)=CCC1
REMARK SMILES IDX 12 1 14 2 13 3 15 4 16 5 2 6 1 7 3 8 11 10 9 11 10 12 5 13
REMARK SMILES IDX 6 14 7 15 8 16 4 17
REMARK H PARENT
REMARK Flexibility Score: 60.00
ROOT
ATOM      1  C   UNL     1      -7.262  33.150  44.463  1.00  0.00    -0.070 C 
ATOM      2  C   UNL     1      -6.337  32.678  43.595  1.00  0.00    -0.027 C 
ATOM      3  C   UNL     1      -7.729  32.237  45.569  1.00  0.00     0.039 C 
ENDROOT
BRANCH   2   4
ATOM      4  C   UNL     1      -5.714  33.471  42.470  1.00  0.00     0.032 C 
BRANCH   4   5
ATOM      5  C   UNL     1      -4.476  34.248  42.943  1.00  0.00     0.034 C 
BRANCH   5   6
ATOM      6  C   UNL     1      -4.408  35.669  42.401  1.00  0.00    -0.077 C 
ATOM      7  C   UNL     1      -3.990  35.880  40.967  1.00  0.00     0.039 C 
ATOM      8  C   UNL     1      -4.721  36.762  43.134  1.00  0.00    -0.023 CG0
ATOM      9  G   UNL     1      -5.091  36.757  44.599  1.00  0.00     0.000 G0
ENDBRANCH   5   6
ENDBRANCH   4   5
ENDBRANCH   2   4
BRANCH   1  10
ATOM     10  C   UNL     1      -7.846  34.546  44.369  1.00  0.00     0.111 C 
BRANCH  10  11
ATOM     11  C   UNL     1      -7.192  35.474  45.355  1.00  0.00     0.163 C 
ATOM     12  O   UNL     1      -7.158  35.156  46.574  1.00  0.00    -0.294 OA
BRANCH  11  13
ATOM     13  C   UNL     1      -6.566  36.748  44.917  1.00  0.00    -0.002 C 
ATOM     14  C   UNL     1      -7.319  37.874  44.788  1.00  0.00    -0.069 C 
ATOM     15  C   UNL     1      -8.782  37.886  45.174  1.00  0.00     0.039 C 
ATOM     16  C   UNL     1      -6.712  39.166  44.293  1.00  0.00     0.039 C 
BRANCH  13  17
ATOM     17  C   UNL     1      -5.072  36.776  44.616  1.00  0.00     0.066 CG0
ATOM     18  G   UNL     1      -4.747  36.743  43.142  1.00  0.00     0.000 G0
ENDBRANCH  13  17
ENDBRANCH  11  13
ENDBRANCH  10  11
ENDBRANCH   1  10
TORSDOF 0
ENDMDL
MODEL 6
REMARK VINA RESULT:    -2.946     14.699     16.318
REMARK INTER + INTRA:          -3.865
REMARK INTER:                  -4.351
REMARK INTRA:                   0.486
REMARK UNBOUND:                 0.287
REMARK SMILES CC1=CCC(=C(C)C)C(=O)CC(C)=CCC1
REMARK SMILES IDX 12 1 14 2 13 3 15 4 16 5 2 6 1 7 3 8 11 10 9 11 10 12 5 13
REMARK SMILES IDX 6 14 7 15 8 16 4 17
REMARK H PARENT
REMARK Flexibility Score: 60.00
ROOT
ATOM      1  C   UNL     1      -3.701  34.185  41.786  1.00  0.00    -0.070 C 
ATOM      2  C   UNL     1      -3.054  34.861  40.807  1.00  0.00    -0.027 C 
ATOM      3  C   UNL     1      -3.025  32.974  42.377  1.00  0.00     0.039 C 
ENDROOT
BRANCH   2   4
ATOM      4  C   UNL     1      -3.553  36.126  40.147  1.00  0.00     0.032 C 
BRANCH   4   5
ATOM      5  C   UNL     1      -2.565  37.287  40.331  1.00  0.00     0.034 C 
BRANCH   5   6
ATOM      6  C   UNL     1      -2.225  37.572  41.787  1.00  0.00    -0.077 C 
ATOM      7  C   UNL     1      -0.783  37.510  42.222  1.00  0.00     0.039 C 
ATOM      8  C   UNL     1      -3.152  37.897  42.718  1.00  0.00    -0.023 CG0
ATOM      9  G   UNL     1      -4.644  37.940  42.490  1.00  0.00     0.000 G0
ENDBRANCH   5   6
ENDBRANCH   4   5
ENDBRANCH   2   4
BRANCH   1  10
ATOM     10  C   UNL     1      -5.066  34.591  42.306  1.00  0.00     0.111 C 
BRANCH  10  11
ATOM     11  C   UNL     1      -4.943  35.539  43.466  1.00  0.00     0.163 C 
ATOM     12  O   UNL     1      -4.401  35.144  44.533  1.00  0.00    -0.294 OA
BRANCH  11  13
ATOM     13  C   UNL     1      -5.429  36.940  43.373  1.00  0.00    -0.002 C 
ATOM     14  C   UNL     1      -6.544  37.327  44.049  1.00  0.00    -0.069 C 
ATOM     15  C   UNL     1      -7.261  36.378  44.984  1.00  0.00     0.039 C 
ATOM     16  C   UNL     1      -7.084  38.733  43.925  1.00  0.00     0.039 C 
BRANCH  13  17
ATOM     17  C   UNL     1      -4.661  37.936  42.510  1.00  0.00     0.066 CG0
ATOM     18  G   UNL     1      -3.166  37.901  42.724  1.00  0.00     0.000 G0
ENDBRANCH  13  17
ENDBRANCH  11  13
ENDBRANCH  10  11
ENDBRANCH   1  10
TORSDOF 0
ENDMDL
MODEL 7
REMARK VINA RESULT:    -2.927     13.545     15.166
REMARK INTER + INTRA:          -3.838
REMARK INTER:                  -4.133
REMARK INTRA:                   0.295
REMARK UNBOUND:                 0.287
REMARK SMILES CC1=CCC(=C(C)C)C(=O)CC(C)=CCC1
REMARK SMILES IDX 12 1 14 2 13 3 15 4 16 5 2 6 1 7 3 8 11 10 9 11 10 12 5 13
REMARK SMILES IDX 6 14 7 15 8 16 4 17
REMARK H PARENT
REMARK Flexibility Score: 60.00
ROOT
ATOM      1  C   UNL     1      -6.328  37.618  44.051  1.00  0.00    -0.070 C 
ATOM      2  C   UNL     1      -7.374  36.842  44.417  1.00  0.00    -0.027 C 
ATOM      3  C   UNL     1      -6.612  39.037  43.626  1.00  0.00     0.039 C 
ENDROOT
BRANCH   2   4
ATOM      4  C   UNL     1      -7.269  35.423  44.926  1.00  0.00     0.032 C 
BRANCH   4   5
ATOM      5  C   UNL     1      -7.422  34.401  43.790  1.00  0.00     0.034 C 
BRANCH   5   6
ATOM      6  C   UNL     1      -6.317  33.354  43.761  1.00  0.00    -0.077 C 
ATOM      7  C   UNL     1      -6.364  32.221  44.755  1.00  0.00     0.039 C 
ATOM      8  C   UNL     1      -5.296  33.374  42.874  1.00  0.00    -0.023 CG0
ATOM      9  G   UNL     1      -5.042  34.460  41.855  1.00  0.00     0.000 G0
ENDBRANCH   5   6
ENDBRANCH   4   5
ENDBRANCH   2   4
BRANCH   1  10
ATOM     10  C   UNL     1      -4.894  37.124  44.046  1.00  0.00     0.111 C 
BRANCH  10  11
ATOM     11  C   UNL     1      -4.424  36.841  42.647  1.00  0.00     0.163 C 
ATOM     12  O   UNL     1      -4.385  37.778  41.806  1.00  0.00    -0.294 OA
BRANCH  11  13
ATOM     13  C   UNL     1      -3.984  35.480  42.241  1.00  0.00    -0.002 C 
ATOM     14  C   UNL     1      -2.663  35.157  42.245  1.00  0.00    -0.069 C 
ATOM     15  C   UNL     1      -1.620  36.131  42.748  1.00  0.00     0.039 C 
ATOM     16  C   UNL     1      -2.191  33.797  41.785  1.00  0.00     0.039 C 
BRANCH  13  17
ATOM     17  C   UNL     1      -5.033  34.455  41.822  1.00  0.00     0.066 CG0
ATOM     18  G   UNL     1      -5.300  33.397  42.866  1.00  0.00     0.000 G0
ENDBRANCH  13  17
ENDBRANCH  11  13
ENDBRANCH  10  11
ENDBRANCH   1  10
TORSDOF 0
ENDMDL
MODEL 8
REMARK VINA RESULT:    -2.857     13.921     15.626
REMARK INTER + INTRA:          -3.740
REMARK INTER:                  -4.042
REMARK INTRA:                   0.303
REMARK UNBOUND:                 0.287
REMARK SMILES CC1=CCC(=C(C)C)C(=O)CC(C)=CCC1
REMARK SMILES IDX 12 1 14 2 13 3 15 4 16 5 2 6 1 7 3 8 11 10 9 11 10 12 5 13
REMARK SMILES IDX 6 14 7 15 8 16 4 17
REMARK H PARENT
REMARK Flexibility Score: 60.00
ROOT
ATOM      1  C   UNL     1      -6.305  37.596  44.016  1.00  0.00    -0.070 C 
ATOM      2  C   UNL     1      -5.664  38.469  43.204  1.00  0.00    -0.027 C 
ATOM      3  C   UNL     1      -7.733  37.898  44.395  1.00  0.00     0.039 C 
ENDROOT
BRANCH   2   4
ATOM      4  C   UNL     1      -4.259  38.295  42.677  1.00  0.00     0.032 C 
BRANCH   4   5
ATOM      5  C   UNL     1      -4.240  37.484  41.373  1.00  0.00     0.034 C 
BRANCH   5   6
ATOM      6  C   UNL     1      -3.135  36.437  41.324  1.00  0.00    -0.077 C 
ATOM      7  C   UNL     1      -1.718  36.889  41.073  1.00  0.00     0.039 C 
ATOM      8  C   UNL     1      -3.353  35.116  41.513  1.00  0.00    -0.023 CG0
ATOM      9  G   UNL     1      -4.704  34.469  41.706  1.00  0.00     0.000 G0
ENDBRANCH   5   6
ENDBRANCH   4   5
ENDBRANCH   2   4
BRANCH   1  10
ATOM     10  C   UNL     1      -5.652  36.339  44.559  1.00  0.00     0.111 C 
BRANCH  10  11
ATOM     11  C   UNL     1      -6.096  35.125  43.793  1.00  0.00     0.163 C 
ATOM     12  O   UNL     1      -7.327  34.883  43.676  1.00  0.00    -0.294 OA
BRANCH  11  13
ATOM     13  C   UNL     1      -5.112  34.215  43.151  1.00  0.00    -0.002 C 
ATOM     14  C   UNL     1      -4.574  33.181  43.852  1.00  0.00    -0.069 C 
ATOM     15  C   UNL     1      -5.028  32.872  45.262  1.00  0.00     0.039 C 
ATOM     16  C   UNL     1      -3.532  32.277  43.235  1.00  0.00     0.039 C 
BRANCH  13  17
ATOM     17  C   UNL     1      -4.716  34.456  41.698  1.00  0.00     0.066 CG0
ATOM     18  G   UNL     1      -3.358  35.098  41.536  1.00  0.00     0.000 G0
ENDBRANCH  13  17
ENDBRANCH  11  13
ENDBRANCH  10  11
ENDBRANCH   1  10
TORSDOF 0
ENDMDL
MODEL 9
REMARK VINA RESULT:    -2.624      2.438      4.651
REMARK INTER + INTRA:          -3.411
REMARK INTER:                  -3.923
REMARK INTRA:                   0.511
REMARK UNBOUND:                 0.287
REMARK SMILES CC1=CCC(=C(C)C)C(=O)CC(C)=CCC1
REMARK SMILES IDX 12 1 14 2 13 3 15 4 16 5 2 6 1 7 3 8 11 10 9 11 10 12 5 13
REMARK SMILES IDX 6 14 7 15 8 16 4 17
REMARK H PARENT
REMARK Flexibility Score: 60.00
ROOT
ATOM      1  C   UNL     1      -7.576  28.785  56.994  1.00  0.00    -0.070 C 
ATOM      2  C   UNL     1      -8.552  29.668  56.678  1.00  0.00    -0.027 C 
ATOM      3  C   UNL     1      -6.290  29.325  57.567  1.00  0.00     0.039 C 
ENDROOT
BRANCH   2   4
ATOM      4  C   UNL     1      -9.921  29.301  56.154  1.00  0.00     0.032 C 
BRANCH   4   5
ATOM      5  C   UNL     1     -10.212  29.978  54.806  1.00  0.00     0.034 C 
BRANCH   5   6
ATOM      6  C   UNL     1      -9.107  29.783  53.777  1.00  0.00    -0.077 C 
ATOM      7  C   UNL     1      -8.395  30.998  53.238  1.00  0.00     0.039 C 
ATOM      8  C   UNL     1      -8.712  28.569  53.329  1.00  0.00    -0.023 CG0
ATOM      9  G   UNL     1      -9.349  27.250  53.698  1.00  0.00     0.000 G0
ENDBRANCH   5   6
ENDBRANCH   4   5
ENDBRANCH   2   4
BRANCH   1  10
ATOM     10  C   UNL     1      -7.720  27.288  56.795  1.00  0.00     0.111 C 
BRANCH  10  11
ATOM     11  C   UNL     1      -7.409  26.899  55.377  1.00  0.00     0.163 C 
ATOM     12  O   UNL     1      -6.240  27.058  54.935  1.00  0.00    -0.294 OA
BRANCH  11  13
ATOM     13  C   UNL     1      -8.448  26.310  54.493  1.00  0.00    -0.002 C 
ATOM     14  C   UNL     1      -8.586  24.959  54.402  1.00  0.00    -0.069 C 
ATOM     15  C   UNL     1      -7.760  24.028  55.262  1.00  0.00     0.039 C 
ATOM     16  C   UNL     1      -9.600  24.340  53.469  1.00  0.00     0.039 C 
BRANCH  13  17
ATOM     17  C   UNL     1      -9.354  27.238  53.692  1.00  0.00     0.066 CG0
ATOM     18  G   UNL     1      -8.715  28.562  53.345  1.00  0.00     0.000 G0
ENDBRANCH  13  17
ENDBRANCH  11  13
ENDBRANCH  10  11
ENDBRANCH   1  10
TORSDOF 0
ENDMDL
