MODEL 1
REMARK VINA RESULT:    -3.025      0.000      0.000
REMARK INTER + INTRA:          -3.506
REMARK INTER:                  -4.263
REMARK INTRA:                   0.757
REMARK UNBOUND:                 0.757
REMARK SMILES CC1=CCCC(C)=CCC(C)(C)C=CC1
REMARK SMILES IDX 2 1 3 2 1 3 4 4 5 5 6 6 7 7 8 8 15 10 14 11 13 12 10 13
REMARK SMILES IDX 11 14 12 15 9 16
REMARK H PARENT
REMARK Flexibility Score: 60.00
ROOT
ATOM      1  C   UNL     1     -12.988  82.215 -10.903  1.00  0.00    -0.074 C 
ATOM      2  C   UNL     1     -13.722  83.325 -11.169  1.00  0.00    -0.027 C 
ATOM      3  C   UNL     1     -12.717  81.275 -12.052  1.00  0.00     0.039 C 
ENDROOT
BRANCH   2   4
ATOM      4  C   UNL     1     -14.147  84.382 -10.175  1.00  0.00     0.032 C 
BRANCH   4   5
ATOM      5  C   UNL     1     -13.157  85.561 -10.073  1.00  0.00     0.034 C 
BRANCH   5   6
ATOM      6  C   UNL     1     -12.696  85.884  -8.660  1.00  0.00    -0.077 C 
ATOM      7  C   UNL     1     -13.602  86.694  -7.768  1.00  0.00     0.039 C 
ATOM      8  C   UNL     1     -11.516  85.467  -8.152  1.00  0.00    -0.027 CG0
ATOM      9  G   UNL     1     -10.483  84.660  -8.907  1.00  0.00     0.000 G0
ENDBRANCH   5   6
ENDBRANCH   4   5
ENDBRANCH   2   4
BRANCH   1  10
ATOM     10  C   UNL     1     -12.468  81.834  -9.522  1.00  0.00     0.057 C 
BRANCH  10  11
ATOM     11  C   UNL     1     -10.999  81.482  -9.574  1.00  0.00    -0.026 C 
ATOM     12  C   UNL     1      -9.968  82.126  -8.982  1.00  0.00    -0.024 C 
BRANCH  12  13
ATOM     13  C   UNL     1      -9.989  83.399  -8.120  1.00  0.00    -0.014 C 
ATOM     14  C   UNL     1     -10.860  83.167  -6.867  1.00  0.00     0.016 C 
ATOM     15  C   UNL     1      -8.544  83.659  -7.629  1.00  0.00     0.016 C 
BRANCH  13  16
ATOM     16  C   UNL     1     -10.474  84.666  -8.895  1.00  0.00     0.038 CG0
ATOM     17  G   UNL     1     -11.501  85.469  -8.126  1.00  0.00     0.000 G0
ENDBRANCH  13  16
ENDBRANCH  12  13
ENDBRANCH  10  11
ENDBRANCH   1  10
TORSDOF 0
ENDMDL
MODEL 2
REMARK VINA RESULT:    -2.936      1.563      2.093
REMARK INTER + INTRA:          -3.380
REMARK INTER:                  -4.489
REMARK INTRA:                   1.109
REMARK UNBOUND:                 0.757
REMARK SMILES CC1=CCCC(C)=CCC(C)(C)C=CC1
REMARK SMILES IDX 2 1 3 2 1 3 4 4 5 5 6 6 7 7 8 8 15 10 14 11 13 12 10 13
REMARK SMILES IDX 11 14 12 15 9 16
REMARK H PARENT
REMARK Flexibility Score: 60.00
ROOT
ATOM      1  C   UNL     1     -13.012  82.070 -11.180  1.00  0.00    -0.074 C 
ATOM      2  C   UNL     1     -13.736  83.217 -11.129  1.00  0.00    -0.027 C 
ATOM      3  C   UNL     1     -13.011  81.314 -12.487  1.00  0.00     0.039 C 
ENDROOT
BRANCH   2   4
ATOM      4  C   UNL     1     -13.915  84.114  -9.925  1.00  0.00     0.032 C 
BRANCH   4   5
ATOM      5  C   UNL     1     -12.585  84.667  -9.370  1.00  0.00     0.034 C 
BRANCH   5   6
ATOM      6  C   UNL     1     -12.573  84.908  -7.869  1.00  0.00    -0.077 C 
ATOM      7  C   UNL     1     -13.265  86.132  -7.324  1.00  0.00     0.039 C 
ATOM      8  C   UNL     1     -11.986  84.069  -6.988  1.00  0.00    -0.027 CG0
ATOM      9  G   UNL     1     -11.239  82.806  -7.358  1.00  0.00     0.000 G0
ENDBRANCH   5   6
ENDBRANCH   4   5
ENDBRANCH   2   4
BRANCH   1  10
ATOM     10  C   UNL     1     -12.250  81.476 -10.003  1.00  0.00     0.057 C 
BRANCH  10  11
ATOM     11  C   UNL     1     -13.200  80.958  -8.947  1.00  0.00    -0.026 C 
ATOM     12  C   UNL     1     -13.043  80.982  -7.605  1.00  0.00    -0.024 C 
BRANCH  12  13
ATOM     13  C   UNL     1     -11.860  81.510  -6.777  1.00  0.00    -0.014 C 
ATOM     14  C   UNL     1     -12.304  81.735  -5.316  1.00  0.00     0.016 C 
ATOM     15  C   UNL     1     -10.771  80.410  -6.757  1.00  0.00     0.016 C 
BRANCH  13  16
ATOM     16  C   UNL     1     -11.225  82.812  -7.361  1.00  0.00     0.038 CG0
ATOM     17  G   UNL     1     -11.995  84.061  -6.990  1.00  0.00     0.000 G0
ENDBRANCH  13  16
ENDBRANCH  12  13
ENDBRANCH  10  11
ENDBRANCH   1  10
TORSDOF 0
ENDMDL
MODEL 3
REMARK VINA RESULT:    -2.885      4.821      7.737
REMARK INTER + INTRA:          -3.309
REMARK INTER:                  -4.079
REMARK INTRA:                   0.771
REMARK UNBOUND:                 0.757
REMARK SMILES CC1=CCCC(C)=CCC(C)(C)C=CC1
REMARK SMILES IDX 2 1 3 2 1 3 4 4 5 5 6 6 7 7 8 8 15 10 14 11 13 12 10 13
REMARK SMILES IDX 11 14 12 15 9 16
REMARK H PARENT
REMARK Flexibility Score: 60.00
ROOT
ATOM      1  C   UNL     1      -7.069  83.845  -9.198  1.00  0.00    -0.074 C 
ATOM      2  C   UNL     1      -6.127  82.978  -9.651  1.00  0.00    -0.027 C 
ATOM      3  C   UNL     1      -8.473  83.314  -9.036  1.00  0.00     0.039 C 
ENDROOT
BRANCH   2   4
ATOM      4  C   UNL     1      -4.675  83.292  -9.926  1.00  0.00     0.032 C 
BRANCH   4   5
ATOM      5  C   UNL     1      -3.700  82.556  -8.982  1.00  0.00     0.034 C 
BRANCH   5   6
ATOM      6  C   UNL     1      -3.961  82.776  -7.500  1.00  0.00    -0.077 C 
ATOM      7  C   UNL     1      -4.374  81.599  -6.653  1.00  0.00     0.039 C 
ATOM      8  C   UNL     1      -3.824  83.975  -6.893  1.00  0.00    -0.027 CG0
ATOM      9  G   UNL     1      -3.430  85.260  -7.589  1.00  0.00     0.000 G0
ENDBRANCH   5   6
ENDBRANCH   4   5
ENDBRANCH   2   4
BRANCH   1  10
ATOM     10  C   UNL     1      -6.815  85.316  -8.894  1.00  0.00     0.057 C 
BRANCH  10  11
ATOM     11  C   UNL     1      -6.764  85.562  -7.405  1.00  0.00    -0.026 C 
ATOM     12  C   UNL     1      -5.737  86.057  -6.678  1.00  0.00    -0.024 C 
BRANCH  12  13
ATOM     13  C   UNL     1      -4.336  86.483  -7.148  1.00  0.00    -0.014 C 
ATOM     14  C   UNL     1      -4.459  87.496  -8.306  1.00  0.00     0.016 C 
ATOM     15  C   UNL     1      -3.649  87.219  -5.972  1.00  0.00     0.016 C 
BRANCH  13  16
ATOM     16  C   UNL     1      -3.429  85.282  -7.566  1.00  0.00     0.038 CG0
ATOM     17  G   UNL     1      -3.817  83.986  -6.887  1.00  0.00     0.000 G0
ENDBRANCH  13  16
ENDBRANCH  12  13
ENDBRANCH  10  11
ENDBRANCH   1  10
TORSDOF 0
ENDMDL
MODEL 4
REMARK VINA RESULT:    -2.813      4.842      7.542
REMARK INTER + INTRA:          -3.207
REMARK INTER:                  -3.983
REMARK INTRA:                   0.775
REMARK UNBOUND:                 0.757
REMARK SMILES CC1=CCCC(C)=CCC(C)(C)C=CC1
REMARK SMILES IDX 2 1 3 2 1 3 4 4 5 5 6 6 7 7 8 8 15 10 14 11 13 12 10 13
REMARK SMILES IDX 11 14 12 15 9 16
REMARK H PARENT
REMARK Flexibility Score: 60.00
ROOT
ATOM      1  C   UNL     1      -4.431  84.320  -9.060  1.00  0.00    -0.074 C 
ATOM      2  C   UNL     1      -3.533  84.861  -8.198  1.00  0.00    -0.027 C 
ATOM      3  C   UNL     1      -4.568  82.817  -9.059  1.00  0.00     0.039 C 
ENDROOT
BRANCH   2   4
ATOM      4  C   UNL     1      -3.199  86.328  -8.050  1.00  0.00     0.032 C 
BRANCH   4   5
ATOM      5  C   UNL     1      -4.123  87.070  -7.062  1.00  0.00     0.034 C 
BRANCH   5   6
ATOM      6  C   UNL     1      -4.792  88.314  -7.627  1.00  0.00    -0.077 C 
ATOM      7  C   UNL     1      -3.972  89.569  -7.788  1.00  0.00     0.039 C 
ATOM      8  C   UNL     1      -6.086  88.351  -8.010  1.00  0.00    -0.027 CG0
ATOM      9  G   UNL     1      -7.054  87.192  -7.908  1.00  0.00     0.000 G0
ENDBRANCH   5   6
ENDBRANCH   4   5
ENDBRANCH   2   4
BRANCH   1  10
ATOM     10  C   UNL     1      -5.264  85.119 -10.054  1.00  0.00     0.057 C 
BRANCH  10  11
ATOM     11  C   UNL     1      -6.713  84.695 -10.013  1.00  0.00    -0.026 C 
ATOM     12  C   UNL     1      -7.789  85.442  -9.676  1.00  0.00    -0.024 C 
BRANCH  12  13
ATOM     13  C   UNL     1      -7.844  86.909  -9.219  1.00  0.00    -0.014 C 
ATOM     14  C   UNL     1      -7.342  87.828 -10.354  1.00  0.00     0.016 C 
ATOM     15  C   UNL     1      -9.329  87.268  -8.966  1.00  0.00     0.016 C 
BRANCH  13  16
ATOM     16  C   UNL     1      -7.047  87.180  -7.904  1.00  0.00     0.038 CG0
ATOM     17  G   UNL     1      -6.083  88.340  -8.028  1.00  0.00     0.000 G0
ENDBRANCH  13  16
ENDBRANCH  12  13
ENDBRANCH  10  11
ENDBRANCH   1  10
TORSDOF 0
ENDMDL
MODEL 5
REMARK VINA RESULT:    -2.770      4.767      7.152
REMARK INTER + INTRA:          -3.147
REMARK INTER:                  -4.172
REMARK INTRA:                   1.025
REMARK UNBOUND:                 0.757
REMARK SMILES CC1=CCCC(C)=CCC(C)(C)C=CC1
REMARK SMILES IDX 2 1 3 2 1 3 4 4 5 5 6 6 7 7 8 8 15 10 14 11 13 12 10 13
REMARK SMILES IDX 11 14 12 15 9 16
REMARK H PARENT
REMARK Flexibility Score: 60.00
ROOT
ATOM      1  C   UNL     1      -4.258  83.558  -9.308  1.00  0.00    -0.074 C 
ATOM      2  C   UNL     1      -5.453  83.853  -9.879  1.00  0.00    -0.027 C 
ATOM      3  C   UNL     1      -3.830  82.110  -9.314  1.00  0.00     0.039 C 
ENDROOT
BRANCH   2   4
ATOM      4  C   UNL     1      -6.099  85.217  -9.956  1.00  0.00     0.032 C 
BRANCH   4   5
ATOM      5  C   UNL     1      -7.522  85.256  -9.359  1.00  0.00     0.034 C 
BRANCH   5   6
ATOM      6  C   UNL     1      -7.575  85.209  -7.840  1.00  0.00    -0.077 C 
ATOM      7  C   UNL     1      -8.526  84.245  -7.176  1.00  0.00     0.039 C 
ATOM      8  C   UNL     1      -6.799  85.978  -7.046  1.00  0.00    -0.027 CG0
ATOM      9  G   UNL     1      -5.803  87.004  -7.540  1.00  0.00     0.000 G0
ENDBRANCH   5   6
ENDBRANCH   4   5
ENDBRANCH   2   4
BRANCH   1  10
ATOM     10  C   UNL     1      -3.353  84.574  -8.623  1.00  0.00     0.057 C 
BRANCH  10  11
ATOM     11  C   UNL     1      -3.549  84.553  -7.125  1.00  0.00    -0.026 C 
ATOM     12  C   UNL     1      -4.014  85.545  -6.333  1.00  0.00    -0.024 C 
BRANCH  12  13
ATOM     13  C   UNL     1      -4.447  86.969  -6.718  1.00  0.00    -0.014 C 
ATOM     14  C   UNL     1      -4.541  87.846  -5.451  1.00  0.00     0.016 C 
ATOM     15  C   UNL     1      -3.334  87.574  -7.609  1.00  0.00     0.016 C 
BRANCH  13  16
ATOM     16  C   UNL     1      -5.788  87.016  -7.516  1.00  0.00     0.038 CG0
ATOM     17  G   UNL     1      -6.789  85.982  -7.049  1.00  0.00     0.000 G0
ENDBRANCH  13  16
ENDBRANCH  12  13
ENDBRANCH  10  11
ENDBRANCH   1  10
TORSDOF 0
ENDMDL
MODEL 6
REMARK VINA RESULT:    -2.731      5.887      7.853
REMARK INTER + INTRA:          -3.091
REMARK INTER:                  -3.854
REMARK INTRA:                   0.763
REMARK UNBOUND:                 0.757
REMARK SMILES CC1=CCCC(C)=CCC(C)(C)C=CC1
REMARK SMILES IDX 2 1 3 2 1 3 4 4 5 5 6 6 7 7 8 8 15 10 14 11 13 12 10 13
REMARK SMILES IDX 11 14 12 15 9 16
REMARK H PARENT
REMARK Flexibility Score: 60.00
ROOT
ATOM      1  C   UNL     1      -4.814  84.373  -9.400  1.00  0.00    -0.074 C 
ATOM      2  C   UNL     1      -3.728  84.597  -8.617  1.00  0.00    -0.027 C 
ATOM      3  C   UNL     1      -5.195  82.934  -9.655  1.00  0.00     0.039 C 
ENDROOT
BRANCH   2   4
ATOM      4  C   UNL     1      -3.141  85.943  -8.259  1.00  0.00     0.032 C 
BRANCH   4   5
ATOM      5  C   UNL     1      -3.231  86.268  -6.753  1.00  0.00     0.034 C 
BRANCH   5   6
ATOM      6  C   UNL     1      -4.634  86.203  -6.170  1.00  0.00    -0.077 C 
ATOM      7  C   UNL     1      -4.943  85.149  -5.137  1.00  0.00     0.039 C 
ATOM      8  C   UNL     1      -5.622  87.055  -6.518  1.00  0.00    -0.027 CG0
ATOM      9  G   UNL     1      -5.493  88.161  -7.543  1.00  0.00     0.000 G0
ENDBRANCH   5   6
ENDBRANCH   4   5
ENDBRANCH   2   4
BRANCH   1  10
ATOM     10  C   UNL     1      -5.635  85.466 -10.073  1.00  0.00     0.057 C 
BRANCH  10  11
ATOM     11  C   UNL     1      -6.938  85.693  -9.344  1.00  0.00    -0.026 C 
ATOM     12  C   UNL     1      -7.369  86.824  -8.742  1.00  0.00    -0.024 C 
BRANCH  12  13
ATOM     13  C   UNL     1      -6.655  88.179  -8.605  1.00  0.00    -0.014 C 
ATOM     14  C   UNL     1      -6.128  88.633  -9.984  1.00  0.00     0.016 C 
ATOM     15  C   UNL     1      -7.706  89.222  -8.155  1.00  0.00     0.016 C 
BRANCH  13  16
ATOM     16  C   UNL     1      -5.499  88.169  -7.555  1.00  0.00     0.038 CG0
ATOM     17  G   UNL     1      -5.636  87.057  -6.538  1.00  0.00     0.000 G0
ENDBRANCH  13  16
ENDBRANCH  12  13
ENDBRANCH  10  11
ENDBRANCH   1  10
TORSDOF 0
ENDMDL
MODEL 7
REMARK VINA RESULT:    -2.693      9.612     11.190
REMARK INTER + INTRA:          -3.038
REMARK INTER:                  -4.087
REMARK INTRA:                   1.049
REMARK UNBOUND:                 0.757
REMARK SMILES CC1=CCCC(C)=CCC(C)(C)C=CC1
REMARK SMILES IDX 2 1 3 2 1 3 4 4 5 5 6 6 7 7 8 8 15 10 14 11 13 12 10 13
REMARK SMILES IDX 11 14 12 15 9 16
REMARK H PARENT
REMARK Flexibility Score: 60.00
ROOT
ATOM      1  C   UNL     1      -5.239  91.014 -11.139  1.00  0.00    -0.074 C 
ATOM      2  C   UNL     1      -6.193  90.049 -11.162  1.00  0.00    -0.027 C 
ATOM      3  C   UNL     1      -5.391  92.108 -10.110  1.00  0.00     0.039 C 
ENDROOT
BRANCH   2   4
ATOM      4  C   UNL     1      -6.270  88.884 -12.122  1.00  0.00     0.032 C 
BRANCH   4   5
ATOM      5  C   UNL     1      -7.301  89.088 -13.252  1.00  0.00     0.034 C 
BRANCH   5   6
ATOM      6  C   UNL     1      -7.499  90.534 -13.680  1.00  0.00    -0.077 C 
ATOM      7  C   UNL     1      -8.693  91.290 -13.153  1.00  0.00     0.039 C 
ATOM      8  C   UNL     1      -6.648  91.188 -14.498  1.00  0.00    -0.027 CG0
ATOM      9  G   UNL     1      -5.411  90.584 -15.126  1.00  0.00     0.000 G0
ENDBRANCH   5   6
ENDBRANCH   4   5
ENDBRANCH   2   4
BRANCH   1  10
ATOM     10  C   UNL     1      -4.065  91.092 -12.107  1.00  0.00     0.057 C 
BRANCH  10  11
ATOM     11  C   UNL     1      -4.047  92.417 -12.833  1.00  0.00    -0.026 C 
ATOM     12  C   UNL     1      -4.130  92.636 -14.165  1.00  0.00    -0.024 C 
BRANCH  12  13
ATOM     13  C   UNL     1      -4.237  91.615 -15.309  1.00  0.00    -0.014 C 
ATOM     14  C   UNL     1      -4.394  92.355 -16.655  1.00  0.00     0.016 C 
ATOM     15  C   UNL     1      -2.901  90.836 -15.371  1.00  0.00     0.016 C 
BRANCH  13  16
ATOM     16  C   UNL     1      -5.393  90.584 -15.115  1.00  0.00     0.038 CG0
ATOM     17  G   UNL     1      -6.641  91.201 -14.521  1.00  0.00     0.000 G0
ENDBRANCH  13  16
ENDBRANCH  12  13
ENDBRANCH  10  11
ENDBRANCH   1  10
TORSDOF 0
ENDMDL
MODEL 8
REMARK VINA RESULT:    -2.686      9.129     10.338
REMARK INTER + INTRA:          -3.028
REMARK INTER:                  -3.787
REMARK INTRA:                   0.759
REMARK UNBOUND:                 0.757
REMARK SMILES CC1=CCCC(C)=CCC(C)(C)C=CC1
REMARK SMILES IDX 2 1 3 2 1 3 4 4 5 5 6 6 7 7 8 8 15 10 14 11 13 12 10 13
REMARK SMILES IDX 11 14 12 15 9 16
REMARK H PARENT
REMARK Flexibility Score: 60.00
ROOT
ATOM      1  C   UNL     1      -5.357  90.069 -14.552  1.00  0.00    -0.074 C 
ATOM      2  C   UNL     1      -6.592  89.508 -14.513  1.00  0.00    -0.027 C 
ATOM      3  C   UNL     1      -4.721  90.244 -15.909  1.00  0.00     0.039 C 
ENDROOT
BRANCH   2   4
ATOM      4  C   UNL     1      -7.402  89.201 -13.275  1.00  0.00     0.032 C 
BRANCH   4   5
ATOM      5  C   UNL     1      -8.331  90.357 -12.849  1.00  0.00     0.034 C 
BRANCH   5   6
ATOM      6  C   UNL     1      -8.182  90.793 -11.399  1.00  0.00    -0.077 C 
ATOM      7  C   UNL     1      -8.839  89.969 -10.321  1.00  0.00     0.039 C 
ATOM      8  C   UNL     1      -7.472  91.878 -11.021  1.00  0.00    -0.027 CG0
ATOM      9  G   UNL     1      -6.760  92.821 -11.966  1.00  0.00     0.000 G0
ENDBRANCH   5   6
ENDBRANCH   4   5
ENDBRANCH   2   4
BRANCH   1  10
ATOM     10  C   UNL     1      -4.558  90.483 -13.322  1.00  0.00     0.057 C 
BRANCH  10  11
ATOM     11  C   UNL     1      -4.010  91.883 -13.478  1.00  0.00    -0.026 C 
ATOM     12  C   UNL     1      -4.303  92.977 -12.740  1.00  0.00    -0.024 C 
BRANCH  12  13
ATOM     13  C   UNL     1      -5.285  93.118 -11.565  1.00  0.00    -0.014 C 
ATOM     14  C   UNL     1      -4.846  92.198 -10.406  1.00  0.00     0.016 C 
ATOM     15  C   UNL     1      -5.195  94.575 -11.049  1.00  0.00     0.016 C 
BRANCH  13  16
ATOM     16  C   UNL     1      -6.769  92.831 -11.958  1.00  0.00     0.038 CG0
ATOM     17  G   UNL     1      -7.455  91.873 -11.009  1.00  0.00     0.000 G0
ENDBRANCH  13  16
ENDBRANCH  12  13
ENDBRANCH  10  11
ENDBRANCH   1  10
TORSDOF 0
ENDMDL
MODEL 9
REMARK VINA RESULT:    -2.613      9.052     10.619
REMARK INTER + INTRA:          -2.925
REMARK INTER:                  -3.702
REMARK INTRA:                   0.776
REMARK UNBOUND:                 0.757
REMARK SMILES CC1=CCCC(C)=CCC(C)(C)C=CC1
REMARK SMILES IDX 2 1 3 2 1 3 4 4 5 5 6 6 7 7 8 8 15 10 14 11 13 12 10 13
REMARK SMILES IDX 11 14 12 15 9 16
REMARK H PARENT
REMARK Flexibility Score: 60.00
ROOT
ATOM      1  C   UNL     1      -4.678  92.723 -12.159  1.00  0.00    -0.074 C 
ATOM      2  C   UNL     1      -4.062  93.657 -11.391  1.00  0.00    -0.027 C 
ATOM      3  C   UNL     1      -4.045  92.398 -13.491  1.00  0.00     0.039 C 
ENDROOT
BRANCH   2   4
ATOM      4  C   UNL     1      -4.530  94.168 -10.048  1.00  0.00     0.032 C 
BRANCH   4   5
ATOM      5  C   UNL     1      -3.928  93.395  -8.855  1.00  0.00     0.034 C 
BRANCH   5   6
ATOM      6  C   UNL     1      -4.950  92.816  -7.890  1.00  0.00    -0.077 C 
ATOM      7  C   UNL     1      -5.554  93.718  -6.843  1.00  0.00     0.039 C 
ATOM      8  C   UNL     1      -5.364  91.531  -7.931  1.00  0.00    -0.027 CG0
ATOM      9  G   UNL     1      -4.858  90.488  -8.903  1.00  0.00     0.000 G0
ENDBRANCH   5   6
ENDBRANCH   4   5
ENDBRANCH   2   4
BRANCH   1  10
ATOM     10  C   UNL     1      -5.981  92.024 -11.791  1.00  0.00     0.057 C 
BRANCH  10  11
ATOM     11  C   UNL     1      -5.881  90.534 -12.015  1.00  0.00    -0.026 C 
ATOM     12  C   UNL     1      -5.912  89.550 -11.089  1.00  0.00    -0.024 C 
BRANCH  12  13
ATOM     13  C   UNL     1      -6.031  89.663  -9.560  1.00  0.00    -0.014 C 
ATOM     14  C   UNL     1      -7.397  90.280  -9.188  1.00  0.00     0.016 C 
ATOM     15  C   UNL     1      -6.006  88.228  -8.978  1.00  0.00     0.016 C 
BRANCH  13  16
ATOM     16  C   UNL     1      -4.869  90.474  -8.905  1.00  0.00     0.038 CG0
ATOM     17  G   UNL     1      -5.358  91.517  -7.924  1.00  0.00     0.000 G0
ENDBRANCH  13  16
ENDBRANCH  12  13
ENDBRANCH  10  11
ENDBRANCH   1  10
TORSDOF 0
ENDMDL
