MODEL 1
REMARK VINA RESULT:    -6.445      0.000      0.000
REMARK INTER + INTRA:          -6.995
REMARK INTER:                  -6.821
REMARK INTRA:                  -0.174
REMARK UNBOUND:                -0.174
REMARK SMILES C=C(C)[C@@H]1CC[C@]2(C)CCCC(=C)[C@H]2C1
REMARK SMILES IDX 4 1 5 2 6 3 7 4 9 5 10 6 11 7 12 8 13 9 14 10 15 11 8 12
REMARK SMILES IDX 2 13 3 14 1 15
REMARK H PARENT
REMARK Flexibility Score: inf
ROOT
ATOM      1  C   UNL     1     -39.938 -47.561  29.005  1.00  0.00     0.015 C 
ATOM      2  C   UNL     1     -40.118 -49.031  29.425  1.00  0.00     0.008 C 
ATOM      3  C   UNL     1     -41.602 -49.446  29.433  1.00  0.00     0.008 C 
ATOM      4  C   UNL     1     -42.442 -48.889  28.227  1.00  0.00    -0.026 C 
ATOM      5  C   UNL     1     -43.328 -50.040  27.662  1.00  0.00     0.008 C 
ATOM      6  C   UNL     1     -44.131 -49.629  26.417  1.00  0.00     0.005 C 
ATOM      7  C   UNL     1     -43.222 -49.099  25.305  1.00  0.00     0.031 C 
ATOM      8  C   UNL     1     -42.286 -48.033  25.830  1.00  0.00    -0.074 C 
ATOM      9  C   UNL     1     -42.078 -46.923  25.096  1.00  0.00     0.008 C 
ATOM     10  C   UNL     1     -41.494 -48.376  27.093  1.00  0.00     0.021 C 
ATOM     11  C   UNL     1     -40.543 -47.260  27.604  1.00  0.00     0.016 C 
ATOM     12  C   UNL     1     -43.359 -47.743  28.739  1.00  0.00     0.012 C 
ENDROOT
BRANCH   1  13
ATOM     13  C   UNL     1     -38.475 -47.144  29.088  1.00  0.00    -0.077 C 
ATOM     14  C   UNL     1     -37.383 -48.127  28.756  1.00  0.00     0.039 C 
ATOM     15  C   UNL     1     -38.129 -45.897  29.453  1.00  0.00     0.008 C 
ENDBRANCH   1  13
TORSDOF 1
ENDMDL
MODEL 2
REMARK VINA RESULT:    -6.311     10.088     13.770
REMARK INTER + INTRA:          -6.853
REMARK INTER:                  -6.681
REMARK INTRA:                  -0.172
REMARK UNBOUND:                -0.174
REMARK SMILES C=C(C)[C@@H]1CC[C@]2(C)CCCC(=C)[C@H]2C1
REMARK SMILES IDX 4 1 5 2 6 3 7 4 9 5 10 6 11 7 12 8 13 9 14 10 15 11 8 12
REMARK SMILES IDX 2 13 3 14 1 15
REMARK H PARENT
REMARK Flexibility Score: inf
ROOT
ATOM      1  C   UNL     1     -54.153 -47.624  21.100  1.00  0.00     0.015 C 
ATOM      2  C   UNL     1     -53.834 -49.045  20.603  1.00  0.00     0.008 C 
ATOM      3  C   UNL     1     -52.317 -49.312  20.568  1.00  0.00     0.008 C 
ATOM      4  C   UNL     1     -51.524 -48.738  21.798  1.00  0.00    -0.026 C 
ATOM      5  C   UNL     1     -50.525 -49.823  22.299  1.00  0.00     0.008 C 
ATOM      6  C   UNL     1     -49.755 -49.400  23.560  1.00  0.00     0.005 C 
ATOM      7  C   UNL     1     -50.701 -49.020  24.702  1.00  0.00     0.031 C 
ATOM      8  C   UNL     1     -51.742 -48.025  24.237  1.00  0.00    -0.074 C 
ATOM      9  C   UNL     1     -52.051 -46.980  25.028  1.00  0.00     0.008 C 
ATOM     10  C   UNL     1     -52.508 -48.379  22.961  1.00  0.00     0.021 C 
ATOM     11  C   UNL     1     -53.568 -47.337  22.512  1.00  0.00     0.016 C 
ATOM     12  C   UNL     1     -50.729 -47.482  21.342  1.00  0.00     0.012 C 
ENDROOT
BRANCH   1  13
ATOM     13  C   UNL     1     -55.651 -47.348  21.044  1.00  0.00    -0.077 C 
ATOM     14  C   UNL     1     -56.635 -48.490  21.049  1.00  0.00     0.039 C 
ATOM     15  C   UNL     1     -56.124 -46.091  20.995  1.00  0.00     0.008 C 
ENDBRANCH   1  13
TORSDOF 1
ENDMDL
MODEL 3
REMARK VINA RESULT:    -6.249      1.178      2.762
REMARK INTER + INTRA:          -6.788
REMARK INTER:                  -6.615
REMARK INTRA:                  -0.173
REMARK UNBOUND:                -0.174
REMARK SMILES C=C(C)[C@@H]1CC[C@]2(C)CCCC(=C)[C@H]2C1
REMARK SMILES IDX 4 1 5 2 6 3 7 4 9 5 10 6 11 7 12 8 13 9 14 10 15 11 8 12
REMARK SMILES IDX 2 13 3 14 1 15
REMARK H PARENT
REMARK Flexibility Score: inf
ROOT
ATOM      1  C   UNL     1     -39.714 -47.606  28.047  1.00  0.00     0.015 C 
ATOM      2  C   UNL     1     -40.646 -46.384  28.136  1.00  0.00     0.008 C 
ATOM      3  C   UNL     1     -41.950 -46.600  27.345  1.00  0.00     0.008 C 
ATOM      4  C   UNL     1     -42.566 -48.040  27.481  1.00  0.00    -0.026 C 
ATOM      5  C   UNL     1     -44.100 -47.907  27.716  1.00  0.00     0.008 C 
ATOM      6  C   UNL     1     -44.795 -49.258  27.951  1.00  0.00     0.005 C 
ATOM      7  C   UNL     1     -44.170 -50.021  29.122  1.00  0.00     0.031 C 
ATOM      8  C   UNL     1     -42.666 -50.103  28.975  1.00  0.00    -0.074 C 
ATOM      9  C   UNL     1     -42.044 -51.267  29.246  1.00  0.00     0.008 C 
ATOM     10  C   UNL     1     -41.931 -48.791  28.697  1.00  0.00     0.021 C 
ATOM     11  C   UNL     1     -40.389 -48.913  28.553  1.00  0.00     0.016 C 
ATOM     12  C   UNL     1     -42.316 -48.820  26.159  1.00  0.00     0.012 C 
ENDROOT
BRANCH   1  13
ATOM     13  C   UNL     1     -38.394 -47.340  28.760  1.00  0.00    -0.077 C 
ATOM     14  C   UNL     1     -37.316 -48.393  28.782  1.00  0.00     0.039 C 
ATOM     15  C   UNL     1     -38.162 -46.168  29.375  1.00  0.00     0.008 C 
ENDBRANCH   1  13
TORSDOF 1
ENDMDL
MODEL 4
REMARK VINA RESULT:    -6.122     10.365     13.960
REMARK INTER + INTRA:          -6.653
REMARK INTER:                  -6.482
REMARK INTRA:                  -0.171
REMARK UNBOUND:                -0.174
REMARK SMILES C=C(C)[C@@H]1CC[C@]2(C)CCCC(=C)[C@H]2C1
REMARK SMILES IDX 4 1 5 2 6 3 7 4 9 5 10 6 11 7 12 8 13 9 14 10 15 11 8 12
REMARK SMILES IDX 2 13 3 14 1 15
REMARK H PARENT
REMARK Flexibility Score: inf
ROOT
ATOM      1  C   UNL     1     -54.610 -47.673  21.960  1.00  0.00     0.015 C 
ATOM      2  C   UNL     1     -53.805 -46.371  22.123  1.00  0.00     0.008 C 
ATOM      3  C   UNL     1     -52.521 -46.590  22.946  1.00  0.00     0.008 C 
ATOM      4  C   UNL     1     -51.756 -47.924  22.619  1.00  0.00    -0.026 C 
ATOM      5  C   UNL     1     -50.234 -47.610  22.500  1.00  0.00     0.008 C 
ATOM      6  C   UNL     1     -49.395 -48.833  22.093  1.00  0.00     0.005 C 
ATOM      7  C   UNL     1     -49.888 -49.448  20.780  1.00  0.00     0.031 C 
ATOM      8  C   UNL     1     -51.380 -49.694  20.822  1.00  0.00    -0.074 C 
ATOM      9  C   UNL     1     -51.868 -50.851  20.333  1.00  0.00     0.008 C 
ATOM     10  C   UNL     1     -52.257 -48.521  21.262  1.00  0.00     0.021 C 
ATOM     11  C   UNL     1     -53.783 -48.809  21.294  1.00  0.00     0.016 C 
ATOM     12  C   UNL     1     -51.981 -48.931  23.781  1.00  0.00     0.012 C 
ENDROOT
BRANCH   1  13
ATOM     13  C   UNL     1     -55.918 -47.419  21.222  1.00  0.00    -0.077 C 
ATOM     14  C   UNL     1     -56.254 -46.037  20.722  1.00  0.00     0.039 C 
ATOM     15  C   UNL     1     -56.792 -48.415  20.996  1.00  0.00     0.008 C 
ENDBRANCH   1  13
TORSDOF 1
ENDMDL
MODEL 5
REMARK VINA RESULT:    -6.069      3.235      5.857
REMARK INTER + INTRA:          -6.598
REMARK INTER:                  -6.410
REMARK INTRA:                  -0.188
REMARK UNBOUND:                -0.174
REMARK SMILES C=C(C)[C@@H]1CC[C@]2(C)CCCC(=C)[C@H]2C1
REMARK SMILES IDX 4 1 5 2 6 3 7 4 9 5 10 6 11 7 12 8 13 9 14 10 15 11 8 12
REMARK SMILES IDX 2 13 3 14 1 15
REMARK H PARENT
REMARK Flexibility Score: inf
ROOT
ATOM      1  C   UNL     1     -44.630 -51.220  31.317  1.00  0.00     0.015 C 
ATOM      2  C   UNL     1     -43.499 -50.960  32.329  1.00  0.00     0.008 C 
ATOM      3  C   UNL     1     -42.110 -51.034  31.665  1.00  0.00     0.008 C 
ATOM      4  C   UNL     1     -42.030 -50.368  30.244  1.00  0.00    -0.026 C 
ATOM      5  C   UNL     1     -40.734 -49.506  30.168  1.00  0.00     0.008 C 
ATOM      6  C   UNL     1     -40.597 -48.735  28.846  1.00  0.00     0.005 C 
ATOM      7  C   UNL     1     -41.812 -47.842  28.581  1.00  0.00     0.031 C 
ATOM      8  C   UNL     1     -43.100 -48.622  28.724  1.00  0.00    -0.074 C 
ATOM      9  C   UNL     1     -44.082 -48.441  27.819  1.00  0.00     0.008 C 
ATOM     10  C   UNL     1     -43.268 -49.441  30.005  1.00  0.00     0.021 C 
ATOM     11  C   UNL     1     -44.602 -50.229  30.119  1.00  0.00     0.016 C 
ATOM     12  C   UNL     1     -41.963 -51.488  29.167  1.00  0.00     0.012 C 
ENDROOT
BRANCH   1  13
ATOM     13  C   UNL     1     -45.989 -51.232  32.007  1.00  0.00    -0.077 C 
ATOM     14  C   UNL     1     -47.000 -50.153  31.716  1.00  0.00     0.039 C 
ATOM     15  C   UNL     1     -46.315 -52.201  32.880  1.00  0.00     0.008 C 
ENDBRANCH   1  13
TORSDOF 1
ENDMDL
MODEL 6
REMARK VINA RESULT:    -5.826     11.050     13.267
REMARK INTER + INTRA:          -6.341
REMARK INTER:                  -6.159
REMARK INTRA:                  -0.182
REMARK UNBOUND:                -0.174
REMARK SMILES C=C(C)[C@@H]1CC[C@]2(C)CCCC(=C)[C@H]2C1
REMARK SMILES IDX 4 1 5 2 6 3 7 4 9 5 10 6 11 7 12 8 13 9 14 10 15 11 8 12
REMARK SMILES IDX 2 13 3 14 1 15
REMARK H PARENT
REMARK Flexibility Score: inf
ROOT
ATOM      1  C   UNL     1     -50.226 -49.694  19.901  1.00  0.00     0.015 C 
ATOM      2  C   UNL     1     -50.423 -48.202  19.575  1.00  0.00     0.008 C 
ATOM      3  C   UNL     1     -49.120 -47.550  19.073  1.00  0.00     0.008 C 
ATOM      4  C   UNL     1     -48.281 -48.443  18.088  1.00  0.00    -0.026 C 
ATOM      5  C   UNL     1     -47.811 -47.561  16.893  1.00  0.00     0.008 C 
ATOM      6  C   UNL     1     -47.051 -48.355  15.817  1.00  0.00     0.005 C 
ATOM      7  C   UNL     1     -47.881 -49.527  15.285  1.00  0.00     0.031 C 
ATOM      8  C   UNL     1     -48.427 -50.366  16.419  1.00  0.00    -0.074 C 
ATOM      9  C   UNL     1     -48.388 -51.709  16.320  1.00  0.00     0.008 C 
ATOM     10  C   UNL     1     -49.155 -49.618  17.538  1.00  0.00     0.021 C 
ATOM     11  C   UNL     1     -49.702 -50.509  18.686  1.00  0.00     0.016 C 
ATOM     12  C   UNL     1     -47.035 -48.989  18.842  1.00  0.00     0.012 C 
ENDROOT
BRANCH   1  13
ATOM     13  C   UNL     1     -51.500 -50.299  20.480  1.00  0.00    -0.077 C 
ATOM     14  C   UNL     1     -52.403 -49.473  21.359  1.00  0.00     0.039 C 
ATOM     15  C   UNL     1     -51.846 -51.571  20.215  1.00  0.00     0.008 C 
ENDBRANCH   1  13
TORSDOF 1
ENDMDL
MODEL 7
REMARK VINA RESULT:    -5.803     10.604     13.096
REMARK INTER + INTRA:          -6.315
REMARK INTER:                  -6.128
REMARK INTRA:                  -0.187
REMARK UNBOUND:                -0.174
REMARK SMILES C=C(C)[C@@H]1CC[C@]2(C)CCCC(=C)[C@H]2C1
REMARK SMILES IDX 4 1 5 2 6 3 7 4 9 5 10 6 11 7 12 8 13 9 14 10 15 11 8 12
REMARK SMILES IDX 2 13 3 14 1 15
REMARK H PARENT
REMARK Flexibility Score: inf
ROOT
ATOM      1  C   UNL     1     -49.375 -50.748  18.344  1.00  0.00     0.015 C 
ATOM      2  C   UNL     1     -50.559 -50.391  17.428  1.00  0.00     0.008 C 
ATOM      3  C   UNL     1     -51.912 -50.581  18.141  1.00  0.00     0.008 C 
ATOM      4  C   UNL     1     -51.934 -50.102  19.638  1.00  0.00    -0.026 C 
ATOM      5  C   UNL     1     -53.240 -49.289  19.882  1.00  0.00     0.008 C 
ATOM      6  C   UNL     1     -53.326 -48.693  21.297  1.00  0.00     0.005 C 
ATOM      7  C   UNL     1     -52.115 -47.812  21.616  1.00  0.00     0.031 C 
ATOM      8  C   UNL     1     -50.822 -48.536  21.315  1.00  0.00    -0.074 C 
ATOM      9  C   UNL     1     -49.800 -48.446  22.189  1.00  0.00     0.008 C 
ATOM     10  C   UNL     1     -50.703 -49.183  19.934  1.00  0.00     0.021 C 
ATOM     11  C   UNL     1     -49.362 -49.918  19.659  1.00  0.00     0.016 C 
ATOM     12  C   UNL     1     -51.927 -51.350  20.565  1.00  0.00     0.012 C 
ENDROOT
BRANCH   1  13
ATOM     13  C   UNL     1     -48.052 -50.640  17.595  1.00  0.00    -0.077 C 
ATOM     14  C   UNL     1     -47.066 -49.555  17.945  1.00  0.00     0.039 C 
ATOM     15  C   UNL     1     -47.736 -51.507  16.617  1.00  0.00     0.008 C 
ENDBRANCH   1  13
TORSDOF 1
ENDMDL
MODEL 8
REMARK VINA RESULT:    -5.787      2.586      5.183
REMARK INTER + INTRA:          -6.298
REMARK INTER:                  -6.115
REMARK INTRA:                  -0.183
REMARK UNBOUND:                -0.174
REMARK SMILES C=C(C)[C@@H]1CC[C@]2(C)CCCC(=C)[C@H]2C1
REMARK SMILES IDX 4 1 5 2 6 3 7 4 9 5 10 6 11 7 12 8 13 9 14 10 15 11 8 12
REMARK SMILES IDX 2 13 3 14 1 15
REMARK H PARENT
REMARK Flexibility Score: inf
ROOT
ATOM      1  C   UNL     1     -44.201 -50.376  30.986  1.00  0.00     0.015 C 
ATOM      2  C   UNL     1     -44.747 -50.966  29.673  1.00  0.00     0.008 C 
ATOM      3  C   UNL     1     -44.639 -49.964  28.507  1.00  0.00     0.008 C 
ATOM      4  C   UNL     1     -43.300 -49.141  28.476  1.00  0.00    -0.026 C 
ATOM      5  C   UNL     1     -42.763 -49.117  27.013  1.00  0.00     0.008 C 
ATOM      6  C   UNL     1     -41.405 -48.410  26.879  1.00  0.00     0.005 C 
ATOM      7  C   UNL     1     -40.348 -49.033  27.795  1.00  0.00     0.031 C 
ATOM      8  C   UNL     1     -40.859 -49.150  29.213  1.00  0.00    -0.074 C 
ATOM      9  C   UNL     1     -40.043 -48.824  30.234  1.00  0.00     0.008 C 
ATOM     10  C   UNL     1     -42.227 -49.809  29.398  1.00  0.00     0.021 C 
ATOM     11  C   UNL     1     -42.721 -49.914  30.866  1.00  0.00     0.016 C 
ATOM     12  C   UNL     1     -43.593 -47.685  28.936  1.00  0.00     0.012 C 
ENDROOT
BRANCH   1  13
ATOM     13  C   UNL     1     -44.398 -51.346  32.145  1.00  0.00    -0.077 C 
ATOM     14  C   UNL     1     -45.651 -52.177  32.237  1.00  0.00     0.039 C 
ATOM     15  C   UNL     1     -43.461 -51.484  33.100  1.00  0.00     0.008 C 
ENDBRANCH   1  13
TORSDOF 1
ENDMDL
MODEL 9
REMARK VINA RESULT:    -5.726     10.099     13.154
REMARK INTER + INTRA:          -6.234
REMARK INTER:                  -6.061
REMARK INTRA:                  -0.174
REMARK UNBOUND:                -0.174
REMARK SMILES C=C(C)[C@@H]1CC[C@]2(C)CCCC(=C)[C@H]2C1
REMARK SMILES IDX 4 1 5 2 6 3 7 4 9 5 10 6 11 7 12 8 13 9 14 10 15 11 8 12
REMARK SMILES IDX 2 13 3 14 1 15
REMARK H PARENT
REMARK Flexibility Score: inf
ROOT
ATOM      1  C   UNL     1     -50.966 -49.374  21.820  1.00  0.00     0.015 C 
ATOM      2  C   UNL     1     -51.278 -49.407  20.313  1.00  0.00     0.008 C 
ATOM      3  C   UNL     1     -52.784 -49.596  20.045  1.00  0.00     0.008 C 
ATOM      4  C   UNL     1     -53.725 -48.777  21.001  1.00  0.00    -0.026 C 
ATOM      5  C   UNL     1     -54.844 -48.108  20.147  1.00  0.00     0.008 C 
ATOM      6  C   UNL     1     -55.776 -47.205  20.973  1.00  0.00     0.005 C 
ATOM      7  C   UNL     1     -54.998 -46.121  21.724  1.00  0.00     0.031 C 
ATOM      8  C   UNL     1     -53.848 -46.720  22.504  1.00  0.00    -0.074 C 
ATOM      9  C   UNL     1     -53.611 -46.288  23.757  1.00  0.00     0.008 C 
ATOM     10  C   UNL     1     -52.915 -47.660  21.738  1.00  0.00     0.021 C 
ATOM     11  C   UNL     1     -51.746 -48.256  22.569  1.00  0.00     0.016 C 
ATOM     12  C   UNL     1     -54.375 -49.752  22.023  1.00  0.00     0.012 C 
ENDROOT
BRANCH   1  13
ATOM     13  C   UNL     1     -49.465 -49.276  22.065  1.00  0.00    -0.077 C 
ATOM     14  C   UNL     1     -48.593 -48.471  21.136  1.00  0.00     0.039 C 
ATOM     15  C   UNL     1     -48.891 -49.897  23.111  1.00  0.00     0.008 C 
ENDBRANCH   1  13
TORSDOF 1
ENDMDL
