MODEL 1
REMARK VINA RESULT:     2.562      0.000      0.000
REMARK INTER + INTRA:           5.760
REMARK INTER:                   3.161
REMARK INTRA:                   2.598
REMARK UNBOUND:                 2.598
REMARK SMILES C=C1CC[C@@H]2[C@H]([C@@H]3[C@H](C)CC[C@@H]13)C2(C)C
REMARK SMILES IDX 3 1 2 2 1 3 12 4 9 5 8 6 10 7 7 8 11 9 4 11 5 12 6 13 13 14
REMARK SMILES IDX 14 16 15 17
REMARK H PARENT
REMARK Flexibility Score: 80.00
ROOT
ATOM      1  C   UNL     1     152.096 135.092 162.699  1.00  0.00     0.031 C 
ENDROOT
BRANCH   1   2
ATOM      2  C   UNL     1     153.441 135.674 163.081  1.00  0.00    -0.074 C 
ATOM      3  C   UNL     1     154.393 134.876 163.591  1.00  0.00     0.008 C 
BRANCH   2   4
ATOM      4  C   UNL     1     153.758 137.139 162.835  1.00  0.00     0.018 C 
ATOM      5  C   UNL     1     154.009 140.023 161.332  1.00  0.00     0.008 C 
ATOM      6  C   UNL     1     152.972 139.353 162.252  1.00  0.00    -0.010 C 
ATOM      7  C   UNL     1     153.437 139.394 163.720  1.00  0.00     0.004 C 
ATOM      8  C   UNL     1     152.729 137.858 161.969  1.00  0.00     0.003 CG0
ATOM      9  C   UNL     1     153.812 137.962 164.119  1.00  0.00     0.008 C 
ATOM     10  G   UNL     1     152.858 137.421 160.492  1.00  0.00     0.000 G0
ENDBRANCH   2   4
ENDBRANCH   1   2
BRANCH   1  11
ATOM     11  C   UNL     1     151.930 134.880 161.182  1.00  0.00     0.009 C 
BRANCH  11  12
ATOM     12  C   UNL     1     152.548 135.910 160.192  1.00  0.00    -0.001 C 
ATOM     13  C   UNL     1     152.851 137.397 160.489  1.00  0.00     0.002 CG0
ATOM     14  C   UNL     1     151.613 137.018 159.659  1.00  0.00    -0.029 C 
ATOM     15  G   UNL     1     152.727 137.870 161.955  1.00  0.00     0.000 G0
ATOM     16  C   UNL     1     151.749 137.348 158.168  1.00  0.00     0.011 C 
ATOM     17  C   UNL     1     150.222 137.271 160.273  1.00  0.00     0.011 C 
ENDBRANCH  11  12
ENDBRANCH   1  11
TORSDOF 0
ENDMDL
MODEL 2
REMARK VINA RESULT:     4.390      1.199      3.408
REMARK INTER + INTRA:           8.015
REMARK INTER:                   5.293
REMARK INTRA:                   2.722
REMARK UNBOUND:                 2.598
REMARK SMILES C=C1CC[C@@H]2[C@H]([C@@H]3[C@H](C)CC[C@@H]13)C2(C)C
REMARK SMILES IDX 3 1 2 2 1 3 12 4 9 5 8 6 10 7 7 8 11 9 4 11 5 12 6 13 13 14
REMARK SMILES IDX 14 16 15 17
REMARK H PARENT
REMARK Flexibility Score: 80.00
ROOT
ATOM      1  C   UNL     1     154.429 139.621 162.229  1.00  0.00     0.031 C 
ENDROOT
BRANCH   1   2
ATOM      2  C   UNL     1     154.193 138.902 163.542  1.00  0.00    -0.074 C 
ATOM      3  C   UNL     1     154.405 139.544 164.701  1.00  0.00     0.008 C 
BRANCH   2   4
ATOM      4  C   UNL     1     153.654 137.482 163.571  1.00  0.00     0.018 C 
ATOM      5  C   UNL     1     151.812 134.875 162.899  1.00  0.00     0.008 C 
ATOM      6  C   UNL     1     153.143 135.442 162.373  1.00  0.00    -0.010 C 
ATOM      7  C   UNL     1     154.294 135.134 163.350  1.00  0.00     0.004 C 
ATOM      8  C   UNL     1     153.175 136.975 162.215  1.00  0.00     0.003 CG0
ATOM      9  C   UNL     1     154.696 136.457 164.010  1.00  0.00     0.008 C 
ATOM     10  G   UNL     1     151.836 137.641 161.825  1.00  0.00     0.000 G0
ENDBRANCH   2   4
ENDBRANCH   1   2
BRANCH   1  11
ATOM     11  C   UNL     1     153.130 140.075 161.539  1.00  0.00     0.009 C 
BRANCH  11  12
ATOM     12  C   UNL     1     151.866 139.169 161.611  1.00  0.00    -0.001 C 
ATOM     13  C   UNL     1     151.848 137.639 161.833  1.00  0.00     0.002 CG0
ATOM     14  C   UNL     1     151.621 138.211 160.424  1.00  0.00    -0.029 C 
ATOM     15  G   UNL     1     153.181 136.961 162.225  1.00  0.00     0.000 G0
ATOM     16  C   UNL     1     150.169 138.100 159.943  1.00  0.00     0.011 C 
ATOM     17  C   UNL     1     152.698 137.954 159.353  1.00  0.00     0.011 C 
ENDBRANCH  11  12
ENDBRANCH   1  11
TORSDOF 0
ENDMDL
MODEL 3
REMARK VINA RESULT:     5.058      1.126      3.488
REMARK INTER + INTRA:           8.840
REMARK INTER:                   6.562
REMARK INTRA:                   2.278
REMARK UNBOUND:                 2.598
REMARK SMILES C=C1CC[C@@H]2[C@H]([C@@H]3[C@H](C)CC[C@@H]13)C2(C)C
REMARK SMILES IDX 3 1 2 2 1 3 12 4 9 5 8 6 10 7 7 8 11 9 4 11 5 12 6 13 13 14
REMARK SMILES IDX 14 16 15 17
REMARK H PARENT
REMARK Flexibility Score: 80.00
ROOT
ATOM      1  C   UNL     1     150.768 135.802 160.826  1.00  0.00     0.031 C 
ENDROOT
BRANCH   1   2
ATOM      2  C   UNL     1     151.263 137.154 160.355  1.00  0.00    -0.074 C 
ATOM      3  C   UNL     1     151.116 137.508 159.069  1.00  0.00     0.008 C 
BRANCH   2   4
ATOM      4  C   UNL     1     151.866 138.151 161.331  1.00  0.00     0.018 C 
ATOM      5  C   UNL     1     153.616 139.365 163.802  1.00  0.00     0.008 C 
ATOM      6  C   UNL     1     153.844 139.162 162.293  1.00  0.00    -0.010 C 
ATOM      7  C   UNL     1     153.113 140.247 161.479  1.00  0.00     0.004 C 
ATOM      8  C   UNL     1     153.303 137.833 161.731  1.00  0.00     0.003 CG0
ATOM      9  C   UNL     1     151.935 139.568 160.771  1.00  0.00     0.008 C 
ATOM     10  G   UNL     1     153.347 136.625 162.695  1.00  0.00     0.000 G0
ENDBRANCH   2   4
ENDBRANCH   1   2
BRANCH   1  11
ATOM     11  C   UNL     1     151.886 134.901 161.383  1.00  0.00     0.009 C 
BRANCH  11  12
ATOM     12  C   UNL     1     152.687 135.360 162.637  1.00  0.00    -0.001 C 
ATOM     13  C   UNL     1     153.448 136.696 162.798  1.00  0.00     0.002 CG0
ATOM     14  C   UNL     1     154.226 135.402 162.509  1.00  0.00    -0.029 C 
ATOM     15  G   UNL     1     153.237 137.772 161.709  1.00  0.00     0.000 G0
ATOM     16  C   UNL     1     155.012 134.875 163.716  1.00  0.00     0.011 C 
ATOM     17  C   UNL     1     154.931 135.267 161.146  1.00  0.00     0.011 C 
ENDBRANCH  11  12
ENDBRANCH   1  11
TORSDOF 0
ENDMDL
MODEL 4
REMARK VINA RESULT:     5.204      1.218      3.122
REMARK INTER + INTRA:           9.019
REMARK INTER:                   5.762
REMARK INTRA:                   3.256
REMARK UNBOUND:                 2.598
REMARK SMILES C=C1CC[C@@H]2[C@H]([C@@H]3[C@H](C)CC[C@@H]13)C2(C)C
REMARK SMILES IDX 3 1 2 2 1 3 12 4 9 5 8 6 10 7 7 8 11 9 4 11 5 12 6 13 13 14
REMARK SMILES IDX 14 16 15 17
REMARK H PARENT
REMARK Flexibility Score: 80.00
ROOT
ATOM      1  C   UNL     1     151.537 139.311 160.828  1.00  0.00     0.031 C 
ENDROOT
BRANCH   1   2
ATOM      2  C   UNL     1     152.873 139.197 161.534  1.00  0.00    -0.074 C 
ATOM      3  C   UNL     1     153.748 140.214 161.473  1.00  0.00     0.008 C 
BRANCH   2   4
ATOM      4  C   UNL     1     153.215 137.977 162.371  1.00  0.00     0.018 C 
ATOM      5  C   UNL     1     153.367 134.875 163.370  1.00  0.00     0.008 C 
ATOM      6  C   UNL     1     154.255 135.795 162.513  1.00  0.00    -0.010 C 
ATOM      7  C   UNL     1     155.065 136.758 163.402  1.00  0.00     0.004 C 
ATOM      8  C   UNL     1     153.486 136.721 161.549  1.00  0.00     0.003 CG0
ATOM      9  C   UNL     1     154.478 138.161 163.206  1.00  0.00     0.008 C 
ATOM     10  G   UNL     1     152.169 136.150 160.974  1.00  0.00     0.000 G0
ENDBRANCH   2   4
ENDBRANCH   1   2
BRANCH   1  11
ATOM     11  C   UNL     1     150.525 138.233 161.256  1.00  0.00     0.009 C 
BRANCH  11  12
ATOM     12  C   UNL     1     150.805 136.739 160.916  1.00  0.00    -0.001 C 
ATOM     13  C   UNL     1     152.183 136.039 160.936  1.00  0.00     0.002 CG0
ATOM     14  C   UNL     1     151.551 136.448 159.596  1.00  0.00    -0.029 C 
ATOM     15  G   UNL     1     153.371 136.822 161.541  1.00  0.00     0.000 G0
ATOM     16  C   UNL     1     151.025 135.262 158.777  1.00  0.00     0.011 C 
ATOM     17  C   UNL     1     152.230 137.568 158.784  1.00  0.00     0.011 C 
ENDBRANCH  11  12
ENDBRANCH   1  11
TORSDOF 0
ENDMDL
