MODEL 1
REMARK VINA RESULT:    -4.571      0.000      0.000
REMARK INTER + INTRA:          -6.076
REMARK INTER:                  -5.774
REMARK INTRA:                  -0.303
REMARK UNBOUND:                -0.303
REMARK SMILES C=C[C@@](C)(O)CCC=C(C)C
REMARK SMILES IDX 6 1 7 2 8 3 10 4 9 5 11 6 3 7 4 8 2 9 1 10 5 11
REMARK H PARENT 5 12
REMARK Flexibility Score: inf
ROOT
ATOM      1  C   UNL     1      39.370 -41.190  -4.477  1.00  0.00     0.043 C 
ENDROOT
BRANCH   1   2
ATOM      2  C   UNL     1      40.258 -40.602  -5.589  1.00  0.00     0.030 C 
BRANCH   2   3
ATOM      3  C   UNL     1      41.490 -41.448  -5.791  1.00  0.00    -0.028 C 
ATOM      4  C   UNL     1      42.935 -39.964  -4.381  1.00  0.00     0.039 C 
ATOM      5  C   UNL     1      42.706 -41.162  -5.273  1.00  0.00    -0.080 C 
ATOM      6  C   UNL     1      43.856 -42.083  -5.589  1.00  0.00     0.039 C 
ENDBRANCH   2   3
ENDBRANCH   1   2
BRANCH   1   7
ATOM      7  C   UNL     1      37.915 -40.630  -4.455  1.00  0.00     0.080 C 
ATOM      8  C   UNL     1      37.709 -39.733  -3.221  1.00  0.00     0.047 C 
BRANCH   7   9
ATOM      9  C   UNL     1      37.603 -39.825  -5.711  1.00  0.00    -0.001 C 
ATOM     10  C   UNL     1      36.962 -38.651  -5.681  1.00  0.00     0.007 C 
ENDBRANCH   7   9
BRANCH   7  11
ATOM     11  O   UNL     1      36.999 -41.694  -4.341  1.00  0.00    -0.386 OA
ATOM     12  H   UNL     1      36.102 -41.321  -4.138  1.00  0.00     0.211 HD
ENDBRANCH   7  11
ENDBRANCH   1   7
TORSDOF 5
ENDMDL
MODEL 2
REMARK VINA RESULT:    -4.499      1.694      2.178
REMARK INTER + INTRA:          -5.985
REMARK INTER:                  -5.257
REMARK INTRA:                  -0.728
REMARK UNBOUND:                -0.303
REMARK SMILES C=C[C@@](C)(O)CCC=C(C)C
REMARK SMILES IDX 6 1 7 2 8 3 10 4 9 5 11 6 3 7 4 8 2 9 1 10 5 11
REMARK H PARENT 5 12
REMARK Flexibility Score: inf
ROOT
ATOM      1  C   UNL     1      39.307 -41.139  -4.205  1.00  0.00     0.043 C 
ENDROOT
BRANCH   1   2
ATOM      2  C   UNL     1      40.105 -40.537  -5.377  1.00  0.00     0.030 C 
BRANCH   2   3
ATOM      3  C   UNL     1      41.307 -41.388  -5.698  1.00  0.00    -0.028 C 
ATOM      4  C   UNL     1      42.877 -39.952  -4.375  1.00  0.00     0.039 C 
ATOM      5  C   UNL     1      42.564 -41.126  -5.273  1.00  0.00    -0.080 C 
ATOM      6  C   UNL     1      43.674 -42.051  -5.702  1.00  0.00     0.039 C 
ENDBRANCH   2   3
ENDBRANCH   1   2
BRANCH   1   7
ATOM      7  C   UNL     1      39.226 -40.224  -2.946  1.00  0.00     0.080 C 
ATOM      8  C   UNL     1      40.235 -40.694  -1.882  1.00  0.00     0.047 C 
BRANCH   7   9
ATOM      9  C   UNL     1      39.512 -38.767  -3.290  1.00  0.00    -0.001 C 
ATOM     10  C   UNL     1      40.255 -37.970  -2.514  1.00  0.00     0.007 C 
ENDBRANCH   7   9
BRANCH   7  11
ATOM     11  O   UNL     1      37.947 -40.327  -2.365  1.00  0.00    -0.386 OA
ATOM     12  H   UNL     1      37.271 -40.042  -3.034  1.00  0.00     0.211 HD
ENDBRANCH   7  11
ENDBRANCH   1   7
TORSDOF 5
ENDMDL
MODEL 3
REMARK VINA RESULT:    -4.395      1.455      2.059
REMARK INTER + INTRA:          -5.854
REMARK INTER:                  -5.514
REMARK INTRA:                  -0.341
REMARK UNBOUND:                -0.303
REMARK SMILES C=C[C@@](C)(O)CCC=C(C)C
REMARK SMILES IDX 6 1 7 2 8 3 10 4 9 5 11 6 3 7 4 8 2 9 1 10 5 11
REMARK H PARENT 5 12
REMARK Flexibility Score: inf
ROOT
ATOM      1  C   UNL     1      39.754 -39.553  -5.584  1.00  0.00     0.043 C 
ENDROOT
BRANCH   1   2
ATOM      2  C   UNL     1      40.178 -40.897  -4.963  1.00  0.00     0.030 C 
BRANCH   2   3
ATOM      3  C   UNL     1      41.412 -41.434  -5.643  1.00  0.00    -0.028 C 
ATOM      4  C   UNL     1      42.959 -40.559  -3.877  1.00  0.00     0.039 C 
ATOM      5  C   UNL     1      42.671 -41.271  -5.179  1.00  0.00    -0.080 C 
ATOM      6  C   UNL     1      43.812 -41.836  -5.984  1.00  0.00     0.039 C 
ENDBRANCH   2   3
ENDBRANCH   1   2
BRANCH   1   7
ATOM      7  C   UNL     1      38.226 -39.432  -5.871  1.00  0.00     0.080 C 
ATOM      8  C   UNL     1      37.959 -39.538  -7.384  1.00  0.00     0.047 C 
BRANCH   7   9
ATOM      9  C   UNL     1      37.431 -40.515  -5.150  1.00  0.00    -0.001 C 
ATOM     10  C   UNL     1      36.617 -40.253  -4.121  1.00  0.00     0.007 C 
ENDBRANCH   7   9
BRANCH   7  11
ATOM     11  O   UNL     1      37.766 -38.163  -5.466  1.00  0.00    -0.386 OA
ATOM     12  H   UNL     1      38.189 -37.935  -4.597  1.00  0.00     0.211 HD
ENDBRANCH   7  11
ENDBRANCH   1   7
TORSDOF 5
ENDMDL
MODEL 4
REMARK VINA RESULT:    -4.379      1.192      1.559
REMARK INTER + INTRA:          -5.833
REMARK INTER:                  -5.493
REMARK INTRA:                  -0.340
REMARK UNBOUND:                -0.303
REMARK SMILES C=C[C@@](C)(O)CCC=C(C)C
REMARK SMILES IDX 6 1 7 2 8 3 10 4 9 5 11 6 3 7 4 8 2 9 1 10 5 11
REMARK H PARENT 5 12
REMARK Flexibility Score: inf
ROOT
ATOM      1  C   UNL     1      39.597 -39.633  -5.616  1.00  0.00     0.043 C 
ENDROOT
BRANCH   1   2
ATOM      2  C   UNL     1      40.152 -40.865  -4.878  1.00  0.00     0.030 C 
BRANCH   2   3
ATOM      3  C   UNL     1      41.381 -41.395  -5.573  1.00  0.00    -0.028 C 
ATOM      4  C   UNL     1      42.949 -40.465  -3.854  1.00  0.00     0.039 C 
ATOM      5  C   UNL     1      42.647 -41.204  -5.137  1.00  0.00    -0.080 C 
ATOM      6  C   UNL     1      43.780 -41.766  -5.955  1.00  0.00     0.039 C 
ENDBRANCH   2   3
ENDBRANCH   1   2
BRANCH   1   7
ATOM      7  C   UNL     1      38.047 -39.630  -5.784  1.00  0.00     0.080 C 
ATOM      8  C   UNL     1      37.423 -38.507  -4.935  1.00  0.00     0.047 C 
BRANCH   7   9
ATOM      9  C   UNL     1      37.639 -39.436  -7.240  1.00  0.00    -0.001 C 
ATOM     10  C   UNL     1      38.503 -39.539  -8.256  1.00  0.00     0.007 C 
ENDBRANCH   7   9
BRANCH   7  11
ATOM     11  O   UNL     1      37.515 -40.844  -5.305  1.00  0.00    -0.386 OA
ATOM     12  H   UNL     1      38.199 -41.288  -4.738  1.00  0.00     0.211 HD
ENDBRANCH   7  11
ENDBRANCH   1   7
TORSDOF 5
ENDMDL
MODEL 5
REMARK VINA RESULT:    -4.297      2.200      5.349
REMARK INTER + INTRA:          -5.731
REMARK INTER:                  -5.411
REMARK INTRA:                  -0.320
REMARK UNBOUND:                -0.303
REMARK SMILES C=C[C@@](C)(O)CCC=C(C)C
REMARK SMILES IDX 6 1 7 2 8 3 10 4 9 5 11 6 3 7 4 8 2 9 1 10 5 11
REMARK H PARENT 5 12
REMARK Flexibility Score: inf
ROOT
ATOM      1  C   UNL     1      40.994 -40.295  -4.188  1.00  0.00     0.043 C 
ENDROOT
BRANCH   1   2
ATOM      2  C   UNL     1      40.279 -40.853  -5.433  1.00  0.00     0.030 C 
BRANCH   2   3
ATOM      3  C   UNL     1      39.314 -39.839  -5.994  1.00  0.00    -0.028 C 
ATOM      4  C   UNL     1      37.334 -40.846  -4.835  1.00  0.00     0.039 C 
ATOM      5  C   UNL     1      37.983 -39.836  -5.753  1.00  0.00    -0.080 C 
ATOM      6  C   UNL     1      37.137 -38.778  -6.411  1.00  0.00     0.039 C 
ENDBRANCH   2   3
ENDBRANCH   1   2
BRANCH   1   7
ATOM      7  C   UNL     1      42.549 -40.295  -4.287  1.00  0.00     0.080 C 
ATOM      8  C   UNL     1      43.168 -40.736  -2.948  1.00  0.00     0.047 C 
BRANCH   7   9
ATOM      9  C   UNL     1      43.042 -41.223  -5.391  1.00  0.00    -0.001 C 
ATOM     10  C   UNL     1      44.125 -41.998  -5.258  1.00  0.00     0.007 C 
ENDBRANCH   7   9
BRANCH   7  11
ATOM     11  O   UNL     1      43.009 -38.986  -4.535  1.00  0.00    -0.386 OA
ATOM     12  H   UNL     1      43.250 -38.565  -3.668  1.00  0.00     0.211 HD
ENDBRANCH   7  11
ENDBRANCH   1   7
TORSDOF 5
ENDMDL
MODEL 6
REMARK VINA RESULT:    -4.178      2.120      2.428
REMARK INTER + INTRA:          -5.580
REMARK INTER:                  -5.048
REMARK INTRA:                  -0.532
REMARK UNBOUND:                -0.303
REMARK SMILES C=C[C@@](C)(O)CCC=C(C)C
REMARK SMILES IDX 6 1 7 2 8 3 10 4 9 5 11 6 3 7 4 8 2 9 1 10 5 11
REMARK H PARENT 5 12
REMARK Flexibility Score: inf
ROOT
ATOM      1  C   UNL     1      39.356 -40.046  -6.148  1.00  0.00     0.043 C 
ENDROOT
BRANCH   1   2
ATOM      2  C   UNL     1      40.132 -40.861  -5.097  1.00  0.00     0.030 C 
BRANCH   2   3
ATOM      3  C   UNL     1      41.390 -41.442  -5.692  1.00  0.00    -0.028 C 
ATOM      4  C   UNL     1      42.876 -40.417  -3.955  1.00  0.00     0.039 C 
ATOM      5  C   UNL     1      42.633 -41.233  -5.203  1.00  0.00    -0.080 C 
ATOM      6  C   UNL     1      43.802 -41.853  -5.924  1.00  0.00     0.039 C 
ENDBRANCH   2   3
ENDBRANCH   1   2
BRANCH   1   7
ATOM      7  C   UNL     1      38.812 -38.681  -5.629  1.00  0.00     0.080 C 
ATOM      8  C   UNL     1      37.380 -38.851  -5.089  1.00  0.00     0.047 C 
BRANCH   7   9
ATOM      9  C   UNL     1      39.694 -38.108  -4.525  1.00  0.00    -0.001 C 
ATOM     10  C   UNL     1      40.702 -37.262  -4.768  1.00  0.00     0.007 C 
ENDBRANCH   7   9
BRANCH   7  11
ATOM     11  O   UNL     1      38.737 -37.763  -6.695  1.00  0.00    -0.386 OA
ATOM     12  H   UNL     1      39.442 -37.988  -7.357  1.00  0.00     0.211 HD
ENDBRANCH   7  11
ENDBRANCH   1   7
TORSDOF 5
ENDMDL
MODEL 7
REMARK VINA RESULT:    -4.165      1.281      1.860
REMARK INTER + INTRA:          -5.563
REMARK INTER:                  -5.055
REMARK INTRA:                  -0.508
REMARK UNBOUND:                -0.303
REMARK SMILES C=C[C@@](C)(O)CCC=C(C)C
REMARK SMILES IDX 6 1 7 2 8 3 10 4 9 5 11 6 3 7 4 8 2 9 1 10 5 11
REMARK H PARENT 5 12
REMARK Flexibility Score: inf
ROOT
ATOM      1  C   UNL     1      40.695 -40.169  -2.972  1.00  0.00     0.043 C 
ENDROOT
BRANCH   1   2
ATOM      2  C   UNL     1      41.529 -39.438  -4.041  1.00  0.00     0.030 C 
BRANCH   2   3
ATOM      3  C   UNL     1      42.735 -40.256  -4.430  1.00  0.00    -0.028 C 
ATOM      4  C   UNL     1      41.443 -41.695  -6.023  1.00  0.00     0.039 C 
ATOM      5  C   UNL     1      42.707 -41.288  -5.303  1.00  0.00    -0.080 C 
ATOM      6  C   UNL     1      43.988 -42.036  -5.570  1.00  0.00     0.039 C 
ENDBRANCH   2   3
ENDBRANCH   1   2
BRANCH   1   7
ATOM      7  C   UNL     1      39.173 -40.258  -3.296  1.00  0.00     0.080 C 
ATOM      8  C   UNL     1      38.348 -39.654  -2.146  1.00  0.00     0.047 C 
BRANCH   7   9
ATOM      9  C   UNL     1      38.830 -39.529  -4.590  1.00  0.00    -0.001 C 
ATOM     10  C   UNL     1      38.070 -40.070  -5.549  1.00  0.00     0.007 C 
ENDBRANCH   7   9
BRANCH   7  11
ATOM     11  O   UNL     1      38.789 -41.610  -3.404  1.00  0.00    -0.386 OA
ATOM     12  H   UNL     1      38.006 -41.766  -2.814  1.00  0.00     0.211 HD
ENDBRANCH   7  11
ENDBRANCH   1   7
TORSDOF 5
ENDMDL
MODEL 8
REMARK VINA RESULT:    -4.092      4.245      5.719
REMARK INTER + INTRA:          -5.471
REMARK INTER:                  -5.216
REMARK INTRA:                  -0.255
REMARK UNBOUND:                -0.303
REMARK SMILES C=C[C@@](C)(O)CCC=C(C)C
REMARK SMILES IDX 6 1 7 2 8 3 10 4 9 5 11 6 3 7 4 8 2 9 1 10 5 11
REMARK H PARENT 5 12
REMARK Flexibility Score: inf
ROOT
ATOM      1  C   UNL     1      42.488 -39.835  -1.143  1.00  0.00     0.043 C 
ENDROOT
BRANCH   1   2
ATOM      2  C   UNL     1      43.040 -40.214  -2.529  1.00  0.00     0.030 C 
BRANCH   2   3
ATOM      3  C   UNL     1      41.916 -40.436  -3.510  1.00  0.00    -0.028 C 
ATOM      4  C   UNL     1      43.432 -41.339  -5.288  1.00  0.00     0.039 C 
ATOM      5  C   UNL     1      42.079 -40.920  -4.762  1.00  0.00    -0.080 C 
ATOM      6  C   UNL     1      40.864 -41.056  -5.643  1.00  0.00     0.039 C 
ENDBRANCH   2   3
ENDBRANCH   1   2
BRANCH   1   7
ATOM      7  C   UNL     1      42.828 -40.855  -0.015  1.00  0.00     0.080 C 
ATOM      8  C   UNL     1      43.291 -40.114   1.252  1.00  0.00     0.047 C 
BRANCH   7   9
ATOM      9  C   UNL     1      41.629 -41.730   0.332  1.00  0.00    -0.001 C 
ATOM     10  C   UNL     1      41.744 -42.896   0.979  1.00  0.00     0.007 C 
ENDBRANCH   7   9
BRANCH   7  11
ATOM     11  O   UNL     1      43.902 -41.672  -0.422  1.00  0.00    -0.386 OA
ATOM     12  H   UNL     1      44.668 -41.090  -0.667  1.00  0.00     0.211 HD
ENDBRANCH   7  11
ENDBRANCH   1   7
TORSDOF 5
ENDMDL
MODEL 9
REMARK VINA RESULT:    -4.079      3.621      4.987
REMARK INTER + INTRA:          -5.455
REMARK INTER:                  -5.158
REMARK INTRA:                  -0.297
REMARK UNBOUND:                -0.303
REMARK SMILES C=C[C@@](C)(O)CCC=C(C)C
REMARK SMILES IDX 6 1 7 2 8 3 10 4 9 5 11 6 3 7 4 8 2 9 1 10 5 11
REMARK H PARENT 5 12
REMARK Flexibility Score: inf
ROOT
ATOM      1  C   UNL     1      42.694 -39.907  -1.684  1.00  0.00     0.043 C 
ENDROOT
BRANCH   1   2
ATOM      2  C   UNL     1      42.107 -40.067  -3.099  1.00  0.00     0.030 C 
BRANCH   2   3
ATOM      3  C   UNL     1      43.098 -40.738  -4.017  1.00  0.00    -0.028 C 
ATOM      4  C   UNL     1      41.352 -41.379  -5.695  1.00  0.00     0.039 C 
ATOM      5  C   UNL     1      42.771 -41.351  -5.176  1.00  0.00    -0.080 C 
ATOM      6  C   UNL     1      43.867 -42.009  -5.974  1.00  0.00     0.039 C 
ENDBRANCH   2   3
ENDBRANCH   1   2
BRANCH   1   7
ATOM      7  C   UNL     1      41.717 -40.301  -0.536  1.00  0.00     0.080 C 
ATOM      8  C   UNL     1      40.437 -40.929  -1.118  1.00  0.00     0.047 C 
BRANCH   7   9
ATOM      9  C   UNL     1      42.357 -41.288   0.434  1.00  0.00    -0.001 C 
ATOM     10  C   UNL     1      41.792 -42.456   0.759  1.00  0.00     0.007 C 
ENDBRANCH   7   9
BRANCH   7  11
ATOM     11  O   UNL     1      41.319 -39.146   0.166  1.00  0.00    -0.386 OA
ATOM     12  H   UNL     1      41.114 -38.430  -0.491  1.00  0.00     0.211 HD
ENDBRANCH   7  11
ENDBRANCH   1   7
TORSDOF 5
ENDMDL
