MODEL 1
REMARK VINA RESULT:    -3.430      0.000      0.000
REMARK INTER + INTRA:          -8.160
REMARK INTER:                  -6.036
REMARK INTRA:                  -2.124
REMARK UNBOUND:                -2.124
REMARK SMILES CCCCCCC=CCCCCCCCC(=O)[O-]
REMARK SMILES IDX 10 1 11 2 12 3 13 4 14 5 15 6 16 7 17 8 18 9 9 10 8 11 7 12
REMARK SMILES IDX 6 13 5 14 4 15 3 16 2 17 1 18
REMARK H PARENT
REMARK Flexibility Score: inf
ROOT
ATOM      1  C   UNL     1      32.696  -3.378   0.401  1.00  0.00     0.004 C 
ENDROOT
BRANCH   1   2
ATOM      2  C   UNL     1      31.667  -4.151  -0.433  1.00  0.00     0.000 C 
BRANCH   2   3
ATOM      3  C   UNL     1      30.259  -4.010   0.163  1.00  0.00     0.000 C 
BRANCH   3   4
ATOM      4  C   UNL     1      30.271  -3.544   1.630  1.00  0.00     0.000 C 
BRANCH   4   5
ATOM      5  C   UNL     1      29.443  -2.275   1.919  1.00  0.00     0.006 C 
BRANCH   5   6
ATOM      6  C   UNL     1      29.050  -1.472   0.669  1.00  0.00     0.053 C 
BRANCH   6   7
ATOM      7  C   UNL     1      27.564  -1.394   0.495  1.00  0.00     0.041 C 
ATOM      8  O   UNL     1      26.883  -2.447   0.390  1.00  0.00    -0.550 OA
ATOM      9  O   UNL     1      26.936  -0.158   0.415  1.00  0.00    -0.550 OA
ENDBRANCH   6   7
ENDBRANCH   5   6
ENDBRANCH   4   5
ENDBRANCH   3   4
ENDBRANCH   2   3
ENDBRANCH   1   2
BRANCH   1  10
ATOM     10  C   UNL     1      34.059  -4.083   0.384  1.00  0.00     0.027 C 
BRANCH  10  11
ATOM     11  C   UNL     1      34.471  -4.496   1.769  1.00  0.00    -0.031 C 
ATOM     12  C   UNL     1      33.774  -4.119   2.852  1.00  0.00    -0.031 C 
BRANCH  12  13
ATOM     13  C   UNL     1      34.176  -4.548   4.236  1.00  0.00     0.027 C 
BRANCH  13  14
ATOM     14  C   UNL     1      33.769  -6.006   4.500  1.00  0.00     0.004 C 
BRANCH  14  15
ATOM     15  C   UNL     1      32.319  -6.299   4.086  1.00  0.00     0.000 C 
BRANCH  15  16
ATOM     16  C   UNL     1      32.216  -7.452   3.072  1.00  0.00    -0.000 C 
BRANCH  16  17
ATOM     17  C   UNL     1      31.239  -7.144   1.927  1.00  0.00    -0.003 C 
ATOM     18  C   UNL     1      31.687  -7.742   0.593  1.00  0.00     0.004 C 
ENDBRANCH  16  17
ENDBRANCH  15  16
ENDBRANCH  14  15
ENDBRANCH  13  14
ENDBRANCH  12  13
ENDBRANCH  10  11
ENDBRANCH   1  10
TORSDOF 13
ENDMDL
MODEL 2
REMARK VINA RESULT:    -3.330      3.503      6.729
REMARK INTER + INTRA:          -7.985
REMARK INTER:                  -5.526
REMARK INTRA:                  -2.459
REMARK UNBOUND:                -2.124
REMARK SMILES CCCCCCC=CCCCCCCCC(=O)[O-]
REMARK SMILES IDX 10 1 11 2 12 3 13 4 14 5 15 6 16 7 17 8 18 9 9 10 8 11 7 12
REMARK SMILES IDX 6 13 5 14 4 15 3 16 2 17 1 18
REMARK H PARENT
REMARK Flexibility Score: inf
ROOT
ATOM      1  C   UNL     1      31.712  -3.377  -0.147  1.00  0.00     0.004 C 
ENDROOT
BRANCH   1   2
ATOM      2  C   UNL     1      32.646  -2.292   0.404  1.00  0.00     0.000 C 
BRANCH   2   3
ATOM      3  C   UNL     1      32.336  -0.927  -0.227  1.00  0.00     0.000 C 
BRANCH   3   4
ATOM      4  C   UNL     1      31.664   0.049   0.754  1.00  0.00     0.000 C 
BRANCH   4   5
ATOM      5  C   UNL     1      30.259   0.532   0.336  1.00  0.00     0.006 C 
BRANCH   5   6
ATOM      6  C   UNL     1      30.069   0.705  -1.179  1.00  0.00     0.053 C 
BRANCH   6   7
ATOM      7  C   UNL     1      30.344   2.109  -1.623  1.00  0.00     0.041 C 
ATOM      8  O   UNL     1      30.306   3.055  -0.794  1.00  0.00    -0.550 OA
ATOM      9  O   UNL     1      30.607   2.377  -2.960  1.00  0.00    -0.550 OA
ENDBRANCH   6   7
ENDBRANCH   5   6
ENDBRANCH   4   5
ENDBRANCH   3   4
ENDBRANCH   2   3
ENDBRANCH   1   2
BRANCH   1  10
ATOM     10  C   UNL     1      30.665  -3.784   0.897  1.00  0.00     0.027 C 
BRANCH  10  11
ATOM     11  C   UNL     1      29.335  -3.146   0.607  1.00  0.00    -0.031 C 
ATOM     12  C   UNL     1      28.963  -2.834  -0.644  1.00  0.00    -0.031 C 
BRANCH  12  13
ATOM     13  C   UNL     1      27.625  -2.213  -0.935  1.00  0.00     0.027 C 
BRANCH  13  14
ATOM     14  C   UNL     1      26.865  -1.907   0.364  1.00  0.00     0.004 C 
BRANCH  14  15
ATOM     15  C   UNL     1      26.465  -0.428   0.481  1.00  0.00     0.000 C 
BRANCH  15  16
ATOM     16  C   UNL     1      26.070   0.185  -0.874  1.00  0.00    -0.000 C 
BRANCH  16  17
ATOM     17  C   UNL     1      26.495   1.656  -1.000  1.00  0.00    -0.003 C 
ATOM     18  C   UNL     1      26.941   2.258   0.332  1.00  0.00     0.004 C 
ENDBRANCH  16  17
ENDBRANCH  15  16
ENDBRANCH  14  15
ENDBRANCH  13  14
ENDBRANCH  12  13
ENDBRANCH  10  11
ENDBRANCH   1  10
TORSDOF 13
ENDMDL
MODEL 3
REMARK VINA RESULT:    -3.282      3.832      7.735
REMARK INTER + INTRA:          -7.900
REMARK INTER:                  -5.409
REMARK INTRA:                  -2.491
REMARK UNBOUND:                -2.124
REMARK SMILES CCCCCCC=CCCCCCCCC(=O)[O-]
REMARK SMILES IDX 10 1 11 2 12 3 13 4 14 5 15 6 16 7 17 8 18 9 9 10 8 11 7 12
REMARK SMILES IDX 6 13 5 14 4 15 3 16 2 17 1 18
REMARK H PARENT
REMARK Flexibility Score: inf
ROOT
ATOM      1  C   UNL     1      29.385  -2.060  -2.534  1.00  0.00     0.004 C 
ENDROOT
BRANCH   1   2
ATOM      2  C   UNL     1      29.428  -0.527  -2.528  1.00  0.00     0.000 C 
BRANCH   2   3
ATOM      3  C   UNL     1      30.719  -0.015  -1.873  1.00  0.00     0.000 C 
BRANCH   3   4
ATOM      4  C   UNL     1      30.464   0.776  -0.578  1.00  0.00     0.000 C 
BRANCH   4   5
ATOM      5  C   UNL     1      30.338  -0.083   0.698  1.00  0.00     0.006 C 
BRANCH   5   6
ATOM      6  C   UNL     1      31.203  -1.353   0.699  1.00  0.00     0.053 C 
BRANCH   6   7
ATOM      7  C   UNL     1      30.531  -2.490   1.406  1.00  0.00     0.041 C 
ATOM      8  O   UNL     1      30.935  -3.670   1.235  1.00  0.00    -0.550 OA
ATOM      9  O   UNL     1      29.436  -2.250   2.227  1.00  0.00    -0.550 OA
ENDBRANCH   6   7
ENDBRANCH   5   6
ENDBRANCH   4   5
ENDBRANCH   3   4
ENDBRANCH   2   3
ENDBRANCH   1   2
BRANCH   1  10
ATOM     10  C   UNL     1      28.247  -2.582  -1.647  1.00  0.00     0.027 C 
BRANCH  10  11
ATOM     11  C   UNL     1      27.366  -1.458  -1.178  1.00  0.00    -0.031 C 
ATOM     12  C   UNL     1      26.922  -1.393   0.086  1.00  0.00    -0.031 C 
BRANCH  12  13
ATOM     13  C   UNL     1      26.057  -0.259   0.559  1.00  0.00     0.027 C 
BRANCH  13  14
ATOM     14  C   UNL     1      26.251   0.986  -0.320  1.00  0.00     0.004 C 
BRANCH  14  15
ATOM     15  C   UNL     1      26.879   2.160   0.448  1.00  0.00     0.000 C 
BRANCH  15  16
ATOM     16  C   UNL     1      27.774   3.037  -0.445  1.00  0.00    -0.000 C 
BRANCH  16  17
ATOM     17  C   UNL     1      27.120   3.360  -1.797  1.00  0.00    -0.003 C 
ATOM     18  C   UNL     1      27.948   2.868  -2.985  1.00  0.00     0.004 C 
ENDBRANCH  16  17
ENDBRANCH  15  16
ENDBRANCH  14  15
ENDBRANCH  13  14
ENDBRANCH  12  13
ENDBRANCH  10  11
ENDBRANCH   1  10
TORSDOF 13
ENDMDL
MODEL 4
REMARK VINA RESULT:    -3.275      3.215      6.552
REMARK INTER + INTRA:          -7.888
REMARK INTER:                  -5.406
REMARK INTRA:                  -2.482
REMARK UNBOUND:                -2.124
REMARK SMILES CCCCCCC=CCCCCCCCC(=O)[O-]
REMARK SMILES IDX 10 1 11 2 12 3 13 4 14 5 15 6 16 7 17 8 18 9 9 10 8 11 7 12
REMARK SMILES IDX 6 13 5 14 4 15 3 16 2 17 1 18
REMARK H PARENT
REMARK Flexibility Score: inf
ROOT
ATOM      1  C   UNL     1      26.581  -0.978   0.561  1.00  0.00     0.004 C 
ENDROOT
BRANCH   1   2
ATOM      2  C   UNL     1      27.230  -2.232  -0.038  1.00  0.00     0.000 C 
BRANCH   2   3
ATOM      3  C   UNL     1      28.099  -2.953   1.003  1.00  0.00     0.000 C 
BRANCH   3   4
ATOM      4  C   UNL     1      29.306  -2.114   1.461  1.00  0.00     0.000 C 
BRANCH   4   5
ATOM      5  C   UNL     1      30.633  -2.892   1.583  1.00  0.00     0.006 C 
BRANCH   5   6
ATOM      6  C   UNL     1      30.581  -4.329   1.041  1.00  0.00     0.053 C 
BRANCH   6   7
ATOM      7  C   UNL     1      31.151  -5.317   2.013  1.00  0.00     0.041 C 
ATOM      8  O   UNL     1      30.484  -6.329   2.353  1.00  0.00    -0.550 OA
ATOM      9  O   UNL     1      32.405  -5.101   2.571  1.00  0.00    -0.550 OA
ENDBRANCH   6   7
ENDBRANCH   5   6
ENDBRANCH   4   5
ENDBRANCH   3   4
ENDBRANCH   2   3
ENDBRANCH   1   2
BRANCH   1  10
ATOM     10  C   UNL     1      26.578   0.175  -0.450  1.00  0.00     0.027 C 
BRANCH  10  11
ATOM     11  C   UNL     1      27.975   0.517  -0.887  1.00  0.00    -0.031 C 
ATOM     12  C   UNL     1      28.843   1.118  -0.058  1.00  0.00    -0.031 C 
BRANCH  12  13
ATOM     13  C   UNL     1      30.246   1.442  -0.488  1.00  0.00     0.027 C 
BRANCH  13  14
ATOM     14  C   UNL     1      31.274   0.777   0.439  1.00  0.00     0.004 C 
BRANCH  14  15
ATOM     15  C   UNL     1      32.219  -0.175  -0.313  1.00  0.00     0.000 C 
BRANCH  15  16
ATOM     16  C   UNL     1      31.700  -0.534  -1.716  1.00  0.00    -0.000 C 
BRANCH  16  17
ATOM     17  C   UNL     1      31.344  -2.023  -1.848  1.00  0.00    -0.003 C 
ATOM     18  C   UNL     1      29.953  -2.247  -2.442  1.00  0.00     0.004 C 
ENDBRANCH  16  17
ENDBRANCH  15  16
ENDBRANCH  14  15
ENDBRANCH  13  14
ENDBRANCH  12  13
ENDBRANCH  10  11
ENDBRANCH   1  10
TORSDOF 13
ENDMDL
MODEL 5
REMARK VINA RESULT:    -3.256      3.351      7.592
REMARK INTER + INTRA:          -7.855
REMARK INTER:                  -5.547
REMARK INTRA:                  -2.308
REMARK UNBOUND:                -2.124
REMARK SMILES CCCCCCC=CCCCCCCCC(=O)[O-]
REMARK SMILES IDX 10 1 11 2 12 3 13 4 14 5 15 6 16 7 17 8 18 9 9 10 8 11 7 12
REMARK SMILES IDX 6 13 5 14 4 15 3 16 2 17 1 18
REMARK H PARENT
REMARK Flexibility Score: inf
ROOT
ATOM      1  C   UNL     1      30.476   0.740   0.011  1.00  0.00     0.004 C 
ENDROOT
BRANCH   1   2
ATOM      2  C   UNL     1      31.648   0.075   0.743  1.00  0.00     0.000 C 
BRANCH   2   3
ATOM      3  C   UNL     1      32.419  -0.866  -0.194  1.00  0.00     0.000 C 
BRANCH   3   4
ATOM      4  C   UNL     1      32.152  -2.354   0.096  1.00  0.00     0.000 C 
BRANCH   4   5
ATOM      5  C   UNL     1      30.881  -2.930  -0.561  1.00  0.00     0.006 C 
BRANCH   5   6
ATOM      6  C   UNL     1      29.975  -3.726   0.391  1.00  0.00     0.053 C 
BRANCH   6   7
ATOM      7  C   UNL     1      29.008  -2.842   1.116  1.00  0.00     0.041 C 
ATOM      8  O   UNL     1      27.864  -2.626   0.637  1.00  0.00    -0.550 OA
ATOM      9  O   UNL     1      29.383  -2.228   2.305  1.00  0.00    -0.550 OA
ENDBRANCH   6   7
ENDBRANCH   5   6
ENDBRANCH   4   5
ENDBRANCH   3   4
ENDBRANCH   2   3
ENDBRANCH   1   2
BRANCH   1  10
ATOM     10  C   UNL     1      30.781   0.899  -1.484  1.00  0.00     0.027 C 
BRANCH  10  11
ATOM     11  C   UNL     1      29.646   0.385  -2.326  1.00  0.00    -0.031 C 
ATOM     12  C   UNL     1      28.635  -0.315  -1.790  1.00  0.00    -0.031 C 
BRANCH  12  13
ATOM     13  C   UNL     1      27.490  -0.812  -2.629  1.00  0.00     0.027 C 
BRANCH  13  14
ATOM     14  C   UNL     1      26.336   0.201  -2.642  1.00  0.00     0.004 C 
BRANCH  14  15
ATOM     15  C   UNL     1      25.977   0.707  -1.236  1.00  0.00     0.000 C 
BRANCH  15  16
ATOM     16  C   UNL     1      26.122   2.233  -1.103  1.00  0.00    -0.000 C 
BRANCH  16  17
ATOM     17  C   UNL     1      27.207   2.636  -0.093  1.00  0.00    -0.003 C 
ATOM     18  C   UNL     1      28.241   3.592  -0.688  1.00  0.00     0.004 C 
ENDBRANCH  16  17
ENDBRANCH  15  16
ENDBRANCH  14  15
ENDBRANCH  13  14
ENDBRANCH  12  13
ENDBRANCH  10  11
ENDBRANCH   1  10
TORSDOF 13
ENDMDL
MODEL 6
REMARK VINA RESULT:    -3.241      1.245      3.069
REMARK INTER + INTRA:          -7.828
REMARK INTER:                  -6.120
REMARK INTRA:                  -1.708
REMARK UNBOUND:                -2.124
REMARK SMILES CCCCCCC=CCCCCCCCC(=O)[O-]
REMARK SMILES IDX 10 1 11 2 12 3 13 4 14 5 15 6 16 7 17 8 18 9 9 10 8 11 7 12
REMARK SMILES IDX 6 13 5 14 4 15 3 16 2 17 1 18
REMARK H PARENT
REMARK Flexibility Score: inf
ROOT
ATOM      1  C   UNL     1      29.431  -3.460   1.076  1.00  0.00     0.004 C 
ENDROOT
BRANCH   1   2
ATOM      2  C   UNL     1      29.922  -2.116   1.628  1.00  0.00     0.000 C 
BRANCH   2   3
ATOM      3  C   UNL     1      31.057  -1.548   0.763  1.00  0.00     0.000 C 
BRANCH   3   4
ATOM      4  C   UNL     1      30.620  -0.337  -0.081  1.00  0.00     0.000 C 
BRANCH   4   5
ATOM      5  C   UNL     1      29.257   0.272   0.307  1.00  0.00     0.006 C 
BRANCH   5   6
ATOM      6  C   UNL     1      28.174   0.152  -0.777  1.00  0.00     0.053 C 
BRANCH   6   7
ATOM      7  C   UNL     1      27.042  -0.728  -0.345  1.00  0.00     0.041 C 
ATOM      8  O   UNL     1      26.972  -1.917  -0.753  1.00  0.00    -0.550 OA
ATOM      9  O   UNL     1      26.044  -0.225   0.482  1.00  0.00    -0.550 OA
ENDBRANCH   6   7
ENDBRANCH   5   6
ENDBRANCH   4   5
ENDBRANCH   3   4
ENDBRANCH   2   3
ENDBRANCH   1   2
BRANCH   1  10
ATOM     10  C   UNL     1      30.481  -4.092   0.153  1.00  0.00     0.027 C 
BRANCH  10  11
ATOM     11  C   UNL     1      31.135  -5.277   0.808  1.00  0.00    -0.031 C 
ATOM     12  C   UNL     1      30.717  -5.743   1.994  1.00  0.00    -0.031 C 
BRANCH  12  13
ATOM     13  C   UNL     1      31.359  -6.939   2.640  1.00  0.00     0.027 C 
BRANCH  13  14
ATOM     14  C   UNL     1      32.004  -6.561   3.982  1.00  0.00     0.004 C 
BRANCH  14  15
ATOM     15  C   UNL     1      33.519  -6.332   3.865  1.00  0.00     0.000 C 
BRANCH  15  16
ATOM     16  C   UNL     1      33.914  -4.865   4.108  1.00  0.00    -0.000 C 
BRANCH  16  17
ATOM     17  C   UNL     1      33.929  -4.037   2.813  1.00  0.00    -0.003 C 
ATOM     18  C   UNL     1      34.778  -4.677   1.714  1.00  0.00     0.004 C 
ENDBRANCH  16  17
ENDBRANCH  15  16
ENDBRANCH  14  15
ENDBRANCH  13  14
ENDBRANCH  12  13
ENDBRANCH  10  11
ENDBRANCH   1  10
TORSDOF 13
ENDMDL
MODEL 7
REMARK VINA RESULT:    -3.224      1.580      3.170
REMARK INTER + INTRA:          -7.798
REMARK INTER:                  -6.032
REMARK INTRA:                  -1.766
REMARK UNBOUND:                -2.124
REMARK SMILES CCCCCCC=CCCCCCCCC(=O)[O-]
REMARK SMILES IDX 10 1 11 2 12 3 13 4 14 5 15 6 16 7 17 8 18 9 9 10 8 11 7 12
REMARK SMILES IDX 6 13 5 14 4 15 3 16 2 17 1 18
REMARK H PARENT
REMARK Flexibility Score: inf
ROOT
ATOM      1  C   UNL     1      32.191  -1.148  -0.454  1.00  0.00     0.004 C 
ENDROOT
BRANCH   1   2
ATOM      2  C   UNL     1      31.954   0.053   0.470  1.00  0.00     0.000 C 
BRANCH   2   3
ATOM      3  C   UNL     1      30.457   0.382   0.572  1.00  0.00     0.000 C 
BRANCH   3   4
ATOM      4  C   UNL     1      29.593  -0.451  -0.391  1.00  0.00     0.000 C 
BRANCH   4   5
ATOM      5  C   UNL     1      28.497  -1.302   0.284  1.00  0.00     0.006 C 
BRANCH   5   6
ATOM      6  C   UNL     1      27.206  -1.448  -0.537  1.00  0.00     0.053 C 
BRANCH   6   7
ATOM      7  C   UNL     1      26.295  -0.272  -0.366  1.00  0.00     0.041 C 
ATOM      8  O   UNL     1      26.041   0.171   0.785  1.00  0.00    -0.550 OA
ATOM      9  O   UNL     1      25.698   0.314  -1.475  1.00  0.00    -0.550 OA
ENDBRANCH   6   7
ENDBRANCH   5   6
ENDBRANCH   4   5
ENDBRANCH   3   4
ENDBRANCH   2   3
ENDBRANCH   1   2
BRANCH   1  10
ATOM     10  C   UNL     1      33.105  -2.183   0.214  1.00  0.00     0.027 C 
BRANCH  10  11
ATOM     11  C   UNL     1      32.335  -3.414   0.604  1.00  0.00    -0.031 C 
ATOM     12  C   UNL     1      31.234  -3.340   1.368  1.00  0.00    -0.031 C 
BRANCH  12  13
ATOM     13  C   UNL     1      30.453  -4.569   1.743  1.00  0.00     0.027 C 
BRANCH  13  14
ATOM     14  C   UNL     1      31.255  -5.844   1.444  1.00  0.00     0.004 C 
BRANCH  14  15
ATOM     15  C   UNL     1      31.291  -6.813   2.637  1.00  0.00     0.000 C 
BRANCH  15  16
ATOM     16  C   UNL     1      32.239  -6.340   3.753  1.00  0.00    -0.000 C 
BRANCH  16  17
ATOM     17  C   UNL     1      33.580  -5.825   3.206  1.00  0.00    -0.003 C 
ATOM     18  C   UNL     1      33.958  -4.454   3.768  1.00  0.00     0.004 C 
ENDBRANCH  16  17
ENDBRANCH  15  16
ENDBRANCH  14  15
ENDBRANCH  13  14
ENDBRANCH  12  13
ENDBRANCH  10  11
ENDBRANCH   1  10
TORSDOF 13
ENDMDL
MODEL 8
REMARK VINA RESULT:    -3.201      2.158      4.043
REMARK INTER + INTRA:          -7.758
REMARK INTER:                  -5.506
REMARK INTRA:                  -2.252
REMARK UNBOUND:                -2.124
REMARK SMILES CCCCCCC=CCCCCCCCC(=O)[O-]
REMARK SMILES IDX 10 1 11 2 12 3 13 4 14 5 15 6 16 7 17 8 18 9 9 10 8 11 7 12
REMARK SMILES IDX 6 13 5 14 4 15 3 16 2 17 1 18
REMARK H PARENT
REMARK Flexibility Score: inf
ROOT
ATOM      1  C   UNL     1      30.756   0.502  -0.728  1.00  0.00     0.004 C 
ENDROOT
BRANCH   1   2
ATOM      2  C   UNL     1      30.911   0.196  -2.223  1.00  0.00     0.000 C 
BRANCH   2   3
ATOM      3  C   UNL     1      29.580  -0.271  -2.830  1.00  0.00     0.000 C 
BRANCH   3   4
ATOM      4  C   UNL     1      29.264  -1.746  -2.522  1.00  0.00     0.000 C 
BRANCH   4   5
ATOM      5  C   UNL     1      28.030  -1.976  -1.625  1.00  0.00     0.006 C 
BRANCH   5   6
ATOM      6  C   UNL     1      27.287  -0.693  -1.221  1.00  0.00     0.053 C 
BRANCH   6   7
ATOM      7  C   UNL     1      26.539  -0.858   0.065  1.00  0.00     0.041 C 
ATOM      8  O   UNL     1      26.096   0.150   0.675  1.00  0.00    -0.550 OA
ATOM      9  O   UNL     1      26.359  -2.124   0.609  1.00  0.00    -0.550 OA
ENDBRANCH   6   7
ENDBRANCH   5   6
ENDBRANCH   4   5
ENDBRANCH   3   4
ENDBRANCH   2   3
ENDBRANCH   1   2
BRANCH   1  10
ATOM     10  C   UNL     1      31.806  -0.249   0.099  1.00  0.00     0.027 C 
BRANCH  10  11
ATOM     11  C   UNL     1      31.226  -1.495   0.709  1.00  0.00    -0.031 C 
ATOM     12  C   UNL     1      30.044  -1.481   1.344  1.00  0.00    -0.031 C 
BRANCH  12  13
ATOM     13  C   UNL     1      29.454  -2.730   1.937  1.00  0.00     0.027 C 
BRANCH  13  14
ATOM     14  C   UNL     1      29.776  -3.957   1.069  1.00  0.00     0.004 C 
BRANCH  14  15
ATOM     15  C   UNL     1      30.535  -5.046   1.844  1.00  0.00     0.000 C 
BRANCH  15  16
ATOM     16  C   UNL     1      31.694  -5.649   1.031  1.00  0.00    -0.000 C 
BRANCH  16  17
ATOM     17  C   UNL     1      32.987  -4.828   1.152  1.00  0.00    -0.003 C 
ATOM     18  C   UNL     1      33.156  -4.193   2.532  1.00  0.00     0.004 C 
ENDBRANCH  16  17
ENDBRANCH  15  16
ENDBRANCH  14  15
ENDBRANCH  13  14
ENDBRANCH  12  13
ENDBRANCH  10  11
ENDBRANCH   1  10
TORSDOF 13
ENDMDL
MODEL 9
REMARK VINA RESULT:    -3.181      1.414      2.089
REMARK INTER + INTRA:          -7.722
REMARK INTER:                  -5.686
REMARK INTRA:                  -2.036
REMARK UNBOUND:                -2.124
REMARK SMILES CCCCCCC=CCCCCCCCC(=O)[O-]
REMARK SMILES IDX 10 1 11 2 12 3 13 4 14 5 15 6 16 7 17 8 18 9 9 10 8 11 7 12
REMARK SMILES IDX 6 13 5 14 4 15 3 16 2 17 1 18
REMARK H PARENT
REMARK Flexibility Score: inf
ROOT
ATOM      1  C   UNL     1      31.167  -2.541  -0.101  1.00  0.00     0.004 C 
ENDROOT
BRANCH   1   2
ATOM      2  C   UNL     1      30.967  -2.067   1.343  1.00  0.00     0.000 C 
BRANCH   2   3
ATOM      3  C   UNL     1      29.536  -2.352   1.822  1.00  0.00     0.000 C 
BRANCH   3   4
ATOM      4  C   UNL     1      28.662  -3.015   0.743  1.00  0.00     0.000 C 
BRANCH   4   5
ATOM      5  C   UNL     1      27.328  -2.297   0.451  1.00  0.00     0.006 C 
BRANCH   5   6
ATOM      6  C   UNL     1      27.462  -0.793   0.168  1.00  0.00     0.053 C 
BRANCH   6   7
ATOM      7  C   UNL     1      28.190  -0.525  -1.113  1.00  0.00     0.041 C 
ATOM      8  O   UNL     1      27.790  -1.041  -2.190  1.00  0.00    -0.550 OA
ATOM      9  O   UNL     1      29.332   0.266  -1.113  1.00  0.00    -0.550 OA
ENDBRANCH   6   7
ENDBRANCH   5   6
ENDBRANCH   4   5
ENDBRANCH   3   4
ENDBRANCH   2   3
ENDBRANCH   1   2
BRANCH   1  10
ATOM     10  C   UNL     1      32.559  -3.160  -0.289  1.00  0.00     0.027 C 
BRANCH  10  11
ATOM     11  C   UNL     1      33.184  -3.499   1.035  1.00  0.00    -0.031 C 
ATOM     12  C   UNL     1      34.264  -4.291   1.121  1.00  0.00    -0.031 C 
BRANCH  12  13
ATOM     13  C   UNL     1      34.900  -4.614   2.444  1.00  0.00     0.027 C 
BRANCH  13  14
ATOM     14  C   UNL     1      33.906  -4.413   3.597  1.00  0.00     0.004 C 
BRANCH  14  15
ATOM     15  C   UNL     1      33.636  -5.710   4.377  1.00  0.00     0.000 C 
BRANCH  15  16
ATOM     16  C   UNL     1      32.786  -6.713   3.577  1.00  0.00    -0.000 C 
BRANCH  16  17
ATOM     17  C   UNL     1      31.430  -6.128   3.151  1.00  0.00    -0.003 C 
ATOM     18  C   UNL     1      31.088  -6.434   1.693  1.00  0.00     0.004 C 
ENDBRANCH  16  17
ENDBRANCH  15  16
ENDBRANCH  14  15
ENDBRANCH  13  14
ENDBRANCH  12  13
ENDBRANCH  10  11
ENDBRANCH   1  10
TORSDOF 13
ENDMDL
