MODEL 1
REMARK VINA RESULT:    -6.916      0.000      0.000
REMARK INTER + INTRA:         -10.024
REMARK INTER:                  -9.342
REMARK INTRA:                  -0.682
REMARK UNBOUND:                -0.682
REMARK SMILES CC(=O)CCC=C(C)CCC=C(C)C
REMARK SMILES IDX 7 1 6 2 8 3 9 4 10 5 11 6 13 7 12 8 14 9 5 10 4 11 2 12 3 13
REMARK SMILES IDX 1 14
REMARK H PARENT
REMARK Flexibility Score: inf
ROOT
ATOM      1  C   UNL     1      22.993 -22.655  17.414  1.00  0.00    -0.077 C 
ATOM      2  C   UNL     1      22.197 -22.572  16.323  1.00  0.00    -0.028 C 
ATOM      3  C   UNL     1      23.356 -21.383  18.134  1.00  0.00     0.039 C 
ENDROOT
BRANCH   1   4
ATOM      4  C   UNL     1      23.590 -23.960  17.903  1.00  0.00     0.034 C 
BRANCH   4   5
ATOM      5  C   UNL     1      24.226 -23.777  19.285  1.00  0.00     0.032 C 
BRANCH   5   6
ATOM      6  C   UNL     1      23.596 -24.708  20.290  1.00  0.00    -0.028 C 
ATOM      7  C   UNL     1      22.303 -22.879  21.413  1.00  0.00     0.039 C 
ATOM      8  C   UNL     1      22.710 -24.323  21.237  1.00  0.00    -0.080 C 
ATOM      9  C   UNL     1      22.132 -25.375  22.148  1.00  0.00     0.039 C 
ENDBRANCH   5   6
ENDBRANCH   4   5
ENDBRANCH   1   4
BRANCH   2  10
ATOM     10  C   UNL     1      21.737 -23.749  15.499  1.00  0.00     0.035 C 
BRANCH  10  11
ATOM     11  C   UNL     1      20.245 -23.637  15.173  1.00  0.00     0.079 C 
BRANCH  11  12
ATOM     12  C   UNL     1      19.793 -24.805  14.337  1.00  0.00     0.130 C 
ATOM     13  O   UNL     1      20.429 -25.847  14.370  1.00  0.00    -0.300 OA
ATOM     14  C   UNL     1      18.571 -24.722  13.473  1.00  0.00     0.087 C 
ENDBRANCH  11  12
ENDBRANCH  10  11
ENDBRANCH   2  10
TORSDOF 6
ENDMDL
MODEL 2
REMARK VINA RESULT:    -6.895      4.652      7.512
REMARK INTER + INTRA:          -9.995
REMARK INTER:                  -9.357
REMARK INTRA:                  -0.638
REMARK UNBOUND:                -0.682
REMARK SMILES CC(=O)CCC=C(C)CCC=C(C)C
REMARK SMILES IDX 7 1 6 2 8 3 9 4 10 5 11 6 13 7 12 8 14 9 5 10 4 11 2 12 3 13
REMARK SMILES IDX 1 14
REMARK H PARENT
REMARK Flexibility Score: inf
ROOT
ATOM      1  C   UNL     1      26.838 -19.922  19.383  1.00  0.00    -0.077 C 
ATOM      2  C   UNL     1      28.116 -20.364  19.354  1.00  0.00    -0.028 C 
ATOM      3  C   UNL     1      26.548 -18.613  20.072  1.00  0.00     0.039 C 
ENDROOT
BRANCH   1   4
ATOM      4  C   UNL     1      25.677 -20.714  18.816  1.00  0.00     0.034 C 
BRANCH   4   5
ATOM      5  C   UNL     1      24.508 -19.785  18.470  1.00  0.00     0.032 C 
BRANCH   5   6
ATOM      6  C   UNL     1      24.536 -19.412  17.009  1.00  0.00    -0.028 C 
ATOM      7  C   UNL     1      23.016 -21.287  16.338  1.00  0.00     0.039 C 
ATOM      8  C   UNL     1      23.850 -20.063  16.042  1.00  0.00    -0.080 C 
ATOM      9  C   UNL     1      23.942 -19.551  14.629  1.00  0.00     0.039 C 
ENDBRANCH   5   6
ENDBRANCH   4   5
ENDBRANCH   1   4
BRANCH   2  10
ATOM     10  C   UNL     1      28.571 -21.644  18.700  1.00  0.00     0.035 C 
BRANCH  10  11
ATOM     11  C   UNL     1      28.795 -22.740  19.746  1.00  0.00     0.079 C 
BRANCH  11  12
ATOM     12  C   UNL     1      27.969 -23.958  19.426  1.00  0.00     0.130 C 
ATOM     13  O   UNL     1      26.755 -23.855  19.340  1.00  0.00    -0.300 OA
ATOM     14  C   UNL     1      28.605 -25.297  19.200  1.00  0.00     0.087 C 
ENDBRANCH  11  12
ENDBRANCH  10  11
ENDBRANCH   2  10
TORSDOF 6
ENDMDL
MODEL 3
REMARK VINA RESULT:    -6.861      4.579      7.136
REMARK INTER + INTRA:          -9.950
REMARK INTER:                  -9.250
REMARK INTRA:                  -0.699
REMARK UNBOUND:                -0.682
REMARK SMILES CC(=O)CCC=C(C)CCC=C(C)C
REMARK SMILES IDX 7 1 6 2 8 3 9 4 10 5 11 6 13 7 12 8 14 9 5 10 4 11 2 12 3 13
REMARK SMILES IDX 1 14
REMARK H PARENT
REMARK Flexibility Score: inf
ROOT
ATOM      1  C   UNL     1      23.812 -20.746  18.846  1.00  0.00    -0.077 C 
ATOM      2  C   UNL     1      24.877 -19.948  18.598  1.00  0.00    -0.028 C 
ATOM      3  C   UNL     1      23.290 -21.611  17.728  1.00  0.00     0.039 C 
ENDROOT
BRANCH   1   4
ATOM      4  C   UNL     1      23.081 -20.759  20.174  1.00  0.00     0.034 C 
BRANCH   4   5
ATOM      5  C   UNL     1      22.067 -21.908  20.220  1.00  0.00     0.032 C 
BRANCH   5   6
ATOM      6  C   UNL     1      22.318 -22.793  21.414  1.00  0.00    -0.028 C 
ATOM      7  C   UNL     1      23.699 -24.429  20.113  1.00  0.00     0.039 C 
ATOM      8  C   UNL     1      23.071 -23.916  21.387  1.00  0.00    -0.080 C 
ATOM      9  C   UNL     1      23.266 -24.680  22.671  1.00  0.00     0.039 C 
ENDBRANCH   5   6
ENDBRANCH   4   5
ENDBRANCH   1   4
BRANCH   2  10
ATOM     10  C   UNL     1      25.521 -19.033  19.608  1.00  0.00     0.035 C 
BRANCH  10  11
ATOM     11  C   UNL     1      27.025 -19.307  19.709  1.00  0.00     0.079 C 
BRANCH  11  12
ATOM     12  C   UNL     1      27.703 -18.255  20.547  1.00  0.00     0.130 C 
ATOM     13  O   UNL     1      27.155 -17.851  21.562  1.00  0.00    -0.300 OA
ATOM     14  C   UNL     1      29.043 -17.698  20.169  1.00  0.00     0.087 C 
ENDBRANCH  11  12
ENDBRANCH  10  11
ENDBRANCH   2  10
TORSDOF 6
ENDMDL
MODEL 4
REMARK VINA RESULT:    -6.812      4.508      6.197
REMARK INTER + INTRA:          -9.884
REMARK INTER:                  -9.381
REMARK INTRA:                  -0.504
REMARK UNBOUND:                -0.682
REMARK SMILES CC(=O)CCC=C(C)CCC=C(C)C
REMARK SMILES IDX 7 1 6 2 8 3 9 4 10 5 11 6 13 7 12 8 14 9 5 10 4 11 2 12 3 13
REMARK SMILES IDX 1 14
REMARK H PARENT
REMARK Flexibility Score: inf
ROOT
ATOM      1  C   UNL     1      22.812 -24.238  21.019  1.00  0.00    -0.077 C 
ATOM      2  C   UNL     1      22.457 -23.088  21.637  1.00  0.00    -0.028 C 
ATOM      3  C   UNL     1      22.832 -25.509  21.828  1.00  0.00     0.039 C 
ENDROOT
BRANCH   1   4
ATOM      4  C   UNL     1      23.257 -24.295  19.571  1.00  0.00     0.034 C 
BRANCH   4   5
ATOM      5  C   UNL     1      24.787 -24.304  19.477  1.00  0.00     0.032 C 
BRANCH   5   6
ATOM      6  C   UNL     1      25.252 -25.290  18.436  1.00  0.00    -0.028 C 
ATOM      7  C   UNL     1      27.679 -24.876  18.898  1.00  0.00     0.039 C 
ATOM      8  C   UNL     1      26.549 -25.576  18.182  1.00  0.00    -0.080 C 
ATOM      9  C   UNL     1      26.863 -26.616  17.137  1.00  0.00     0.039 C 
ENDBRANCH   5   6
ENDBRANCH   4   5
ENDBRANCH   1   4
BRANCH   2  10
ATOM     10  C   UNL     1      22.381 -21.739  20.967  1.00  0.00     0.035 C 
BRANCH  10  11
ATOM     11  C   UNL     1      20.925 -21.346  20.699  1.00  0.00     0.079 C 
BRANCH  11  12
ATOM     12  C   UNL     1      20.521 -20.180  21.563  1.00  0.00     0.130 C 
ATOM     13  O   UNL     1      21.382 -19.524  22.128  1.00  0.00    -0.300 OA
ATOM     14  C   UNL     1      19.081 -19.798  21.737  1.00  0.00     0.087 C 
ENDBRANCH  11  12
ENDBRANCH  10  11
ENDBRANCH   2  10
TORSDOF 6
ENDMDL
MODEL 5
REMARK VINA RESULT:    -6.733      4.202      6.892
REMARK INTER + INTRA:          -9.777
REMARK INTER:                  -9.097
REMARK INTRA:                  -0.681
REMARK UNBOUND:                -0.682
REMARK SMILES CC(=O)CCC=C(C)CCC=C(C)C
REMARK SMILES IDX 7 1 6 2 8 3 9 4 10 5 11 6 13 7 12 8 14 9 5 10 4 11 2 12 3 13
REMARK SMILES IDX 1 14
REMARK H PARENT
REMARK Flexibility Score: inf
ROOT
ATOM      1  C   UNL     1      22.742 -21.661  20.125  1.00  0.00    -0.077 C 
ATOM      2  C   UNL     1      21.649 -21.695  20.923  1.00  0.00    -0.028 C 
ATOM      3  C   UNL     1      23.296 -22.966  19.615  1.00  0.00     0.039 C 
ENDROOT
BRANCH   1   4
ATOM      4  C   UNL     1      23.473 -20.379  19.779  1.00  0.00     0.034 C 
BRANCH   4   5
ATOM      5  C   UNL     1      24.577 -20.650  18.750  1.00  0.00     0.032 C 
BRANCH   5   6
ATOM      6  C   UNL     1      24.461 -19.704  17.582  1.00  0.00    -0.028 C 
ATOM      7  C   UNL     1      23.035 -21.271  16.247  1.00  0.00     0.039 C 
ATOM      8  C   UNL     1      23.751 -19.959  16.460  1.00  0.00    -0.080 C 
ATOM      9  C   UNL     1      23.694 -18.899  15.391  1.00  0.00     0.039 C 
ENDBRANCH   5   6
ENDBRANCH   4   5
ENDBRANCH   1   4
BRANCH   2  10
ATOM     10  C   UNL     1      20.971 -20.481  21.507  1.00  0.00     0.035 C 
BRANCH  10  11
ATOM     11  C   UNL     1      19.491 -20.442  21.114  1.00  0.00     0.079 C 
BRANCH  11  12
ATOM     12  C   UNL     1      18.730 -19.491  22.000  1.00  0.00     0.130 C 
ATOM     13  O   UNL     1      19.291 -18.496  22.434  1.00  0.00    -0.300 OA
ATOM     14  C   UNL     1      17.293 -19.730  22.352  1.00  0.00     0.087 C 
ENDBRANCH  11  12
ENDBRANCH  10  11
ENDBRANCH   2  10
TORSDOF 6
ENDMDL
MODEL 6
REMARK VINA RESULT:    -6.693      2.739      4.890
REMARK INTER + INTRA:          -9.723
REMARK INTER:                  -8.938
REMARK INTRA:                  -0.786
REMARK UNBOUND:                -0.682
REMARK SMILES CC(=O)CCC=C(C)CCC=C(C)C
REMARK SMILES IDX 7 1 6 2 8 3 9 4 10 5 11 6 13 7 12 8 14 9 5 10 4 11 2 12 3 13
REMARK SMILES IDX 1 14
REMARK H PARENT
REMARK Flexibility Score: inf
ROOT
ATOM      1  C   UNL     1      22.865 -24.066  21.154  1.00  0.00    -0.077 C 
ATOM      2  C   UNL     1      23.558 -24.637  20.141  1.00  0.00    -0.028 C 
ATOM      3  C   UNL     1      22.196 -24.966  22.160  1.00  0.00     0.039 C 
ENDROOT
BRANCH   1   4
ATOM      4  C   UNL     1      22.674 -22.568  21.282  1.00  0.00     0.034 C 
BRANCH   4   5
ATOM      5  C   UNL     1      21.351 -22.137  20.640  1.00  0.00     0.032 C 
BRANCH   5   6
ATOM      6  C   UNL     1      20.836 -20.870  21.276  1.00  0.00    -0.028 C 
ATOM      7  C   UNL     1      18.519 -21.168  20.372  1.00  0.00     0.039 C 
ATOM      8  C   UNL     1      19.559 -20.435  21.186  1.00  0.00    -0.080 C 
ATOM      9  C   UNL     1      19.180 -19.169  21.910  1.00  0.00     0.039 C 
ENDBRANCH   5   6
ENDBRANCH   4   5
ENDBRANCH   1   4
BRANCH   2  10
ATOM     10  C   UNL     1      24.289 -23.879  19.062  1.00  0.00     0.035 C 
BRANCH  10  11
ATOM     11  C   UNL     1      23.507 -23.917  17.745  1.00  0.00     0.079 C 
BRANCH  11  12
ATOM     12  C   UNL     1      22.999 -22.546  17.388  1.00  0.00     0.130 C 
ATOM     13  O   UNL     1      23.512 -21.563  17.900  1.00  0.00    -0.300 OA
ATOM     14  C   UNL     1      21.881 -22.358  16.407  1.00  0.00     0.087 C 
ENDBRANCH  11  12
ENDBRANCH  10  11
ENDBRANCH   2  10
TORSDOF 6
ENDMDL
MODEL 7
REMARK VINA RESULT:    -6.693      4.029      5.686
REMARK INTER + INTRA:          -9.723
REMARK INTER:                  -8.889
REMARK INTRA:                  -0.834
REMARK UNBOUND:                -0.682
REMARK SMILES CC(=O)CCC=C(C)CCC=C(C)C
REMARK SMILES IDX 7 1 6 2 8 3 9 4 10 5 11 6 13 7 12 8 14 9 5 10 4 11 2 12 3 13
REMARK SMILES IDX 1 14
REMARK H PARENT
REMARK Flexibility Score: inf
ROOT
ATOM      1  C   UNL     1      22.992 -23.768  21.176  1.00  0.00    -0.077 C 
ATOM      2  C   UNL     1      22.479 -22.536  21.398  1.00  0.00    -0.028 C 
ATOM      3  C   UNL     1      23.311 -24.636  22.366  1.00  0.00     0.039 C 
ENDROOT
BRANCH   1   4
ATOM      4  C   UNL     1      23.324 -24.288  19.791  1.00  0.00     0.034 C 
BRANCH   4   5
ATOM      5  C   UNL     1      24.837 -24.249  19.550  1.00  0.00     0.032 C 
BRANCH   5   6
ATOM      6  C   UNL     1      25.234 -25.238  18.485  1.00  0.00    -0.028 C 
ATOM      7  C   UNL     1      27.688 -24.867  18.828  1.00  0.00     0.039 C 
ATOM      8  C   UNL     1      26.512 -25.546  18.166  1.00  0.00    -0.080 C 
ATOM      9  C   UNL     1      26.756 -26.587  17.104  1.00  0.00     0.039 C 
ENDBRANCH   5   6
ENDBRANCH   4   5
ENDBRANCH   1   4
BRANCH   2  10
ATOM     10  C   UNL     1      22.101 -21.553  20.319  1.00  0.00     0.035 C 
BRANCH  10  11
ATOM     11  C   UNL     1      23.203 -20.507  20.124  1.00  0.00     0.079 C 
BRANCH  11  12
ATOM     12  C   UNL     1      23.924 -20.731  18.821  1.00  0.00     0.130 C 
ATOM     13  O   UNL     1      23.341 -21.280  17.899  1.00  0.00    -0.300 OA
ATOM     14  C   UNL     1      25.342 -20.283  18.625  1.00  0.00     0.087 C 
ENDBRANCH  11  12
ENDBRANCH  10  11
ENDBRANCH   2  10
TORSDOF 6
ENDMDL
MODEL 8
REMARK VINA RESULT:    -6.689      3.484      5.552
REMARK INTER + INTRA:          -9.717
REMARK INTER:                  -8.899
REMARK INTRA:                  -0.818
REMARK UNBOUND:                -0.682
REMARK SMILES CC(=O)CCC=C(C)CCC=C(C)C
REMARK SMILES IDX 7 1 6 2 8 3 9 4 10 5 11 6 13 7 12 8 14 9 5 10 4 11 2 12 3 13
REMARK SMILES IDX 1 14
REMARK H PARENT
REMARK Flexibility Score: inf
ROOT
ATOM      1  C   UNL     1      23.830 -20.205  16.339  1.00  0.00    -0.077 C 
ATOM      2  C   UNL     1      23.089 -21.282  15.986  1.00  0.00    -0.028 C 
ATOM      3  C   UNL     1      24.519 -19.424  15.250  1.00  0.00     0.039 C 
ENDROOT
BRANCH   1   4
ATOM      4  C   UNL     1      24.053 -19.792  17.780  1.00  0.00     0.034 C 
BRANCH   4   5
ATOM      5  C   UNL     1      25.415 -20.288  18.277  1.00  0.00     0.032 C 
BRANCH   5   6
ATOM      6  C   UNL     1      25.938 -19.399  19.377  1.00  0.00    -0.028 C 
ATOM      7  C   UNL     1      28.286 -20.248  19.165  1.00  0.00     0.039 C 
ATOM      8  C   UNL     1      27.231 -19.352  19.770  1.00  0.00    -0.080 C 
ATOM      9  C   UNL     1      27.615 -18.383  20.858  1.00  0.00     0.039 C 
ENDBRANCH   5   6
ENDBRANCH   4   5
ENDBRANCH   1   4
BRANCH   2  10
ATOM     10  C   UNL     1      22.334 -22.161  16.952  1.00  0.00     0.035 C 
BRANCH  10  11
ATOM     11  C   UNL     1      23.120 -23.441  17.251  1.00  0.00     0.079 C 
BRANCH  11  12
ATOM     12  C   UNL     1      23.578 -23.461  18.686  1.00  0.00     0.130 C 
ATOM     13  O   UNL     1      23.005 -22.763  19.509  1.00  0.00    -0.300 OA
ATOM     14  C   UNL     1      24.717 -24.329  19.131  1.00  0.00     0.087 C 
ENDBRANCH  11  12
ENDBRANCH  10  11
ENDBRANCH   2  10
TORSDOF 6
ENDMDL
MODEL 9
REMARK VINA RESULT:    -6.650      3.345      6.353
REMARK INTER + INTRA:          -9.665
REMARK INTER:                  -8.987
REMARK INTRA:                  -0.678
REMARK UNBOUND:                -0.682
REMARK SMILES CC(=O)CCC=C(C)CCC=C(C)C
REMARK SMILES IDX 7 1 6 2 8 3 9 4 10 5 11 6 13 7 12 8 14 9 5 10 4 11 2 12 3 13
REMARK SMILES IDX 1 14
REMARK H PARENT
REMARK Flexibility Score: inf
ROOT
ATOM      1  C   UNL     1      23.709 -23.576  18.778  1.00  0.00    -0.077 C 
ATOM      2  C   UNL     1      24.583 -24.538  19.155  1.00  0.00    -0.028 C 
ATOM      3  C   UNL     1      23.134 -22.675  19.840  1.00  0.00     0.039 C 
ENDROOT
BRANCH   1   4
ATOM      4  C   UNL     1      23.231 -23.408  17.349  1.00  0.00     0.034 C 
BRANCH   4   5
ATOM      5  C   UNL     1      22.463 -22.091  17.190  1.00  0.00     0.032 C 
BRANCH   5   6
ATOM      6  C   UNL     1      23.016 -21.286  16.041  1.00  0.00    -0.028 C 
ATOM      7  C   UNL     1      24.306 -19.742  17.534  1.00  0.00     0.039 C 
ATOM      8  C   UNL     1      23.866 -20.243  16.179  1.00  0.00    -0.080 C 
ATOM      9  C   UNL     1      24.368 -19.558  14.935  1.00  0.00     0.039 C 
ENDBRANCH   5   6
ENDBRANCH   4   5
ENDBRANCH   1   4
BRANCH   2  10
ATOM     10  C   UNL     1      25.250 -25.511  18.216  1.00  0.00     0.035 C 
BRANCH  10  11
ATOM     11  C   UNL     1      26.774 -25.368  18.276  1.00  0.00     0.079 C 
BRANCH  11  12
ATOM     12  C   UNL     1      27.447 -26.619  17.776  1.00  0.00     0.130 C 
ATOM     13  O   UNL     1      27.135 -27.074  16.687  1.00  0.00    -0.300 OA
ATOM     14  C   UNL     1      28.503 -27.314  18.583  1.00  0.00     0.087 C 
ENDBRANCH  11  12
ENDBRANCH  10  11
ENDBRANCH   2  10
TORSDOF 6
ENDMDL
