MODEL 1
REMARK VINA RESULT:    -4.735      0.000      0.000
REMARK INTER + INTRA:         -13.626
REMARK INTER:                 -10.825
REMARK INTRA:                  -2.801
REMARK UNBOUND:                -2.801
REMARK SMILES CCCCCCCCCCCCCCCCCCCCCCCC(=O)[O-]
REMARK SMILES IDX 13 1 14 2 15 3 16 4 17 5 18 6 19 7 20 8 21 9 22 10 23 11
REMARK SMILES IDX 24 12 25 13 26 14 12 15 11 16 10 17 9 18 8 19 7 20 6 21 5 22
REMARK SMILES IDX 4 23 3 24 2 25 1 26
REMARK H PARENT
REMARK Flexibility Score: inf
ROOT
ATOM      1  C   UNL     1      41.012  21.201   9.165  1.00  0.00     0.000 C 
ENDROOT
BRANCH   1   2
ATOM      2  C   UNL     1      41.037  20.541   7.776  1.00  0.00     0.000 C 
BRANCH   2   3
ATOM      3  C   UNL     1      42.342  19.756   7.532  1.00  0.00     0.000 C 
BRANCH   3   4
ATOM      4  C   UNL     1      43.092  20.182   6.260  1.00  0.00     0.000 C 
BRANCH   4   5
ATOM      5  C   UNL     1      44.031  21.376   6.495  1.00  0.00     0.000 C 
BRANCH   5   6
ATOM      6  C   UNL     1      44.605  21.950   5.188  1.00  0.00     0.000 C 
BRANCH   6   7
ATOM      7  C   UNL     1      45.069  20.898   4.160  1.00  0.00     0.000 C 
BRANCH   7   8
ATOM      8  C   UNL     1      46.275  21.348   3.309  1.00  0.00     0.000 C 
BRANCH   8   9
ATOM      9  C   UNL     1      46.836  22.702   3.770  1.00  0.00     0.000 C 
BRANCH   9  10
ATOM     10  C   UNL     1      48.354  22.628   3.981  1.00  0.00     0.006 C 
BRANCH  10  11
ATOM     11  C   UNL     1      48.762  21.409   4.820  1.00  0.00     0.053 C 
BRANCH  11  12
ATOM     12  C   UNL     1      48.263  21.507   6.229  1.00  0.00     0.041 C 
ATOM     13  O   UNL     1      47.528  20.603   6.707  1.00  0.00    -0.550 OA
ATOM     14  O   UNL     1      48.603  22.603   7.014  1.00  0.00    -0.550 OA
ENDBRANCH  11  12
ENDBRANCH  10  11
ENDBRANCH   9  10
ENDBRANCH   8   9
ENDBRANCH   7   8
ENDBRANCH   6   7
ENDBRANCH   5   6
ENDBRANCH   4   5
ENDBRANCH   3   4
ENDBRANCH   2   3
ENDBRANCH   1   2
BRANCH   1  15
ATOM     15  C   UNL     1      41.918  22.442   9.261  1.00  0.00     0.000 C 
BRANCH  15  16
ATOM     16  C   UNL     1      43.115  22.302  10.223  1.00  0.00     0.000 C 
BRANCH  16  17
ATOM     17  C   UNL     1      43.240  20.934  10.922  1.00  0.00     0.000 C 
BRANCH  17  18
ATOM     18  C   UNL     1      43.099  20.968  12.454  1.00  0.00    -0.000 C 
BRANCH  18  19
ATOM     19  C   UNL     1      43.067  19.564  13.080  1.00  0.00    -0.000 C 
BRANCH  19  20
ATOM     20  C   UNL     1      43.844  18.528  12.251  1.00  0.00    -0.000 C 
BRANCH  20  21
ATOM     21  C   UNL     1      42.923  17.503  11.566  1.00  0.00    -0.000 C 
BRANCH  21  22
ATOM     22  C   UNL     1      41.508  17.482  12.182  1.00  0.00    -0.000 C 
BRANCH  22  23
ATOM     23  C   UNL     1      40.398  17.889  11.194  1.00  0.00    -0.000 C 
BRANCH  23  24
ATOM     24  C   UNL     1      39.649  19.186  11.557  1.00  0.00    -0.000 C 
BRANCH  24  25
ATOM     25  C   UNL     1      38.288  19.361  10.859  1.00  0.00    -0.003 C 
ATOM     26  C   UNL     1      37.167  18.572  11.533  1.00  0.00     0.004 C 
ENDBRANCH  24  25
ENDBRANCH  23  24
ENDBRANCH  22  23
ENDBRANCH  21  22
ENDBRANCH  20  21
ENDBRANCH  19  20
ENDBRANCH  18  19
ENDBRANCH  17  18
ENDBRANCH  16  17
ENDBRANCH  15  16
ENDBRANCH   1  15
TORSDOF 22
ENDMDL
MODEL 2
REMARK VINA RESULT:    -4.662      1.645      3.559
REMARK INTER + INTRA:         -13.459
REMARK INTER:                 -10.512
REMARK INTRA:                  -2.947
REMARK UNBOUND:                -2.801
REMARK SMILES CCCCCCCCCCCCCCCCCCCCCCCC(=O)[O-]
REMARK SMILES IDX 13 1 14 2 15 3 16 4 17 5 18 6 19 7 20 8 21 9 22 10 23 11
REMARK SMILES IDX 24 12 25 13 26 14 12 15 11 16 10 17 9 18 8 19 7 20 6 21 5 22
REMARK SMILES IDX 4 23 3 24 2 25 1 26
REMARK H PARENT
REMARK Flexibility Score: inf
ROOT
ATOM      1  C   UNL     1      40.772  18.948   9.145  1.00  0.00     0.000 C 
ENDROOT
BRANCH   1   2
ATOM      2  C   UNL     1      41.018  20.279   8.413  1.00  0.00     0.000 C 
BRANCH   2   3
ATOM      3  C   UNL     1      40.778  21.496   9.329  1.00  0.00     0.000 C 
BRANCH   3   4
ATOM      4  C   UNL     1      42.031  22.359   9.552  1.00  0.00     0.000 C 
BRANCH   4   5
ATOM      5  C   UNL     1      43.273  21.798   8.842  1.00  0.00     0.000 C 
BRANCH   5   6
ATOM      6  C   UNL     1      43.960  22.835   7.935  1.00  0.00     0.000 C 
BRANCH   6   7
ATOM      7  C   UNL     1      43.927  22.510   6.428  1.00  0.00     0.000 C 
BRANCH   7   8
ATOM      8  C   UNL     1      43.866  20.999   6.119  1.00  0.00     0.000 C 
BRANCH   8   9
ATOM      9  C   UNL     1      44.660  20.635   4.854  1.00  0.00     0.000 C 
BRANCH   9  10
ATOM     10  C   UNL     1      45.535  21.808   4.394  1.00  0.00     0.006 C 
BRANCH  10  11
ATOM     11  C   UNL     1      47.032  21.513   4.561  1.00  0.00     0.053 C 
BRANCH  11  12
ATOM     12  C   UNL     1      47.461  21.585   5.995  1.00  0.00     0.041 C 
ATOM     13  O   UNL     1      47.704  22.699   6.530  1.00  0.00    -0.550 OA
ATOM     14  O   UNL     1      47.599  20.420   6.740  1.00  0.00    -0.550 OA
ENDBRANCH  11  12
ENDBRANCH  10  11
ENDBRANCH   9  10
ENDBRANCH   8   9
ENDBRANCH   7   8
ENDBRANCH   6   7
ENDBRANCH   5   6
ENDBRANCH   4   5
ENDBRANCH   3   4
ENDBRANCH   2   3
ENDBRANCH   1   2
BRANCH   1  15
ATOM     15  C   UNL     1      39.481  18.950   9.982  1.00  0.00     0.000 C 
BRANCH  15  16
ATOM     16  C   UNL     1      39.577  18.207  11.330  1.00  0.00     0.000 C 
BRANCH  16  17
ATOM     17  C   UNL     1      40.822  18.539  12.176  1.00  0.00     0.000 C 
BRANCH  17  18
ATOM     18  C   UNL     1      41.882  17.424  12.245  1.00  0.00    -0.000 C 
BRANCH  18  19
ATOM     19  C   UNL     1      43.303  17.967  12.467  1.00  0.00    -0.000 C 
BRANCH  19  20
ATOM     20  C   UNL     1      43.511  19.356  11.841  1.00  0.00    -0.000 C 
BRANCH  20  21
ATOM     21  C   UNL     1      43.814  20.441  12.890  1.00  0.00    -0.000 C 
BRANCH  21  22
ATOM     22  C   UNL     1      42.771  21.579  12.875  1.00  0.00    -0.000 C 
BRANCH  22  23
ATOM     23  C   UNL     1      42.745  22.410  14.172  1.00  0.00    -0.000 C 
BRANCH  23  24
ATOM     24  C   UNL     1      41.615  22.045  15.155  1.00  0.00    -0.000 C 
BRANCH  24  25
ATOM     25  C   UNL     1      41.040  20.628  14.978  1.00  0.00    -0.003 C 
ATOM     26  C   UNL     1      39.985  20.277  16.026  1.00  0.00     0.004 C 
ENDBRANCH  24  25
ENDBRANCH  23  24
ENDBRANCH  22  23
ENDBRANCH  21  22
ENDBRANCH  20  21
ENDBRANCH  19  20
ENDBRANCH  18  19
ENDBRANCH  17  18
ENDBRANCH  16  17
ENDBRANCH  15  16
ENDBRANCH   1  15
TORSDOF 22
ENDMDL
MODEL 3
REMARK VINA RESULT:    -4.654      0.874      2.902
REMARK INTER + INTRA:         -13.440
REMARK INTER:                 -10.969
REMARK INTRA:                  -2.471
REMARK UNBOUND:                -2.801
REMARK SMILES CCCCCCCCCCCCCCCCCCCCCCCC(=O)[O-]
REMARK SMILES IDX 13 1 14 2 15 3 16 4 17 5 18 6 19 7 20 8 21 9 22 10 23 11
REMARK SMILES IDX 24 12 25 13 26 14 12 15 11 16 10 17 9 18 8 19 7 20 6 21 5 22
REMARK SMILES IDX 4 23 3 24 2 25 1 26
REMARK H PARENT
REMARK Flexibility Score: inf
ROOT
ATOM      1  C   UNL     1      40.788  21.402   9.072  1.00  0.00     0.000 C 
ENDROOT
BRANCH   1   2
ATOM      2  C   UNL     1      42.185  21.295   8.435  1.00  0.00     0.000 C 
BRANCH   2   3
ATOM      3  C   UNL     1      42.316  20.050   7.534  1.00  0.00     0.000 C 
BRANCH   3   4
ATOM      4  C   UNL     1      43.141  20.293   6.260  1.00  0.00     0.000 C 
BRANCH   4   5
ATOM      5  C   UNL     1      44.216  21.377   6.445  1.00  0.00     0.000 C 
BRANCH   5   6
ATOM      6  C   UNL     1      44.680  21.989   5.112  1.00  0.00     0.000 C 
BRANCH   6   7
ATOM      7  C   UNL     1      45.060  20.968   4.021  1.00  0.00     0.000 C 
BRANCH   7   8
ATOM      8  C   UNL     1      46.341  21.336   3.242  1.00  0.00     0.000 C 
BRANCH   8   9
ATOM      9  C   UNL     1      46.871  22.727   3.623  1.00  0.00     0.000 C 
BRANCH   9  10
ATOM     10  C   UNL     1      48.322  22.647   4.119  1.00  0.00     0.006 C 
BRANCH  10  11
ATOM     11  C   UNL     1      48.613  21.327   4.845  1.00  0.00     0.053 C 
BRANCH  11  12
ATOM     12  C   UNL     1      48.215  21.382   6.289  1.00  0.00     0.041 C 
ATOM     13  O   UNL     1      47.914  22.482   6.823  1.00  0.00    -0.550 OA
ATOM     14  O   UNL     1      48.184  20.218   7.048  1.00  0.00    -0.550 OA
ENDBRANCH  11  12
ENDBRANCH  10  11
ENDBRANCH   9  10
ENDBRANCH   8   9
ENDBRANCH   7   8
ENDBRANCH   6   7
ENDBRANCH   5   6
ENDBRANCH   4   5
ENDBRANCH   3   4
ENDBRANCH   2   3
ENDBRANCH   1   2
BRANCH   1  15
ATOM     15  C   UNL     1      40.168  20.032   9.399  1.00  0.00     0.000 C 
BRANCH  15  16
ATOM     16  C   UNL     1      39.066  20.057  10.478  1.00  0.00     0.000 C 
BRANCH  16  17
ATOM     17  C   UNL     1      39.186  18.970  11.564  1.00  0.00     0.000 C 
BRANCH  17  18
ATOM     18  C   UNL     1      40.197  17.850  11.260  1.00  0.00    -0.000 C 
BRANCH  18  19
ATOM     19  C   UNL     1      41.407  17.866  12.209  1.00  0.00    -0.000 C 
BRANCH  19  20
ATOM     20  C   UNL     1      42.742  17.680  11.469  1.00  0.00    -0.000 C 
BRANCH  20  21
ATOM     21  C   UNL     1      43.962  17.972  12.361  1.00  0.00    -0.000 C 
BRANCH  21  22
ATOM     22  C   UNL     1      44.229  19.484  12.515  1.00  0.00    -0.000 C 
BRANCH  22  23
ATOM     23  C   UNL     1      43.426  20.357  11.531  1.00  0.00    -0.000 C 
BRANCH  23  24
ATOM     24  C   UNL     1      42.707  21.561  12.170  1.00  0.00    -0.000 C 
BRANCH  24  25
ATOM     25  C   UNL     1      42.426  21.419  13.676  1.00  0.00    -0.003 C 
ATOM     26  C   UNL     1      42.447  22.756  14.416  1.00  0.00     0.004 C 
ENDBRANCH  24  25
ENDBRANCH  23  24
ENDBRANCH  22  23
ENDBRANCH  21  22
ENDBRANCH  20  21
ENDBRANCH  19  20
ENDBRANCH  18  19
ENDBRANCH  17  18
ENDBRANCH  16  17
ENDBRANCH  15  16
ENDBRANCH   1  15
TORSDOF 22
ENDMDL
MODEL 4
REMARK VINA RESULT:    -4.631      1.371      3.379
REMARK INTER + INTRA:         -13.388
REMARK INTER:                 -11.144
REMARK INTRA:                  -2.245
REMARK UNBOUND:                -2.801
REMARK SMILES CCCCCCCCCCCCCCCCCCCCCCCC(=O)[O-]
REMARK SMILES IDX 13 1 14 2 15 3 16 4 17 5 18 6 19 7 20 8 21 9 22 10 23 11
REMARK SMILES IDX 24 12 25 13 26 14 12 15 11 16 10 17 9 18 8 19 7 20 6 21 5 22
REMARK SMILES IDX 4 23 3 24 2 25 1 26
REMARK H PARENT
REMARK Flexibility Score: inf
ROOT
ATOM      1  C   UNL     1      41.097  20.858   8.844  1.00  0.00     0.000 C 
ENDROOT
BRANCH   1   2
ATOM      2  C   UNL     1      41.828  19.799   8.000  1.00  0.00     0.000 C 
BRANCH   2   3
ATOM      3  C   UNL     1      42.749  20.439   6.941  1.00  0.00     0.000 C 
BRANCH   3   4
ATOM      4  C   UNL     1      43.572  21.624   7.472  1.00  0.00     0.000 C 
BRANCH   4   5
ATOM      5  C   UNL     1      44.866  21.854   6.674  1.00  0.00     0.000 C 
BRANCH   5   6
ATOM      6  C   UNL     1      44.611  22.060   5.171  1.00  0.00     0.000 C 
BRANCH   6   7
ATOM      7  C   UNL     1      45.212  20.977   4.252  1.00  0.00     0.000 C 
BRANCH   7   8
ATOM      8  C   UNL     1      46.362  21.487   3.358  1.00  0.00     0.000 C 
BRANCH   8   9
ATOM      9  C   UNL     1      46.891  22.855   3.817  1.00  0.00     0.000 C 
BRANCH   9  10
ATOM     10  C   UNL     1      48.382  22.780   4.171  1.00  0.00     0.006 C 
BRANCH  10  11
ATOM     11  C   UNL     1      48.757  21.439   4.816  1.00  0.00     0.053 C 
BRANCH  11  12
ATOM     12  C   UNL     1      48.465  21.423   6.286  1.00  0.00     0.041 C 
ATOM     13  O   UNL     1      48.637  22.461   6.978  1.00  0.00    -0.550 OA
ATOM     14  O   UNL     1      48.012  20.259   6.894  1.00  0.00    -0.550 OA
ENDBRANCH  11  12
ENDBRANCH  10  11
ENDBRANCH   9  10
ENDBRANCH   8   9
ENDBRANCH   7   8
ENDBRANCH   6   7
ENDBRANCH   5   6
ENDBRANCH   4   5
ENDBRANCH   3   4
ENDBRANCH   2   3
ENDBRANCH   1   2
BRANCH   1  15
ATOM     15  C   UNL     1      39.985  20.264   9.727  1.00  0.00     0.000 C 
BRANCH  15  16
ATOM     16  C   UNL     1      40.048  18.735   9.912  1.00  0.00     0.000 C 
BRANCH  16  17
ATOM     17  C   UNL     1      40.113  18.252  11.375  1.00  0.00     0.000 C 
BRANCH  17  18
ATOM     18  C   UNL     1      40.113  19.370  12.433  1.00  0.00    -0.000 C 
BRANCH  18  19
ATOM     19  C   UNL     1      41.372  19.354  13.316  1.00  0.00    -0.000 C 
BRANCH  19  20
ATOM     20  C   UNL     1      42.390  20.434  12.914  1.00  0.00    -0.000 C 
BRANCH  20  21
ATOM     21  C   UNL     1      43.299  19.993  11.753  1.00  0.00    -0.000 C 
BRANCH  21  22
ATOM     22  C   UNL     1      44.243  18.839  12.152  1.00  0.00    -0.000 C 
BRANCH  22  23
ATOM     23  C   UNL     1      43.628  17.441  11.951  1.00  0.00    -0.000 C 
BRANCH  23  24
ATOM     24  C   UNL     1      44.268  16.322  12.796  1.00  0.00    -0.000 C 
BRANCH  24  25
ATOM     25  C   UNL     1      44.458  14.985  12.059  1.00  0.00    -0.003 C 
ATOM     26  C   UNL     1      45.855  14.393  12.245  1.00  0.00     0.004 C 
ENDBRANCH  24  25
ENDBRANCH  23  24
ENDBRANCH  22  23
ENDBRANCH  21  22
ENDBRANCH  20  21
ENDBRANCH  19  20
ENDBRANCH  18  19
ENDBRANCH  17  18
ENDBRANCH  16  17
ENDBRANCH  15  16
ENDBRANCH   1  15
TORSDOF 22
ENDMDL
MODEL 5
REMARK VINA RESULT:    -4.549      1.499      3.748
REMARK INTER + INTRA:         -13.201
REMARK INTER:                 -10.680
REMARK INTRA:                  -2.521
REMARK UNBOUND:                -2.801
REMARK SMILES CCCCCCCCCCCCCCCCCCCCCCCC(=O)[O-]
REMARK SMILES IDX 13 1 14 2 15 3 16 4 17 5 18 6 19 7 20 8 21 9 22 10 23 11
REMARK SMILES IDX 24 12 25 13 26 14 12 15 11 16 10 17 9 18 8 19 7 20 6 21 5 22
REMARK SMILES IDX 4 23 3 24 2 25 1 26
REMARK H PARENT
REMARK Flexibility Score: inf
ROOT
ATOM      1  C   UNL     1      42.962  22.556  13.131  1.00  0.00     0.000 C 
ENDROOT
BRANCH   1   2
ATOM      2  C   UNL     1      42.597  23.114  11.745  1.00  0.00     0.000 C 
BRANCH   2   3
ATOM      3  C   UNL     1      43.019  22.161  10.608  1.00  0.00     0.000 C 
BRANCH   3   4
ATOM      4  C   UNL     1      41.990  21.058  10.312  1.00  0.00     0.000 C 
BRANCH   4   5
ATOM      5  C   UNL     1      40.897  21.511   9.331  1.00  0.00     0.000 C 
BRANCH   5   6
ATOM      6  C   UNL     1      40.779  20.592   8.103  1.00  0.00     0.000 C 
BRANCH   6   7
ATOM      7  C   UNL     1      42.099  19.937   7.647  1.00  0.00     0.000 C 
BRANCH   7   8
ATOM      8  C   UNL     1      42.882  20.772   6.612  1.00  0.00     0.000 C 
BRANCH   8   9
ATOM      9  C   UNL     1      44.234  21.255   7.160  1.00  0.00     0.000 C 
BRANCH   9  10
ATOM     10  C   UNL     1      44.562  22.666   6.654  1.00  0.00     0.006 C 
BRANCH  10  11
ATOM     11  C   UNL     1      44.619  22.733   5.122  1.00  0.00     0.053 C 
BRANCH  11  12
ATOM     12  C   UNL     1      45.886  22.142   4.583  1.00  0.00     0.041 C 
ATOM     13  O   UNL     1      46.988  22.720   4.775  1.00  0.00    -0.550 OA
ATOM     14  O   UNL     1      45.849  20.956   3.859  1.00  0.00    -0.550 OA
ENDBRANCH  11  12
ENDBRANCH  10  11
ENDBRANCH   9  10
ENDBRANCH   8   9
ENDBRANCH   7   8
ENDBRANCH   6   7
ENDBRANCH   5   6
ENDBRANCH   4   5
ENDBRANCH   3   4
ENDBRANCH   2   3
ENDBRANCH   1   2
BRANCH   1  15
ATOM     15  C   UNL     1      42.416  21.137  13.373  1.00  0.00     0.000 C 
BRANCH  15  16
ATOM     16  C   UNL     1      43.482  20.081  13.729  1.00  0.00     0.000 C 
BRANCH  16  17
ATOM     17  C   UNL     1      44.316  19.564  12.541  1.00  0.00     0.000 C 
BRANCH  17  18
ATOM     18  C   UNL     1      44.109  18.079  12.194  1.00  0.00    -0.000 C 
BRANCH  18  19
ATOM     19  C   UNL     1      42.836  17.832  11.367  1.00  0.00    -0.000 C 
BRANCH  19  20
ATOM     20  C   UNL     1      41.624  17.469  12.241  1.00  0.00    -0.000 C 
BRANCH  20  21
ATOM     21  C   UNL     1      40.438  18.430  12.042  1.00  0.00    -0.000 C 
BRANCH  21  22
ATOM     22  C   UNL     1      39.604  18.082  10.791  1.00  0.00    -0.000 C 
BRANCH  22  23
ATOM     23  C   UNL     1      38.406  19.024  10.566  1.00  0.00    -0.000 C 
BRANCH  23  24
ATOM     24  C   UNL     1      37.416  19.110  11.744  1.00  0.00    -0.000 C 
BRANCH  24  25
ATOM     25  C   UNL     1      36.187  18.192  11.622  1.00  0.00    -0.003 C 
ATOM     26  C   UNL     1      34.884  18.883  12.021  1.00  0.00     0.004 C 
ENDBRANCH  24  25
ENDBRANCH  23  24
ENDBRANCH  22  23
ENDBRANCH  21  22
ENDBRANCH  20  21
ENDBRANCH  19  20
ENDBRANCH  18  19
ENDBRANCH  17  18
ENDBRANCH  16  17
ENDBRANCH  15  16
ENDBRANCH   1  15
TORSDOF 22
ENDMDL
MODEL 6
REMARK VINA RESULT:    -4.487      2.913      8.652
REMARK INTER + INTRA:         -13.059
REMARK INTER:                 -10.394
REMARK INTRA:                  -2.665
REMARK UNBOUND:                -2.801
REMARK SMILES CCCCCCCCCCCCCCCCCCCCCCCC(=O)[O-]
REMARK SMILES IDX 13 1 14 2 15 3 16 4 17 5 18 6 19 7 20 8 21 9 22 10 23 11
REMARK SMILES IDX 24 12 25 13 26 14 12 15 11 16 10 17 9 18 8 19 7 20 6 21 5 22
REMARK SMILES IDX 4 23 3 24 2 25 1 26
REMARK H PARENT
REMARK Flexibility Score: inf
ROOT
ATOM      1  C   UNL     1      40.274  20.499   8.598  1.00  0.00     0.000 C 
ENDROOT
BRANCH   1   2
ATOM      2  C   UNL     1      39.856  20.591  10.077  1.00  0.00     0.000 C 
BRANCH   2   3
ATOM      3  C   UNL     1      38.599  19.749  10.376  1.00  0.00     0.000 C 
BRANCH   3   4
ATOM      4  C   UNL     1      38.892  18.454  11.150  1.00  0.00     0.000 C 
BRANCH   4   5
ATOM      5  C   UNL     1      40.026  18.616  12.175  1.00  0.00     0.000 C 
BRANCH   5   6
ATOM      6  C   UNL     1      41.158  17.593  11.980  1.00  0.00     0.000 C 
BRANCH   6   7
ATOM      7  C   UNL     1      42.397  18.124  11.230  1.00  0.00     0.000 C 
BRANCH   7   8
ATOM      8  C   UNL     1      43.703  18.040  12.048  1.00  0.00     0.000 C 
BRANCH   8   9
ATOM      9  C   UNL     1      44.212  19.426  12.473  1.00  0.00     0.000 C 
BRANCH   9  10
ATOM     10  C   UNL     1      43.186  20.517  12.137  1.00  0.00     0.006 C 
BRANCH  10  11
ATOM     11  C   UNL     1      43.353  21.760  13.022  1.00  0.00     0.053 C 
BRANCH  11  12
ATOM     12  C   UNL     1      42.285  21.849  14.070  1.00  0.00     0.041 C 
ATOM     13  O   UNL     1      42.049  22.944  14.644  1.00  0.00    -0.550 OA
ATOM     14  O   UNL     1      41.556  20.718  14.419  1.00  0.00    -0.550 OA
ENDBRANCH  11  12
ENDBRANCH  10  11
ENDBRANCH   9  10
ENDBRANCH   8   9
ENDBRANCH   7   8
ENDBRANCH   6   7
ENDBRANCH   5   6
ENDBRANCH   4   5
ENDBRANCH   3   4
ENDBRANCH   2   3
ENDBRANCH   1   2
BRANCH   1  15
ATOM     15  C   UNL     1      41.794  20.623   8.392  1.00  0.00     0.000 C 
BRANCH  15  16
ATOM     16  C   UNL     1      42.404  19.598   7.415  1.00  0.00     0.000 C 
BRANCH  16  17
ATOM     17  C   UNL     1      43.131  20.202   6.197  1.00  0.00     0.000 C 
BRANCH  17  18
ATOM     18  C   UNL     1      43.971  21.457   6.493  1.00  0.00    -0.000 C 
BRANCH  18  19
ATOM     19  C   UNL     1      44.653  22.026   5.239  1.00  0.00    -0.000 C 
BRANCH  19  20
ATOM     20  C   UNL     1      45.008  20.938   4.212  1.00  0.00    -0.000 C 
BRANCH  20  21
ATOM     21  C   UNL     1      46.174  21.344   3.294  1.00  0.00    -0.000 C 
BRANCH  21  22
ATOM     22  C   UNL     1      46.797  22.696   3.699  1.00  0.00    -0.000 C 
BRANCH  22  23
ATOM     23  C   UNL     1      48.334  22.662   3.806  1.00  0.00    -0.000 C 
BRANCH  23  24
ATOM     24  C   UNL     1      48.896  21.574   4.742  1.00  0.00    -0.000 C 
BRANCH  24  25
ATOM     25  C   UNL     1      48.465  21.706   6.214  1.00  0.00    -0.003 C 
ATOM     26  C   UNL     1      47.711  20.479   6.727  1.00  0.00     0.004 C 
ENDBRANCH  24  25
ENDBRANCH  23  24
ENDBRANCH  22  23
ENDBRANCH  21  22
ENDBRANCH  20  21
ENDBRANCH  19  20
ENDBRANCH  18  19
ENDBRANCH  17  18
ENDBRANCH  16  17
ENDBRANCH  15  16
ENDBRANCH   1  15
TORSDOF 22
ENDMDL
MODEL 7
REMARK VINA RESULT:    -4.433      3.312      8.942
REMARK INTER + INTRA:         -12.935
REMARK INTER:                 -10.211
REMARK INTRA:                  -2.724
REMARK UNBOUND:                -2.801
REMARK SMILES CCCCCCCCCCCCCCCCCCCCCCCC(=O)[O-]
REMARK SMILES IDX 13 1 14 2 15 3 16 4 17 5 18 6 19 7 20 8 21 9 22 10 23 11
REMARK SMILES IDX 24 12 25 13 26 14 12 15 11 16 10 17 9 18 8 19 7 20 6 21 5 22
REMARK SMILES IDX 4 23 3 24 2 25 1 26
REMARK H PARENT
REMARK Flexibility Score: inf
ROOT
ATOM      1  C   UNL     1      42.283  22.398  10.884  1.00  0.00     0.000 C 
ENDROOT
BRANCH   1   2
ATOM      2  C   UNL     1      43.031  22.422  12.229  1.00  0.00     0.000 C 
BRANCH   2   3
ATOM      3  C   UNL     1      42.620  21.247  13.140  1.00  0.00     0.000 C 
BRANCH   3   4
ATOM      4  C   UNL     1      43.767  20.272  13.448  1.00  0.00     0.000 C 
BRANCH   4   5
ATOM      5  C   UNL     1      44.201  19.456  12.220  1.00  0.00     0.000 C 
BRANCH   5   6
ATOM      6  C   UNL     1      44.199  17.939  12.480  1.00  0.00     0.000 C 
BRANCH   6   7
ATOM      7  C   UNL     1      43.069  17.158  11.780  1.00  0.00     0.000 C 
BRANCH   7   8
ATOM      8  C   UNL     1      41.829  18.016  11.451  1.00  0.00     0.000 C 
BRANCH   8   9
ATOM      9  C   UNL     1      41.557  18.088   9.941  1.00  0.00     0.000 C 
BRANCH   9  10
ATOM     10  C   UNL     1      40.467  19.121   9.625  1.00  0.00     0.006 C 
BRANCH  10  11
ATOM     11  C   UNL     1      39.626  19.471  10.860  1.00  0.00     0.053 C 
BRANCH  11  12
ATOM     12  C   UNL     1      38.277  18.820  10.823  1.00  0.00     0.041 C 
ATOM     13  O   UNL     1      37.602  18.698  11.879  1.00  0.00    -0.550 OA
ATOM     14  O   UNL     1      37.768  18.340   9.622  1.00  0.00    -0.550 OA
ENDBRANCH  11  12
ENDBRANCH  10  11
ENDBRANCH   9  10
ENDBRANCH   8   9
ENDBRANCH   7   8
ENDBRANCH   6   7
ENDBRANCH   5   6
ENDBRANCH   4   5
ENDBRANCH   3   4
ENDBRANCH   2   3
ENDBRANCH   1   2
BRANCH   1  15
ATOM     15  C   UNL     1      43.008  21.574   9.805  1.00  0.00     0.000 C 
BRANCH  15  16
ATOM     16  C   UNL     1      42.715  22.001   8.353  1.00  0.00     0.000 C 
BRANCH  16  17
ATOM     17  C   UNL     1      43.950  22.414   7.528  1.00  0.00     0.000 C 
BRANCH  17  18
ATOM     18  C   UNL     1      44.536  21.309   6.631  1.00  0.00    -0.000 C 
BRANCH  18  19
ATOM     19  C   UNL     1      44.523  21.683   5.140  1.00  0.00    -0.000 C 
BRANCH  19  20
ATOM     20  C   UNL     1      44.916  20.506   4.231  1.00  0.00    -0.000 C 
BRANCH  20  21
ATOM     21  C   UNL     1      45.872  20.921   3.099  1.00  0.00    -0.000 C 
BRANCH  21  22
ATOM     22  C   UNL     1      46.803  22.081   3.513  1.00  0.00    -0.000 C 
BRANCH  22  23
ATOM     23  C   UNL     1      48.301  21.754   3.367  1.00  0.00    -0.000 C 
BRANCH  23  24
ATOM     24  C   UNL     1      49.062  21.587   4.697  1.00  0.00    -0.000 C 
BRANCH  24  25
ATOM     25  C   UNL     1      48.198  21.758   5.960  1.00  0.00    -0.003 C 
ATOM     26  C   UNL     1      48.010  20.455   6.736  1.00  0.00     0.004 C 
ENDBRANCH  24  25
ENDBRANCH  23  24
ENDBRANCH  22  23
ENDBRANCH  21  22
ENDBRANCH  20  21
ENDBRANCH  19  20
ENDBRANCH  18  19
ENDBRANCH  17  18
ENDBRANCH  16  17
ENDBRANCH  15  16
ENDBRANCH   1  15
TORSDOF 22
ENDMDL
MODEL 8
REMARK VINA RESULT:    -4.390      1.667      3.633
REMARK INTER + INTRA:         -12.838
REMARK INTER:                 -10.399
REMARK INTRA:                  -2.439
REMARK UNBOUND:                -2.801
REMARK SMILES CCCCCCCCCCCCCCCCCCCCCCCC(=O)[O-]
REMARK SMILES IDX 13 1 14 2 15 3 16 4 17 5 18 6 19 7 20 8 21 9 22 10 23 11
REMARK SMILES IDX 24 12 25 13 26 14 12 15 11 16 10 17 9 18 8 19 7 20 6 21 5 22
REMARK SMILES IDX 4 23 3 24 2 25 1 26
REMARK H PARENT
REMARK Flexibility Score: inf
ROOT
ATOM      1  C   UNL     1      39.592  19.328  11.084  1.00  0.00     0.000 C 
ENDROOT
BRANCH   1   2
ATOM      2  C   UNL     1      39.948  19.685   9.630  1.00  0.00     0.000 C 
BRANCH   2   3
ATOM      3  C   UNL     1      40.399  21.153   9.489  1.00  0.00     0.000 C 
BRANCH   3   4
ATOM      4  C   UNL     1      41.576  21.348   8.520  1.00  0.00     0.000 C 
BRANCH   4   5
ATOM      5  C   UNL     1      42.038  20.032   7.873  1.00  0.00     0.000 C 
BRANCH   5   6
ATOM      6  C   UNL     1      42.885  20.256   6.608  1.00  0.00     0.000 C 
BRANCH   6   7
ATOM      7  C   UNL     1      43.901  21.413   6.697  1.00  0.00     0.000 C 
BRANCH   7   8
ATOM      8  C   UNL     1      44.587  21.744   5.355  1.00  0.00     0.000 C 
BRANCH   8   9
ATOM      9  C   UNL     1      45.091  20.483   4.635  1.00  0.00     0.000 C 
BRANCH   9  10
ATOM     10  C   UNL     1      45.699  20.832   3.270  1.00  0.00     0.006 C 
BRANCH  10  11
ATOM     11  C   UNL     1      46.670  22.018   3.356  1.00  0.00     0.053 C 
BRANCH  11  12
ATOM     12  C   UNL     1      48.031  21.595   3.819  1.00  0.00     0.041 C 
ATOM     13  O   UNL     1      48.939  21.352   2.982  1.00  0.00    -0.550 OA
ATOM     14  O   UNL     1      48.294  21.461   5.177  1.00  0.00    -0.550 OA
ENDBRANCH  11  12
ENDBRANCH  10  11
ENDBRANCH   9  10
ENDBRANCH   8   9
ENDBRANCH   7   8
ENDBRANCH   6   7
ENDBRANCH   5   6
ENDBRANCH   4   5
ENDBRANCH   3   4
ENDBRANCH   2   3
ENDBRANCH   1   2
BRANCH   1  15
ATOM     15  C   UNL     1      40.121  17.948  11.514  1.00  0.00     0.000 C 
BRANCH  15  16
ATOM     16  C   UNL     1      41.652  17.786  11.440  1.00  0.00     0.000 C 
BRANCH  16  17
ATOM     17  C   UNL     1      42.299  17.089  12.653  1.00  0.00     0.000 C 
BRANCH  17  18
ATOM     18  C   UNL     1      43.836  17.150  12.699  1.00  0.00    -0.000 C 
BRANCH  18  19
ATOM     19  C   UNL     1      44.411  18.322  11.888  1.00  0.00    -0.000 C 
BRANCH  19  20
ATOM     20  C   UNL     1      44.153  19.685  12.553  1.00  0.00    -0.000 C 
BRANCH  20  21
ATOM     21  C   UNL     1      43.426  20.673  11.624  1.00  0.00    -0.000 C 
BRANCH  21  22
ATOM     22  C   UNL     1      42.684  21.777  12.406  1.00  0.00    -0.000 C 
BRANCH  22  23
ATOM     23  C   UNL     1      42.973  21.765  13.919  1.00  0.00    -0.000 C 
BRANCH  23  24
ATOM     24  C   UNL     1      41.725  21.677  14.818  1.00  0.00    -0.000 C 
BRANCH  24  25
ATOM     25  C   UNL     1      40.974  20.335  14.749  1.00  0.00    -0.003 C 
ATOM     26  C   UNL     1      39.996  20.138  15.907  1.00  0.00     0.004 C 
ENDBRANCH  24  25
ENDBRANCH  23  24
ENDBRANCH  22  23
ENDBRANCH  21  22
ENDBRANCH  20  21
ENDBRANCH  19  20
ENDBRANCH  18  19
ENDBRANCH  17  18
ENDBRANCH  16  17
ENDBRANCH  15  16
ENDBRANCH   1  15
TORSDOF 22
ENDMDL
MODEL 9
REMARK VINA RESULT:    -4.306      3.266      8.448
REMARK INTER + INTRA:         -12.646
REMARK INTER:                  -9.745
REMARK INTRA:                  -2.901
REMARK UNBOUND:                -2.801
REMARK SMILES CCCCCCCCCCCCCCCCCCCCCCCC(=O)[O-]
REMARK SMILES IDX 13 1 14 2 15 3 16 4 17 5 18 6 19 7 20 8 21 9 22 10 23 11
REMARK SMILES IDX 24 12 25 13 26 14 12 15 11 16 10 17 9 18 8 19 7 20 6 21 5 22
REMARK SMILES IDX 4 23 3 24 2 25 1 26
REMARK H PARENT
REMARK Flexibility Score: inf
ROOT
ATOM      1  C   UNL     1      39.353  19.526   9.901  1.00  0.00     0.000 C 
ENDROOT
BRANCH   1   2
ATOM      2  C   UNL     1      39.737  18.785  11.194  1.00  0.00     0.000 C 
BRANCH   2   3
ATOM      3  C   UNL     1      40.974  17.886  10.999  1.00  0.00     0.000 C 
BRANCH   3   4
ATOM      4  C   UNL     1      41.639  17.455  12.316  1.00  0.00     0.000 C 
BRANCH   4   5
ATOM      5  C   UNL     1      42.853  16.537  12.098  1.00  0.00     0.000 C 
BRANCH   5   6
ATOM      6  C   UNL     1      44.154  17.123  12.674  1.00  0.00     0.000 C 
BRANCH   6   7
ATOM      7  C   UNL     1      44.621  18.441  12.024  1.00  0.00     0.000 C 
BRANCH   7   8
ATOM      8  C   UNL     1      44.219  19.703  12.816  1.00  0.00     0.000 C 
BRANCH   8   9
ATOM      9  C   UNL     1      43.485  20.729  11.939  1.00  0.00     0.000 C 
BRANCH   9  10
ATOM     10  C   UNL     1      42.397  21.460  12.737  1.00  0.00     0.006 C 
BRANCH  10  11
ATOM     11  C   UNL     1      41.709  20.539  13.755  1.00  0.00     0.053 C 
BRANCH  11  12
ATOM     12  C   UNL     1      41.289  21.282  14.987  1.00  0.00     0.041 C 
ATOM     13  O   UNL     1      40.485  20.756  15.802  1.00  0.00    -0.550 OA
ATOM     14  O   UNL     1      41.778  22.560  15.231  1.00  0.00    -0.550 OA
ENDBRANCH  11  12
ENDBRANCH  10  11
ENDBRANCH   9  10
ENDBRANCH   8   9
ENDBRANCH   7   8
ENDBRANCH   6   7
ENDBRANCH   5   6
ENDBRANCH   4   5
ENDBRANCH   3   4
ENDBRANCH   2   3
ENDBRANCH   1   2
BRANCH   1  15
ATOM     15  C   UNL     1      40.086  20.869   9.735  1.00  0.00     0.000 C 
BRANCH  15  16
ATOM     16  C   UNL     1      40.850  21.034   8.406  1.00  0.00     0.000 C 
BRANCH  16  17
ATOM     17  C   UNL     1      42.367  20.773   8.483  1.00  0.00     0.000 C 
BRANCH  17  18
ATOM     18  C   UNL     1      43.249  22.034   8.452  1.00  0.00    -0.000 C 
BRANCH  18  19
ATOM     19  C   UNL     1      44.076  22.151   7.161  1.00  0.00    -0.000 C 
BRANCH  19  20
ATOM     20  C   UNL     1      44.005  20.881   6.296  1.00  0.00    -0.000 C 
BRANCH  20  21
ATOM     21  C   UNL     1      44.510  21.111   4.860  1.00  0.00    -0.000 C 
BRANCH  21  22
ATOM     22  C   UNL     1      45.368  22.388   4.737  1.00  0.00    -0.000 C 
BRANCH  22  23
ATOM     23  C   UNL     1      46.657  22.190   3.917  1.00  0.00    -0.000 C 
BRANCH  23  24
ATOM     24  C   UNL     1      47.937  21.998   4.755  1.00  0.00    -0.000 C 
BRANCH  24  25
ATOM     25  C   UNL     1      47.703  21.890   6.272  1.00  0.00    -0.003 C 
ATOM     26  C   UNL     1      47.957  20.484   6.816  1.00  0.00     0.004 C 
ENDBRANCH  24  25
ENDBRANCH  23  24
ENDBRANCH  22  23
ENDBRANCH  21  22
ENDBRANCH  20  21
ENDBRANCH  19  20
ENDBRANCH  18  19
ENDBRANCH  17  18
ENDBRANCH  16  17
ENDBRANCH  15  16
ENDBRANCH   1  15
TORSDOF 22
ENDMDL
