MODEL 1
REMARK VINA RESULT:    -4.658      0.000      0.000
REMARK INTER + INTRA:          -4.658
REMARK INTER:                  -4.658
REMARK INTRA:                   0.000
REMARK UNBOUND:                 0.000
REMARK SMILES C=C1CCC[C@@]2(C)CC(=O)C(=C(C)C)C[C@H]12
REMARK SMILES IDX 13 1 12 2 11 3 15 4 16 5 2 6 1 7 3 8 4 9 5 10 6 11 8 12 9 13
REMARK SMILES IDX 10 14 7 15 14 16
REMARK H PARENT
REMARK Flexibility Score: inf
ROOT
ATOM      1  C   UNL     1      27.254  34.766  23.946  1.00  0.00     0.039 C 
ATOM      2  C   UNL     1      28.046  34.649  22.663  1.00  0.00    -0.070 C 
ATOM      3  C   UNL     1      27.841  35.509  21.622  1.00  0.00    -0.006 C 
ATOM      4  C   UNL     1      26.822  36.636  21.721  1.00  0.00     0.047 C 
ATOM      5  C   UNL     1      27.213  37.874  20.874  1.00  0.00     0.025 C 
ATOM      6  C   UNL     1      26.206  39.023  20.902  1.00  0.00    -0.073 C 
ATOM      7  C   UNL     1      25.048  38.996  21.590  1.00  0.00     0.008 C 
ATOM      8  C   UNL     1      26.590  40.266  20.134  1.00  0.00     0.031 C 
ATOM      9  C   UNL     1      26.956  39.909  18.691  1.00  0.00     0.005 C 
ATOM     10  C   UNL     1      28.002  38.782  18.632  1.00  0.00     0.008 C 
ATOM     11  C   UNL     1      27.562  37.499  19.400  1.00  0.00    -0.018 C 
ATOM     12  C   UNL     1      28.755  36.511  19.410  1.00  0.00     0.088 C 
ATOM     13  C   UNL     1      28.502  35.326  20.297  1.00  0.00     0.159 C 
ATOM     14  O   UNL     1      28.846  34.185  19.889  1.00  0.00    -0.295 OA
ATOM     15  C   UNL     1      26.358  36.843  18.669  1.00  0.00     0.012 C 
ATOM     16  C   UNL     1      29.095  33.562  22.605  1.00  0.00     0.039 C 
ENDROOT
TORSDOF 0
ENDMDL
MODEL 2
REMARK VINA RESULT:    -4.491      2.661      4.960
REMARK INTER + INTRA:          -4.491
REMARK INTER:                  -4.491
REMARK INTRA:                   0.000
REMARK UNBOUND:                 0.000
REMARK SMILES C=C1CCC[C@@]2(C)CC(=O)C(=C(C)C)C[C@H]12
REMARK SMILES IDX 13 1 12 2 11 3 15 4 16 5 2 6 1 7 3 8 4 9 5 10 6 11 8 12 9 13
REMARK SMILES IDX 10 14 7 15 14 16
REMARK H PARENT
REMARK Flexibility Score: inf
ROOT
ATOM      1  C   UNL     1      26.128  42.157  22.015  1.00  0.00     0.039 C 
ATOM      2  C   UNL     1      26.836  41.701  20.760  1.00  0.00    -0.070 C 
ATOM      3  C   UNL     1      26.715  40.419  20.303  1.00  0.00    -0.006 C 
ATOM      4  C   UNL     1      25.843  39.404  21.029  1.00  0.00     0.047 C 
ATOM      5  C   UNL     1      25.234  38.345  20.075  1.00  0.00     0.025 C 
ATOM      6  C   UNL     1      24.381  37.274  20.755  1.00  0.00    -0.073 C 
ATOM      7  C   UNL     1      24.160  37.214  22.082  1.00  0.00     0.008 C 
ATOM      8  C   UNL     1      23.726  36.265  19.842  1.00  0.00     0.031 C 
ATOM      9  C   UNL     1      24.769  35.618  18.926  1.00  0.00     0.005 C 
ATOM     10  C   UNL     1      25.616  36.674  18.195  1.00  0.00     0.008 C 
ATOM     11  C   UNL     1      26.311  37.678  19.163  1.00  0.00    -0.018 C 
ATOM     12  C   UNL     1      26.989  38.779  18.311  1.00  0.00     0.088 C 
ATOM     13  C   UNL     1      27.515  39.905  19.154  1.00  0.00     0.159 C 
ATOM     14  O   UNL     1      28.646  40.386  18.876  1.00  0.00    -0.295 OA
ATOM     15  C   UNL     1      27.393  36.934  19.995  1.00  0.00     0.012 C 
ATOM     16  C   UNL     1      27.649  42.738  20.019  1.00  0.00     0.039 C 
ENDROOT
TORSDOF 0
ENDMDL
MODEL 3
REMARK VINA RESULT:    -3.857      3.296      4.533
REMARK INTER + INTRA:          -3.857
REMARK INTER:                  -3.857
REMARK INTRA:                   0.000
REMARK UNBOUND:                 0.000
REMARK SMILES C=C1CCC[C@@]2(C)CC(=O)C(=C(C)C)C[C@H]12
REMARK SMILES IDX 13 1 12 2 11 3 15 4 16 5 2 6 1 7 3 8 4 9 5 10 6 11 8 12 9 13
REMARK SMILES IDX 10 14 7 15 14 16
REMARK H PARENT
REMARK Flexibility Score: inf
ROOT
ATOM      1  C   UNL     1      25.535  35.959  18.150  1.00  0.00     0.039 C 
ATOM      2  C   UNL     1      25.085  36.752  19.356  1.00  0.00    -0.070 C 
ATOM      3  C   UNL     1      25.727  37.898  19.731  1.00  0.00    -0.006 C 
ATOM      4  C   UNL     1      26.907  38.436  18.934  1.00  0.00     0.047 C 
ATOM      5  C   UNL     1      27.019  39.980  18.997  1.00  0.00     0.025 C 
ATOM      6  C   UNL     1      28.212  40.575  18.248  1.00  0.00    -0.073 C 
ATOM      7  C   UNL     1      29.125  39.844  17.580  1.00  0.00     0.008 C 
ATOM      8  C   UNL     1      28.312  42.082  18.242  1.00  0.00     0.031 C 
ATOM      9  C   UNL     1      28.252  42.626  19.673  1.00  0.00     0.005 C 
ATOM     10  C   UNL     1      27.035  42.078  20.439  1.00  0.00     0.008 C 
ATOM     11  C   UNL     1      26.979  40.520  20.461  1.00  0.00    -0.018 C 
ATOM     12  C   UNL     1      25.638  40.095  21.108  1.00  0.00     0.088 C 
ATOM     13  C   UNL     1      25.396  38.618  20.995  1.00  0.00     0.159 C 
ATOM     14  O   UNL     1      24.927  38.007  21.993  1.00  0.00    -0.295 OA
ATOM     15  C   UNL     1      28.157  39.970  21.313  1.00  0.00     0.012 C 
ATOM     16  C   UNL     1      23.874  36.236  20.100  1.00  0.00     0.039 C 
ENDROOT
TORSDOF 0
ENDMDL
MODEL 4
REMARK VINA RESULT:    -3.807      8.734     11.359
REMARK INTER + INTRA:          -3.807
REMARK INTER:                  -3.807
REMARK INTRA:                   0.000
REMARK UNBOUND:                 0.000
REMARK SMILES C=C1CCC[C@@]2(C)CC(=O)C(=C(C)C)C[C@H]12
REMARK SMILES IDX 13 1 12 2 11 3 15 4 16 5 2 6 1 7 3 8 4 9 5 10 6 11 8 12 9 13
REMARK SMILES IDX 10 14 7 15 14 16
REMARK H PARENT
REMARK Flexibility Score: inf
ROOT
ATOM      1  C   UNL     1      24.624  24.873  28.154  1.00  0.00     0.039 C 
ATOM      2  C   UNL     1      24.224  26.316  27.943  1.00  0.00    -0.070 C 
ATOM      3  C   UNL     1      25.075  27.209  27.358  1.00  0.00    -0.006 C 
ATOM      4  C   UNL     1      26.454  26.783  26.874  1.00  0.00     0.047 C 
ATOM      5  C   UNL     1      26.944  27.607  25.657  1.00  0.00     0.025 C 
ATOM      6  C   UNL     1      28.342  27.250  25.152  1.00  0.00    -0.073 C 
ATOM      7  C   UNL     1      29.125  26.303  25.704  1.00  0.00     0.008 C 
ATOM      8  C   UNL     1      28.821  27.996  23.930  1.00  0.00     0.031 C 
ATOM      9  C   UNL     1      28.699  29.508  24.146  1.00  0.00     0.005 C 
ATOM     10  C   UNL     1      27.287  29.903  24.614  1.00  0.00     0.008 C 
ATOM     11  C   UNL     1      26.835  29.145  25.899  1.00  0.00    -0.018 C 
ATOM     12  C   UNL     1      25.352  29.500  26.171  1.00  0.00     0.088 C 
ATOM     13  C   UNL     1      24.763  28.666  27.271  1.00  0.00     0.159 C 
ATOM     14  O   UNL     1      24.018  29.228  28.118  1.00  0.00    -0.295 OA
ATOM     15  C   UNL     1      27.702  29.604  27.104  1.00  0.00     0.012 C 
ATOM     16  C   UNL     1      22.829  26.708  28.375  1.00  0.00     0.039 C 
ENDROOT
TORSDOF 0
ENDMDL
MODEL 5
REMARK VINA RESULT:    -3.581      2.149      5.546
REMARK INTER + INTRA:          -3.581
REMARK INTER:                  -3.581
REMARK INTRA:                   0.000
REMARK UNBOUND:                 0.000
REMARK SMILES C=C1CCC[C@@]2(C)CC(=O)C(=C(C)C)C[C@H]12
REMARK SMILES IDX 13 1 12 2 11 3 15 4 16 5 2 6 1 7 3 8 4 9 5 10 6 11 8 12 9 13
REMARK SMILES IDX 10 14 7 15 14 16
REMARK H PARENT
REMARK Flexibility Score: inf
ROOT
ATOM      1  C   UNL     1      29.095  40.319  17.301  1.00  0.00     0.039 C 
ATOM      2  C   UNL     1      28.148  40.526  18.461  1.00  0.00    -0.070 C 
ATOM      3  C   UNL     1      27.748  39.481  19.246  1.00  0.00    -0.006 C 
ATOM      4  C   UNL     1      28.258  38.068  18.996  1.00  0.00     0.047 C 
ATOM      5  C   UNL     1      28.341  37.223  20.292  1.00  0.00     0.025 C 
ATOM      6  C   UNL     1      28.809  35.781  20.097  1.00  0.00    -0.073 C 
ATOM      7  C   UNL     1      29.124  35.244  18.902  1.00  0.00     0.008 C 
ATOM      8  C   UNL     1      28.957  34.952  21.350  1.00  0.00     0.031 C 
ATOM      9  C   UNL     1      27.665  34.990  22.171  1.00  0.00     0.005 C 
ATOM     10  C   UNL     1      27.192  36.433  22.421  1.00  0.00     0.008 C 
ATOM     11  C   UNL     1      27.011  37.253  21.107  1.00  0.00    -0.018 C 
ATOM     12  C   UNL     1      26.699  38.720  21.494  1.00  0.00     0.088 C 
ATOM     13  C   UNL     1      26.706  39.633  20.302  1.00  0.00     0.159 C 
ATOM     14  O   UNL     1      25.806  40.511  20.213  1.00  0.00    -0.295 OA
ATOM     15  C   UNL     1      25.821  36.673  20.293  1.00  0.00     0.012 C 
ATOM     16  C   UNL     1      27.699  41.944  18.732  1.00  0.00     0.039 C 
ENDROOT
TORSDOF 0
ENDMDL
MODEL 6
REMARK VINA RESULT:    -3.357      3.012      6.051
REMARK INTER + INTRA:          -3.357
REMARK INTER:                  -3.357
REMARK INTRA:                   0.000
REMARK UNBOUND:                 0.000
REMARK SMILES C=C1CCC[C@@]2(C)CC(=O)C(=C(C)C)C[C@H]12
REMARK SMILES IDX 13 1 12 2 11 3 15 4 16 5 2 6 1 7 3 8 4 9 5 10 6 11 8 12 9 13
REMARK SMILES IDX 10 14 7 15 14 16
REMARK H PARENT
REMARK Flexibility Score: inf
ROOT
ATOM      1  C   UNL     1      28.543  42.874  17.786  1.00  0.00     0.039 C 
ATOM      2  C   UNL     1      28.448  42.727  19.288  1.00  0.00    -0.070 C 
ATOM      3  C   UNL     1      27.837  41.646  19.857  1.00  0.00    -0.006 C 
ATOM      4  C   UNL     1      27.246  40.534  19.002  1.00  0.00     0.047 C 
ATOM      5  C   UNL     1      27.289  39.152  19.701  1.00  0.00     0.025 C 
ATOM      6  C   UNL     1      26.672  38.003  18.905  1.00  0.00    -0.073 C 
ATOM      7  C   UNL     1      26.112  38.142  17.688  1.00  0.00     0.008 C 
ATOM      8  C   UNL     1      26.754  36.633  19.537  1.00  0.00     0.031 C 
ATOM      9  C   UNL     1      26.186  36.667  20.959  1.00  0.00     0.005 C 
ATOM     10  C   UNL     1      26.821  37.789  21.799  1.00  0.00     0.008 C 
ATOM     11  C   UNL     1      26.687  39.195  21.140  1.00  0.00    -0.018 C 
ATOM     12  C   UNL     1      27.502  40.204  21.988  1.00  0.00     0.088 C 
ATOM     13  C   UNL     1      27.603  41.548  21.327  1.00  0.00     0.159 C 
ATOM     14  O   UNL     1      27.469  42.579  22.040  1.00  0.00    -0.295 OA
ATOM     15  C   UNL     1      25.193  39.624  21.130  1.00  0.00     0.012 C 
ATOM     16  C   UNL     1      29.093  43.810  20.122  1.00  0.00     0.039 C 
ENDROOT
TORSDOF 0
ENDMDL
MODEL 7
REMARK VINA RESULT:    -3.042      3.449      5.085
REMARK INTER + INTRA:          -3.042
REMARK INTER:                  -3.042
REMARK INTRA:                   0.000
REMARK UNBOUND:                 0.000
REMARK SMILES C=C1CCC[C@@]2(C)CC(=O)C(=C(C)C)C[C@H]12
REMARK SMILES IDX 13 1 12 2 11 3 15 4 16 5 2 6 1 7 3 8 4 9 5 10 6 11 8 12 9 13
REMARK SMILES IDX 10 14 7 15 14 16
REMARK H PARENT
REMARK Flexibility Score: inf
ROOT
ATOM      1  C   UNL     1      24.829  37.051  21.199  1.00  0.00     0.039 C 
ATOM      2  C   UNL     1      24.699  38.534  21.461  1.00  0.00    -0.070 C 
ATOM      3  C   UNL     1      25.618  39.423  20.980  1.00  0.00    -0.006 C 
ATOM      4  C   UNL     1      26.800  38.956  20.140  1.00  0.00     0.047 C 
ATOM      5  C   UNL     1      27.263  40.021  19.114  1.00  0.00     0.025 C 
ATOM      6  C   UNL     1      28.474  39.623  18.270  1.00  0.00    -0.073 C 
ATOM      7  C   UNL     1      29.124  38.449  18.387  1.00  0.00     0.008 C 
ATOM      8  C   UNL     1      28.911  40.617  17.220  1.00  0.00     0.031 C 
ATOM      9  C   UNL     1      29.125  41.997  17.848  1.00  0.00     0.005 C 
ATOM     10  C   UNL     1      27.903  42.443  18.670  1.00  0.00     0.008 C 
ATOM     11  C   UNL     1      27.499  41.416  19.771  1.00  0.00    -0.018 C 
ATOM     12  C   UNL     1      26.172  41.893  20.411  1.00  0.00     0.088 C 
ATOM     13  C   UNL     1      25.593  40.869  21.344  1.00  0.00     0.159 C 
ATOM     14  O   UNL     1      25.105  41.261  22.438  1.00  0.00    -0.295 OA
ATOM     15  C   UNL     1      28.605  41.363  20.862  1.00  0.00     0.012 C 
ATOM     16  C   UNL     1      23.487  38.986  22.245  1.00  0.00     0.039 C 
ENDROOT
TORSDOF 0
ENDMDL
