MODEL 1
REMARK VINA RESULT:    -5.258      0.000      0.000
REMARK INTER + INTRA:          -9.403
REMARK INTER:                  -8.025
REMARK INTRA:                  -1.378
REMARK UNBOUND:                -1.378
REMARK SMILES CC(=O)CCC=C(C)CCC=C(C)CCC=C(C)C
REMARK SMILES IDX 10 1 11 2 12 3 13 4 14 5 15 6 16 7 18 8 17 9 19 10 9 11 7 12
REMARK SMILES IDX 6 13 8 14 5 15 4 16 2 17 3 18 1 19
REMARK H PARENT
REMARK Flexibility Score: inf
ROOT
ATOM      1  C   UNL     1       0.003   6.003  68.138  1.00  0.00     0.032 C 
ENDROOT
BRANCH   1   2
ATOM      2  C   UNL     1       0.506   5.771  66.736  1.00  0.00    -0.028 C 
ATOM      3  C   UNL     1       0.286   4.643  66.023  1.00  0.00    -0.077 C 
ATOM      4  C   UNL     1      -0.435   3.453  66.611  1.00  0.00     0.039 C 
BRANCH   3   5
ATOM      5  C   UNL     1       0.841   4.534  64.618  1.00  0.00     0.034 C 
BRANCH   5   6
ATOM      6  C   UNL     1      -0.051   5.254  63.597  1.00  0.00     0.032 C 
BRANCH   6   7
ATOM      7  C   UNL     1      -1.338   4.506  63.345  1.00  0.00    -0.028 C 
ATOM      8  C   UNL     1      -3.758   4.085  63.387  1.00  0.00     0.039 C 
ATOM      9  C   UNL     1      -2.558   4.915  63.760  1.00  0.00    -0.080 C 
ATOM     10  C   UNL     1      -2.743   6.159  64.597  1.00  0.00     0.039 C 
ENDBRANCH   6   7
ENDBRANCH   5   6
ENDBRANCH   3   5
ENDBRANCH   1   2
BRANCH   1  11
ATOM     11  C   UNL     1       1.087   5.665  69.168  1.00  0.00     0.034 C 
BRANCH  11  12
ATOM     12  C   UNL     1       2.000   6.849  69.398  1.00  0.00    -0.077 C 
ATOM     13  C   UNL     1       3.339   6.666  69.332  1.00  0.00    -0.028 C 
ATOM     14  C   UNL     1       1.394   8.203  69.683  1.00  0.00     0.039 C 
BRANCH  13  15
ATOM     15  C   UNL     1       4.364   7.747  69.577  1.00  0.00     0.035 C 
BRANCH  15  16
ATOM     16  C   UNL     1       5.720   7.355  68.982  1.00  0.00     0.079 C 
BRANCH  16  17
ATOM     17  C   UNL     1       5.792   7.734  67.527  1.00  0.00     0.130 C 
ATOM     18  O   UNL     1       5.863   6.855  66.680  1.00  0.00    -0.300 OA
ATOM     19  C   UNL     1       5.768   9.168  67.089  1.00  0.00     0.087 C 
ENDBRANCH  16  17
ENDBRANCH  15  16
ENDBRANCH  13  15
ENDBRANCH  11  12
ENDBRANCH   1  11
TORSDOF 9
ENDMDL
MODEL 2
REMARK VINA RESULT:    -5.166      4.242      5.898
REMARK INTER + INTRA:          -9.263
REMARK INTER:                  -7.369
REMARK INTRA:                  -1.894
REMARK UNBOUND:                -1.378
REMARK SMILES CC(=O)CCC=C(C)CCC=C(C)CCC=C(C)C
REMARK SMILES IDX 10 1 11 2 12 3 13 4 14 5 15 6 16 7 18 8 17 9 19 10 9 11 7 12
REMARK SMILES IDX 6 13 8 14 5 15 4 16 2 17 3 18 1 19
REMARK H PARENT
REMARK Flexibility Score: inf
ROOT
ATOM      1  C   UNL     1       4.243   4.255  61.682  1.00  0.00     0.032 C 
ENDROOT
BRANCH   1   2
ATOM      2  C   UNL     1       3.182   4.236  62.752  1.00  0.00    -0.028 C 
ATOM      3  C   UNL     1       1.933   4.732  62.599  1.00  0.00    -0.077 C 
ATOM      4  C   UNL     1       1.504   5.437  61.334  1.00  0.00     0.039 C 
BRANCH   3   5
ATOM      5  C   UNL     1       0.954   4.647  63.751  1.00  0.00     0.034 C 
BRANCH   5   6
ATOM      6  C   UNL     1      -0.321   5.456  63.475  1.00  0.00     0.032 C 
BRANCH   6   7
ATOM      7  C   UNL     1      -1.527   4.565  63.293  1.00  0.00    -0.028 C 
ATOM      8  C   UNL     1      -3.882   3.884  63.440  1.00  0.00     0.039 C 
ATOM      9  C   UNL     1      -2.768   4.851  63.744  1.00  0.00    -0.080 C 
ATOM     10  C   UNL     1      -3.060   6.092  64.554  1.00  0.00     0.039 C 
ENDBRANCH   6   7
ENDBRANCH   5   6
ENDBRANCH   3   5
ENDBRANCH   1   2
BRANCH   1  11
ATOM     11  C   UNL     1       5.471   5.047  62.147  1.00  0.00     0.034 C 
BRANCH  11  12
ATOM     12  C   UNL     1       5.172   6.529  62.191  1.00  0.00    -0.077 C 
ATOM     13  C   UNL     1       4.805   7.157  61.050  1.00  0.00    -0.028 C 
ATOM     14  C   UNL     1       5.279   7.263  63.507  1.00  0.00     0.039 C 
BRANCH  13  15
ATOM     15  C   UNL     1       4.516   8.635  60.943  1.00  0.00     0.035 C 
BRANCH  15  16
ATOM     16  C   UNL     1       3.006   8.891  60.899  1.00  0.00     0.079 C 
BRANCH  16  17
ATOM     17  C   UNL     1       2.525   9.457  62.208  1.00  0.00     0.130 C 
ATOM     18  O   UNL     1       2.847  10.592  62.527  1.00  0.00    -0.300 OA
ATOM     19  C   UNL     1       1.647   8.662  63.128  1.00  0.00     0.087 C 
ENDBRANCH  16  17
ENDBRANCH  15  16
ENDBRANCH  13  15
ENDBRANCH  11  12
ENDBRANCH   1  11
TORSDOF 9
ENDMDL
MODEL 3
REMARK VINA RESULT:    -5.135      3.646      5.270
REMARK INTER + INTRA:          -9.215
REMARK INTER:                  -7.985
REMARK INTRA:                  -1.231
REMARK UNBOUND:                -1.378
REMARK SMILES CC(=O)CCC=C(C)CCC=C(C)CCC=C(C)C
REMARK SMILES IDX 10 1 11 2 12 3 13 4 14 5 15 6 16 7 18 8 17 9 19 10 9 11 7 12
REMARK SMILES IDX 6 13 8 14 5 15 4 16 2 17 3 18 1 19
REMARK H PARENT
REMARK Flexibility Score: inf
ROOT
ATOM      1  C   UNL     1       1.503   5.807  62.553  1.00  0.00     0.032 C 
ENDROOT
BRANCH   1   2
ATOM      2  C   UNL     1       0.187   5.186  62.947  1.00  0.00    -0.028 C 
ATOM      3  C   UNL     1      -0.100   4.727  64.186  1.00  0.00    -0.077 C 
ATOM      4  C   UNL     1       0.926   4.724  65.295  1.00  0.00     0.039 C 
BRANCH   3   5
ATOM      5  C   UNL     1      -1.464   4.129  64.457  1.00  0.00     0.034 C 
BRANCH   5   6
ATOM      6  C   UNL     1      -2.524   4.663  63.483  1.00  0.00     0.032 C 
BRANCH   6   7
ATOM      7  C   UNL     1      -3.734   5.205  64.206  1.00  0.00    -0.028 C 
ATOM      8  C   UNL     1      -5.115   6.857  65.387  1.00  0.00     0.039 C 
ATOM      9  C   UNL     1      -3.819   6.443  64.740  1.00  0.00    -0.080 C 
ATOM     10  C   UNL     1      -2.655   7.405  64.721  1.00  0.00     0.039 C 
ENDBRANCH   6   7
ENDBRANCH   5   6
ENDBRANCH   3   5
ENDBRANCH   1   2
BRANCH   1  11
ATOM     11  C   UNL     1       2.273   4.890  61.595  1.00  0.00     0.034 C 
BRANCH  11  12
ATOM     12  C   UNL     1       3.530   4.360  62.249  1.00  0.00    -0.077 C 
ATOM     13  C   UNL     1       4.620   5.158  62.315  1.00  0.00    -0.028 C 
ATOM     14  C   UNL     1       3.530   2.961  62.819  1.00  0.00     0.039 C 
BRANCH  13  15
ATOM     15  C   UNL     1       5.947   4.746  62.903  1.00  0.00     0.035 C 
BRANCH  15  16
ATOM     16  C   UNL     1       6.642   5.940  63.567  1.00  0.00     0.079 C 
BRANCH  16  17
ATOM     17  C   UNL     1       8.118   5.926  63.275  1.00  0.00     0.130 C 
ATOM     18  O   UNL     1       8.887   6.491  64.039  1.00  0.00    -0.300 OA
ATOM     19  C   UNL     1       8.672   5.225  62.071  1.00  0.00     0.087 C 
ENDBRANCH  16  17
ENDBRANCH  15  16
ENDBRANCH  13  15
ENDBRANCH  11  12
ENDBRANCH   1  11
TORSDOF 9
ENDMDL
MODEL 4
REMARK VINA RESULT:    -5.123      2.393      4.290
REMARK INTER + INTRA:          -9.196
REMARK INTER:                  -8.127
REMARK INTRA:                  -1.069
REMARK UNBOUND:                -1.378
REMARK SMILES CC(=O)CCC=C(C)CCC=C(C)CCC=C(C)C
REMARK SMILES IDX 10 1 11 2 12 3 13 4 14 5 15 6 16 7 18 8 17 9 19 10 9 11 7 12
REMARK SMILES IDX 6 13 8 14 5 15 4 16 2 17 3 18 1 19
REMARK H PARENT
REMARK Flexibility Score: inf
ROOT
ATOM      1  C   UNL     1      -0.198   3.647  66.017  1.00  0.00     0.032 C 
ENDROOT
BRANCH   1   2
ATOM      2  C   UNL     1       0.448   4.514  64.967  1.00  0.00    -0.028 C 
ATOM      3  C   UNL     1      -0.174   4.950  63.848  1.00  0.00    -0.077 C 
ATOM      4  C   UNL     1      -1.585   4.533  63.504  1.00  0.00     0.039 C 
BRANCH   3   5
ATOM      5  C   UNL     1       0.584   5.823  62.870  1.00  0.00     0.034 C 
BRANCH   5   6
ATOM      6  C   UNL     1       1.206   4.998  61.735  1.00  0.00     0.032 C 
BRANCH   6   7
ATOM      7  C   UNL     1       2.633   5.405  61.457  1.00  0.00    -0.028 C 
ATOM      8  C   UNL     1       5.080   5.187  61.395  1.00  0.00     0.039 C 
ATOM      9  C   UNL     1       3.719   4.670  61.785  1.00  0.00    -0.080 C 
ATOM     10  C   UNL     1       3.606   3.368  62.541  1.00  0.00     0.039 C 
ENDBRANCH   6   7
ENDBRANCH   5   6
ENDBRANCH   3   5
ENDBRANCH   1   2
BRANCH   1  11
ATOM     11  C   UNL     1      -1.045   4.492  66.976  1.00  0.00     0.034 C 
BRANCH  11  12
ATOM     12  C   UNL     1      -0.250   4.870  68.206  1.00  0.00    -0.077 C 
ATOM     13  C   UNL     1       0.335   6.089  68.259  1.00  0.00    -0.028 C 
ATOM     14  C   UNL     1      -0.140   3.883  69.344  1.00  0.00     0.039 C 
BRANCH  13  15
ATOM     15  C   UNL     1       1.187   6.580  69.404  1.00  0.00     0.035 C 
BRANCH  15  16
ATOM     16  C   UNL     1       2.674   6.373  69.103  1.00  0.00     0.079 C 
BRANCH  16  17
ATOM     17  C   UNL     1       3.409   7.687  69.118  1.00  0.00     0.130 C 
ATOM     18  O   UNL     1       2.801   8.712  69.390  1.00  0.00    -0.300 OA
ATOM     19  C   UNL     1       4.875   7.767  68.815  1.00  0.00     0.087 C 
ENDBRANCH  16  17
ENDBRANCH  15  16
ENDBRANCH  13  15
ENDBRANCH  11  12
ENDBRANCH   1  11
TORSDOF 9
ENDMDL
MODEL 5
REMARK VINA RESULT:    -5.075      2.237      6.078
REMARK INTER + INTRA:          -9.123
REMARK INTER:                  -7.035
REMARK INTRA:                  -2.089
REMARK UNBOUND:                -1.378
REMARK SMILES CC(=O)CCC=C(C)CCC=C(C)CCC=C(C)C
REMARK SMILES IDX 10 1 11 2 12 3 13 4 14 5 15 6 16 7 18 8 17 9 19 10 9 11 7 12
REMARK SMILES IDX 6 13 8 14 5 15 4 16 2 17 3 18 1 19
REMARK H PARENT
REMARK Flexibility Score: inf
ROOT
ATOM      1  C   UNL     1      -2.753   3.517  65.092  1.00  0.00     0.032 C 
ENDROOT
BRANCH   1   2
ATOM      2  C   UNL     1      -2.537   4.050  66.485  1.00  0.00    -0.028 C 
ATOM      3  C   UNL     1      -1.369   3.970  67.162  1.00  0.00    -0.077 C 
ATOM      4  C   UNL     1      -0.166   3.251  66.596  1.00  0.00     0.039 C 
BRANCH   3   5
ATOM      5  C   UNL     1      -1.278   4.550  68.557  1.00  0.00     0.034 C 
BRANCH   5   6
ATOM      6  C   UNL     1      -0.800   6.009  68.537  1.00  0.00     0.032 C 
BRANCH   6   7
ATOM      7  C   UNL     1       0.598   6.152  69.088  1.00  0.00    -0.028 C 
ATOM      8  C   UNL     1       3.017   6.579  69.044  1.00  0.00     0.039 C 
ATOM      9  C   UNL     1       1.695   6.413  68.342  1.00  0.00    -0.080 C 
ATOM     10  C   UNL     1       1.632   6.522  66.837  1.00  0.00     0.039 C 
ENDBRANCH   6   7
ENDBRANCH   5   6
ENDBRANCH   3   5
ENDBRANCH   1   2
BRANCH   1  11
ATOM     11  C   UNL     1      -2.920   4.665  64.089  1.00  0.00     0.034 C 
BRANCH  11  12
ATOM     12  C   UNL     1      -1.608   5.386  63.872  1.00  0.00    -0.077 C 
ATOM     13  C   UNL     1      -0.618   4.755  63.199  1.00  0.00    -0.028 C 
ATOM     14  C   UNL     1      -1.443   6.791  64.402  1.00  0.00     0.039 C 
BRANCH  13  15
ATOM     15  C   UNL     1       0.750   5.339  62.945  1.00  0.00     0.035 C 
BRANCH  15  16
ATOM     16  C   UNL     1       1.833   4.510  63.643  1.00  0.00     0.079 C 
BRANCH  16  17
ATOM     17  C   UNL     1       2.963   4.205  62.696  1.00  0.00     0.130 C 
ATOM     18  O   UNL     1       3.522   3.119  62.757  1.00  0.00    -0.300 OA
ATOM     19  C   UNL     1       3.415   5.201  61.670  1.00  0.00     0.087 C 
ENDBRANCH  16  17
ENDBRANCH  15  16
ENDBRANCH  13  15
ENDBRANCH  11  12
ENDBRANCH   1  11
TORSDOF 9
ENDMDL
MODEL 6
REMARK VINA RESULT:    -5.038      3.905      5.675
REMARK INTER + INTRA:          -9.067
REMARK INTER:                  -7.554
REMARK INTRA:                  -1.513
REMARK UNBOUND:                -1.378
REMARK SMILES CC(=O)CCC=C(C)CCC=C(C)CCC=C(C)C
REMARK SMILES IDX 10 1 11 2 12 3 13 4 14 5 15 6 16 7 18 8 17 9 19 10 9 11 7 12
REMARK SMILES IDX 6 13 8 14 5 15 4 16 2 17 3 18 1 19
REMARK H PARENT
REMARK Flexibility Score: inf
ROOT
ATOM      1  C   UNL     1      -0.269   5.406  63.137  1.00  0.00     0.032 C 
ENDROOT
BRANCH   1   2
ATOM      2  C   UNL     1      -1.473   4.560  63.464  1.00  0.00    -0.028 C 
ATOM      3  C   UNL     1      -2.577   5.014  64.100  1.00  0.00    -0.077 C 
ATOM      4  C   UNL     1      -2.674   6.429  64.620  1.00  0.00     0.039 C 
BRANCH   3   5
ATOM      5  C   UNL     1      -3.724   4.062  64.365  1.00  0.00     0.034 C 
BRANCH   5   6
ATOM      6  C   UNL     1      -3.331   2.959  65.358  1.00  0.00     0.032 C 
BRANCH   6   7
ATOM      7  C   UNL     1      -3.012   3.517  66.724  1.00  0.00    -0.028 C 
ATOM      8  C   UNL     1      -1.612   4.156  68.639  1.00  0.00     0.039 C 
ATOM      9  C   UNL     1      -1.783   3.516  67.286  1.00  0.00    -0.080 C 
ATOM     10  C   UNL     1      -0.593   2.879  66.608  1.00  0.00     0.039 C 
ENDBRANCH   6   7
ENDBRANCH   5   6
ENDBRANCH   3   5
ENDBRANCH   1   2
BRANCH   1  11
ATOM     11  C   UNL     1       1.000   4.812  63.759  1.00  0.00     0.034 C 
BRANCH  11  12
ATOM     12  C   UNL     1       2.117   4.742  62.741  1.00  0.00    -0.077 C 
ATOM     13  C   UNL     1       3.086   3.811  62.896  1.00  0.00    -0.028 C 
ATOM     14  C   UNL     1       2.113   5.704  61.576  1.00  0.00     0.039 C 
BRANCH  13  15
ATOM     15  C   UNL     1       4.276   3.655  61.980  1.00  0.00     0.035 C 
BRANCH  15  16
ATOM     16  C   UNL     1       5.577   3.979  62.721  1.00  0.00     0.079 C 
BRANCH  16  17
ATOM     17  C   UNL     1       6.048   5.369  62.387  1.00  0.00     0.130 C 
ATOM     18  O   UNL     1       6.524   6.071  63.268  1.00  0.00    -0.300 OA
ATOM     19  C   UNL     1       5.955   5.913  60.993  1.00  0.00     0.087 C 
ENDBRANCH  16  17
ENDBRANCH  15  16
ENDBRANCH  13  15
ENDBRANCH  11  12
ENDBRANCH   1  11
TORSDOF 9
ENDMDL
MODEL 7
REMARK VINA RESULT:    -5.030      4.842      7.365
REMARK INTER + INTRA:          -9.055
REMARK INTER:                  -7.579
REMARK INTRA:                  -1.476
REMARK UNBOUND:                -1.378
REMARK SMILES CC(=O)CCC=C(C)CCC=C(C)CCC=C(C)C
REMARK SMILES IDX 10 1 11 2 12 3 13 4 14 5 15 6 16 7 18 8 17 9 19 10 9 11 7 12
REMARK SMILES IDX 6 13 8 14 5 15 4 16 2 17 3 18 1 19
REMARK H PARENT
REMARK Flexibility Score: inf
ROOT
ATOM      1  C   UNL     1      -0.874   4.663  63.956  1.00  0.00     0.032 C 
ENDROOT
BRANCH   1   2
ATOM      2  C   UNL     1       0.115   5.149  62.928  1.00  0.00    -0.028 C 
ATOM      3  C   UNL     1       0.636   6.397  62.899  1.00  0.00    -0.077 C 
ATOM      4  C   UNL     1       0.204   7.466  63.876  1.00  0.00     0.039 C 
BRANCH   3   5
ATOM      5  C   UNL     1       1.627   6.762  61.815  1.00  0.00     0.034 C 
BRANCH   5   6
ATOM      6  C   UNL     1       2.355   5.525  61.269  1.00  0.00     0.032 C 
BRANCH   6   7
ATOM      7  C   UNL     1       3.781   5.448  61.757  1.00  0.00    -0.028 C 
ATOM      8  C   UNL     1       5.777   4.432  62.765  1.00  0.00     0.039 C 
ATOM      9  C   UNL     1       4.322   4.379  62.382  1.00  0.00    -0.080 C 
ATOM     10  C   UNL     1       3.507   3.152  62.721  1.00  0.00     0.039 C 
ENDBRANCH   6   7
ENDBRANCH   5   6
ENDBRANCH   3   5
ENDBRANCH   1   2
BRANCH   1  11
ATOM     11  C   UNL     1      -2.213   4.307  63.300  1.00  0.00     0.034 C 
BRANCH  11  12
ATOM     12  C   UNL     1      -3.353   5.040  63.971  1.00  0.00    -0.077 C 
ATOM     13  C   UNL     1      -3.098   6.205  64.610  1.00  0.00    -0.028 C 
ATOM     14  C   UNL     1      -4.746   4.458  63.900  1.00  0.00     0.039 C 
BRANCH  13  15
ATOM     15  C   UNL     1      -4.130   7.017  65.352  1.00  0.00     0.035 C 
BRANCH  15  16
ATOM     16  C   UNL     1      -4.282   8.407  64.724  1.00  0.00     0.079 C 
BRANCH  16  17
ATOM     17  C   UNL     1      -3.101   9.276  65.064  1.00  0.00     0.130 C 
ATOM     18  O   UNL     1      -2.709   9.333  66.221  1.00  0.00    -0.300 OA
ATOM     19  C   UNL     1      -2.385  10.069  64.012  1.00  0.00     0.087 C 
ENDBRANCH  16  17
ENDBRANCH  15  16
ENDBRANCH  13  15
ENDBRANCH  11  12
ENDBRANCH   1  11
TORSDOF 9
ENDMDL
MODEL 8
REMARK VINA RESULT:    -4.976      2.879      5.059
REMARK INTER + INTRA:          -8.973
REMARK INTER:                  -7.302
REMARK INTRA:                  -1.671
REMARK UNBOUND:                -1.378
REMARK SMILES CC(=O)CCC=C(C)CCC=C(C)CCC=C(C)C
REMARK SMILES IDX 10 1 11 2 12 3 13 4 14 5 15 6 16 7 18 8 17 9 19 10 9 11 7 12
REMARK SMILES IDX 6 13 8 14 5 15 4 16 2 17 3 18 1 19
REMARK H PARENT
REMARK Flexibility Score: inf
ROOT
ATOM      1  C   UNL     1       0.873   5.788  62.756  1.00  0.00     0.032 C 
ENDROOT
BRANCH   1   2
ATOM      2  C   UNL     1       0.243   4.738  63.636  1.00  0.00    -0.028 C 
ATOM      3  C   UNL     1       0.361   4.699  64.983  1.00  0.00    -0.077 C 
ATOM      4  C   UNL     1       1.220   5.685  65.739  1.00  0.00     0.039 C 
BRANCH   3   5
ATOM      5  C   UNL     1      -0.327   3.593  65.755  1.00  0.00     0.034 C 
BRANCH   5   6
ATOM      6  C   UNL     1      -1.756   3.983  66.157  1.00  0.00     0.032 C 
BRANCH   6   7
ATOM      7  C   UNL     1      -2.775   3.519  65.144  1.00  0.00    -0.028 C 
ATOM      8  C   UNL     1      -4.363   3.708  63.280  1.00  0.00     0.039 C 
ATOM      9  C   UNL     1      -3.408   4.328  64.266  1.00  0.00    -0.080 C 
ATOM     10  C   UNL     1      -3.198   5.824  64.259  1.00  0.00     0.039 C 
ENDBRANCH   6   7
ENDBRANCH   5   6
ENDBRANCH   3   5
ENDBRANCH   1   2
BRANCH   1  11
ATOM     11  C   UNL     1       1.519   5.148  61.522  1.00  0.00     0.034 C 
BRANCH  11  12
ATOM     12  C   UNL     1       3.010   4.983  61.717  1.00  0.00    -0.077 C 
ATOM     13  C   UNL     1       3.836   5.983  61.331  1.00  0.00    -0.028 C 
ATOM     14  C   UNL     1       3.534   3.714  62.347  1.00  0.00     0.039 C 
BRANCH  13  15
ATOM     15  C   UNL     1       5.341   5.936  61.432  1.00  0.00     0.035 C 
BRANCH  15  16
ATOM     16  C   UNL     1       5.854   7.005  62.401  1.00  0.00     0.079 C 
BRANCH  16  17
ATOM     17  C   UNL     1       5.741   6.531  63.825  1.00  0.00     0.130 C 
ATOM     18  O   UNL     1       6.448   5.612  64.210  1.00  0.00    -0.300 OA
ATOM     19  C   UNL     1       4.786   7.170  64.789  1.00  0.00     0.087 C 
ENDBRANCH  16  17
ENDBRANCH  15  16
ENDBRANCH  13  15
ENDBRANCH  11  12
ENDBRANCH   1  11
TORSDOF 9
ENDMDL
