MODEL 1
REMARK VINA RESULT:    -6.117      0.000      0.000
REMARK INTER + INTRA:          -7.675
REMARK INTER:                  -7.368
REMARK INTRA:                  -0.307
REMARK UNBOUND:                -0.307
REMARK SMILES O=c1c(O)c(-c2ccc(O)c(O)c2)oc2cc(O)cc(O)c12
REMARK SMILES IDX 5 1 3 2 2 3 1 4 22 5 20 6 19 7 17 8 16 9 15 10 14 11 6 12
REMARK SMILES IDX 7 13 8 14 9 15 13 16 11 17 10 18 12 20 4 22 21 24 18 26
REMARK H PARENT 10 19 12 21 4 23 21 25 18 27
REMARK Flexibility Score: inf
ROOT
ATOM      1  C   UNL     1      13.329  -0.734  22.303  1.00  0.00     0.180 A 
ATOM      2  C   UNL     1      14.568  -1.044  22.890  1.00  0.00     0.208 A 
ATOM      3  C   UNL     1      14.594  -1.836  24.049  1.00  0.00     0.238 A 
ATOM      4  O   UNL     1      15.702  -2.065  24.600  1.00  0.00    -0.285 OA
ATOM      5  C   UNL     1      13.382  -2.320  24.598  1.00  0.00     0.111 A 
ATOM      6  C   UNL     1      13.293  -3.164  25.746  1.00  0.00     0.134 A 
ATOM      7  C   UNL     1      12.035  -3.475  26.277  1.00  0.00     0.093 A 
ATOM      8  C   UNL     1      10.862  -3.027  25.664  1.00  0.00     0.123 A 
ATOM      9  C   UNL     1      10.939  -2.253  24.509  1.00  0.00     0.094 A 
ATOM     10  C   UNL     1      12.180  -1.896  23.975  1.00  0.00     0.146 A 
ATOM     11  O   UNL     1      12.207  -1.148  22.878  1.00  0.00    -0.452 OA
ENDROOT
BRANCH   1  12
ATOM     12  C   UNL     1      13.224   0.074  21.067  1.00  0.00     0.025 A 
ATOM     13  C   UNL     1      13.152  -0.572  19.822  1.00  0.00     0.016 A 
ATOM     14  C   UNL     1      13.073   0.171  18.642  1.00  0.00     0.051 A 
ATOM     15  C   UNL     1      13.083   1.571  18.687  1.00  0.00     0.157 A 
ATOM     16  C   UNL     1      13.255   1.480  21.106  1.00  0.00     0.062 A 
ATOM     17  C   UNL     1      13.178   2.226  19.921  1.00  0.00     0.158 A 
BRANCH  15  18
ATOM     18  O   UNL     1      13.004   2.316  17.513  1.00  0.00    -0.504 OA
ATOM     19  H   UNL     1      13.668   2.188  16.757  1.00  0.00     0.293 HD
ENDBRANCH  15  18
BRANCH  17  20
ATOM     20  O   UNL     1      13.201   3.620  19.962  1.00  0.00    -0.504 OA
ATOM     21  H   UNL     1      12.364   4.169  19.803  1.00  0.00     0.293 HD
ENDBRANCH  17  20
ENDBRANCH   1  12
BRANCH   2  22
ATOM     22  O   UNL     1      15.752  -0.538  22.344  1.00  0.00    -0.502 OA
ATOM     23  H   UNL     1      15.912  -0.488  21.345  1.00  0.00     0.293 HD
ENDBRANCH   2  22
BRANCH   6  24
ATOM     24  O   UNL     1      14.397  -3.739  26.380  1.00  0.00    -0.507 OA
ATOM     25  H   UNL     1      15.106  -4.286  25.915  1.00  0.00     0.293 HD
ENDBRANCH   6  24
BRANCH   8  26
ATOM     26  O   UNL     1       9.615  -3.355  26.190  1.00  0.00    -0.508 OA
ATOM     27  H   UNL     1       9.010  -2.652  26.598  1.00  0.00     0.293 HD
ENDBRANCH   8  26
TORSDOF 6
ENDMDL
MODEL 2
REMARK VINA RESULT:    -6.020      2.361      7.427
REMARK INTER + INTRA:          -7.559
REMARK INTER:                  -7.253
REMARK INTRA:                  -0.306
REMARK UNBOUND:                -0.307
REMARK SMILES O=c1c(O)c(-c2ccc(O)c(O)c2)oc2cc(O)cc(O)c12
REMARK SMILES IDX 5 1 3 2 2 3 1 4 22 5 20 6 19 7 17 8 16 9 15 10 14 11 6 12
REMARK SMILES IDX 7 13 8 14 9 15 13 16 11 17 10 18 12 20 4 22 21 24 18 26
REMARK H PARENT 10 19 12 21 4 23 21 25 18 27
REMARK Flexibility Score: inf
ROOT
ATOM      1  C   UNL     1      12.228  -2.939  24.512  1.00  0.00     0.180 A 
ATOM      2  C   UNL     1      11.299  -1.946  24.869  1.00  0.00     0.208 A 
ATOM      3  C   UNL     1      11.440  -0.656  24.332  1.00  0.00     0.238 A 
ATOM      4  O   UNL     1      10.638   0.242  24.697  1.00  0.00    -0.285 OA
ATOM      5  C   UNL     1      12.497  -0.380  23.432  1.00  0.00     0.111 A 
ATOM      6  C   UNL     1      12.711   0.880  22.796  1.00  0.00     0.134 A 
ATOM      7  C   UNL     1      13.864   1.078  22.027  1.00  0.00     0.093 A 
ATOM      8  C   UNL     1      14.777   0.041  21.817  1.00  0.00     0.123 A 
ATOM      9  C   UNL     1      14.546  -1.209  22.385  1.00  0.00     0.094 A 
ATOM     10  C   UNL     1      13.423  -1.426  23.187  1.00  0.00     0.146 A 
ATOM     11  O   UNL     1      13.246  -2.631  23.718  1.00  0.00    -0.452 OA
ENDROOT
BRANCH   1  12
ATOM     12  C   UNL     1      12.130  -4.326  25.018  1.00  0.00     0.025 A 
ATOM     13  C   UNL     1      11.472  -5.299  24.248  1.00  0.00     0.016 A 
ATOM     14  C   UNL     1      11.350  -6.610  24.715  1.00  0.00     0.051 A 
ATOM     15  C   UNL     1      11.869  -6.964  25.968  1.00  0.00     0.157 A 
ATOM     16  C   UNL     1      12.631  -4.681  26.284  1.00  0.00     0.062 A 
ATOM     17  C   UNL     1      12.507  -5.997  26.754  1.00  0.00     0.158 A 
BRANCH  15  18
ATOM     18  O   UNL     1      11.750  -8.270  26.438  1.00  0.00    -0.504 OA
ATOM     19  H   UNL     1      12.497  -8.716  26.958  1.00  0.00     0.293 HD
ENDBRANCH  15  18
BRANCH  17  20
ATOM     20  O   UNL     1      13.010  -6.349  28.006  1.00  0.00    -0.504 OA
ATOM     21  H   UNL     1      13.952  -6.099  28.288  1.00  0.00     0.293 HD
ENDBRANCH  17  20
ENDBRANCH   1  12
BRANCH   2  22
ATOM     22  O   UNL     1      10.275  -2.234  25.776  1.00  0.00    -0.502 OA
ATOM     23  H   UNL     1      10.192  -1.766  26.670  1.00  0.00     0.293 HD
ENDBRANCH   2  22
BRANCH   6  24
ATOM     24  O   UNL     1      11.816   1.952  22.865  1.00  0.00    -0.507 OA
ATOM     25  H   UNL     1      10.813   1.859  22.928  1.00  0.00     0.293 HD
ENDBRANCH   6  24
BRANCH   8  26
ATOM     26  O   UNL     1      15.914   0.242  21.037  1.00  0.00    -0.508 OA
ATOM     27  H   UNL     1      16.302   1.167  20.894  1.00  0.00     0.293 HD
ENDBRANCH   8  26
TORSDOF 6
ENDMDL
MODEL 3
REMARK VINA RESULT:    -5.971      2.894      3.727
REMARK INTER + INTRA:          -7.500
REMARK INTER:                  -7.193
REMARK INTRA:                  -0.306
REMARK UNBOUND:                -0.307
REMARK SMILES O=c1c(O)c(-c2ccc(O)c(O)c2)oc2cc(O)cc(O)c12
REMARK SMILES IDX 5 1 3 2 2 3 1 4 22 5 20 6 19 7 17 8 16 9 15 10 14 11 6 12
REMARK SMILES IDX 7 13 8 14 9 15 13 16 11 17 10 18 12 20 4 22 21 24 18 26
REMARK H PARENT 10 19 12 21 4 23 21 25 18 27
REMARK Flexibility Score: inf
ROOT
ATOM      1  C   UNL     1      11.550   1.832  22.443  1.00  0.00     0.180 A 
ATOM      2  C   UNL     1      12.792   1.385  21.959  1.00  0.00     0.208 A 
ATOM      3  C   UNL     1      13.281   0.140  22.388  1.00  0.00     0.238 A 
ATOM      4  O   UNL     1      14.418  -0.231  21.994  1.00  0.00    -0.285 OA
ATOM      5  C   UNL     1      12.516  -0.648  23.280  1.00  0.00     0.111 A 
ATOM      6  C   UNL     1      12.895  -1.943  23.747  1.00  0.00     0.134 A 
ATOM      7  C   UNL     1      12.124  -2.575  24.730  1.00  0.00     0.093 A 
ATOM      8  C   UNL     1      10.951  -1.989  25.214  1.00  0.00     0.123 A 
ATOM      9  C   UNL     1      10.541  -0.753  24.720  1.00  0.00     0.094 A 
ATOM     10  C   UNL     1      11.310  -0.081  23.766  1.00  0.00     0.146 A 
ATOM     11  O   UNL     1      10.888   1.100  23.329  1.00  0.00    -0.452 OA
ENDROOT
BRANCH   1  12
ATOM     12  C   UNL     1      10.959   3.121  22.018  1.00  0.00     0.025 A 
ATOM     13  C   UNL     1      10.270   3.197  20.797  1.00  0.00     0.016 A 
ATOM     14  C   UNL     1       9.722   4.408  20.366  1.00  0.00     0.051 A 
ATOM     15  C   UNL     1       9.870   5.565  21.143  1.00  0.00     0.157 A 
ATOM     16  C   UNL     1      11.123   4.290  22.784  1.00  0.00     0.062 A 
ATOM     17  C   UNL     1      10.574   5.506  22.351  1.00  0.00     0.158 A 
BRANCH  15  18
ATOM     18  O   UNL     1       9.324   6.775  20.718  1.00  0.00    -0.504 OA
ATOM     19  H   UNL     1       8.343   6.858  20.477  1.00  0.00     0.293 HD
ENDBRANCH  15  18
BRANCH  17  20
ATOM     20  O   UNL     1      10.731   6.662  23.116  1.00  0.00    -0.504 OA
ATOM     21  H   UNL     1      11.221   6.649  24.003  1.00  0.00     0.293 HD
ENDBRANCH  17  20
ENDBRANCH   1  12
BRANCH   2  22
ATOM     22  O   UNL     1      13.542   2.188  21.095  1.00  0.00    -0.502 OA
ATOM     23  H   UNL     1      13.206   3.081  20.754  1.00  0.00     0.293 HD
ENDBRANCH   2  22
BRANCH   6  24
ATOM     24  O   UNL     1      13.996  -2.656  23.264  1.00  0.00    -0.507 OA
ATOM     25  H   UNL     1      14.240  -3.594  23.543  1.00  0.00     0.293 HD
ENDBRANCH   6  24
BRANCH   8  26
ATOM     26  O   UNL     1      10.181  -2.633  26.180  1.00  0.00    -0.508 OA
ATOM     27  H   UNL     1      10.224  -2.366  27.156  1.00  0.00     0.293 HD
ENDBRANCH   8  26
TORSDOF 6
ENDMDL
MODEL 4
REMARK VINA RESULT:    -5.959      2.899      8.053
REMARK INTER + INTRA:          -7.485
REMARK INTER:                  -7.164
REMARK INTRA:                  -0.321
REMARK UNBOUND:                -0.307
REMARK SMILES O=c1c(O)c(-c2ccc(O)c(O)c2)oc2cc(O)cc(O)c12
REMARK SMILES IDX 5 1 3 2 2 3 1 4 22 5 20 6 19 7 17 8 16 9 15 10 14 11 6 12
REMARK SMILES IDX 7 13 8 14 9 15 13 16 11 17 10 18 12 20 4 22 21 24 18 26
REMARK H PARENT 10 19 12 21 4 23 21 25 18 27
REMARK Flexibility Score: inf
ROOT
ATOM      1  C   UNL     1      14.584  -3.882  25.628  1.00  0.00     0.180 A 
ATOM      2  C   UNL     1      13.230  -3.586  25.864  1.00  0.00     0.208 A 
ATOM      3  C   UNL     1      12.618  -2.561  25.124  1.00  0.00     0.238 A 
ATOM      4  O   UNL     1      11.421  -2.264  25.379  1.00  0.00    -0.285 OA
ATOM      5  C   UNL     1      13.361  -1.857  24.147  1.00  0.00     0.111 A 
ATOM      6  C   UNL     1      12.831  -0.829  23.311  1.00  0.00     0.134 A 
ATOM      7  C   UNL     1      13.691  -0.111  22.471  1.00  0.00     0.093 A 
ATOM      8  C   UNL     1      15.049  -0.429  22.387  1.00  0.00     0.123 A 
ATOM      9  C   UNL     1      15.563  -1.471  23.155  1.00  0.00     0.094 A 
ATOM     10  C   UNL     1      14.737  -2.181  24.030  1.00  0.00     0.146 A 
ATOM     11  O   UNL     1      15.271  -3.160  24.751  1.00  0.00    -0.452 OA
ENDROOT
BRANCH   1  12
ATOM     12  C   UNL     1      15.290  -4.963  26.350  1.00  0.00     0.025 A 
ATOM     13  C   UNL     1      15.218  -6.280  25.867  1.00  0.00     0.016 A 
ATOM     14  C   UNL     1      15.860  -7.320  26.544  1.00  0.00     0.051 A 
ATOM     15  C   UNL     1      16.569  -7.061  27.725  1.00  0.00     0.157 A 
ATOM     16  C   UNL     1      15.986  -4.712  27.547  1.00  0.00     0.062 A 
ATOM     17  C   UNL     1      16.628  -5.756  28.229  1.00  0.00     0.158 A 
BRANCH  15  18
ATOM     18  O   UNL     1      17.211  -8.095  28.404  1.00  0.00    -0.504 OA
ATOM     19  H   UNL     1      18.138  -8.408  28.138  1.00  0.00     0.293 HD
ENDBRANCH  15  18
BRANCH  17  20
ATOM     20  O   UNL     1      17.323  -5.504  29.411  1.00  0.00    -0.504 OA
ATOM     21  H   UNL     1      17.836  -6.235  29.891  1.00  0.00     0.293 HD
ENDBRANCH  17  20
ENDBRANCH   1  12
BRANCH   2  22
ATOM     22  O   UNL     1      12.520  -4.278  26.849  1.00  0.00    -0.502 OA
ATOM     23  H   UNL     1      11.799  -4.954  26.626  1.00  0.00     0.293 HD
ENDBRANCH   2  22
BRANCH   6  24
ATOM     24  O   UNL     1      11.475  -0.494  23.249  1.00  0.00    -0.507 OA
ATOM     25  H   UNL     1      10.720  -1.102  23.528  1.00  0.00     0.293 HD
ENDBRANCH   6  24
BRANCH   8  26
ATOM     26  O   UNL     1      15.893   0.280  21.536  1.00  0.00    -0.508 OA
ATOM     27  H   UNL     1      16.256   1.192  21.788  1.00  0.00     0.293 HD
ENDBRANCH   8  26
TORSDOF 6
ENDMDL
MODEL 5
REMARK VINA RESULT:    -5.942      2.953      4.031
REMARK INTER + INTRA:          -7.465
REMARK INTER:                  -7.188
REMARK INTRA:                  -0.277
REMARK UNBOUND:                -0.307
REMARK SMILES O=c1c(O)c(-c2ccc(O)c(O)c2)oc2cc(O)cc(O)c12
REMARK SMILES IDX 5 1 3 2 2 3 1 4 22 5 20 6 19 7 17 8 16 9 15 10 14 11 6 12
REMARK SMILES IDX 7 13 8 14 9 15 13 16 11 17 10 18 12 20 4 22 21 24 18 26
REMARK H PARENT 10 19 12 21 4 23 21 25 18 27
REMARK Flexibility Score: inf
ROOT
ATOM      1  C   UNL     1      11.701   1.645  21.816  1.00  0.00     0.180 A 
ATOM      2  C   UNL     1      13.016   1.627  21.319  1.00  0.00     0.208 A 
ATOM      3  C   UNL     1      13.947   0.743  21.888  1.00  0.00     0.238 A 
ATOM      4  O   UNL     1      15.136   0.771  21.476  1.00  0.00    -0.285 OA
ATOM      5  C   UNL     1      13.548  -0.123  22.934  1.00  0.00     0.111 A 
ATOM      6  C   UNL     1      14.397  -1.087  23.555  1.00  0.00     0.134 A 
ATOM      7  C   UNL     1      13.933  -1.799  24.669  1.00  0.00     0.093 A 
ATOM      8  C   UNL     1      12.629  -1.629  25.141  1.00  0.00     0.123 A 
ATOM      9  C   UNL     1      11.774  -0.734  24.503  1.00  0.00     0.094 A 
ATOM     10  C   UNL     1      12.220   0.017  23.413  1.00  0.00     0.146 A 
ATOM     11  O   UNL     1      11.375   0.867  22.841  1.00  0.00    -0.452 OA
ENDROOT
BRANCH   1  12
ATOM     12  C   UNL     1      10.658   2.531  21.252  1.00  0.00     0.025 A 
ATOM     13  C   UNL     1      10.630   3.887  21.618  1.00  0.00     0.016 A 
ATOM     14  C   UNL     1       9.643   4.737  21.115  1.00  0.00     0.051 A 
ATOM     15  C   UNL     1       8.658   4.241  20.250  1.00  0.00     0.157 A 
ATOM     16  C   UNL     1       9.655   2.033  20.400  1.00  0.00     0.062 A 
ATOM     17  C   UNL     1       8.662   2.886  19.896  1.00  0.00     0.158 A 
BRANCH  15  18
ATOM     18  O   UNL     1       7.672   5.085  19.744  1.00  0.00    -0.504 OA
ATOM     19  H   UNL     1       7.907   5.942  19.257  1.00  0.00     0.293 HD
ENDBRANCH  15  18
BRANCH  17  20
ATOM     20  O   UNL     1       7.673   2.393  19.045  1.00  0.00    -0.504 OA
ATOM     21  H   UNL     1       7.659   1.421  18.757  1.00  0.00     0.293 HD
ENDBRANCH  17  20
ENDBRANCH   1  12
BRANCH   2  22
ATOM     22  O   UNL     1      13.395   2.506  20.300  1.00  0.00    -0.502 OA
ATOM     23  H   UNL     1      13.744   3.438  20.488  1.00  0.00     0.293 HD
ENDBRANCH   2  22
BRANCH   6  24
ATOM     24  O   UNL     1      15.683  -1.401  23.106  1.00  0.00    -0.507 OA
ATOM     25  H   UNL     1      16.269  -2.121  23.501  1.00  0.00     0.293 HD
ENDBRANCH   6  24
BRANCH   8  26
ATOM     26  O   UNL     1      12.171  -2.354  26.239  1.00  0.00    -0.508 OA
ATOM     27  H   UNL     1      12.116  -1.940  27.162  1.00  0.00     0.293 HD
ENDBRANCH   8  26
TORSDOF 6
ENDMDL
MODEL 6
REMARK VINA RESULT:    -5.903      3.479      7.723
REMARK INTER + INTRA:          -7.418
REMARK INTER:                  -7.099
REMARK INTRA:                  -0.320
REMARK UNBOUND:                -0.307
REMARK SMILES O=c1c(O)c(-c2ccc(O)c(O)c2)oc2cc(O)cc(O)c12
REMARK SMILES IDX 5 1 3 2 2 3 1 4 22 5 20 6 19 7 17 8 16 9 15 10 14 11 6 12
REMARK SMILES IDX 7 13 8 14 9 15 13 16 11 17 10 18 12 20 4 22 21 24 18 26
REMARK H PARENT 10 19 12 21 4 23 21 25 18 27
REMARK Flexibility Score: inf
ROOT
ATOM      1  C   UNL     1      11.308   1.843  22.587  1.00  0.00     0.180 A 
ATOM      2  C   UNL     1      10.951   1.726  21.232  1.00  0.00     0.208 A 
ATOM      3  C   UNL     1      10.548   2.875  20.532  1.00  0.00     0.238 A 
ATOM      4  O   UNL     1      10.178   2.755  19.335  1.00  0.00    -0.285 OA
ATOM      5  C   UNL     1      10.523   4.128  21.191  1.00  0.00     0.111 A 
ATOM      6  C   UNL     1      10.171   5.363  20.568  1.00  0.00     0.134 A 
ATOM      7  C   UNL     1      10.054   6.521  21.348  1.00  0.00     0.093 A 
ATOM      8  C   UNL     1      10.341   6.500  22.716  1.00  0.00     0.123 A 
ATOM      9  C   UNL     1      10.743   5.312  23.320  1.00  0.00     0.094 A 
ATOM     10  C   UNL     1      10.833   4.133  22.575  1.00  0.00     0.146 A 
ATOM     11  O   UNL     1      11.211   3.019  23.193  1.00  0.00    -0.452 OA
ENDROOT
BRANCH   1  12
ATOM     12  C   UNL     1      11.765   0.682  23.383  1.00  0.00     0.025 A 
ATOM     13  C   UNL     1      13.118   0.306  23.343  1.00  0.00     0.016 A 
ATOM     14  C   UNL     1      13.568  -0.799  24.070  1.00  0.00     0.051 A 
ATOM     15  C   UNL     1      12.668  -1.556  24.833  1.00  0.00     0.157 A 
ATOM     16  C   UNL     1      10.862  -0.093  24.134  1.00  0.00     0.062 A 
ATOM     17  C   UNL     1      11.313  -1.204  24.862  1.00  0.00     0.158 A 
BRANCH  15  18
ATOM     18  O   UNL     1      13.112  -2.658  25.560  1.00  0.00    -0.504 OA
ATOM     19  H   UNL     1      12.938  -2.742  26.555  1.00  0.00     0.293 HD
ENDBRANCH  15  18
BRANCH  17  20
ATOM     20  O   UNL     1      10.418  -1.966  25.612  1.00  0.00    -0.504 OA
ATOM     21  H   UNL     1       9.501  -2.211  25.255  1.00  0.00     0.293 HD
ENDBRANCH  17  20
ENDBRANCH   1  12
BRANCH   2  22
ATOM     22  O   UNL     1      10.962   0.476  20.607  1.00  0.00    -0.502 OA
ATOM     23  H   UNL     1      11.394  -0.338  21.026  1.00  0.00     0.293 HD
ENDBRANCH   2  22
BRANCH   6  24
ATOM     24  O   UNL     1       9.955   5.513  19.195  1.00  0.00    -0.507 OA
ATOM     25  H   UNL     1      10.355   6.244  18.627  1.00  0.00     0.293 HD
ENDBRANCH   6  24
BRANCH   8  26
ATOM     26  O   UNL     1      10.238   7.659  23.481  1.00  0.00    -0.508 OA
ATOM     27  H   UNL     1      11.001   8.322  23.545  1.00  0.00     0.293 HD
ENDBRANCH   8  26
TORSDOF 6
ENDMDL
MODEL 7
REMARK VINA RESULT:    -5.882      2.904      8.049
REMARK INTER + INTRA:          -7.393
REMARK INTER:                  -7.058
REMARK INTRA:                  -0.335
REMARK UNBOUND:                -0.307
REMARK SMILES O=c1c(O)c(-c2ccc(O)c(O)c2)oc2cc(O)cc(O)c12
REMARK SMILES IDX 5 1 3 2 2 3 1 4 22 5 20 6 19 7 17 8 16 9 15 10 14 11 6 12
REMARK SMILES IDX 7 13 8 14 9 15 13 16 11 17 10 18 12 20 4 22 21 24 18 26
REMARK H PARENT 10 19 12 21 4 23 21 25 18 27
REMARK Flexibility Score: inf
ROOT
ATOM      1  C   UNL     1      14.476  -3.858  25.511  1.00  0.00     0.180 A 
ATOM      2  C   UNL     1      13.147  -3.495  25.794  1.00  0.00     0.208 A 
ATOM      3  C   UNL     1      12.574  -2.415  25.102  1.00  0.00     0.238 A 
ATOM      4  O   UNL     1      11.403  -2.062  25.399  1.00  0.00    -0.285 OA
ATOM      5  C   UNL     1      13.330  -1.723  24.126  1.00  0.00     0.111 A 
ATOM      6  C   UNL     1      12.836  -0.641  23.337  1.00  0.00     0.134 A 
ATOM      7  C   UNL     1      13.712   0.055  22.495  1.00  0.00     0.093 A 
ATOM      8  C   UNL     1      15.048  -0.335  22.364  1.00  0.00     0.123 A 
ATOM      9  C   UNL     1      15.523  -1.427  23.085  1.00  0.00     0.094 A 
ATOM     10  C   UNL     1      14.682  -2.118  23.961  1.00  0.00     0.146 A 
ATOM     11  O   UNL     1      15.179  -3.148  24.638  1.00  0.00    -0.452 OA
ENDROOT
BRANCH   1  12
ATOM     12  C   UNL     1      15.140  -4.999  26.180  1.00  0.00     0.025 A 
ATOM     13  C   UNL     1      15.907  -4.772  27.335  1.00  0.00     0.016 A 
ATOM     14  C   UNL     1      16.559  -5.830  27.971  1.00  0.00     0.051 A 
ATOM     15  C   UNL     1      16.469  -7.129  27.453  1.00  0.00     0.157 A 
ATOM     16  C   UNL     1      15.069  -6.301  25.652  1.00  0.00     0.062 A 
ATOM     17  C   UNL     1      15.726  -7.363  26.289  1.00  0.00     0.158 A 
BRANCH  15  18
ATOM     18  O   UNL     1      17.117  -8.188  28.085  1.00  0.00    -0.504 OA
ATOM     19  H   UNL     1      18.117  -8.330  27.991  1.00  0.00     0.293 HD
ENDBRANCH  15  18
BRANCH  17  20
ATOM     20  O   UNL     1      15.648  -8.655  25.769  1.00  0.00    -0.504 OA
ATOM     21  H   UNL     1      16.358  -9.017  25.142  1.00  0.00     0.293 HD
ENDBRANCH  17  20
ENDBRANCH   1  12
BRANCH   2  22
ATOM     22  O   UNL     1      12.426  -4.179  26.777  1.00  0.00    -0.502 OA
ATOM     23  H   UNL     1      12.107  -3.731  27.627  1.00  0.00     0.293 HD
ENDBRANCH   2  22
BRANCH   6  24
ATOM     24  O   UNL     1      11.500  -0.230  23.323  1.00  0.00    -0.507 OA
ATOM     25  H   UNL     1      10.708  -0.852  23.388  1.00  0.00     0.293 HD
ENDBRANCH   6  24
BRANCH   8  26
ATOM     26  O   UNL     1      15.908   0.353  21.512  1.00  0.00    -0.508 OA
ATOM     27  H   UNL     1      15.641   1.233  21.086  1.00  0.00     0.293 HD
ENDBRANCH   8  26
TORSDOF 6
ENDMDL
MODEL 8
REMARK VINA RESULT:    -5.850      4.065      7.955
REMARK INTER + INTRA:          -7.354
REMARK INTER:                  -7.031
REMARK INTRA:                  -0.323
REMARK UNBOUND:                -0.307
REMARK SMILES O=c1c(O)c(-c2ccc(O)c(O)c2)oc2cc(O)cc(O)c12
REMARK SMILES IDX 5 1 3 2 2 3 1 4 22 5 20 6 19 7 17 8 16 9 15 10 14 11 6 12
REMARK SMILES IDX 7 13 8 14 9 15 13 16 11 17 10 18 12 20 4 22 21 24 18 26
REMARK H PARENT 10 19 12 21 4 23 21 25 18 27
REMARK Flexibility Score: inf
ROOT
ATOM      1  C   UNL     1      11.095   2.611  22.329  1.00  0.00     0.180 A 
ATOM      2  C   UNL     1      10.492   2.569  21.060  1.00  0.00     0.208 A 
ATOM      3  C   UNL     1       9.916   3.740  20.540  1.00  0.00     0.238 A 
ATOM      4  O   UNL     1       9.330   3.683  19.428  1.00  0.00    -0.285 OA
ATOM      5  C   UNL     1       9.965   4.941  21.288  1.00  0.00     0.111 A 
ATOM      6  C   UNL     1       9.451   6.195  20.842  1.00  0.00     0.134 A 
ATOM      7  C   UNL     1       9.437   7.287  21.718  1.00  0.00     0.093 A 
ATOM      8  C   UNL     1       9.979   7.187  23.002  1.00  0.00     0.123 A 
ATOM      9  C   UNL     1      10.538   5.984  23.425  1.00  0.00     0.094 A 
ATOM     10  C   UNL     1      10.533   4.867  22.586  1.00  0.00     0.146 A 
ATOM     11  O   UNL     1      11.067   3.736  23.033  1.00  0.00    -0.452 OA
ENDROOT
BRANCH   1  12
ATOM     12  C   UNL     1      11.743   1.425  22.931  1.00  0.00     0.025 A 
ATOM     13  C   UNL     1      11.048   0.669  23.890  1.00  0.00     0.016 A 
ATOM     14  C   UNL     1      11.648  -0.442  24.487  1.00  0.00     0.051 A 
ATOM     15  C   UNL     1      12.959  -0.804  24.148  1.00  0.00     0.157 A 
ATOM     16  C   UNL     1      13.066   1.070  22.609  1.00  0.00     0.062 A 
ATOM     17  C   UNL     1      13.669  -0.045  23.210  1.00  0.00     0.158 A 
BRANCH  15  18
ATOM     18  O   UNL     1      13.561  -1.913  24.740  1.00  0.00    -0.504 OA
ATOM     19  H   UNL     1      13.458  -2.843  24.351  1.00  0.00     0.293 HD
ENDBRANCH  15  18
BRANCH  17  20
ATOM     20  O   UNL     1      14.978  -0.400  22.884  1.00  0.00    -0.504 OA
ATOM     21  H   UNL     1      15.411  -1.234  23.265  1.00  0.00     0.293 HD
ENDBRANCH  17  20
ENDBRANCH   1  12
BRANCH   2  22
ATOM     22  O   UNL     1      10.435   1.368  20.347  1.00  0.00    -0.502 OA
ATOM     23  H   UNL     1      10.824   0.504  20.705  1.00  0.00     0.293 HD
ENDBRANCH   2  22
BRANCH   6  24
ATOM     24  O   UNL     1       8.971   6.427  19.549  1.00  0.00    -0.507 OA
ATOM     25  H   UNL     1       9.185   5.855  18.746  1.00  0.00     0.293 HD
ENDBRANCH   6  24
BRANCH   8  26
ATOM     26  O   UNL     1       9.976   8.283  23.862  1.00  0.00    -0.508 OA
ATOM     27  H   UNL     1      10.318   8.212  24.813  1.00  0.00     0.293 HD
ENDBRANCH   8  26
TORSDOF 6
ENDMDL
MODEL 9
REMARK VINA RESULT:    -5.798      1.941      2.474
REMARK INTER + INTRA:          -7.292
REMARK INTER:                  -6.970
REMARK INTRA:                  -0.322
REMARK UNBOUND:                -0.307
REMARK SMILES O=c1c(O)c(-c2ccc(O)c(O)c2)oc2cc(O)cc(O)c12
REMARK SMILES IDX 5 1 3 2 2 3 1 4 22 5 20 6 19 7 17 8 16 9 15 10 14 11 6 12
REMARK SMILES IDX 7 13 8 14 9 15 13 16 11 17 10 18 12 20 4 22 21 24 18 26
REMARK H PARENT 10 19 12 21 4 23 21 25 18 27
REMARK Flexibility Score: inf
ROOT
ATOM      1  C   UNL     1      12.888  -1.419  21.824  1.00  0.00     0.180 A 
ATOM      2  C   UNL     1      13.289  -1.061  23.123  1.00  0.00     0.208 A 
ATOM      3  C   UNL     1      12.555  -1.542  24.219  1.00  0.00     0.238 A 
ATOM      4  O   UNL     1      12.886  -1.174  25.376  1.00  0.00    -0.285 OA
ATOM      5  C   UNL     1      11.441  -2.388  24.003  1.00  0.00     0.111 A 
ATOM      6  C   UNL     1      10.650  -2.967  25.041  1.00  0.00     0.134 A 
ATOM      7  C   UNL     1       9.493  -3.683  24.710  1.00  0.00     0.093 A 
ATOM      8  C   UNL     1       9.134  -3.896  23.376  1.00  0.00     0.123 A 
ATOM      9  C   UNL     1       9.933  -3.386  22.356  1.00  0.00     0.094 A 
ATOM     10  C   UNL     1      11.073  -2.637  22.656  1.00  0.00     0.146 A 
ATOM     11  O   UNL     1      11.801  -2.160  21.652  1.00  0.00    -0.452 OA
ENDROOT
BRANCH   1  12
ATOM     12  C   UNL     1      13.626  -0.970  20.621  1.00  0.00     0.025 A 
ATOM     13  C   UNL     1      14.722  -1.719  20.163  1.00  0.00     0.016 A 
ATOM     14  C   UNL     1      15.446  -1.303  19.042  1.00  0.00     0.051 A 
ATOM     15  C   UNL     1      15.094  -0.123  18.374  1.00  0.00     0.157 A 
ATOM     16  C   UNL     1      13.290   0.225  19.959  1.00  0.00     0.062 A 
ATOM     17  C   UNL     1      14.017   0.644  18.835  1.00  0.00     0.158 A 
BRANCH  15  18
ATOM     18  O   UNL     1      15.812   0.296  17.255  1.00  0.00    -0.504 OA
ATOM     19  H   UNL     1      15.462   0.150  16.315  1.00  0.00     0.293 HD
ENDBRANCH  15  18
BRANCH  17  20
ATOM     20  O   UNL     1      13.678   1.825  18.176  1.00  0.00    -0.504 OA
ATOM     21  H   UNL     1      12.921   2.415  18.501  1.00  0.00     0.293 HD
ENDBRANCH  17  20
ENDBRANCH   1  12
BRANCH   2  22
ATOM     22  O   UNL     1      14.379  -0.206  23.312  1.00  0.00    -0.502 OA
ATOM     23  H   UNL     1      15.328  -0.548  23.405  1.00  0.00     0.293 HD
ENDBRANCH   2  22
BRANCH   6  24
ATOM     24  O   UNL     1      10.970  -2.893  26.400  1.00  0.00    -0.507 OA
ATOM     25  H   UNL     1      10.545  -3.456  27.122  1.00  0.00     0.293 HD
ENDBRANCH   6  24
BRANCH   8  26
ATOM     26  O   UNL     1       7.990  -4.622  23.056  1.00  0.00    -0.508 OA
ATOM     27  H   UNL     1       7.098  -4.167  22.902  1.00  0.00     0.293 HD
ENDBRANCH   8  26
TORSDOF 6
ENDMDL
