MODEL 1
REMARK VINA RESULT:    -5.403      0.000      0.000
REMARK INTER + INTRA:          -9.699
REMARK INTER:                  -8.246
REMARK INTRA:                  -1.453
REMARK UNBOUND:                -1.453
REMARK SMILES OC[C@H]1O[C@H](O[C@@]2(CO)O[C@H](CO)[C@H](O)[C@@H]2O)[C@H](O)[C@H](O)[C@H]1O
REMARK SMILES IDX 6 1 5 2 3 3 22 4 4 5 20 6 18 7 2 8 1 9 23 11 21 13 19 15
REMARK SMILES IDX 7 17 16 18 10 19 14 20 11 21 8 22 9 23 17 25 15 27 12 29
REMARK SMILES IDX 13 30
REMARK H PARENT 1 10 23 12 21 14 19 16 9 24 17 26 15 28 13 31
REMARK Flexibility Score: inf
ROOT
ATOM      1  O   UNL     1       0.769  -1.885  10.046  1.00  0.00    -0.313 OA
ENDROOT
BRANCH   1   2
ATOM      2  C   UNL     1       0.981  -0.480  10.110  1.00  0.00     0.285 C 
ATOM      3  C   UNL     1       0.632   1.303  11.651  1.00  0.00     0.178 C 
ATOM      4  C   UNL     1       2.072   1.268  12.248  1.00  0.00     0.177 C 
ATOM      5  O   UNL     1       0.227   0.016  11.213  1.00  0.00    -0.341 OA
ATOM      6  C   UNL     1       2.927   0.108  11.671  1.00  0.00     0.179 C 
ATOM      7  C   UNL     1       2.513  -0.208  10.227  1.00  0.00     0.202 C 
BRANCH   3   8
ATOM      8  C   UNL     1       0.366   2.384  10.578  1.00  0.00     0.191 C 
BRANCH   8   9
ATOM      9  O   UNL     1       0.181   3.632  11.186  1.00  0.00    -0.394 OA
ATOM     10  H   UNL     1      -0.607   4.041  10.743  1.00  0.00     0.210 HD
ENDBRANCH   8   9
ENDBRANCH   3   8
BRANCH   4  11
ATOM     11  O   UNL     1       2.729   2.507  12.118  1.00  0.00    -0.387 OA
ATOM     12  H   UNL     1       3.290   2.473  11.301  1.00  0.00     0.211 HD
ENDBRANCH   4  11
BRANCH   6  13
ATOM     13  O   UNL     1       2.856  -1.043  12.482  1.00  0.00    -0.387 OA
ATOM     14  H   UNL     1       3.278  -0.836  13.354  1.00  0.00     0.211 HD
ENDBRANCH   6  13
BRANCH   7  15
ATOM     15  O   UNL     1       3.265  -1.294   9.747  1.00  0.00    -0.385 OA
ATOM     16  H   UNL     1       3.163  -1.296   8.760  1.00  0.00     0.211 HD
ENDBRANCH   7  15
ENDBRANCH   1   2
BRANCH   1  17
ATOM     17  C   UNL     1       0.197  -2.337   8.820  1.00  0.00     0.224 C 
ATOM     18  C   UNL     1       0.071  -3.885   8.908  1.00  0.00     0.208 C 
ATOM     19  O   UNL     1       1.066  -2.037   7.736  1.00  0.00    -0.337 OA
ATOM     20  C   UNL     1       0.785  -4.383   7.670  1.00  0.00     0.180 C 
ATOM     21  C   UNL     1       1.727  -3.224   7.373  1.00  0.00     0.179 C 
BRANCH  17  22
ATOM     22  C   UNL     1      -1.170  -1.651   8.558  1.00  0.00     0.225 C 
BRANCH  22  23
ATOM     23  O   UNL     1      -1.999  -1.763   9.683  1.00  0.00    -0.391 OA
ATOM     24  H   UNL     1      -2.929  -1.667   9.351  1.00  0.00     0.210 HD
ENDBRANCH  22  23
ENDBRANCH  17  22
BRANCH  18  25
ATOM     25  O   UNL     1      -1.255  -4.354   8.955  1.00  0.00    -0.385 OA
ATOM     26  H   UNL     1      -1.455  -4.731   8.058  1.00  0.00     0.211 HD
ENDBRANCH  18  25
BRANCH  20  27
ATOM     27  O   UNL     1      -0.107  -4.645   6.609  1.00  0.00    -0.387 OA
ATOM     28  H   UNL     1      -0.442  -5.574   6.704  1.00  0.00     0.211 HD
ENDBRANCH  20  27
BRANCH  21  29
ATOM     29  C   UNL     1       2.184  -3.161   5.909  1.00  0.00     0.191 C 
BRANCH  29  30
ATOM     30  O   UNL     1       1.120  -2.769   5.084  1.00  0.00    -0.394 OA
ATOM     31  H   UNL     1       0.301  -2.789   5.645  1.00  0.00     0.210 HD
ENDBRANCH  29  30
ENDBRANCH  21  29
ENDBRANCH   1  17
TORSDOF 13
ENDMDL
MODEL 2
REMARK VINA RESULT:    -5.242      1.451      6.072
REMARK INTER + INTRA:          -9.453
REMARK INTER:                  -8.230
REMARK INTRA:                  -1.223
REMARK UNBOUND:                -1.453
REMARK SMILES OC[C@H]1O[C@H](O[C@@]2(CO)O[C@H](CO)[C@H](O)[C@@H]2O)[C@H](O)[C@H](O)[C@H]1O
REMARK SMILES IDX 6 1 5 2 3 3 22 4 4 5 20 6 18 7 2 8 1 9 23 11 21 13 19 15
REMARK SMILES IDX 7 17 16 18 10 19 14 20 11 21 8 22 9 23 17 25 15 27 12 29
REMARK SMILES IDX 13 30
REMARK H PARENT 1 10 23 12 21 14 19 16 9 24 17 26 15 28 13 31
REMARK Flexibility Score: inf
ROOT
ATOM      1  O   UNL     1      -0.212  -1.256  10.965  1.00  0.00    -0.313 OA
ENDROOT
BRANCH   1   2
ATOM      2  C   UNL     1       0.236  -1.550   9.647  1.00  0.00     0.285 C 
ATOM      3  C   UNL     1       1.389  -3.297   8.509  1.00  0.00     0.178 C 
ATOM      4  C   UNL     1       0.101  -4.023   8.009  1.00  0.00     0.177 C 
ATOM      5  O   UNL     1       1.157  -2.633   9.741  1.00  0.00    -0.341 OA
ATOM      6  C   UNL     1      -1.198  -3.367   8.549  1.00  0.00     0.179 C 
ATOM      7  C   UNL     1      -1.003  -1.858   8.752  1.00  0.00     0.202 C 
BRANCH   3   8
ATOM      8  C   UNL     1       2.091  -2.376   7.484  1.00  0.00     0.191 C 
BRANCH   8   9
ATOM      9  O   UNL     1       2.668  -3.142   6.463  1.00  0.00    -0.394 OA
ATOM     10  H   UNL     1       3.274  -2.531   5.968  1.00  0.00     0.210 HD
ENDBRANCH   8   9
ENDBRANCH   3   8
BRANCH   4  11
ATOM     11  O   UNL     1       0.074  -4.145   6.607  1.00  0.00    -0.387 OA
ATOM     12  H   UNL     1      -0.797  -4.544   6.350  1.00  0.00     0.211 HD
ENDBRANCH   4  11
BRANCH   6  13
ATOM     13  O   UNL     1      -1.637  -3.986   9.737  1.00  0.00    -0.387 OA
ATOM     14  H   UNL     1      -0.841  -4.292  10.242  1.00  0.00     0.211 HD
ENDBRANCH   6  13
BRANCH   7  15
ATOM     15  O   UNL     1      -2.176  -1.299   9.289  1.00  0.00    -0.385 OA
ATOM     16  H   UNL     1      -2.230  -0.369   8.949  1.00  0.00     0.211 HD
ENDBRANCH   7  15
ENDBRANCH   1   2
BRANCH   1  17
ATOM     17  C   UNL     1       0.476  -0.174  11.591  1.00  0.00     0.224 C 
ATOM     18  C   UNL     1       1.538   0.348  10.582  1.00  0.00     0.208 C 
ATOM     19  O   UNL     1       1.167  -0.637  12.744  1.00  0.00    -0.337 OA
ATOM     20  C   UNL     1       2.836   0.307  11.360  1.00  0.00     0.180 C 
ATOM     21  C   UNL     1       2.529  -0.752  12.410  1.00  0.00     0.179 C 
BRANCH  17  22
ATOM     22  C   UNL     1      -0.515   0.937  12.028  1.00  0.00     0.225 C 
BRANCH  22  23
ATOM     23  O   UNL     1      -1.597   1.007  11.138  1.00  0.00    -0.391 OA
ATOM     24  H   UNL     1      -1.448   0.291  10.466  1.00  0.00     0.210 HD
ENDBRANCH  22  23
ENDBRANCH  17  22
BRANCH  18  25
ATOM     25  O   UNL     1       1.280   1.642  10.091  1.00  0.00    -0.385 OA
ATOM     26  H   UNL     1       2.055   2.205  10.351  1.00  0.00     0.211 HD
ENDBRANCH  18  25
BRANCH  20  27
ATOM     27  O   UNL     1       3.158   1.558  11.927  1.00  0.00    -0.387 OA
ATOM     28  H   UNL     1       2.941   2.266  11.266  1.00  0.00     0.211 HD
ENDBRANCH  20  27
BRANCH  21  29
ATOM     29  C   UNL     1       3.403  -0.645  13.668  1.00  0.00     0.191 C 
BRANCH  29  30
ATOM     30  O   UNL     1       4.223  -1.775  13.789  1.00  0.00    -0.394 OA
ATOM     31  H   UNL     1       4.768  -1.824  12.960  1.00  0.00     0.210 HD
ENDBRANCH  29  30
ENDBRANCH  21  29
ENDBRANCH   1  17
TORSDOF 13
ENDMDL
MODEL 3
REMARK VINA RESULT:    -5.204      4.141      8.490
REMARK INTER + INTRA:          -9.395
REMARK INTER:                  -8.088
REMARK INTRA:                  -1.307
REMARK UNBOUND:                -1.453
REMARK SMILES OC[C@H]1O[C@H](O[C@@]2(CO)O[C@H](CO)[C@H](O)[C@@H]2O)[C@H](O)[C@H](O)[C@H]1O
REMARK SMILES IDX 6 1 5 2 3 3 22 4 4 5 20 6 18 7 2 8 1 9 23 11 21 13 19 15
REMARK SMILES IDX 7 17 16 18 10 19 14 20 11 21 8 22 9 23 17 25 15 27 12 29
REMARK SMILES IDX 13 30
REMARK H PARENT 1 10 23 12 21 14 19 16 9 24 17 26 15 28 13 31
REMARK Flexibility Score: inf
ROOT
ATOM      1  O   UNL     1       2.515   2.118  14.953  1.00  0.00    -0.313 OA
ENDROOT
BRANCH   1   2
ATOM      2  C   UNL     1       1.731   1.050  14.437  1.00  0.00     0.285 C 
ATOM      3  C   UNL     1      -0.244   0.761  13.135  1.00  0.00     0.178 C 
ATOM      4  C   UNL     1       0.498   0.599  11.773  1.00  0.00     0.177 C 
ATOM      5  O   UNL     1       0.484   1.599  14.019  1.00  0.00    -0.341 OA
ATOM      6  C   UNL     1       2.032   0.801  11.904  1.00  0.00     0.179 C 
ATOM      7  C   UNL     1       2.524   0.354  13.288  1.00  0.00     0.202 C 
BRANCH   3   8
ATOM      8  C   UNL     1      -0.693  -0.548  13.825  1.00  0.00     0.191 C 
BRANCH   8   9
ATOM      9  O   UNL     1      -1.955  -0.378  14.408  1.00  0.00    -0.394 OA
ATOM     10  H   UNL     1      -1.846  -0.590  15.371  1.00  0.00     0.210 HD
ENDBRANCH   8   9
ENDBRANCH   3   8
BRANCH   4  11
ATOM     11  O   UNL     1       0.190  -0.622  11.145  1.00  0.00    -0.387 OA
ATOM     12  H   UNL     1       0.989  -0.915  10.634  1.00  0.00     0.211 HD
ENDBRANCH   4  11
BRANCH   6  13
ATOM     13  O   UNL     1       2.405   2.134  11.639  1.00  0.00    -0.387 OA
ATOM     14  H   UNL     1       2.458   2.254  10.657  1.00  0.00     0.211 HD
ENDBRANCH   6  13
BRANCH   7  15
ATOM     15  O   UNL     1       3.905   0.595  13.398  1.00  0.00    -0.385 OA
ATOM     16  H   UNL     1       4.005   1.482  13.830  1.00  0.00     0.211 HD
ENDBRANCH   7  15
ENDBRANCH   1   2
BRANCH   1  17
ATOM     17  C   UNL     1       2.859   1.981  16.331  1.00  0.00     0.224 C 
ATOM     18  C   UNL     1       4.090   2.895  16.597  1.00  0.00     0.208 C 
ATOM     19  O   UNL     1       3.250   0.642  16.606  1.00  0.00    -0.337 OA
ATOM     20  C   UNL     1       5.110   1.966  17.218  1.00  0.00     0.180 C 
ATOM     21  C   UNL     1       4.654   0.612  16.689  1.00  0.00     0.179 C 
BRANCH  17  22
ATOM     22  C   UNL     1       1.656   2.337  17.243  1.00  0.00     0.225 C 
BRANCH  22  23
ATOM     23  O   UNL     1       0.950   3.430  16.720  1.00  0.00    -0.391 OA
ATOM     24  H   UNL     1       0.575   3.126  15.852  1.00  0.00     0.210 HD
ENDBRANCH  22  23
ENDBRANCH  17  22
BRANCH  18  25
ATOM     25  O   UNL     1       3.822   3.992  17.436  1.00  0.00    -0.385 OA
ATOM     26  H   UNL     1       3.035   3.743  17.988  1.00  0.00     0.211 HD
ENDBRANCH  18  25
BRANCH  20  27
ATOM     27  O   UNL     1       5.102   2.030  18.627  1.00  0.00    -0.387 OA
ATOM     28  H   UNL     1       5.836   2.632  18.917  1.00  0.00     0.211 HD
ENDBRANCH  20  27
BRANCH  21  29
ATOM     29  C   UNL     1       5.117  -0.573  17.548  1.00  0.00     0.191 C 
BRANCH  29  30
ATOM     30  O   UNL     1       4.200  -0.813  18.581  1.00  0.00    -0.394 OA
ATOM     31  H   UNL     1       4.193  -1.795  18.735  1.00  0.00     0.210 HD
ENDBRANCH  29  30
ENDBRANCH  21  29
ENDBRANCH   1  17
TORSDOF 13
ENDMDL
MODEL 4
REMARK VINA RESULT:    -5.024      4.465      7.236
REMARK INTER + INTRA:          -9.121
REMARK INTER:                  -7.730
REMARK INTRA:                  -1.391
REMARK UNBOUND:                -1.453
REMARK SMILES OC[C@H]1O[C@H](O[C@@]2(CO)O[C@H](CO)[C@H](O)[C@@H]2O)[C@H](O)[C@H](O)[C@H]1O
REMARK SMILES IDX 6 1 5 2 3 3 22 4 4 5 20 6 18 7 2 8 1 9 23 11 21 13 19 15
REMARK SMILES IDX 7 17 16 18 10 19 14 20 11 21 8 22 9 23 17 25 15 27 12 29
REMARK SMILES IDX 13 30
REMARK H PARENT 1 10 23 12 21 14 19 16 9 24 17 26 15 28 13 31
REMARK Flexibility Score: inf
ROOT
ATOM      1  O   UNL     1       2.463   2.520  13.619  1.00  0.00    -0.313 OA
ENDROOT
BRANCH   1   2
ATOM      2  C   UNL     1       2.826   2.672  14.987  1.00  0.00     0.285 C 
ATOM      3  C   UNL     1       4.813   2.797  16.295  1.00  0.00     0.178 C 
ATOM      4  C   UNL     1       4.877   4.355  16.320  1.00  0.00     0.177 C 
ATOM      5  O   UNL     1       4.204   2.328  15.103  1.00  0.00    -0.341 OA
ATOM      6  C   UNL     1       3.766   5.009  15.455  1.00  0.00     0.179 C 
ATOM      7  C   UNL     1       2.507   4.133  15.431  1.00  0.00     0.202 C 
BRANCH   3   8
ATOM      8  C   UNL     1       4.213   2.121  17.550  1.00  0.00     0.191 C 
BRANCH   8   9
ATOM      9  O   UNL     1       5.108   2.215  18.624  1.00  0.00    -0.394 OA
ATOM     10  H   UNL     1       5.821   1.547  18.448  1.00  0.00     0.210 HD
ENDBRANCH   8   9
ENDBRANCH   3   8
BRANCH   4  11
ATOM     11  O   UNL     1       4.875   4.864  17.633  1.00  0.00    -0.387 OA
ATOM     12  H   UNL     1       3.938   5.077  17.879  1.00  0.00     0.211 HD
ENDBRANCH   4  11
BRANCH   6  13
ATOM     13  O   UNL     1       4.219   5.282  14.149  1.00  0.00    -0.387 OA
ATOM     14  H   UNL     1       5.201   5.149  14.125  1.00  0.00     0.211 HD
ENDBRANCH   6  13
BRANCH   7  15
ATOM     15  O   UNL     1       1.537   4.722  14.601  1.00  0.00    -0.385 OA
ATOM     16  H   UNL     1       2.022   5.097  13.821  1.00  0.00     0.211 HD
ENDBRANCH   7  15
ENDBRANCH   1   2
BRANCH   1  17
ATOM     17  C   UNL     1       1.786   1.299  13.325  1.00  0.00     0.224 C 
ATOM     18  C   UNL     1       0.932   1.538  12.046  1.00  0.00     0.208 C 
ATOM     19  O   UNL     1       0.895   0.968  14.382  1.00  0.00    -0.337 OA
ATOM     20  C   UNL     1      -0.465   1.122  12.453  1.00  0.00     0.180 C 
ATOM     21  C   UNL     1      -0.408   1.298  13.965  1.00  0.00     0.179 C 
BRANCH  17  22
ATOM     22  C   UNL     1       2.793   0.133  13.149  1.00  0.00     0.225 C 
BRANCH  22  23
ATOM     23  O   UNL     1       3.965   0.586  12.527  1.00  0.00    -0.391 OA
ATOM     24  H   UNL     1       4.197  -0.097  11.845  1.00  0.00     0.210 HD
ENDBRANCH  22  23
ENDBRANCH  17  22
BRANCH  18  25
ATOM     25  O   UNL     1       1.370   0.819  10.919  1.00  0.00    -0.385 OA
ATOM     26  H   UNL     1       2.334   1.026  10.806  1.00  0.00     0.211 HD
ENDBRANCH  18  25
BRANCH  20  27
ATOM     27  O   UNL     1      -0.758  -0.204  12.071  1.00  0.00    -0.387 OA
ATOM     28  H   UNL     1      -0.934  -0.216  11.094  1.00  0.00     0.211 HD
ENDBRANCH  20  27
BRANCH  21  29
ATOM     29  C   UNL     1      -1.445   0.457  14.723  1.00  0.00     0.191 C 
BRANCH  29  30
ATOM     30  O   UNL     1      -2.724   0.665  14.189  1.00  0.00    -0.394 OA
ATOM     31  H   UNL     1      -3.327   0.858  14.955  1.00  0.00     0.210 HD
ENDBRANCH  29  30
ENDBRANCH  21  29
ENDBRANCH   1  17
TORSDOF 13
ENDMDL
MODEL 5
REMARK VINA RESULT:    -5.017      3.544      5.574
REMARK INTER + INTRA:          -9.110
REMARK INTER:                  -7.668
REMARK INTRA:                  -1.442
REMARK UNBOUND:                -1.453
REMARK SMILES OC[C@H]1O[C@H](O[C@@]2(CO)O[C@H](CO)[C@H](O)[C@@H]2O)[C@H](O)[C@H](O)[C@H]1O
REMARK SMILES IDX 6 1 5 2 3 3 22 4 4 5 20 6 18 7 2 8 1 9 23 11 21 13 19 15
REMARK SMILES IDX 7 17 16 18 10 19 14 20 11 21 8 22 9 23 17 25 15 27 12 29
REMARK SMILES IDX 13 30
REMARK H PARENT 1 10 23 12 21 14 19 16 9 24 17 26 15 28 13 31
REMARK Flexibility Score: inf
ROOT
ATOM      1  O   UNL     1       1.995   0.263  14.255  1.00  0.00    -0.313 OA
ENDROOT
BRANCH   1   2
ATOM      2  C   UNL     1       2.475   1.347  15.042  1.00  0.00     0.285 C 
ATOM      3  C   UNL     1       2.787   1.871  17.345  1.00  0.00     0.178 C 
ATOM      4  C   UNL     1       4.287   1.444  17.392  1.00  0.00     0.177 C 
ATOM      5  O   UNL     1       2.067   1.111  16.387  1.00  0.00    -0.341 OA
ATOM      6  C   UNL     1       4.772   0.830  16.052  1.00  0.00     0.179 C 
ATOM      7  C   UNL     1       4.021   1.449  14.865  1.00  0.00     0.202 C 
BRANCH   3   8
ATOM      8  C   UNL     1       2.516   3.386  17.195  1.00  0.00     0.191 C 
BRANCH   8   9
ATOM      9  O   UNL     1       2.789   4.047  18.400  1.00  0.00    -0.394 OA
ATOM     10  H   UNL     1       2.018   3.861  18.997  1.00  0.00     0.210 HD
ENDBRANCH   8   9
ENDBRANCH   3   8
BRANCH   4  11
ATOM     11  O   UNL     1       5.123   2.496  17.811  1.00  0.00    -0.387 OA
ATOM     12  H   UNL     1       4.679   2.960  18.567  1.00  0.00     0.211 HD
ENDBRANCH   4  11
BRANCH   6  13
ATOM     13  O   UNL     1       4.654  -0.574  16.051  1.00  0.00    -0.387 OA
ATOM     14  H   UNL     1       4.584  -0.882  16.990  1.00  0.00     0.211 HD
ENDBRANCH   6  13
BRANCH   7  15
ATOM     15  O   UNL     1       4.443   0.840  13.670  1.00  0.00    -0.385 OA
ATOM     16  H   UNL     1       5.179   1.399  13.310  1.00  0.00     0.211 HD
ENDBRANCH   7  15
ENDBRANCH   1   2
BRANCH   1  17
ATOM     17  C   UNL     1       1.166   0.653  13.161  1.00  0.00     0.224 C 
ATOM     18  C   UNL     1       0.012  -0.384  13.058  1.00  0.00     0.208 C 
ATOM     19  O   UNL     1       1.903   0.600  11.947  1.00  0.00    -0.337 OA
ATOM     20  C   UNL     1       0.072  -0.860  11.623  1.00  0.00     0.180 C 
ATOM     21  C   UNL     1       1.524  -0.571  11.266  1.00  0.00     0.179 C 
BRANCH  17  22
ATOM     22  C   UNL     1       0.639   2.100  13.351  1.00  0.00     0.225 C 
BRANCH  22  23
ATOM     23  O   UNL     1      -0.114   2.498  12.238  1.00  0.00    -0.391 OA
ATOM     24  H   UNL     1      -0.212   1.691  11.668  1.00  0.00     0.210 HD
ENDBRANCH  22  23
ENDBRANCH  17  22
BRANCH  18  25
ATOM     25  O   UNL     1      -1.259   0.134  13.370  1.00  0.00    -0.385 OA
ATOM     26  H   UNL     1      -1.897  -0.625  13.314  1.00  0.00     0.211 HD
ENDBRANCH  18  25
BRANCH  20  27
ATOM     27  O   UNL     1      -0.839  -0.172  10.794  1.00  0.00    -0.387 OA
ATOM     28  H   UNL     1      -1.621   0.096  11.344  1.00  0.00     0.211 HD
ENDBRANCH  20  27
BRANCH  21  29
ATOM     29  C   UNL     1       1.770  -0.420   9.757  1.00  0.00     0.191 C 
BRANCH  29  30
ATOM     30  O   UNL     1       2.866  -1.200   9.363  1.00  0.00    -0.394 OA
ATOM     31  H   UNL     1       3.668  -0.616   9.421  1.00  0.00     0.210 HD
ENDBRANCH  29  30
ENDBRANCH  21  29
ENDBRANCH   1  17
TORSDOF 13
ENDMDL
MODEL 6
REMARK VINA RESULT:    -4.996      4.768      8.086
REMARK INTER + INTRA:          -9.078
REMARK INTER:                  -7.719
REMARK INTRA:                  -1.359
REMARK UNBOUND:                -1.453
REMARK SMILES OC[C@H]1O[C@H](O[C@@]2(CO)O[C@H](CO)[C@H](O)[C@@H]2O)[C@H](O)[C@H](O)[C@H]1O
REMARK SMILES IDX 6 1 5 2 3 3 22 4 4 5 20 6 18 7 2 8 1 9 23 11 21 13 19 15
REMARK SMILES IDX 7 17 16 18 10 19 14 20 11 21 8 22 9 23 17 25 15 27 12 29
REMARK SMILES IDX 13 30
REMARK H PARENT 1 10 23 12 21 14 19 16 9 24 17 26 15 28 13 31
REMARK Flexibility Score: inf
ROOT
ATOM      1  O   UNL     1       3.588   2.658  15.066  1.00  0.00    -0.313 OA
ENDROOT
BRANCH   1   2
ATOM      2  C   UNL     1       3.237   3.335  16.267  1.00  0.00     0.285 C 
ATOM      3  C   UNL     1       4.188   4.942  17.746  1.00  0.00     0.178 C 
ATOM      4  C   UNL     1       3.492   6.176  17.092  1.00  0.00     0.177 C 
ATOM      5  O   UNL     1       4.425   3.921  16.790  1.00  0.00    -0.341 OA
ATOM      6  C   UNL     1       2.673   5.796  15.829  1.00  0.00     0.179 C 
ATOM      7  C   UNL     1       2.115   4.371  15.950  1.00  0.00     0.202 C 
BRANCH   3   8
ATOM      8  C   UNL     1       3.523   4.385  19.026  1.00  0.00     0.191 C 
BRANCH   8   9
ATOM      9  O   UNL     1       3.997   5.070  20.153  1.00  0.00    -0.394 OA
ATOM     10  H   UNL     1       4.902   4.707  20.336  1.00  0.00     0.210 HD
ENDBRANCH   8   9
ENDBRANCH   3   8
BRANCH   4  11
ATOM     11  O   UNL     1       2.710   6.893  18.017  1.00  0.00    -0.387 OA
ATOM     12  H   UNL     1       3.298   7.550  18.473  1.00  0.00     0.211 HD
ENDBRANCH   4  11
BRANCH   6  13
ATOM     13  O   UNL     1       3.435   5.944  14.653  1.00  0.00    -0.387 OA
ATOM     14  H   UNL     1       3.253   5.169  14.063  1.00  0.00     0.211 HD
ENDBRANCH   6  13
BRANCH   7  15
ATOM     15  O   UNL     1       1.423   4.035  14.773  1.00  0.00    -0.385 OA
ATOM     16  H   UNL     1       1.355   4.866  14.236  1.00  0.00     0.211 HD
ENDBRANCH   7  15
ENDBRANCH   1   2
BRANCH   1  17
ATOM     17  C   UNL     1       3.324   1.256  15.084  1.00  0.00     0.224 C 
ATOM     18  C   UNL     1       4.055   0.629  13.862  1.00  0.00     0.208 C 
ATOM     19  O   UNL     1       1.932   1.019  14.921  1.00  0.00    -0.337 OA
ATOM     20  C   UNL     1       2.967  -0.127  13.131  1.00  0.00     0.180 C 
ATOM     21  C   UNL     1       1.718   0.613  13.591  1.00  0.00     0.179 C 
BRANCH  17  22
ATOM     22  C   UNL     1       3.775   0.622  16.426  1.00  0.00     0.225 C 
BRANCH  22  23
ATOM     23  O   UNL     1       5.125   0.908  16.675  1.00  0.00    -0.391 OA
ATOM     24  H   UNL     1       5.291   0.655  17.620  1.00  0.00     0.210 HD
ENDBRANCH  22  23
ENDBRANCH  17  22
BRANCH  18  25
ATOM     25  O   UNL     1       5.124  -0.220  14.203  1.00  0.00    -0.385 OA
ATOM     26  H   UNL     1       5.862   0.365  14.520  1.00  0.00     0.211 HD
ENDBRANCH  18  25
BRANCH  20  27
ATOM     27  O   UNL     1       2.946  -1.496  13.474  1.00  0.00    -0.387 OA
ATOM     28  H   UNL     1       3.786  -1.912  13.147  1.00  0.00     0.211 HD
ENDBRANCH  20  27
BRANCH  21  29
ATOM     29  C   UNL     1       0.433  -0.221  13.482  1.00  0.00     0.191 C 
BRANCH  29  30
ATOM     30  O   UNL     1       0.308  -0.756  12.193  1.00  0.00    -0.394 OA
ATOM     31  H   UNL     1       0.172  -1.734  12.300  1.00  0.00     0.210 HD
ENDBRANCH  29  30
ENDBRANCH  21  29
ENDBRANCH   1  17
TORSDOF 13
ENDMDL
MODEL 7
REMARK VINA RESULT:    -4.980      5.000      7.375
REMARK INTER + INTRA:          -9.054
REMARK INTER:                  -7.627
REMARK INTRA:                  -1.426
REMARK UNBOUND:                -1.453
REMARK SMILES OC[C@H]1O[C@H](O[C@@]2(CO)O[C@H](CO)[C@H](O)[C@@H]2O)[C@H](O)[C@H](O)[C@H]1O
REMARK SMILES IDX 6 1 5 2 3 3 22 4 4 5 20 6 18 7 2 8 1 9 23 11 21 13 19 15
REMARK SMILES IDX 7 17 16 18 10 19 14 20 11 21 8 22 9 23 17 25 15 27 12 29
REMARK SMILES IDX 13 30
REMARK H PARENT 1 10 23 12 21 14 19 16 9 24 17 26 15 28 13 31
REMARK Flexibility Score: inf
ROOT
ATOM      1  O   UNL     1       2.692   1.190  14.883  1.00  0.00    -0.313 OA
ENDROOT
BRANCH   1   2
ATOM      2  C   UNL     1       2.860   2.490  15.438  1.00  0.00     0.285 C 
ATOM      3  C   UNL     1       2.704   3.547  17.567  1.00  0.00     0.178 C 
ATOM      4  C   UNL     1       4.224   3.435  17.901  1.00  0.00     0.177 C 
ATOM      5  O   UNL     1       2.280   2.476  16.740  1.00  0.00    -0.341 OA
ATOM      6  C   UNL     1       5.013   2.651  16.818  1.00  0.00     0.179 C 
ATOM      7  C   UNL     1       4.379   2.845  15.434  1.00  0.00     0.202 C 
BRANCH   3   8
ATOM      8  C   UNL     1       2.226   4.914  17.025  1.00  0.00     0.191 C 
BRANCH   8   9
ATOM      9  O   UNL     1       2.174   5.854  18.063  1.00  0.00    -0.394 OA
ATOM     10  H   UNL     1       1.233   6.165  18.107  1.00  0.00     0.210 HD
ENDBRANCH   8   9
ENDBRANCH   3   8
BRANCH   4  11
ATOM     11  O   UNL     1       4.804   4.692  18.154  1.00  0.00    -0.387 OA
ATOM     12  H   UNL     1       5.787   4.603  18.052  1.00  0.00     0.211 HD
ENDBRANCH   4  11
BRANCH   6  13
ATOM     13  O   UNL     1       5.118   1.283  17.141  1.00  0.00    -0.387 OA
ATOM     14  H   UNL     1       4.568   0.768  16.498  1.00  0.00     0.211 HD
ENDBRANCH   6  13
BRANCH   7  15
ATOM     15  O   UNL     1       5.081   2.084  14.482  1.00  0.00    -0.385 OA
ATOM     16  H   UNL     1       5.360   2.712  13.767  1.00  0.00     0.211 HD
ENDBRANCH   7  15
ENDBRANCH   1   2
BRANCH   1  17
ATOM     17  C   UNL     1       1.743   1.125  13.820  1.00  0.00     0.224 C 
ATOM     18  C   UNL     1       1.295   2.581  13.506  1.00  0.00     0.208 C 
ATOM     19  O   UNL     1       0.592   0.401  14.236  1.00  0.00    -0.337 OA
ATOM     20  C   UNL     1      -0.215   2.530  13.601  1.00  0.00     0.180 C 
ATOM     21  C   UNL     1      -0.423   1.332  14.518  1.00  0.00     0.179 C 
BRANCH  17  22
ATOM     22  C   UNL     1       2.346   0.416  12.579  1.00  0.00     0.225 C 
BRANCH  22  23
ATOM     23  O   UNL     1       3.620   0.929  12.292  1.00  0.00    -0.391 OA
ATOM     24  H   UNL     1       3.630   1.111  11.316  1.00  0.00     0.210 HD
ENDBRANCH  22  23
ENDBRANCH  17  22
BRANCH  18  25
ATOM     25  O   UNL     1       1.710   3.053  12.247  1.00  0.00    -0.385 OA
ATOM     26  H   UNL     1       2.365   2.394  11.898  1.00  0.00     0.211 HD
ENDBRANCH  18  25
BRANCH  20  27
ATOM     27  O   UNL     1      -0.823   2.362  12.339  1.00  0.00    -0.387 OA
ATOM     28  H   UNL     1      -0.963   1.391  12.187  1.00  0.00     0.211 HD
ENDBRANCH  20  27
BRANCH  21  29
ATOM     29  C   UNL     1      -1.806   0.681  14.376  1.00  0.00     0.191 C 
BRANCH  29  30
ATOM     30  O   UNL     1      -1.682  -0.714  14.313  1.00  0.00    -0.394 OA
ATOM     31  H   UNL     1      -2.504  -1.094  14.723  1.00  0.00     0.210 HD
ENDBRANCH  29  30
ENDBRANCH  21  29
ENDBRANCH   1  17
TORSDOF 13
ENDMDL
MODEL 8
REMARK VINA RESULT:    -4.970      4.230      9.091
REMARK INTER + INTRA:          -9.038
REMARK INTER:                  -7.432
REMARK INTRA:                  -1.606
REMARK UNBOUND:                -1.453
REMARK SMILES OC[C@H]1O[C@H](O[C@@]2(CO)O[C@H](CO)[C@H](O)[C@@H]2O)[C@H](O)[C@H](O)[C@H]1O
REMARK SMILES IDX 6 1 5 2 3 3 22 4 4 5 20 6 18 7 2 8 1 9 23 11 21 13 19 15
REMARK SMILES IDX 7 17 16 18 10 19 14 20 11 21 8 22 9 23 17 25 15 27 12 29
REMARK SMILES IDX 13 30
REMARK H PARENT 1 10 23 12 21 14 19 16 9 24 17 26 15 28 13 31
REMARK Flexibility Score: inf
ROOT
ATOM      1  O   UNL     1       1.952   3.543  13.982  1.00  0.00    -0.313 OA
ENDROOT
BRANCH   1   2
ATOM      2  C   UNL     1       2.682   2.369  13.647  1.00  0.00     0.285 C 
ATOM      3  C   UNL     1       2.477   0.010  13.913  1.00  0.00     0.178 C 
ATOM      4  C   UNL     1       1.833  -0.242  12.515  1.00  0.00     0.177 C 
ATOM      5  O   UNL     1       2.138   1.295  14.410  1.00  0.00    -0.341 OA
ATOM      6  C   UNL     1       1.560   1.075  11.740  1.00  0.00     0.179 C 
ATOM      7  C   UNL     1       2.597   2.147  12.105  1.00  0.00     0.202 C 
BRANCH   3   8
ATOM      8  C   UNL     1       3.995  -0.264  14.023  1.00  0.00     0.191 C 
BRANCH   8   9
ATOM      9  O   UNL     1       4.242  -1.642  13.958  1.00  0.00    -0.394 OA
ATOM     10  H   UNL     1       5.220  -1.753  14.083  1.00  0.00     0.210 HD
ENDBRANCH   8   9
ENDBRANCH   3   8
BRANCH   4  11
ATOM     11  O   UNL     1       2.585  -1.148  11.743  1.00  0.00    -0.387 OA
ATOM     12  H   UNL     1       1.953  -1.770  11.297  1.00  0.00     0.211 HD
ENDBRANCH   4  11
BRANCH   6  13
ATOM     13  O   UNL     1       0.249   1.543  11.958  1.00  0.00    -0.387 OA
ATOM     14  H   UNL     1      -0.143   1.033  12.712  1.00  0.00     0.211 HD
ENDBRANCH   6  13
BRANCH   7  15
ATOM     15  O   UNL     1       2.296   3.343  11.430  1.00  0.00    -0.385 OA
ATOM     16  H   UNL     1       1.818   3.923  12.078  1.00  0.00     0.211 HD
ENDBRANCH   7  15
ENDBRANCH   1   2
BRANCH   1  17
ATOM     17  C   UNL     1       2.689   4.494  14.748  1.00  0.00     0.224 C 
ATOM     18  C   UNL     1       4.125   3.927  14.936  1.00  0.00     0.208 C 
ATOM     19  O   UNL     1       2.109   4.637  16.038  1.00  0.00    -0.337 OA
ATOM     20  C   UNL     1       4.339   3.958  16.434  1.00  0.00     0.180 C 
ATOM     21  C   UNL     1       2.907   3.919  16.948  1.00  0.00     0.179 C 
BRANCH  17  22
ATOM     22  C   UNL     1       2.692   5.883  14.056  1.00  0.00     0.225 C 
BRANCH  22  23
ATOM     23  O   UNL     1       3.062   5.759  12.709  1.00  0.00    -0.391 OA
ATOM     24  H   UNL     1       2.301   6.117  12.180  1.00  0.00     0.210 HD
ENDBRANCH  22  23
ENDBRANCH  17  22
BRANCH  18  25
ATOM     25  O   UNL     1       5.125   4.654  14.263  1.00  0.00    -0.385 OA
ATOM     26  H   UNL     1       5.990   4.399  14.679  1.00  0.00     0.211 HD
ENDBRANCH  18  25
BRANCH  20  27
ATOM     27  O   UNL     1       5.035   5.113  16.849  1.00  0.00    -0.387 OA
ATOM     28  H   UNL     1       6.005   4.966  16.694  1.00  0.00     0.211 HD
ENDBRANCH  20  27
BRANCH  21  29
ATOM     29  C   UNL     1       2.745   4.485  18.367  1.00  0.00     0.191 C 
BRANCH  29  30
ATOM     30  O   UNL     1       2.459   5.856  18.314  1.00  0.00    -0.394 OA
ATOM     31  H   UNL     1       3.316   6.334  18.469  1.00  0.00     0.210 HD
ENDBRANCH  29  30
ENDBRANCH  21  29
ENDBRANCH   1  17
TORSDOF 13
ENDMDL
