MODEL 1
REMARK VINA RESULT:    -5.930      0.000      0.000
REMARK INTER + INTRA:          -9.852
REMARK INTER:                  -8.703
REMARK INTRA:                  -1.149
REMARK UNBOUND:                -1.149
REMARK SMILES Cc1cc2c(C(C)C)c(O)c(O)c(C=O)c2c(O)c1-c1c(C)cc2c(C(C)C)c(O)c(O)c(C=O)c2c1O
REMARK SMILES IDX 1 1 2 2 3 3 4 4 16 5 13 6 11 7 9 8 5 9 17 10 19 11 20 12
REMARK SMILES IDX 37 13 21 14 36 15 23 16 22 17 24 18 33 19 25 20 31 21 29 22
REMARK SMILES IDX 38 23 34 25 35 26 26 27 27 28 28 29 32 30 30 32 18 34 6 36
REMARK SMILES IDX 7 37 8 38 14 39 15 40 10 41 12 43
REMARK H PARENT 38 24 32 31 30 33 18 35 10 42 12 44
REMARK Flexibility Score: inf
ROOT
ATOM      1  C   UNL     1      -6.223 -21.717  18.660  1.00  0.00     0.045 C 
ATOM      2  C   UNL     1      -5.075 -20.806  18.293  1.00  0.00    -0.039 A 
ATOM      3  C   UNL     1      -5.261 -19.424  18.327  1.00  0.00     0.013 A 
ATOM      4  C   UNL     1      -4.243 -18.522  17.946  1.00  0.00    -0.006 A 
ATOM      5  C   UNL     1      -2.952 -19.041  17.614  1.00  0.00     0.039 A 
ATOM      6  C   UNL     1      -1.900 -18.126  17.307  1.00  0.00     0.072 A 
ATOM      7  C   UNL     1      -2.116 -16.738  17.436  1.00  0.00     0.169 A 
ATOM      8  C   UNL     1      -3.373 -16.245  17.797  1.00  0.00     0.162 A 
ATOM      9  C   UNL     1      -4.479 -17.111  17.928  1.00  0.00     0.008 A 
ATOM     10  C   UNL     1      -2.749 -20.456  17.643  1.00  0.00     0.132 A 
ATOM     11  C   UNL     1      -3.815 -21.327  17.956  1.00  0.00     0.031 A 
ENDROOT
BRANCH  11  12
ATOM     12  C   UNL     1      -3.606 -22.798  17.951  1.00  0.00     0.031 A 
ATOM     13  C   UNL     1      -3.867 -23.547  16.784  1.00  0.00     0.132 A 
ATOM     14  C   UNL     1      -3.129 -23.441  19.106  1.00  0.00    -0.039 A 
ATOM     15  C   UNL     1      -3.624 -24.950  16.761  1.00  0.00     0.039 A 
ATOM     16  C   UNL     1      -3.013 -24.832  19.118  1.00  0.00     0.013 A 
ATOM     17  C   UNL     1      -2.747 -22.652  20.335  1.00  0.00     0.045 C 
ATOM     18  C   UNL     1      -3.332 -25.615  17.987  1.00  0.00    -0.006 A 
ATOM     19  C   UNL     1      -3.678 -25.715  15.560  1.00  0.00     0.072 A 
ATOM     20  C   UNL     1      -3.338 -27.040  18.047  1.00  0.00     0.008 A 
ATOM     21  C   UNL     1      -3.506 -27.112  15.604  1.00  0.00     0.169 A 
ATOM     22  C   UNL     1      -3.356 -27.775  16.839  1.00  0.00     0.162 A 
BRANCH  13  23
ATOM     23  O   UNL     1      -4.407 -22.906  15.663  1.00  0.00    -0.507 OA
ATOM     24  H   UNL     1      -4.367 -23.281  14.723  1.00  0.00     0.293 HD
ENDBRANCH  13  23
BRANCH  19  25
ATOM     25  C   UNL     1      -3.750 -25.072  14.225  1.00  0.00     0.264 C 
ATOM     26  O   UNL     1      -4.808 -25.116  13.542  1.00  0.00    -0.298 OA
ENDBRANCH  19  25
BRANCH  20  27
ATOM     27  C   UNL     1      -3.339 -27.782  19.397  1.00  0.00     0.017 C 
ATOM     28  C   UNL     1      -2.002 -28.492  19.635  1.00  0.00     0.012 C 
ATOM     29  C   UNL     1      -4.527 -28.747  19.573  1.00  0.00     0.012 C 
ENDBRANCH  20  27
BRANCH  21  30
ATOM     30  O   UNL     1      -3.465 -27.809  14.389  1.00  0.00    -0.504 OA
ATOM     31  H   UNL     1      -2.841 -28.574  14.178  1.00  0.00     0.293 HD
ENDBRANCH  21  30
BRANCH  22  32
ATOM     32  O   UNL     1      -3.203 -29.163  16.898  1.00  0.00    -0.504 OA
ATOM     33  H   UNL     1      -2.433 -29.682  16.501  1.00  0.00     0.293 HD
ENDBRANCH  22  32
ENDBRANCH  11  12
BRANCH  10  34
ATOM     34  O   UNL     1      -1.485 -20.998  17.387  1.00  0.00    -0.507 OA
ATOM     35  H   UNL     1      -0.991 -20.896  16.509  1.00  0.00     0.293 HD
ENDBRANCH  10  34
BRANCH   9  36
ATOM     36  C   UNL     1      -5.893 -16.520  18.071  1.00  0.00     0.017 C 
ATOM     37  C   UNL     1      -5.927 -15.445  19.162  1.00  0.00     0.012 C 
ATOM     38  C   UNL     1      -6.489 -15.995  16.750  1.00  0.00     0.012 C 
ENDBRANCH   9  36
BRANCH   6  39
ATOM     39  C   UNL     1      -0.574 -18.589  16.844  1.00  0.00     0.264 C 
ATOM     40  O   UNL     1      -0.368 -18.839  15.626  1.00  0.00    -0.298 OA
ENDBRANCH   6  39
BRANCH   8  41
ATOM     41  O   UNL     1      -3.530 -14.875  18.015  1.00  0.00    -0.504 OA
ATOM     42  H   UNL     1      -3.881 -14.238  17.310  1.00  0.00     0.293 HD
ENDBRANCH   8  41
BRANCH   7  43
ATOM     43  O   UNL     1      -1.100 -15.808  17.175  1.00  0.00    -0.504 OA
ATOM     44  H   UNL     1      -0.853 -15.480  16.252  1.00  0.00     0.293 HD
ENDBRANCH   7  43
TORSDOF 11
ENDMDL
MODEL 2
REMARK VINA RESULT:    -5.667      0.469      9.095
REMARK INTER + INTRA:          -9.467
REMARK INTER:                  -8.274
REMARK INTRA:                  -1.192
REMARK UNBOUND:                -1.149
REMARK SMILES Cc1cc2c(C(C)C)c(O)c(O)c(C=O)c2c(O)c1-c1c(C)cc2c(C(C)C)c(O)c(O)c(C=O)c2c1O
REMARK SMILES IDX 1 1 2 2 3 3 4 4 16 5 13 6 11 7 9 8 5 9 17 10 19 11 20 12
REMARK SMILES IDX 37 13 21 14 36 15 23 16 22 17 24 18 33 19 25 20 31 21 29 22
REMARK SMILES IDX 38 23 34 25 35 26 26 27 27 28 28 29 32 30 30 32 18 34 6 36
REMARK SMILES IDX 7 37 8 38 14 39 15 40 10 41 12 43
REMARK H PARENT 38 24 32 31 30 33 18 35 10 42 12 44
REMARK Flexibility Score: inf
ROOT
ATOM      1  C   UNL     1      -3.643 -22.505  20.318  1.00  0.00     0.045 C 
ATOM      2  C   UNL     1      -3.632 -23.357  19.070  1.00  0.00    -0.039 A 
ATOM      3  C   UNL     1      -3.524 -24.742  19.188  1.00  0.00     0.013 A 
ATOM      4  C   UNL     1      -3.457 -25.587  18.058  1.00  0.00    -0.006 A 
ATOM      5  C   UNL     1      -3.607 -25.010  16.758  1.00  0.00     0.039 A 
ATOM      6  C   UNL     1      -3.621 -25.872  15.620  1.00  0.00     0.072 A 
ATOM      7  C   UNL     1      -3.592 -27.271  15.797  1.00  0.00     0.169 A 
ATOM      8  C   UNL     1      -3.481 -27.823  17.077  1.00  0.00     0.162 A 
ATOM      9  C   UNL     1      -3.283 -26.999  18.205  1.00  0.00     0.008 A 
ATOM     10  C   UNL     1      -3.782 -23.596  16.647  1.00  0.00     0.132 A 
ATOM     11  C   UNL     1      -3.767 -22.779  17.798  1.00  0.00     0.031 A 
ENDROOT
BRANCH  11  12
ATOM     12  C   UNL     1      -3.915 -21.306  17.672  1.00  0.00     0.031 A 
ATOM     13  C   UNL     1      -2.772 -20.486  17.553  1.00  0.00     0.132 A 
ATOM     14  C   UNL     1      -5.197 -20.730  17.652  1.00  0.00    -0.039 A 
ATOM     15  C   UNL     1      -2.911 -19.078  17.385  1.00  0.00     0.039 A 
ATOM     16  C   UNL     1      -5.324 -19.340  17.616  1.00  0.00     0.013 A 
ATOM     17  C   UNL     1      -6.437 -21.590  17.678  1.00  0.00     0.045 C 
ATOM     18  C   UNL     1      -4.196 -18.491  17.565  1.00  0.00    -0.006 A 
ATOM     19  C   UNL     1      -1.809 -18.236  17.061  1.00  0.00     0.072 A 
ATOM     20  C   UNL     1      -4.329 -17.074  17.661  1.00  0.00     0.008 A 
ATOM     21  C   UNL     1      -1.986 -16.841  16.984  1.00  0.00     0.169 A 
ATOM     22  C   UNL     1      -3.231 -16.260  17.299  1.00  0.00     0.162 A 
BRANCH  13  23
ATOM     23  O   UNL     1      -1.500 -21.064  17.642  1.00  0.00    -0.507 OA
ATOM     24  H   UNL     1      -1.245 -21.766  18.326  1.00  0.00     0.293 HD
ENDBRANCH  13  23
BRANCH  19  25
ATOM     25  C   UNL     1      -0.499 -18.788  16.638  1.00  0.00     0.264 C 
ATOM     26  O   UNL     1      -0.265 -19.044  15.427  1.00  0.00    -0.298 OA
ENDBRANCH  19  25
BRANCH  20  27
ATOM     27  C   UNL     1      -5.633 -16.426  18.161  1.00  0.00     0.017 C 
ATOM     28  C   UNL     1      -6.536 -16.031  16.988  1.00  0.00     0.012 C 
ATOM     29  C   UNL     1      -5.408 -15.242  19.121  1.00  0.00     0.012 C 
ENDBRANCH  20  27
BRANCH  21  30
ATOM     30  O   UNL     1      -0.900 -16.062  16.561  1.00  0.00    -0.504 OA
ATOM     31  H   UNL     1      -0.050 -16.422  16.154  1.00  0.00     0.293 HD
ENDBRANCH  21  30
BRANCH  22  32
ATOM     32  O   UNL     1      -3.415 -14.875  17.243  1.00  0.00    -0.504 OA
ATOM     33  H   UNL     1      -3.687 -14.356  16.422  1.00  0.00     0.293 HD
ENDBRANCH  22  32
ENDBRANCH  11  12
BRANCH  10  34
ATOM     34  O   UNL     1      -3.996 -23.003  15.398  1.00  0.00    -0.507 OA
ATOM     35  H   UNL     1      -3.688 -23.401  14.519  1.00  0.00     0.293 HD
ENDBRANCH  10  34
BRANCH   9  36
ATOM     36  C   UNL     1      -2.909 -27.637  19.555  1.00  0.00     0.017 C 
ATOM     37  C   UNL     1      -4.097 -28.408  20.140  1.00  0.00     0.012 C 
ATOM     38  C   UNL     1      -1.643 -28.516  19.504  1.00  0.00     0.012 C 
ENDBRANCH   9  36
BRANCH   6  39
ATOM     39  C   UNL     1      -3.656 -25.342  14.240  1.00  0.00     0.264 C 
ATOM     40  O   UNL     1      -4.704 -25.423  13.545  1.00  0.00    -0.298 OA
ENDBRANCH   6  39
BRANCH   8  41
ATOM     41  O   UNL     1      -3.558 -29.208  17.230  1.00  0.00    -0.504 OA
ATOM     42  H   UNL     1      -2.755 -29.787  17.446  1.00  0.00     0.293 HD
ENDBRANCH   8  41
BRANCH   7  43
ATOM     43  O   UNL     1      -3.635 -28.152  14.709  1.00  0.00    -0.504 OA
ATOM     44  H   UNL     1      -4.009 -27.916  13.800  1.00  0.00     0.293 HD
ENDBRANCH   7  43
TORSDOF 11
ENDMDL
MODEL 3
REMARK VINA RESULT:    -5.645      2.619      9.874
REMARK INTER + INTRA:          -9.434
REMARK INTER:                  -8.130
REMARK INTRA:                  -1.304
REMARK UNBOUND:                -1.149
REMARK SMILES Cc1cc2c(C(C)C)c(O)c(O)c(C=O)c2c(O)c1-c1c(C)cc2c(C(C)C)c(O)c(O)c(C=O)c2c1O
REMARK SMILES IDX 1 1 2 2 3 3 4 4 16 5 13 6 11 7 9 8 5 9 17 10 19 11 20 12
REMARK SMILES IDX 37 13 21 14 36 15 23 16 22 17 24 18 33 19 25 20 31 21 29 22
REMARK SMILES IDX 38 23 34 25 35 26 26 27 27 28 28 29 32 30 30 32 18 34 6 36
REMARK SMILES IDX 7 37 8 38 14 39 15 40 10 41 12 43
REMARK H PARENT 38 24 32 31 30 33 18 35 10 42 12 44
REMARK Flexibility Score: inf
ROOT
ATOM      1  C   UNL     1       0.096 -26.122  19.118  1.00  0.00     0.045 C 
ATOM      2  C   UNL     1      -1.067 -27.009  19.495  1.00  0.00    -0.039 A 
ATOM      3  C   UNL     1      -0.818 -28.254  20.074  1.00  0.00     0.013 A 
ATOM      4  C   UNL     1      -1.860 -29.149  20.402  1.00  0.00    -0.006 A 
ATOM      5  C   UNL     1      -3.214 -28.723  20.226  1.00  0.00     0.039 A 
ATOM      6  C   UNL     1      -4.269 -29.596  20.633  1.00  0.00     0.072 A 
ATOM      7  C   UNL     1      -3.965 -30.807  21.288  1.00  0.00     0.169 A 
ATOM      8  C   UNL     1      -2.636 -31.195  21.485  1.00  0.00     0.162 A 
ATOM      9  C   UNL     1      -1.575 -30.445  20.936  1.00  0.00     0.008 A 
ATOM     10  C   UNL     1      -3.464 -27.421  19.692  1.00  0.00     0.132 A 
ATOM     11  C   UNL     1      -2.392 -26.586  19.307  1.00  0.00     0.031 A 
ENDROOT
BRANCH  11  12
ATOM     12  C   UNL     1      -2.660 -25.247  18.721  1.00  0.00     0.031 A 
ATOM     13  C   UNL     1      -3.001 -25.127  17.356  1.00  0.00     0.132 A 
ATOM     14  C   UNL     1      -2.593 -24.101  19.531  1.00  0.00    -0.039 A 
ATOM     15  C   UNL     1      -3.303 -23.850  16.801  1.00  0.00     0.039 A 
ATOM     16  C   UNL     1      -2.765 -22.842  18.955  1.00  0.00     0.013 A 
ATOM     17  C   UNL     1      -2.328 -24.211  21.014  1.00  0.00     0.045 C 
ATOM     18  C   UNL     1      -3.040 -22.686  17.578  1.00  0.00    -0.006 A 
ATOM     19  C   UNL     1      -3.844 -23.696  15.493  1.00  0.00     0.072 A 
ATOM     20  C   UNL     1      -3.084 -21.396  16.972  1.00  0.00     0.008 A 
ATOM     21  C   UNL     1      -4.052 -22.408  14.962  1.00  0.00     0.169 A 
ATOM     22  C   UNL     1      -3.658 -21.264  15.686  1.00  0.00     0.162 A 
BRANCH  13  23
ATOM     23  O   UNL     1      -2.998 -26.267  16.544  1.00  0.00    -0.507 OA
ATOM     24  H   UNL     1      -3.175 -26.251  15.548  1.00  0.00     0.293 HD
ENDBRANCH  13  23
BRANCH  19  25
ATOM     25  C   UNL     1      -4.354 -24.851  14.715  1.00  0.00     0.264 C 
ATOM     26  O   UNL     1      -3.713 -25.299  13.726  1.00  0.00    -0.298 OA
ENDBRANCH  19  25
BRANCH  20  27
ATOM     27  C   UNL     1      -2.508 -20.158  17.684  1.00  0.00     0.017 C 
ATOM     28  C   UNL     1      -3.627 -19.215  18.141  1.00  0.00     0.012 C 
ATOM     29  C   UNL     1      -1.443 -19.407  16.861  1.00  0.00     0.012 C 
ENDBRANCH  20  27
BRANCH  21  30
ATOM     30  O   UNL     1      -4.680 -22.304  13.713  1.00  0.00    -0.504 OA
ATOM     31  H   UNL     1      -4.722 -21.467  13.151  1.00  0.00     0.293 HD
ENDBRANCH  21  30
BRANCH  22  32
ATOM     32  O   UNL     1      -3.842 -19.981  15.163  1.00  0.00    -0.504 OA
ATOM     33  H   UNL     1      -4.613 -19.695  14.577  1.00  0.00     0.293 HD
ENDBRANCH  22  32
ENDBRANCH  11  12
BRANCH  10  34
ATOM     34  O   UNL     1      -4.773 -26.944  19.567  1.00  0.00    -0.507 OA
ATOM     35  H   UNL     1      -5.195 -26.667  18.689  1.00  0.00     0.293 HD
ENDBRANCH  10  34
BRANCH   9  36
ATOM     36  C   UNL     1      -0.150 -31.027  20.946  1.00  0.00     0.017 C 
ATOM     37  C   UNL     1       0.372 -31.163  22.380  1.00  0.00     0.012 C 
ATOM     38  C   UNL     1      -0.008 -32.351  20.170  1.00  0.00     0.012 C 
ENDBRANCH   9  36
BRANCH   6  39
ATOM     39  C   UNL     1      -5.689 -29.274  20.379  1.00  0.00     0.264 C 
ATOM     40  O   UNL     1      -6.433 -28.865  21.309  1.00  0.00    -0.298 OA
ENDBRANCH   6  39
BRANCH   8  41
ATOM     41  O   UNL     1      -2.366 -32.347  22.226  1.00  0.00    -0.504 OA
ATOM     42  H   UNL     1      -3.059 -33.063  22.410  1.00  0.00     0.293 HD
ENDBRANCH   8  41
BRANCH   7  43
ATOM     43  O   UNL     1      -4.971 -31.677  21.731  1.00  0.00    -0.504 OA
ATOM     44  H   UNL     1      -5.811 -31.886  21.210  1.00  0.00     0.293 HD
ENDBRANCH   7  43
TORSDOF 11
ENDMDL
MODEL 4
REMARK VINA RESULT:    -5.639      3.492      4.772
REMARK INTER + INTRA:          -9.426
REMARK INTER:                  -8.302
REMARK INTRA:                  -1.123
REMARK UNBOUND:                -1.149
REMARK SMILES Cc1cc2c(C(C)C)c(O)c(O)c(C=O)c2c(O)c1-c1c(C)cc2c(C(C)C)c(O)c(O)c(C=O)c2c1O
REMARK SMILES IDX 1 1 2 2 3 3 4 4 16 5 13 6 11 7 9 8 5 9 17 10 19 11 20 12
REMARK SMILES IDX 37 13 21 14 36 15 23 16 22 17 24 18 33 19 25 20 31 21 29 22
REMARK SMILES IDX 38 23 34 25 35 26 26 27 27 28 28 29 32 30 30 32 18 34 6 36
REMARK SMILES IDX 7 37 8 38 14 39 15 40 10 41 12 43
REMARK H PARENT 38 24 32 31 30 33 18 35 10 42 12 44
REMARK Flexibility Score: inf
ROOT
ATOM      1  C   UNL     1      -7.106 -20.342  15.965  1.00  0.00     0.045 C 
ATOM      2  C   UNL     1      -5.843 -19.522  16.089  1.00  0.00    -0.039 A 
ATOM      3  C   UNL     1      -5.811 -18.443  16.973  1.00  0.00     0.013 A 
ATOM      4  C   UNL     1      -4.678 -17.609  17.096  1.00  0.00    -0.006 A 
ATOM      5  C   UNL     1      -3.495 -17.944  16.366  1.00  0.00     0.039 A 
ATOM      6  C   UNL     1      -2.323 -17.149  16.551  1.00  0.00     0.072 A 
ATOM      7  C   UNL     1      -2.317 -16.121  17.517  1.00  0.00     0.169 A 
ATOM      8  C   UNL     1      -3.471 -15.828  18.249  1.00  0.00     0.162 A 
ATOM      9  C   UNL     1      -4.693 -16.471  17.963  1.00  0.00     0.008 A 
ATOM     10  C   UNL     1      -3.513 -19.089  15.510  1.00  0.00     0.132 A 
ATOM     11  C   UNL     1      -4.690 -19.852  15.358  1.00  0.00     0.031 A 
ENDROOT
BRANCH  11  12
ATOM     12  C   UNL     1      -4.712 -21.021  14.441  1.00  0.00     0.031 A 
ATOM     13  C   UNL     1      -4.963 -20.836  13.064  1.00  0.00     0.132 A 
ATOM     14  C   UNL     1      -4.462 -22.309  14.942  1.00  0.00    -0.039 A 
ATOM     15  C   UNL     1      -4.939 -21.948  12.174  1.00  0.00     0.039 A 
ATOM     16  C   UNL     1      -4.564 -23.410  14.089  1.00  0.00     0.013 A 
ATOM     17  C   UNL     1      -4.093 -22.524  16.390  1.00  0.00     0.045 C 
ATOM     18  C   UNL     1      -4.882 -23.262  12.721  1.00  0.00    -0.006 A 
ATOM     19  C   UNL     1      -4.986 -21.793  10.759  1.00  0.00     0.072 A 
ATOM     20  C   UNL     1      -5.114 -24.395  11.886  1.00  0.00     0.008 A 
ATOM     21  C   UNL     1      -5.038 -22.928   9.926  1.00  0.00     0.169 A 
ATOM     22  C   UNL     1      -5.121 -24.220  10.483  1.00  0.00     0.162 A 
BRANCH  13  23
ATOM     23  O   UNL     1      -5.278 -19.558  12.589  1.00  0.00    -0.507 OA
ATOM     24  H   UNL     1      -4.812 -18.712  12.893  1.00  0.00     0.293 HD
ENDBRANCH  13  23
BRANCH  19  25
ATOM     25  C   UNL     1      -4.818 -20.471  10.109  1.00  0.00     0.264 C 
ATOM     26  O   UNL     1      -5.786 -19.907   9.530  1.00  0.00    -0.298 OA
ENDBRANCH  19  25
BRANCH  20  27
ATOM     27  C   UNL     1      -5.370 -25.790  12.486  1.00  0.00     0.017 C 
ATOM     28  C   UNL     1      -4.205 -26.740  12.186  1.00  0.00     0.012 C 
ATOM     29  C   UNL     1      -6.719 -26.407  12.069  1.00  0.00     0.012 C 
ENDBRANCH  20  27
BRANCH  21  30
ATOM     30  O   UNL     1      -4.979 -22.730   8.539  1.00  0.00    -0.504 OA
ATOM     31  H   UNL     1      -5.763 -22.800   7.908  1.00  0.00     0.293 HD
ENDBRANCH  21  30
BRANCH  22  32
ATOM     32  O   UNL     1      -5.191 -25.353   9.668  1.00  0.00    -0.504 OA
ATOM     33  H   UNL     1      -5.858 -26.104   9.769  1.00  0.00     0.293 HD
ENDBRANCH  22  32
ENDBRANCH  11  12
BRANCH  10  34
ATOM     34  O   UNL     1      -2.356 -19.486  14.830  1.00  0.00    -0.507 OA
ATOM     35  H   UNL     1      -1.457 -19.029  14.924  1.00  0.00     0.293 HD
ENDBRANCH  10  34
BRANCH   9  36
ATOM     36  C   UNL     1      -5.994 -15.951  18.601  1.00  0.00     0.017 C 
ATOM     37  C   UNL     1      -6.694 -14.953  17.674  1.00  0.00     0.012 C 
ATOM     38  C   UNL     1      -6.958 -17.066  19.054  1.00  0.00     0.012 C 
ENDBRANCH   9  36
BRANCH   6  39
ATOM     39  C   UNL     1      -1.100 -17.362  15.748  1.00  0.00     0.264 C 
ATOM     40  O   UNL     1      -0.076 -17.886  16.262  1.00  0.00    -0.298 OA
ENDBRANCH   6  39
BRANCH   8  41
ATOM     41  O   UNL     1      -3.407 -14.875  19.268  1.00  0.00    -0.504 OA
ATOM     42  H   UNL     1      -2.721 -14.905  20.013  1.00  0.00     0.293 HD
ENDBRANCH   8  41
BRANCH   7  43
ATOM     43  O   UNL     1      -1.179 -15.338  17.752  1.00  0.00    -0.504 OA
ATOM     44  H   UNL     1      -0.402 -15.259  17.112  1.00  0.00     0.293 HD
ENDBRANCH   7  43
TORSDOF 11
ENDMDL
MODEL 5
REMARK VINA RESULT:    -5.590      3.492     10.306
REMARK INTER + INTRA:          -9.353
REMARK INTER:                  -8.101
REMARK INTRA:                  -1.252
REMARK UNBOUND:                -1.149
REMARK SMILES Cc1cc2c(C(C)C)c(O)c(O)c(C=O)c2c(O)c1-c1c(C)cc2c(C(C)C)c(O)c(O)c(C=O)c2c1O
REMARK SMILES IDX 1 1 2 2 3 3 4 4 16 5 13 6 11 7 9 8 5 9 17 10 19 11 20 12
REMARK SMILES IDX 37 13 21 14 36 15 23 16 22 17 24 18 33 19 25 20 31 21 29 22
REMARK SMILES IDX 38 23 34 25 35 26 26 27 27 28 28 29 32 30 30 32 18 34 6 36
REMARK SMILES IDX 7 37 8 38 14 39 15 40 10 41 12 43
REMARK H PARENT 38 24 32 31 30 33 18 35 10 42 12 44
REMARK Flexibility Score: inf
ROOT
ATOM      1  C   UNL     1      -4.516 -27.352  16.242  1.00  0.00     0.045 C 
ATOM      2  C   UNL     1      -3.622 -28.035  17.250  1.00  0.00    -0.039 A 
ATOM      3  C   UNL     1      -3.334 -29.391  17.101  1.00  0.00     0.013 A 
ATOM      4  C   UNL     1      -2.547 -30.097  18.038  1.00  0.00    -0.006 A 
ATOM      5  C   UNL     1      -1.946 -29.373  19.116  1.00  0.00     0.039 A 
ATOM      6  C   UNL     1      -1.085 -30.069  20.018  1.00  0.00     0.072 A 
ATOM      7  C   UNL     1      -0.760 -31.420  19.777  1.00  0.00     0.169 A 
ATOM      8  C   UNL     1      -1.327 -32.106  18.698  1.00  0.00     0.162 A 
ATOM      9  C   UNL     1      -2.319 -31.502  17.898  1.00  0.00     0.008 A 
ATOM     10  C   UNL     1      -2.193 -27.970  19.227  1.00  0.00     0.132 A 
ATOM     11  C   UNL     1      -3.047 -27.317  18.312  1.00  0.00     0.031 A 
ENDROOT
BRANCH  11  12
ATOM     12  C   UNL     1      -3.327 -25.865  18.453  1.00  0.00     0.031 A 
ATOM     13  C   UNL     1      -4.429 -25.427  19.218  1.00  0.00     0.132 A 
ATOM     14  C   UNL     1      -2.480 -24.925  17.840  1.00  0.00    -0.039 A 
ATOM     15  C   UNL     1      -4.674 -24.034  19.395  1.00  0.00     0.039 A 
ATOM     16  C   UNL     1      -2.796 -23.568  17.910  1.00  0.00     0.013 A 
ATOM     17  C   UNL     1      -1.239 -25.363  17.100  1.00  0.00     0.045 C 
ATOM     18  C   UNL     1      -3.932 -23.104  18.611  1.00  0.00    -0.006 A 
ATOM     19  C   UNL     1      -5.643 -23.540  20.313  1.00  0.00     0.072 A 
ATOM     20  C   UNL     1      -4.321 -21.733  18.569  1.00  0.00     0.008 A 
ATOM     21  C   UNL     1      -5.901 -22.157  20.393  1.00  0.00     0.169 A 
ATOM     22  C   UNL     1      -5.260 -21.260  19.515  1.00  0.00     0.162 A 
BRANCH  13  23
ATOM     23  O   UNL     1      -5.303 -26.372  19.767  1.00  0.00    -0.507 OA
ATOM     24  H   UNL     1      -5.288 -27.357  19.535  1.00  0.00     0.293 HD
ENDBRANCH  13  23
BRANCH  19  25
ATOM     25  C   UNL     1      -6.290 -24.419  21.318  1.00  0.00     0.264 C 
ATOM     26  O   UNL     1      -6.051 -24.281  22.548  1.00  0.00    -0.298 OA
ENDBRANCH  19  25
BRANCH  20  27
ATOM     27  C   UNL     1      -3.751 -20.772  17.509  1.00  0.00     0.017 C 
ATOM     28  C   UNL     1      -4.248 -21.142  16.107  1.00  0.00     0.012 C 
ATOM     29  C   UNL     1      -2.215 -20.650  17.546  1.00  0.00     0.012 C 
ENDBRANCH  20  27
BRANCH  21  30
ATOM     30  O   UNL     1      -6.787 -21.709  21.381  1.00  0.00    -0.504 OA
ATOM     31  H   UNL     1      -6.528 -21.169  22.193  1.00  0.00     0.293 HD
ENDBRANCH  21  30
BRANCH  22  32
ATOM     32  O   UNL     1      -5.520 -19.888  19.571  1.00  0.00    -0.504 OA
ATOM     33  H   UNL     1      -6.175 -19.443  20.198  1.00  0.00     0.293 HD
ENDBRANCH  22  32
ENDBRANCH  11  12
BRANCH  10  34
ATOM     34  O   UNL     1      -1.572 -27.216  20.229  1.00  0.00    -0.507 OA
ATOM     35  H   UNL     1      -1.524 -27.494  21.201  1.00  0.00     0.293 HD
ENDBRANCH  10  34
BRANCH   9  36
ATOM     36  C   UNL     1      -3.105 -32.357  16.888  1.00  0.00     0.017 C 
ATOM     37  C   UNL     1      -2.208 -32.786  15.722  1.00  0.00     0.012 C 
ATOM     38  C   UNL     1      -3.821 -33.569  17.517  1.00  0.00     0.012 C 
ENDBRANCH   9  36
BRANCH   6  39
ATOM     39  C   UNL     1      -0.521 -29.417  21.218  1.00  0.00     0.264 C 
ATOM     40  O   UNL     1       0.706 -29.138  21.283  1.00  0.00    -0.298 OA
ENDBRANCH   6  39
BRANCH   8  41
ATOM     41  O   UNL     1      -0.909 -33.410  18.425  1.00  0.00    -0.504 OA
ATOM     42  H   UNL     1      -1.494 -34.093  17.960  1.00  0.00     0.293 HD
ENDBRANCH   8  41
BRANCH   7  43
ATOM     43  O   UNL     1       0.106 -32.131  20.619  1.00  0.00    -0.504 OA
ATOM     44  H   UNL     1       1.038 -32.422  20.360  1.00  0.00     0.293 HD
ENDBRANCH   7  43
TORSDOF 11
ENDMDL
MODEL 6
REMARK VINA RESULT:    -5.516      2.013      3.932
REMARK INTER + INTRA:          -9.245
REMARK INTER:                  -8.242
REMARK INTRA:                  -1.003
REMARK UNBOUND:                -1.149
REMARK SMILES Cc1cc2c(C(C)C)c(O)c(O)c(C=O)c2c(O)c1-c1c(C)cc2c(C(C)C)c(O)c(O)c(C=O)c2c1O
REMARK SMILES IDX 1 1 2 2 3 3 4 4 16 5 13 6 11 7 9 8 5 9 17 10 19 11 20 12
REMARK SMILES IDX 37 13 21 14 36 15 23 16 22 17 24 18 33 19 25 20 31 21 29 22
REMARK SMILES IDX 38 23 34 25 35 26 26 27 27 28 28 29 32 30 30 32 18 34 6 36
REMARK SMILES IDX 7 37 8 38 14 39 15 40 10 41 12 43
REMARK H PARENT 38 24 32 31 30 33 18 35 10 42 12 44
REMARK Flexibility Score: inf
ROOT
ATOM      1  C   UNL     1      -6.752 -21.215  16.591  1.00  0.00     0.045 C 
ATOM      2  C   UNL     1      -5.557 -20.296  16.489  1.00  0.00    -0.039 A 
ATOM      3  C   UNL     1      -5.558 -19.093  17.195  1.00  0.00     0.013 A 
ATOM      4  C   UNL     1      -4.494 -18.169  17.100  1.00  0.00    -0.006 A 
ATOM      5  C   UNL     1      -3.339 -18.525  16.336  1.00  0.00     0.039 A 
ATOM      6  C   UNL     1      -2.229 -17.627  16.306  1.00  0.00     0.072 A 
ATOM      7  C   UNL     1      -2.245 -16.463  17.102  1.00  0.00     0.169 A 
ATOM      8  C   UNL     1      -3.368 -16.145  17.872  1.00  0.00     0.162 A 
ATOM      9  C   UNL     1      -4.547 -16.913  17.784  1.00  0.00     0.008 A 
ATOM     10  C   UNL     1      -3.317 -19.788  15.667  1.00  0.00     0.132 A 
ATOM     11  C   UNL     1      -4.433 -20.650  15.726  1.00  0.00     0.031 A 
ENDROOT
BRANCH  11  12
ATOM     12  C   UNL     1      -4.417 -21.946  14.999  1.00  0.00     0.031 A 
ATOM     13  C   UNL     1      -3.854 -23.090  15.604  1.00  0.00     0.132 A 
ATOM     14  C   UNL     1      -4.981 -22.036  13.715  1.00  0.00    -0.039 A 
ATOM     15  C   UNL     1      -3.878 -24.345  14.929  1.00  0.00     0.039 A 
ATOM     16  C   UNL     1      -4.889 -23.236  13.007  1.00  0.00     0.013 A 
ATOM     17  C   UNL     1      -5.677 -20.853  13.086  1.00  0.00     0.045 C 
ATOM     18  C   UNL     1      -4.270 -24.379  13.560  1.00  0.00    -0.006 A 
ATOM     19  C   UNL     1      -3.510 -25.563  15.569  1.00  0.00     0.072 A 
ATOM     20  C   UNL     1      -4.062 -25.558  12.785  1.00  0.00     0.008 A 
ATOM     21  C   UNL     1      -3.476 -26.765  14.835  1.00  0.00     0.169 A 
ATOM     22  C   UNL     1      -3.732 -26.762  13.449  1.00  0.00     0.162 A 
BRANCH  13  23
ATOM     23  O   UNL     1      -3.236 -22.973  16.854  1.00  0.00    -0.507 OA
ATOM     24  H   UNL     1      -2.361 -23.422  17.095  1.00  0.00     0.293 HD
ENDBRANCH  13  23
BRANCH  19  25
ATOM     25  C   UNL     1      -3.311 -25.648  17.036  1.00  0.00     0.264 C 
ATOM     26  O   UNL     1      -2.154 -25.721  17.529  1.00  0.00    -0.298 OA
ENDBRANCH  19  25
BRANCH  20  27
ATOM     27  C   UNL     1      -4.178 -25.536  11.249  1.00  0.00     0.017 C 
ATOM     28  C   UNL     1      -3.170 -24.558  10.635  1.00  0.00     0.012 C 
ATOM     29  C   UNL     1      -5.606 -25.263  10.739  1.00  0.00     0.012 C 
ENDBRANCH  20  27
BRANCH  21  30
ATOM     30  O   UNL     1      -3.209 -27.953  15.528  1.00  0.00    -0.504 OA
ATOM     31  H   UNL     1      -2.551 -28.661  15.237  1.00  0.00     0.293 HD
ENDBRANCH  21  30
BRANCH  22  32
ATOM     32  O   UNL     1      -3.684 -27.945  12.705  1.00  0.00    -0.504 OA
ATOM     33  H   UNL     1      -4.112 -28.082  11.801  1.00  0.00     0.293 HD
ENDBRANCH  22  32
ENDBRANCH  11  12
BRANCH  10  34
ATOM     34  O   UNL     1      -2.180 -20.200  14.963  1.00  0.00    -0.507 OA
ATOM     35  H   UNL     1      -1.364 -20.616  15.396  1.00  0.00     0.293 HD
ENDBRANCH  10  34
BRANCH   9  36
ATOM     36  C   UNL     1      -5.841 -16.397  18.439  1.00  0.00     0.017 C 
ATOM     37  C   UNL     1      -6.649 -15.547  17.454  1.00  0.00     0.012 C 
ATOM     38  C   UNL     1      -6.711 -17.505  19.065  1.00  0.00     0.012 C 
ENDBRANCH   9  36
BRANCH   6  39
ATOM     39  C   UNL     1      -1.050 -17.873  15.449  1.00  0.00     0.264 C 
ATOM     40  O   UNL     1       0.041 -18.256  15.949  1.00  0.00    -0.298 OA
ENDBRANCH   6  39
BRANCH   8  41
ATOM     41  O   UNL     1      -3.316 -15.042  18.728  1.00  0.00    -0.504 OA
ATOM     42  H   UNL     1      -2.481 -14.771  19.232  1.00  0.00     0.293 HD
ENDBRANCH   8  41
BRANCH   7  43
ATOM     43  O   UNL     1      -1.164 -15.572  17.125  1.00  0.00    -0.504 OA
ATOM     44  H   UNL     1      -1.013 -14.844  16.441  1.00  0.00     0.293 HD
ENDBRANCH   7  43
TORSDOF 11
ENDMDL
MODEL 7
REMARK VINA RESULT:    -5.430      2.132      3.289
REMARK INTER + INTRA:          -9.119
REMARK INTER:                  -7.896
REMARK INTRA:                  -1.223
REMARK UNBOUND:                -1.149
REMARK SMILES Cc1cc2c(C(C)C)c(O)c(O)c(C=O)c2c(O)c1-c1c(C)cc2c(C(C)C)c(O)c(O)c(C=O)c2c1O
REMARK SMILES IDX 1 1 2 2 3 3 4 4 16 5 13 6 11 7 9 8 5 9 17 10 19 11 20 12
REMARK SMILES IDX 37 13 21 14 36 15 23 16 22 17 24 18 33 19 25 20 31 21 29 22
REMARK SMILES IDX 38 23 34 25 35 26 26 27 27 28 28 29 32 30 30 32 18 34 6 36
REMARK SMILES IDX 7 37 8 38 14 39 15 40 10 41 12 43
REMARK H PARENT 38 24 32 31 30 33 18 35 10 42 12 44
REMARK Flexibility Score: inf
ROOT
ATOM      1  C   UNL     1      -4.345 -20.557  20.302  1.00  0.00     0.045 C 
ATOM      2  C   UNL     1      -3.986 -20.076  18.916  1.00  0.00    -0.039 A 
ATOM      3  C   UNL     1      -3.699 -18.726  18.713  1.00  0.00     0.013 A 
ATOM      4  C   UNL     1      -3.408 -18.206  17.432  1.00  0.00    -0.006 A 
ATOM      5  C   UNL     1      -3.306 -19.111  16.330  1.00  0.00     0.039 A 
ATOM      6  C   UNL     1      -2.931 -18.599  15.050  1.00  0.00     0.072 A 
ATOM      7  C   UNL     1      -2.571 -17.242  14.915  1.00  0.00     0.169 A 
ATOM      8  C   UNL     1      -2.641 -16.376  16.010  1.00  0.00     0.162 A 
ATOM      9  C   UNL     1      -3.179 -16.808  17.241  1.00  0.00     0.008 A 
ATOM     10  C   UNL     1      -3.538 -20.504  16.556  1.00  0.00     0.132 A 
ATOM     11  C   UNL     1      -3.901 -20.971  17.837  1.00  0.00     0.031 A 
ENDROOT
BRANCH  11  12
ATOM     12  C   UNL     1      -4.175 -22.415  18.057  1.00  0.00     0.031 A 
ATOM     13  C   UNL     1      -3.143 -23.273  18.493  1.00  0.00     0.132 A 
ATOM     14  C   UNL     1      -5.469 -22.922  17.850  1.00  0.00    -0.039 A 
ATOM     15  C   UNL     1      -3.412 -24.648  18.750  1.00  0.00     0.039 A 
ATOM     16  C   UNL     1      -5.698 -24.293  17.979  1.00  0.00     0.013 A 
ATOM     17  C   UNL     1      -6.613 -22.009  17.479  1.00  0.00     0.045 C 
ATOM     18  C   UNL     1      -4.668 -25.187  18.348  1.00  0.00    -0.006 A 
ATOM     19  C   UNL     1      -2.465 -25.507  19.378  1.00  0.00     0.072 A 
ATOM     20  C   UNL     1      -4.876 -26.598  18.351  1.00  0.00     0.008 A 
ATOM     21  C   UNL     1      -2.751 -26.877  19.538  1.00  0.00     0.169 A 
ATOM     22  C   UNL     1      -3.939 -27.425  19.012  1.00  0.00     0.162 A 
BRANCH  13  23
ATOM     23  O   UNL     1      -1.844 -22.771  18.631  1.00  0.00    -0.507 OA
ATOM     24  H   UNL     1      -1.009 -23.289  18.387  1.00  0.00     0.293 HD
ENDBRANCH  13  23
BRANCH  19  25
ATOM     25  C   UNL     1      -1.239 -24.981  20.025  1.00  0.00     0.264 C 
ATOM     26  O   UNL     1      -0.095 -25.305  19.604  1.00  0.00    -0.298 OA
ENDBRANCH  19  25
BRANCH  20  27
ATOM     27  C   UNL     1      -6.087 -27.228  17.638  1.00  0.00     0.017 C 
ATOM     28  C   UNL     1      -7.073 -27.821  18.651  1.00  0.00     0.012 C 
ATOM     29  C   UNL     1      -5.704 -28.258  16.558  1.00  0.00     0.012 C 
ENDBRANCH  20  27
BRANCH  21  30
ATOM     30  O   UNL     1      -1.836 -27.662  20.252  1.00  0.00    -0.504 OA
ATOM     31  H   UNL     1      -1.624 -27.560  21.234  1.00  0.00     0.293 HD
ENDBRANCH  21  30
BRANCH  22  32
ATOM     32  O   UNL     1      -4.227 -28.786  19.148  1.00  0.00    -0.504 OA
ATOM     33  H   UNL     1      -3.542 -29.527  19.172  1.00  0.00     0.293 HD
ENDBRANCH  22  32
ENDBRANCH  11  12
BRANCH  10  34
ATOM     34  O   UNL     1      -3.384 -21.428  15.516  1.00  0.00    -0.507 OA
ATOM     35  H   UNL     1      -4.108 -21.654  14.845  1.00  0.00     0.293 HD
ENDBRANCH  10  34
BRANCH   9  36
ATOM     36  C   UNL     1      -3.482 -15.775  18.342  1.00  0.00     0.017 C 
ATOM     37  C   UNL     1      -2.265 -14.879  18.597  1.00  0.00     0.012 C 
ATOM     38  C   UNL     1      -4.749 -14.936  18.083  1.00  0.00     0.012 C 
ENDBRANCH   9  36
BRANCH   6  39
ATOM     39  C   UNL     1      -2.917 -19.451  13.843  1.00  0.00     0.264 C 
ATOM     40  O   UNL     1      -1.835 -19.714  13.253  1.00  0.00    -0.298 OA
ENDBRANCH   6  39
BRANCH   8  41
ATOM     41  O   UNL     1      -2.182 -15.064  15.872  1.00  0.00    -0.504 OA
ATOM     42  H   UNL     1      -2.733 -14.254  16.128  1.00  0.00     0.293 HD
ENDBRANCH   8  41
BRANCH   7  43
ATOM     43  O   UNL     1      -2.168 -16.706  13.685  1.00  0.00    -0.504 OA
ATOM     44  H   UNL     1      -2.789 -16.248  13.033  1.00  0.00     0.293 HD
ENDBRANCH   7  43
TORSDOF 11
ENDMDL
MODEL 8
REMARK VINA RESULT:    -5.421      3.306      6.038
REMARK INTER + INTRA:          -9.105
REMARK INTER:                  -7.796
REMARK INTRA:                  -1.310
REMARK UNBOUND:                -1.149
REMARK SMILES Cc1cc2c(C(C)C)c(O)c(O)c(C=O)c2c(O)c1-c1c(C)cc2c(C(C)C)c(O)c(O)c(C=O)c2c1O
REMARK SMILES IDX 1 1 2 2 3 3 4 4 16 5 13 6 11 7 9 8 5 9 17 10 19 11 20 12
REMARK SMILES IDX 37 13 21 14 36 15 23 16 22 17 24 18 33 19 25 20 31 21 29 22
REMARK SMILES IDX 38 23 34 25 35 26 26 27 27 28 28 29 32 30 30 32 18 34 6 36
REMARK SMILES IDX 7 37 8 38 14 39 15 40 10 41 12 43
REMARK H PARENT 38 24 32 31 30 33 18 35 10 42 12 44
REMARK Flexibility Score: inf
ROOT
ATOM      1  C   UNL     1      -2.241 -25.382  15.958  1.00  0.00     0.045 C 
ATOM      2  C   UNL     1      -3.004 -24.766  17.107  1.00  0.00    -0.039 A 
ATOM      3  C   UNL     1      -3.259 -23.395  17.102  1.00  0.00     0.013 A 
ATOM      4  C   UNL     1      -3.922 -22.753  18.172  1.00  0.00    -0.006 A 
ATOM      5  C   UNL     1      -4.434 -23.551  19.242  1.00  0.00     0.039 A 
ATOM      6  C   UNL     1      -5.175 -22.914  20.284  1.00  0.00     0.072 A 
ATOM      7  C   UNL     1      -5.477 -21.540  20.191  1.00  0.00     0.169 A 
ATOM      8  C   UNL     1      -5.000 -20.778  19.120  1.00  0.00     0.162 A 
ATOM      9  C   UNL     1      -4.116 -21.336  18.173  1.00  0.00     0.008 A 
ATOM     10  C   UNL     1      -4.225 -24.965  19.210  1.00  0.00     0.132 A 
ATOM     11  C   UNL     1      -3.491 -25.557  18.159  1.00  0.00     0.031 A 
ENDROOT
BRANCH  11  12
ATOM     12  C   UNL     1      -3.249 -27.023  18.150  1.00  0.00     0.031 A 
ATOM     13  C   UNL     1      -2.196 -27.572  18.913  1.00  0.00     0.132 A 
ATOM     14  C   UNL     1      -4.081 -27.866  17.394  1.00  0.00    -0.039 A 
ATOM     15  C   UNL     1      -1.988 -28.981  18.943  1.00  0.00     0.039 A 
ATOM     16  C   UNL     1      -3.796 -29.231  17.326  1.00  0.00     0.013 A 
ATOM     17  C   UNL     1      -5.274 -27.318  16.649  1.00  0.00     0.045 C 
ATOM     18  C   UNL     1      -2.708 -29.799  18.025  1.00  0.00    -0.006 A 
ATOM     19  C   UNL     1      -1.077 -29.599  19.846  1.00  0.00     0.072 A 
ATOM     20  C   UNL     1      -2.344 -31.166  17.847  1.00  0.00     0.008 A 
ATOM     21  C   UNL     1      -0.851 -30.988  19.781  1.00  0.00     0.169 A 
ATOM     22  C   UNL     1      -1.464 -31.766  18.778  1.00  0.00     0.162 A 
BRANCH  13  23
ATOM     23  O   UNL     1      -1.332 -26.717  19.606  1.00  0.00    -0.507 OA
ATOM     24  H   UNL     1      -0.885 -25.908  19.192  1.00  0.00     0.293 HD
ENDBRANCH  13  23
BRANCH  19  25
ATOM     25  C   UNL     1      -0.465 -28.855  20.973  1.00  0.00     0.264 C 
ATOM     26  O   UNL     1       0.765 -28.580  20.976  1.00  0.00    -0.298 OA
ENDBRANCH  19  25
BRANCH  20  27
ATOM     27  C   UNL     1      -2.879 -31.988  16.659  1.00  0.00     0.017 C 
ATOM     28  C   UNL     1      -3.821 -33.097  17.137  1.00  0.00     0.012 C 
ATOM     29  C   UNL     1      -1.773 -32.546  15.743  1.00  0.00     0.012 C 
ENDBRANCH  20  27
BRANCH  21  30
ATOM     30  O   UNL     1      -0.025 -31.567  20.755  1.00  0.00    -0.504 OA
ATOM     31  H   UNL     1       0.724 -32.218  20.570  1.00  0.00     0.293 HD
ENDBRANCH  21  30
BRANCH  22  32
ATOM     32  O   UNL     1      -1.235 -33.142  18.692  1.00  0.00    -0.504 OA
ATOM     33  H   UNL     1      -1.236 -33.681  17.838  1.00  0.00     0.293 HD
ENDBRANCH  22  32
ENDBRANCH  11  12
BRANCH  10  34
ATOM     34  O   UNL     1      -4.766 -25.787  20.205  1.00  0.00    -0.507 OA
ATOM     35  H   UNL     1      -4.623 -26.788  20.255  1.00  0.00     0.293 HD
ENDBRANCH  10  34
BRANCH   9  36
ATOM     36  C   UNL     1      -3.407 -20.417  17.161  1.00  0.00     0.017 C 
ATOM     37  C   UNL     1      -1.885 -20.526  17.299  1.00  0.00     0.012 C 
ATOM     38  C   UNL     1      -3.854 -20.631  15.701  1.00  0.00     0.012 C 
ENDBRANCH   9  36
BRANCH   6  39
ATOM     39  C   UNL     1      -5.636 -23.653  21.478  1.00  0.00     0.264 C 
ATOM     40  O   UNL     1      -6.857 -23.919  21.640  1.00  0.00    -0.298 OA
ENDBRANCH   6  39
BRANCH   8  41
ATOM     41  O   UNL     1      -5.399 -19.445  19.001  1.00  0.00    -0.504 OA
ATOM     42  H   UNL     1      -4.793 -18.664  19.222  1.00  0.00     0.293 HD
ENDBRANCH   8  41
BRANCH   7  43
ATOM     43  O   UNL     1      -6.227 -20.883  21.175  1.00  0.00    -0.504 OA
ATOM     44  H   UNL     1      -6.132 -19.903  21.404  1.00  0.00     0.293 HD
ENDBRANCH   7  43
TORSDOF 11
ENDMDL
MODEL 9
REMARK VINA RESULT:    -5.284      2.498      8.464
REMARK INTER + INTRA:          -8.905
REMARK INTER:                  -7.683
REMARK INTRA:                  -1.222
REMARK UNBOUND:                -1.149
REMARK SMILES Cc1cc2c(C(C)C)c(O)c(O)c(C=O)c2c(O)c1-c1c(C)cc2c(C(C)C)c(O)c(O)c(C=O)c2c1O
REMARK SMILES IDX 1 1 2 2 3 3 4 4 16 5 13 6 11 7 9 8 5 9 17 10 19 11 20 12
REMARK SMILES IDX 37 13 21 14 36 15 23 16 22 17 24 18 33 19 25 20 31 21 29 22
REMARK SMILES IDX 38 23 34 25 35 26 26 27 27 28 28 29 32 30 30 32 18 34 6 36
REMARK SMILES IDX 7 37 8 38 14 39 15 40 10 41 12 43
REMARK H PARENT 38 24 32 31 30 33 18 35 10 42 12 44
REMARK Flexibility Score: inf
ROOT
ATOM      1  C   UNL     1      -6.325 -23.200  18.580  1.00  0.00     0.045 C 
ATOM      2  C   UNL     1      -5.145 -24.130  18.741  1.00  0.00    -0.039 A 
ATOM      3  C   UNL     1      -5.346 -25.403  19.273  1.00  0.00     0.013 A 
ATOM      4  C   UNL     1      -4.276 -26.299  19.495  1.00  0.00    -0.006 A 
ATOM      5  C   UNL     1      -2.964 -25.924  19.067  1.00  0.00     0.039 A 
ATOM      6  C   UNL     1      -1.897 -26.860  19.218  1.00  0.00     0.072 A 
ATOM      7  C   UNL     1      -2.166 -28.163  19.684  1.00  0.00     0.169 A 
ATOM      8  C   UNL     1      -3.460 -28.528  20.066  1.00  0.00     0.162 A 
ATOM      9  C   UNL     1      -4.499 -27.575  20.102  1.00  0.00     0.008 A 
ATOM     10  C   UNL     1      -2.776 -24.642  18.463  1.00  0.00     0.132 A 
ATOM     11  C   UNL     1      -3.859 -23.747  18.328  1.00  0.00     0.031 A 
ENDROOT
BRANCH  11  12
ATOM     12  C   UNL     1      -3.649 -22.402  17.731  1.00  0.00     0.031 A 
ATOM     13  C   UNL     1      -3.899 -22.191  16.358  1.00  0.00     0.132 A 
ATOM     14  C   UNL     1      -3.219 -21.336  18.539  1.00  0.00    -0.039 A 
ATOM     15  C   UNL     1      -3.743 -20.893  15.791  1.00  0.00     0.039 A 
ATOM     16  C   UNL     1      -2.946 -20.098  17.954  1.00  0.00     0.013 A 
ATOM     17  C   UNL     1      -3.040 -21.511  20.028  1.00  0.00     0.045 C 
ATOM     18  C   UNL     1      -3.121 -19.875  16.571  1.00  0.00    -0.006 A 
ATOM     19  C   UNL     1      -4.171 -20.581  14.469  1.00  0.00     0.072 A 
ATOM     20  C   UNL     1      -2.717 -18.652  15.959  1.00  0.00     0.008 A 
ATOM     21  C   UNL     1      -3.923 -19.304  13.929  1.00  0.00     0.169 A 
ATOM     22  C   UNL     1      -3.185 -18.351  14.659  1.00  0.00     0.162 A 
BRANCH  13  23
ATOM     23  O   UNL     1      -4.260 -23.275  15.550  1.00  0.00    -0.507 OA
ATOM     24  H   UNL     1      -5.051 -23.269  14.917  1.00  0.00     0.293 HD
ENDBRANCH  13  23
BRANCH  19  25
ATOM     25  C   UNL     1      -5.022 -21.507  13.682  1.00  0.00     0.264 C 
ATOM     26  O   UNL     1      -4.594 -22.034  12.621  1.00  0.00    -0.298 OA
ENDBRANCH  19  25
BRANCH  20  27
ATOM     27  C   UNL     1      -1.775 -17.670  16.681  1.00  0.00     0.017 C 
ATOM     28  C   UNL     1      -0.395 -18.297  16.907  1.00  0.00     0.012 C 
ATOM     29  C   UNL     1      -2.356 -17.104  17.991  1.00  0.00     0.012 C 
ENDBRANCH  20  27
BRANCH  21  30
ATOM     30  O   UNL     1      -4.452 -19.010  12.665  1.00  0.00    -0.504 OA
ATOM     31  H   UNL     1      -4.832 -18.117  12.387  1.00  0.00     0.293 HD
ENDBRANCH  21  30
BRANCH  22  32
ATOM     32  O   UNL     1      -2.916 -17.086  14.127  1.00  0.00    -0.504 OA
ATOM     33  H   UNL     1      -2.007 -16.755  13.841  1.00  0.00     0.293 HD
ENDBRANCH  22  32
ENDBRANCH  11  12
BRANCH  10  34
ATOM     34  O   UNL     1      -1.521 -24.265  17.973  1.00  0.00    -0.507 OA
ATOM     35  H   UNL     1      -0.814 -24.918  17.658  1.00  0.00     0.293 HD
ENDBRANCH  10  34
BRANCH   9  36
ATOM     36  C   UNL     1      -5.840 -27.938  20.765  1.00  0.00     0.017 C 
ATOM     37  C   UNL     1      -6.593 -28.984  19.936  1.00  0.00     0.012 C 
ATOM     38  C   UNL     1      -5.712 -28.378  22.237  1.00  0.00     0.012 C 
ENDBRANCH   9  36
BRANCH   6  39
ATOM     39  C   UNL     1      -0.496 -26.503  18.905  1.00  0.00     0.264 C 
ATOM     40  O   UNL     1       0.395 -26.550  19.795  1.00  0.00    -0.298 OA
ENDBRANCH   6  39
BRANCH   8  41
ATOM     41  O   UNL     1      -3.716 -29.853  20.426  1.00  0.00    -0.504 OA
ATOM     42  H   UNL     1      -4.215 -30.503  19.831  1.00  0.00     0.293 HD
ENDBRANCH   8  41
BRANCH   7  43
ATOM     43  O   UNL     1      -1.152 -29.122  19.816  1.00  0.00    -0.504 OA
ATOM     44  H   UNL     1      -0.386 -29.232  19.167  1.00  0.00     0.293 HD
ENDBRANCH   7  43
TORSDOF 11
ENDMDL
