MODEL 1
REMARK VINA RESULT:    -2.238      0.000      0.000
REMARK INTER + INTRA:          -2.238
REMARK INTER:                  -2.238
REMARK INTRA:                   0.000
REMARK UNBOUND:                 0.000
REMARK SMILES CC(=O)[O-]
REMARK SMILES IDX 1 1 2 2 3 3 4 4
REMARK H PARENT
REMARK Flexibility Score: inf
ROOT
ATOM      1  C   UNL     1       9.479 -29.936  32.574  1.00  0.00     0.063 C 
ATOM      2  C   UNL     1       8.342 -30.018  31.612  1.00  0.00     0.038 C 
ATOM      3  O   UNL     1       8.507 -29.683  30.410  1.00  0.00    -0.550 OA
ATOM      4  O   UNL     1       7.084 -30.412  32.051  1.00  0.00    -0.550 OA
ENDROOT
TORSDOF 0
ENDMDL
MODEL 2
REMARK VINA RESULT:    -2.229      0.120      1.621
REMARK INTER + INTRA:          -2.229
REMARK INTER:                  -2.229
REMARK INTRA:                   0.000
REMARK UNBOUND:                 0.000
REMARK SMILES CC(=O)[O-]
REMARK SMILES IDX 1 1 2 2 3 3 4 4
REMARK H PARENT
REMARK Flexibility Score: inf
ROOT
ATOM      1  C   UNL     1       9.515 -29.879  32.535  1.00  0.00     0.063 C 
ATOM      2  C   UNL     1       8.355 -29.992  31.604  1.00  0.00     0.038 C 
ATOM      3  O   UNL     1       7.241 -30.393  32.030  1.00  0.00    -0.550 OA
ATOM      4  O   UNL     1       8.516 -29.708  30.254  1.00  0.00    -0.550 OA
ENDROOT
TORSDOF 0
ENDMDL
MODEL 3
REMARK VINA RESULT:    -2.203     10.517     11.022
REMARK INTER + INTRA:          -2.203
REMARK INTER:                  -2.203
REMARK INTRA:                   0.000
REMARK UNBOUND:                 0.000
REMARK SMILES CC(=O)[O-]
REMARK SMILES IDX 1 1 2 2 3 3 4 4
REMARK H PARENT
REMARK Flexibility Score: inf
ROOT
ATOM      1  C   UNL     1      16.924 -25.196  26.761  1.00  0.00     0.063 C 
ATOM      2  C   UNL     1      17.573 -25.774  27.973  1.00  0.00     0.038 C 
ATOM      3  O   UNL     1      17.365 -26.974  28.290  1.00  0.00    -0.550 OA
ATOM      4  O   UNL     1      18.366 -24.974  28.786  1.00  0.00    -0.550 OA
ENDROOT
TORSDOF 0
ENDMDL
MODEL 4
REMARK VINA RESULT:    -2.195      1.846      1.994
REMARK INTER + INTRA:          -2.195
REMARK INTER:                  -2.195
REMARK INTRA:                   0.000
REMARK UNBOUND:                 0.000
REMARK SMILES CC(=O)[O-]
REMARK SMILES IDX 1 1 2 2 3 3 4 4
REMARK H PARENT
REMARK Flexibility Score: inf
ROOT
ATOM      1  C   UNL     1      10.575 -29.287  30.685  1.00  0.00     0.063 C 
ATOM      2  C   UNL     1       9.434 -29.730  31.538  1.00  0.00     0.038 C 
ATOM      3  O   UNL     1       9.615 -29.963  32.762  1.00  0.00    -0.550 OA
ATOM      4  O   UNL     1       8.182 -29.939  30.974  1.00  0.00    -0.550 OA
ENDROOT
TORSDOF 0
ENDMDL
MODEL 5
REMARK VINA RESULT:    -2.187     10.346     10.662
REMARK INTER + INTRA:          -2.187
REMARK INTER:                  -2.187
REMARK INTRA:                   0.000
REMARK UNBOUND:                 0.000
REMARK SMILES CC(=O)[O-]
REMARK SMILES IDX 1 1 2 2 3 3 4 4
REMARK H PARENT
REMARK Flexibility Score: inf
ROOT
ATOM      1  C   UNL     1      16.056 -26.280  28.060  1.00  0.00     0.063 C 
ATOM      2  C   UNL     1      16.709 -25.097  27.428  1.00  0.00     0.038 C 
ATOM      3  O   UNL     1      17.017 -25.122  26.208  1.00  0.00    -0.550 OA
ATOM      4  O   UNL     1      17.030 -23.985  28.197  1.00  0.00    -0.550 OA
ENDROOT
TORSDOF 0
ENDMDL
MODEL 6
REMARK VINA RESULT:    -2.176     11.221     11.376
REMARK INTER + INTRA:          -2.176
REMARK INTER:                  -2.176
REMARK INTRA:                   0.000
REMARK UNBOUND:                 0.000
REMARK SMILES CC(=O)[O-]
REMARK SMILES IDX 1 1 2 2 3 3 4 4
REMARK H PARENT
REMARK Flexibility Score: inf
ROOT
ATOM      1  C   UNL     1      18.139 -25.141  31.004  1.00  0.00     0.063 C 
ATOM      2  C   UNL     1      18.027 -24.516  29.654  1.00  0.00     0.038 C 
ATOM      3  O   UNL     1      17.653 -23.320  29.541  1.00  0.00    -0.550 OA
ATOM      4  O   UNL     1      18.283 -25.269  28.515  1.00  0.00    -0.550 OA
ENDROOT
TORSDOF 0
ENDMDL
MODEL 7
REMARK VINA RESULT:    -2.138     10.464     10.834
REMARK INTER + INTRA:          -2.138
REMARK INTER:                  -2.138
REMARK INTRA:                   0.000
REMARK UNBOUND:                 0.000
REMARK SMILES CC(=O)[O-]
REMARK SMILES IDX 1 1 2 2 3 3 4 4
REMARK H PARENT
REMARK Flexibility Score: inf
ROOT
ATOM      1  C   UNL     1      18.150 -24.850  28.901  1.00  0.00     0.063 C 
ATOM      2  C   UNL     1      17.538 -25.746  27.878  1.00  0.00     0.038 C 
ATOM      3  O   UNL     1      17.256 -25.300  26.736  1.00  0.00    -0.550 OA
ATOM      4  O   UNL     1      17.226 -27.061  28.201  1.00  0.00    -0.550 OA
ENDROOT
TORSDOF 0
ENDMDL
MODEL 8
REMARK VINA RESULT:    -2.105     10.647     11.064
REMARK INTER + INTRA:          -2.105
REMARK INTER:                  -2.105
REMARK INTRA:                   0.000
REMARK UNBOUND:                 0.000
REMARK SMILES CC(=O)[O-]
REMARK SMILES IDX 1 1 2 2 3 3 4 4
REMARK H PARENT
REMARK Flexibility Score: inf
ROOT
ATOM      1  C   UNL     1      16.367 -24.409  30.018  1.00  0.00     0.063 C 
ATOM      2  C   UNL     1      17.826 -24.667  30.191  1.00  0.00     0.038 C 
ATOM      3  O   UNL     1      18.622 -24.451  29.241  1.00  0.00    -0.550 OA
ATOM      4  O   UNL     1      18.303 -25.200  31.382  1.00  0.00    -0.550 OA
ENDROOT
TORSDOF 0
ENDMDL
MODEL 9
REMARK VINA RESULT:    -2.072      8.791      9.403
REMARK INTER + INTRA:          -2.072
REMARK INTER:                  -2.072
REMARK INTRA:                   0.000
REMARK UNBOUND:                 0.000
REMARK SMILES CC(=O)[O-]
REMARK SMILES IDX 1 1 2 2 3 3 4 4
REMARK H PARENT
REMARK Flexibility Score: inf
ROOT
ATOM      1  C   UNL     1      16.464 -25.479  27.085  1.00  0.00     0.063 C 
ATOM      2  C   UNL     1      16.120 -26.590  28.019  1.00  0.00     0.038 C 
ATOM      3  O   UNL     1      16.922 -26.918  28.932  1.00  0.00    -0.550 OA
ATOM      4  O   UNL     1      14.940 -27.302  27.849  1.00  0.00    -0.550 OA
ENDROOT
TORSDOF 0
ENDMDL
