MODEL 1
REMARK VINA RESULT:    -2.097      0.000      0.000
REMARK INTER + INTRA:          -7.662
REMARK INTER:                  -4.793
REMARK INTRA:                  -2.868
REMARK UNBOUND:                -2.868
REMARK SMILES CCCCCCCCCCCCCCCCCCCCCCCC(=O)[O-]
REMARK SMILES IDX 13 1 14 2 15 3 16 4 17 5 18 6 19 7 20 8 21 9 22 10 23 11
REMARK SMILES IDX 24 12 25 13 26 14 12 15 11 16 10 17 9 18 8 19 7 20 6 21 5 22
REMARK SMILES IDX 4 23 3 24 2 25 1 26
REMARK H PARENT
REMARK Flexibility Score: inf
ROOT
ATOM      1  C   UNL     1      25.418  32.734  31.810  1.00  0.00     0.000 C 
ENDROOT
BRANCH   1   2
ATOM      2  C   UNL     1      24.673  33.189  33.076  1.00  0.00     0.000 C 
BRANCH   2   3
ATOM      3  C   UNL     1      25.306  32.629  34.362  1.00  0.00     0.000 C 
BRANCH   3   4
ATOM      4  C   UNL     1      24.707  33.244  35.637  1.00  0.00     0.000 C 
BRANCH   4   5
ATOM      5  C   UNL     1      25.422  32.777  36.916  1.00  0.00     0.000 C 
BRANCH   5   6
ATOM      6  C   UNL     1      26.828  33.386  37.075  1.00  0.00     0.000 C 
BRANCH   6   7
ATOM      7  C   UNL     1      28.000  32.426  36.797  1.00  0.00     0.000 C 
BRANCH   7   8
ATOM      8  C   UNL     1      29.369  33.129  36.815  1.00  0.00     0.000 C 
BRANCH   8   9
ATOM      9  C   UNL     1      30.219  32.823  35.568  1.00  0.00     0.000 C 
BRANCH   9  10
ATOM     10  C   UNL     1      29.728  31.640  34.707  1.00  0.00     0.006 C 
BRANCH  10  11
ATOM     11  C   UNL     1      30.832  30.926  33.911  1.00  0.00     0.053 C 
BRANCH  11  12
ATOM     12  C   UNL     1      30.334  29.670  33.262  1.00  0.00     0.041 C 
ATOM     13  O   UNL     1      29.680  28.827  33.932  1.00  0.00    -0.550 OA
ATOM     14  O   UNL     1      30.573  29.442  31.913  1.00  0.00    -0.550 OA
ENDBRANCH  11  12
ENDBRANCH  10  11
ENDBRANCH   9  10
ENDBRANCH   8   9
ENDBRANCH   7   8
ENDBRANCH   6   7
ENDBRANCH   5   6
ENDBRANCH   4   5
ENDBRANCH   3   4
ENDBRANCH   2   3
ENDBRANCH   1   2
BRANCH   1  15
ATOM     15  C   UNL     1      25.466  33.826  30.728  1.00  0.00     0.000 C 
BRANCH  15  16
ATOM     16  C   UNL     1      26.890  34.071  30.204  1.00  0.00     0.000 C 
BRANCH  16  17
ATOM     17  C   UNL     1      27.969  33.630  31.208  1.00  0.00     0.000 C 
BRANCH  17  18
ATOM     18  C   UNL     1      28.483  34.795  32.070  1.00  0.00    -0.000 C 
BRANCH  18  19
ATOM     19  C   UNL     1      28.127  34.627  33.558  1.00  0.00    -0.000 C 
BRANCH  19  20
ATOM     20  C   UNL     1      27.031  35.613  34.016  1.00  0.00    -0.000 C 
BRANCH  20  21
ATOM     21  C   UNL     1      26.412  36.431  32.867  1.00  0.00    -0.000 C 
BRANCH  21  22
ATOM     22  C   UNL     1      26.952  37.868  32.724  1.00  0.00    -0.000 C 
BRANCH  22  23
ATOM     23  C   UNL     1      26.810  38.743  33.985  1.00  0.00    -0.000 C 
BRANCH  23  24
ATOM     24  C   UNL     1      26.995  40.256  33.753  1.00  0.00    -0.000 C 
BRANCH  24  25
ATOM     25  C   UNL     1      25.736  40.960  33.205  1.00  0.00    -0.003 C 
ATOM     26  C   UNL     1      24.670  41.181  34.278  1.00  0.00     0.004 C 
ENDBRANCH  24  25
ENDBRANCH  23  24
ENDBRANCH  22  23
ENDBRANCH  21  22
ENDBRANCH  20  21
ENDBRANCH  19  20
ENDBRANCH  18  19
ENDBRANCH  17  18
ENDBRANCH  16  17
ENDBRANCH  15  16
ENDBRANCH   1  15
TORSDOF 22
ENDMDL
MODEL 2
REMARK VINA RESULT:    -2.001      1.269      2.029
REMARK INTER + INTRA:          -7.442
REMARK INTER:                  -5.570
REMARK INTRA:                  -1.872
REMARK UNBOUND:                -2.868
REMARK SMILES CCCCCCCCCCCCCCCCCCCCCCCC(=O)[O-]
REMARK SMILES IDX 13 1 14 2 15 3 16 4 17 5 18 6 19 7 20 8 21 9 22 10 23 11
REMARK SMILES IDX 24 12 25 13 26 14 12 15 11 16 10 17 9 18 8 19 7 20 6 21 5 22
REMARK SMILES IDX 4 23 3 24 2 25 1 26
REMARK H PARENT
REMARK Flexibility Score: inf
ROOT
ATOM      1  C   UNL     1      25.393  33.321  33.906  1.00  0.00     0.000 C 
ENDROOT
BRANCH   1   2
ATOM      2  C   UNL     1      24.417  32.882  35.010  1.00  0.00     0.000 C 
BRANCH   2   3
ATOM      3  C   UNL     1      24.783  33.473  36.383  1.00  0.00     0.000 C 
BRANCH   3   4
ATOM      4  C   UNL     1      25.868  32.662  37.111  1.00  0.00     0.000 C 
BRANCH   4   5
ATOM      5  C   UNL     1      27.282  33.223  36.887  1.00  0.00     0.000 C 
BRANCH   5   6
ATOM      6  C   UNL     1      28.283  32.157  36.402  1.00  0.00     0.000 C 
BRANCH   6   7
ATOM      7  C   UNL     1      28.893  32.407  35.010  1.00  0.00     0.000 C 
BRANCH   7   8
ATOM      8  C   UNL     1      30.249  31.705  34.815  1.00  0.00     0.000 C 
BRANCH   8   9
ATOM      9  C   UNL     1      30.319  30.882  33.516  1.00  0.00     0.000 C 
BRANCH   9  10
ATOM     10  C   UNL     1      29.963  29.387  33.660  1.00  0.00     0.006 C 
BRANCH  10  11
ATOM     11  C   UNL     1      30.054  28.843  35.095  1.00  0.00     0.053 C 
BRANCH  11  12
ATOM     12  C   UNL     1      30.185  27.350  35.122  1.00  0.00     0.041 C 
ATOM     13  O   UNL     1      30.132  26.729  36.216  1.00  0.00    -0.550 OA
ATOM     14  O   UNL     1      30.342  26.644  33.936  1.00  0.00    -0.550 OA
ENDBRANCH  11  12
ENDBRANCH  10  11
ENDBRANCH   9  10
ENDBRANCH   8   9
ENDBRANCH   7   8
ENDBRANCH   6   7
ENDBRANCH   5   6
ENDBRANCH   4   5
ENDBRANCH   3   4
ENDBRANCH   2   3
ENDBRANCH   1   2
BRANCH   1  15
ATOM     15  C   UNL     1      25.076  32.674  32.546  1.00  0.00     0.000 C 
BRANCH  15  16
ATOM     16  C   UNL     1      25.473  33.570  31.362  1.00  0.00     0.000 C 
BRANCH  16  17
ATOM     17  C   UNL     1      26.997  33.630  31.156  1.00  0.00     0.000 C 
BRANCH  17  18
ATOM     18  C   UNL     1      27.572  35.030  31.423  1.00  0.00    -0.000 C 
BRANCH  18  19
ATOM     19  C   UNL     1      28.014  35.216  32.885  1.00  0.00    -0.000 C 
BRANCH  19  20
ATOM     20  C   UNL     1      26.990  36.024  33.712  1.00  0.00    -0.000 C 
BRANCH  20  21
ATOM     21  C   UNL     1      26.482  37.293  33.001  1.00  0.00    -0.000 C 
BRANCH  21  22
ATOM     22  C   UNL     1      27.321  38.561  33.252  1.00  0.00    -0.000 C 
BRANCH  22  23
ATOM     23  C   UNL     1      26.650  39.616  34.154  1.00  0.00    -0.000 C 
BRANCH  23  24
ATOM     24  C   UNL     1      25.917  40.744  33.403  1.00  0.00    -0.000 C 
BRANCH  24  25
ATOM     25  C   UNL     1      24.680  41.288  34.148  1.00  0.00    -0.003 C 
ATOM     26  C   UNL     1      24.526  40.692  35.548  1.00  0.00     0.004 C 
ENDBRANCH  24  25
ENDBRANCH  23  24
ENDBRANCH  22  23
ENDBRANCH  21  22
ENDBRANCH  20  21
ENDBRANCH  19  20
ENDBRANCH  18  19
ENDBRANCH  17  18
ENDBRANCH  16  17
ENDBRANCH  15  16
ENDBRANCH   1  15
TORSDOF 22
ENDMDL
MODEL 3
REMARK VINA RESULT:    -1.839      3.982      8.452
REMARK INTER + INTRA:          -7.072
REMARK INTER:                  -5.683
REMARK INTRA:                  -1.390
REMARK UNBOUND:                -2.868
REMARK SMILES CCCCCCCCCCCCCCCCCCCCCCCC(=O)[O-]
REMARK SMILES IDX 13 1 14 2 15 3 16 4 17 5 18 6 19 7 20 8 21 9 22 10 23 11
REMARK SMILES IDX 24 12 25 13 26 14 12 15 11 16 10 17 9 18 8 19 7 20 6 21 5 22
REMARK SMILES IDX 4 23 3 24 2 25 1 26
REMARK H PARENT
REMARK Flexibility Score: inf
ROOT
ATOM      1  C   UNL     1      24.678  32.600  34.054  1.00  0.00     0.000 C 
ENDROOT
BRANCH   1   2
ATOM      2  C   UNL     1      25.757  32.691  32.963  1.00  0.00     0.000 C 
BRANCH   2   3
ATOM      3  C   UNL     1      25.333  33.600  31.795  1.00  0.00     0.000 C 
BRANCH   3   4
ATOM      4  C   UNL     1      26.513  34.002  30.895  1.00  0.00     0.000 C 
BRANCH   4   5
ATOM      5  C   UNL     1      27.861  33.979  31.635  1.00  0.00     0.000 C 
BRANCH   5   6
ATOM      6  C   UNL     1      28.015  35.138  32.638  1.00  0.00     0.000 C 
BRANCH   6   7
ATOM      7  C   UNL     1      26.751  35.988  32.866  1.00  0.00     0.000 C 
BRANCH   7   8
ATOM      8  C   UNL     1      27.006  37.497  32.705  1.00  0.00     0.000 C 
BRANCH   8   9
ATOM      9  C   UNL     1      26.860  38.277  34.025  1.00  0.00     0.000 C 
BRANCH   9  10
ATOM     10  C   UNL     1      27.151  39.789  33.935  1.00  0.00     0.006 C 
BRANCH  10  11
ATOM     11  C   UNL     1      26.175  40.578  33.047  1.00  0.00     0.053 C 
BRANCH  11  12
ATOM     12  C   UNL     1      25.165  41.334  33.856  1.00  0.00     0.041 C 
ATOM     13  O   UNL     1      24.920  42.542  33.596  1.00  0.00    -0.550 OA
ATOM     14  O   UNL     1      24.480  40.698  34.883  1.00  0.00    -0.550 OA
ENDBRANCH  11  12
ENDBRANCH  10  11
ENDBRANCH   9  10
ENDBRANCH   8   9
ENDBRANCH   7   8
ENDBRANCH   6   7
ENDBRANCH   5   6
ENDBRANCH   4   5
ENDBRANCH   3   4
ENDBRANCH   2   3
ENDBRANCH   1   2
BRANCH   1  15
ATOM     15  C   UNL     1      24.766  33.752  35.070  1.00  0.00     0.000 C 
BRANCH  15  16
ATOM     16  C   UNL     1      24.899  33.250  36.517  1.00  0.00     0.000 C 
BRANCH  16  17
ATOM     17  C   UNL     1      26.335  33.384  37.055  1.00  0.00     0.000 C 
BRANCH  17  18
ATOM     18  C   UNL     1      27.320  32.444  36.343  1.00  0.00    -0.000 C 
BRANCH  18  19
ATOM     19  C   UNL     1      28.496  33.202  35.702  1.00  0.00    -0.000 C 
BRANCH  19  20
ATOM     20  C   UNL     1      29.737  33.250  36.620  1.00  0.00    -0.000 C 
BRANCH  20  21
ATOM     21  C   UNL     1      31.001  32.637  35.987  1.00  0.00    -0.000 C 
BRANCH  21  22
ATOM     22  C   UNL     1      30.739  31.583  34.893  1.00  0.00    -0.000 C 
BRANCH  22  23
ATOM     23  C   UNL     1      30.644  30.131  35.401  1.00  0.00    -0.000 C 
BRANCH  23  24
ATOM     24  C   UNL     1      29.896  29.161  34.465  1.00  0.00    -0.000 C 
BRANCH  24  25
ATOM     25  C   UNL     1      30.277  27.680  34.669  1.00  0.00    -0.003 C 
ATOM     26  C   UNL     1      30.205  27.249  36.134  1.00  0.00     0.004 C 
ENDBRANCH  24  25
ENDBRANCH  23  24
ENDBRANCH  22  23
ENDBRANCH  21  22
ENDBRANCH  20  21
ENDBRANCH  19  20
ENDBRANCH  18  19
ENDBRANCH  17  18
ENDBRANCH  16  17
ENDBRANCH  15  16
ENDBRANCH   1  15
TORSDOF 22
ENDMDL
MODEL 4
REMARK VINA RESULT:    -1.779      2.479      4.522
REMARK INTER + INTRA:          -6.935
REMARK INTER:                  -4.718
REMARK INTRA:                  -2.217
REMARK UNBOUND:                -2.868
REMARK SMILES CCCCCCCCCCCCCCCCCCCCCCCC(=O)[O-]
REMARK SMILES IDX 13 1 14 2 15 3 16 4 17 5 18 6 19 7 20 8 21 9 22 10 23 11
REMARK SMILES IDX 24 12 25 13 26 14 12 15 11 16 10 17 9 18 8 19 7 20 6 21 5 22
REMARK SMILES IDX 4 23 3 24 2 25 1 26
REMARK H PARENT
REMARK Flexibility Score: inf
ROOT
ATOM      1  C   UNL     1      30.868  30.513  32.616  1.00  0.00     0.000 C 
ENDROOT
BRANCH   1   2
ATOM      2  C   UNL     1      30.022  29.585  33.503  1.00  0.00     0.000 C 
BRANCH   2   3
ATOM      3  C   UNL     1      30.885  28.605  34.317  1.00  0.00     0.000 C 
BRANCH   3   4
ATOM      4  C   UNL     1      30.528  28.595  35.812  1.00  0.00     0.000 C 
BRANCH   4   5
ATOM      5  C   UNL     1      31.075  29.821  36.563  1.00  0.00     0.000 C 
BRANCH   5   6
ATOM      6  C   UNL     1      29.963  30.743  37.099  1.00  0.00     0.000 C 
BRANCH   6   7
ATOM      7  C   UNL     1      30.209  32.252  36.914  1.00  0.00     0.000 C 
BRANCH   7   8
ATOM      8  C   UNL     1      29.810  32.757  35.515  1.00  0.00     0.000 C 
BRANCH   8   9
ATOM      9  C   UNL     1      28.286  32.888  35.335  1.00  0.00     0.000 C 
BRANCH   9  10
ATOM     10  C   UNL     1      27.490  33.175  36.625  1.00  0.00     0.006 C 
BRANCH  10  11
ATOM     11  C   UNL     1      26.037  32.674  36.606  1.00  0.00     0.053 C 
BRANCH  11  12
ATOM     12  C   UNL     1      25.168  33.505  35.711  1.00  0.00     0.041 C 
ATOM     13  O   UNL     1      25.321  34.754  35.663  1.00  0.00    -0.550 OA
ATOM     14  O   UNL     1      24.206  32.897  34.915  1.00  0.00    -0.550 OA
ENDBRANCH  11  12
ENDBRANCH  10  11
ENDBRANCH   9  10
ENDBRANCH   8   9
ENDBRANCH   7   8
ENDBRANCH   6   7
ENDBRANCH   5   6
ENDBRANCH   4   5
ENDBRANCH   3   4
ENDBRANCH   2   3
ENDBRANCH   1   2
BRANCH   1  15
ATOM     15  C   UNL     1      30.087  31.750  32.140  1.00  0.00     0.000 C 
BRANCH  15  16
ATOM     16  C   UNL     1      30.220  31.982  30.626  1.00  0.00     0.000 C 
BRANCH  16  17
ATOM     17  C   UNL     1      29.164  32.964  30.088  1.00  0.00     0.000 C 
BRANCH  17  18
ATOM     18  C   UNL     1      28.276  33.542  31.201  1.00  0.00    -0.000 C 
BRANCH  18  19
ATOM     19  C   UNL     1      26.810  33.703  30.760  1.00  0.00    -0.000 C 
BRANCH  19  20
ATOM     20  C   UNL     1      26.063  34.775  31.582  1.00  0.00    -0.000 C 
BRANCH  20  21
ATOM     21  C   UNL     1      26.995  35.742  32.336  1.00  0.00    -0.000 C 
BRANCH  21  22
ATOM     22  C   UNL     1      26.416  37.149  32.581  1.00  0.00    -0.000 C 
BRANCH  22  23
ATOM     23  C   UNL     1      27.086  37.938  33.724  1.00  0.00    -0.000 C 
BRANCH  23  24
ATOM     24  C   UNL     1      27.055  39.470  33.564  1.00  0.00    -0.000 C 
BRANCH  24  25
ATOM     25  C   UNL     1      25.967  40.163  34.412  1.00  0.00    -0.003 C 
ATOM     26  C   UNL     1      25.186  41.214  33.622  1.00  0.00     0.004 C 
ENDBRANCH  24  25
ENDBRANCH  23  24
ENDBRANCH  22  23
ENDBRANCH  21  22
ENDBRANCH  20  21
ENDBRANCH  19  20
ENDBRANCH  18  19
ENDBRANCH  17  18
ENDBRANCH  16  17
ENDBRANCH  15  16
ENDBRANCH   1  15
TORSDOF 22
ENDMDL
MODEL 5
REMARK VINA RESULT:    -1.682      2.816      4.364
REMARK INTER + INTRA:          -6.713
REMARK INTER:                  -4.831
REMARK INTRA:                  -1.882
REMARK UNBOUND:                -2.868
REMARK SMILES CCCCCCCCCCCCCCCCCCCCCCCC(=O)[O-]
REMARK SMILES IDX 13 1 14 2 15 3 16 4 17 5 18 6 19 7 20 8 21 9 22 10 23 11
REMARK SMILES IDX 24 12 25 13 26 14 12 15 11 16 10 17 9 18 8 19 7 20 6 21 5 22
REMARK SMILES IDX 4 23 3 24 2 25 1 26
REMARK H PARENT
REMARK Flexibility Score: inf
ROOT
ATOM      1  C   UNL     1      26.357  34.676  34.470  1.00  0.00     0.000 C 
ENDROOT
BRANCH   1   2
ATOM      2  C   UNL     1      25.509  33.396  34.381  1.00  0.00     0.000 C 
BRANCH   2   3
ATOM      3  C   UNL     1      24.800  33.070  35.707  1.00  0.00     0.000 C 
BRANCH   3   4
ATOM      4  C   UNL     1      25.776  32.944  36.889  1.00  0.00     0.000 C 
BRANCH   4   5
ATOM      5  C   UNL     1      26.569  31.627  36.869  1.00  0.00     0.000 C 
BRANCH   5   6
ATOM      6  C   UNL     1      28.076  31.829  37.118  1.00  0.00     0.000 C 
BRANCH   6   7
ATOM      7  C   UNL     1      28.947  31.938  35.853  1.00  0.00     0.000 C 
BRANCH   7   8
ATOM      8  C   UNL     1      30.433  31.635  36.120  1.00  0.00     0.000 C 
BRANCH   8   9
ATOM      9  C   UNL     1      30.694  30.156  36.458  1.00  0.00     0.000 C 
BRANCH   9  10
ATOM     10  C   UNL     1      30.196  29.140  35.408  1.00  0.00     0.006 C 
BRANCH  10  11
ATOM     11  C   UNL     1      30.891  29.239  34.040  1.00  0.00     0.053 C 
BRANCH  11  12
ATOM     12  C   UNL     1      30.683  28.006  33.214  1.00  0.00     0.041 C 
ATOM     13  O   UNL     1      30.507  26.891  33.773  1.00  0.00    -0.550 OA
ATOM     14  O   UNL     1      30.662  28.093  31.828  1.00  0.00    -0.550 OA
ENDBRANCH  11  12
ENDBRANCH  10  11
ENDBRANCH   9  10
ENDBRANCH   8   9
ENDBRANCH   7   8
ENDBRANCH   6   7
ENDBRANCH   5   6
ENDBRANCH   4   5
ENDBRANCH   3   4
ENDBRANCH   2   3
ENDBRANCH   1   2
BRANCH   1  15
ATOM     15  C   UNL     1      27.794  34.469  33.961  1.00  0.00     0.000 C 
BRANCH  15  16
ATOM     16  C   UNL     1      28.018  35.085  32.570  1.00  0.00     0.000 C 
BRANCH  16  17
ATOM     17  C   UNL     1      28.253  34.018  31.487  1.00  0.00     0.000 C 
BRANCH  17  18
ATOM     18  C   UNL     1      27.197  34.071  30.371  1.00  0.00    -0.000 C 
BRANCH  18  19
ATOM     19  C   UNL     1      25.827  33.543  30.832  1.00  0.00    -0.000 C 
BRANCH  19  20
ATOM     20  C   UNL     1      24.658  34.411  30.317  1.00  0.00    -0.000 C 
BRANCH  20  21
ATOM     21  C   UNL     1      24.847  34.914  28.874  1.00  0.00    -0.000 C 
BRANCH  21  22
ATOM     22  C   UNL     1      23.567  35.433  28.191  1.00  0.00    -0.000 C 
BRANCH  22  23
ATOM     23  C   UNL     1      23.762  35.949  26.751  1.00  0.00    -0.000 C 
BRANCH  23  24
ATOM     24  C   UNL     1      22.461  36.147  25.948  1.00  0.00    -0.000 C 
BRANCH  24  25
ATOM     25  C   UNL     1      21.953  37.604  25.933  1.00  0.00    -0.003 C 
ATOM     26  C   UNL     1      22.855  38.551  26.726  1.00  0.00     0.004 C 
ENDBRANCH  24  25
ENDBRANCH  23  24
ENDBRANCH  22  23
ENDBRANCH  21  22
ENDBRANCH  20  21
ENDBRANCH  19  20
ENDBRANCH  18  19
ENDBRANCH  17  18
ENDBRANCH  16  17
ENDBRANCH  15  16
ENDBRANCH   1  15
TORSDOF 22
ENDMDL
MODEL 6
REMARK VINA RESULT:    -1.573      4.091      8.683
REMARK INTER + INTRA:          -6.464
REMARK INTER:                  -5.270
REMARK INTRA:                  -1.194
REMARK UNBOUND:                -2.868
REMARK SMILES CCCCCCCCCCCCCCCCCCCCCCCC(=O)[O-]
REMARK SMILES IDX 13 1 14 2 15 3 16 4 17 5 18 6 19 7 20 8 21 9 22 10 23 11
REMARK SMILES IDX 24 12 25 13 26 14 12 15 11 16 10 17 9 18 8 19 7 20 6 21 5 22
REMARK SMILES IDX 4 23 3 24 2 25 1 26
REMARK H PARENT
REMARK Flexibility Score: inf
ROOT
ATOM      1  C   UNL     1      25.998  33.183  34.380  1.00  0.00     0.000 C 
ENDROOT
BRANCH   1   2
ATOM      2  C   UNL     1      27.135  34.201  34.201  1.00  0.00     0.000 C 
BRANCH   2   3
ATOM      3  C   UNL     1      26.616  35.601  33.828  1.00  0.00     0.000 C 
BRANCH   3   4
ATOM      4  C   UNL     1      26.681  35.878  32.317  1.00  0.00     0.000 C 
BRANCH   4   5
ATOM      5  C   UNL     1      27.827  35.124  31.623  1.00  0.00     0.000 C 
BRANCH   5   6
ATOM      6  C   UNL     1      27.351  33.863  30.875  1.00  0.00     0.000 C 
BRANCH   6   7
ATOM      7  C   UNL     1      25.844  33.565  30.974  1.00  0.00     0.000 C 
BRANCH   7   8
ATOM      8  C   UNL     1      25.123  33.663  29.618  1.00  0.00     0.000 C 
BRANCH   8   9
ATOM      9  C   UNL     1      24.731  35.105  29.247  1.00  0.00     0.000 C 
BRANCH   9  10
ATOM     10  C   UNL     1      23.687  35.237  28.118  1.00  0.00     0.006 C 
BRANCH  10  11
ATOM     11  C   UNL     1      23.910  36.430  27.175  1.00  0.00     0.053 C 
BRANCH  11  12
ATOM     12  C   UNL     1      22.749  36.639  26.250  1.00  0.00     0.041 C 
ATOM     13  O   UNL     1      22.171  37.757  26.202  1.00  0.00    -0.550 OA
ATOM     14  O   UNL     1      22.321  35.606  25.427  1.00  0.00    -0.550 OA
ENDBRANCH  11  12
ENDBRANCH  10  11
ENDBRANCH   9  10
ENDBRANCH   8   9
ENDBRANCH   7   8
ENDBRANCH   6   7
ENDBRANCH   5   6
ENDBRANCH   4   5
ENDBRANCH   3   4
ENDBRANCH   2   3
ENDBRANCH   1   2
BRANCH   1  15
ATOM     15  C   UNL     1      24.950  33.643  35.410  1.00  0.00     0.000 C 
BRANCH  15  16
ATOM     16  C   UNL     1      25.163  33.002  36.791  1.00  0.00     0.000 C 
BRANCH  16  17
ATOM     17  C   UNL     1      26.653  32.810  37.125  1.00  0.00     0.000 C 
BRANCH  17  18
ATOM     18  C   UNL     1      27.093  31.341  37.029  1.00  0.00    -0.000 C 
BRANCH  18  19
ATOM     19  C   UNL     1      28.622  31.179  37.094  1.00  0.00    -0.000 C 
BRANCH  19  20
ATOM     20  C   UNL     1      29.369  32.440  36.604  1.00  0.00    -0.000 C 
BRANCH  20  21
ATOM     21  C   UNL     1      30.512  32.140  35.617  1.00  0.00    -0.000 C 
BRANCH  21  22
ATOM     22  C   UNL     1      30.092  31.382  34.342  1.00  0.00    -0.000 C 
BRANCH  22  23
ATOM     23  C   UNL     1      29.505  29.978  34.586  1.00  0.00    -0.000 C 
BRANCH  23  24
ATOM     24  C   UNL     1      30.016  28.882  33.629  1.00  0.00    -0.000 C 
BRANCH  24  25
ATOM     25  C   UNL     1      30.700  27.699  34.346  1.00  0.00    -0.003 C 
ATOM     26  C   UNL     1      30.367  27.641  35.837  1.00  0.00     0.004 C 
ENDBRANCH  24  25
ENDBRANCH  23  24
ENDBRANCH  22  23
ENDBRANCH  21  22
ENDBRANCH  20  21
ENDBRANCH  19  20
ENDBRANCH  18  19
ENDBRANCH  17  18
ENDBRANCH  16  17
ENDBRANCH  15  16
ENDBRANCH   1  15
TORSDOF 22
ENDMDL
MODEL 7
REMARK VINA RESULT:    -1.521      2.692      6.348
REMARK INTER + INTRA:          -6.346
REMARK INTER:                  -5.025
REMARK INTRA:                  -1.321
REMARK UNBOUND:                -2.868
REMARK SMILES CCCCCCCCCCCCCCCCCCCCCCCC(=O)[O-]
REMARK SMILES IDX 13 1 14 2 15 3 16 4 17 5 18 6 19 7 20 8 21 9 22 10 23 11
REMARK SMILES IDX 24 12 25 13 26 14 12 15 11 16 10 17 9 18 8 19 7 20 6 21 5 22
REMARK SMILES IDX 4 23 3 24 2 25 1 26
REMARK H PARENT
REMARK Flexibility Score: inf
ROOT
ATOM      1  C   UNL     1      25.688  33.497  34.690  1.00  0.00     0.000 C 
ENDROOT
BRANCH   1   2
ATOM      2  C   UNL     1      24.601  33.351  35.768  1.00  0.00     0.000 C 
BRANCH   2   3
ATOM      3  C   UNL     1      25.177  32.902  37.123  1.00  0.00     0.000 C 
BRANCH   3   4
ATOM      4  C   UNL     1      26.603  32.339  37.007  1.00  0.00     0.000 C 
BRANCH   4   5
ATOM      5  C   UNL     1      27.677  33.439  36.967  1.00  0.00     0.000 C 
BRANCH   5   6
ATOM      6  C   UNL     1      29.109  32.879  36.889  1.00  0.00     0.000 C 
BRANCH   6   7
ATOM      7  C   UNL     1      29.337  31.791  35.823  1.00  0.00     0.000 C 
BRANCH   7   8
ATOM      8  C   UNL     1      29.478  30.382  36.424  1.00  0.00     0.000 C 
BRANCH   8   9
ATOM      9  C   UNL     1      30.890  29.793  36.255  1.00  0.00     0.000 C 
BRANCH   9  10
ATOM     10  C   UNL     1      31.040  28.747  35.130  1.00  0.00     0.006 C 
BRANCH  10  11
ATOM     11  C   UNL     1      30.731  29.274  33.719  1.00  0.00     0.053 C 
BRANCH  11  12
ATOM     12  C   UNL     1      30.524  28.161  32.737  1.00  0.00     0.041 C 
ATOM     13  O   UNL     1      31.094  27.051  32.908  1.00  0.00    -0.550 OA
ATOM     14  O   UNL     1      29.684  28.344  31.646  1.00  0.00    -0.550 OA
ENDBRANCH  11  12
ENDBRANCH  10  11
ENDBRANCH   9  10
ENDBRANCH   8   9
ENDBRANCH   7   8
ENDBRANCH   6   7
ENDBRANCH   5   6
ENDBRANCH   4   5
ENDBRANCH   3   4
ENDBRANCH   2   3
ENDBRANCH   1   2
BRANCH   1  15
ATOM     15  C   UNL     1      26.209  34.940  34.570  1.00  0.00     0.000 C 
BRANCH  15  16
ATOM     16  C   UNL     1      27.101  35.141  33.334  1.00  0.00     0.000 C 
BRANCH  16  17
ATOM     17  C   UNL     1      27.827  33.849  32.918  1.00  0.00     0.000 C 
BRANCH  17  18
ATOM     18  C   UNL     1      28.706  34.043  31.673  1.00  0.00    -0.000 C 
BRANCH  18  19
ATOM     19  C   UNL     1      28.181  33.262  30.455  1.00  0.00    -0.000 C 
BRANCH  19  20
ATOM     20  C   UNL     1      29.320  32.772  29.534  1.00  0.00    -0.000 C 
BRANCH  20  21
ATOM     21  C   UNL     1      30.490  32.113  30.290  1.00  0.00    -0.000 C 
BRANCH  21  22
ATOM     22  C   UNL     1      31.111  30.888  29.591  1.00  0.00    -0.000 C 
BRANCH  22  23
ATOM     23  C   UNL     1      30.975  30.879  28.055  1.00  0.00    -0.000 C 
BRANCH  23  24
ATOM     24  C   UNL     1      30.904  29.478  27.415  1.00  0.00    -0.000 C 
BRANCH  24  25
ATOM     25  C   UNL     1      31.122  28.324  28.415  1.00  0.00    -0.003 C 
ATOM     26  C   UNL     1      30.331  27.068  28.048  1.00  0.00     0.004 C 
ENDBRANCH  24  25
ENDBRANCH  23  24
ENDBRANCH  22  23
ENDBRANCH  21  22
ENDBRANCH  20  21
ENDBRANCH  19  20
ENDBRANCH  18  19
ENDBRANCH  17  18
ENDBRANCH  16  17
ENDBRANCH  15  16
ENDBRANCH   1  15
TORSDOF 22
ENDMDL
MODEL 8
REMARK VINA RESULT:    -1.442      3.104      4.341
REMARK INTER + INTRA:          -6.164
REMARK INTER:                  -4.152
REMARK INTRA:                  -2.012
REMARK UNBOUND:                -2.868
REMARK SMILES CCCCCCCCCCCCCCCCCCCCCCCC(=O)[O-]
REMARK SMILES IDX 13 1 14 2 15 3 16 4 17 5 18 6 19 7 20 8 21 9 22 10 23 11
REMARK SMILES IDX 24 12 25 13 26 14 12 15 11 16 10 17 9 18 8 19 7 20 6 21 5 22
REMARK SMILES IDX 4 23 3 24 2 25 1 26
REMARK H PARENT
REMARK Flexibility Score: inf
ROOT
ATOM      1  C   UNL     1      27.258  35.896  32.613  1.00  0.00     0.000 C 
ENDROOT
BRANCH   1   2
ATOM      2  C   UNL     1      26.258  35.550  33.729  1.00  0.00     0.000 C 
BRANCH   2   3
ATOM      3  C   UNL     1      26.655  34.277  34.497  1.00  0.00     0.000 C 
BRANCH   3   4
ATOM      4  C   UNL     1      25.492  33.281  34.640  1.00  0.00     0.000 C 
BRANCH   4   5
ATOM      5  C   UNL     1      25.185  32.931  36.106  1.00  0.00     0.000 C 
BRANCH   5   6
ATOM      6  C   UNL     1      26.454  32.699  36.948  1.00  0.00     0.000 C 
BRANCH   6   7
ATOM      7  C   UNL     1      27.015  31.265  36.916  1.00  0.00     0.000 C 
BRANCH   7   8
ATOM      8  C   UNL     1      27.960  31.018  35.726  1.00  0.00     0.000 C 
BRANCH   8   9
ATOM      9  C   UNL     1      29.118  32.030  35.657  1.00  0.00     0.000 C 
BRANCH   9  10
ATOM     10  C   UNL     1      30.393  31.529  34.947  1.00  0.00     0.006 C 
BRANCH  10  11
ATOM     11  C   UNL     1      30.362  30.044  34.548  1.00  0.00     0.053 C 
BRANCH  11  12
ATOM     12  C   UNL     1      30.273  29.864  33.063  1.00  0.00     0.041 C 
ATOM     13  O   UNL     1      30.016  28.731  32.577  1.00  0.00    -0.550 OA
ATOM     14  O   UNL     1      30.451  30.952  32.218  1.00  0.00    -0.550 OA
ENDBRANCH  11  12
ENDBRANCH  10  11
ENDBRANCH   9  10
ENDBRANCH   8   9
ENDBRANCH   7   8
ENDBRANCH   6   7
ENDBRANCH   5   6
ENDBRANCH   4   5
ENDBRANCH   3   4
ENDBRANCH   2   3
ENDBRANCH   1   2
BRANCH   1  15
ATOM     15  C   UNL     1      28.414  34.884  32.522  1.00  0.00     0.000 C 
BRANCH  15  16
ATOM     16  C   UNL     1      28.053  33.654  31.675  1.00  0.00     0.000 C 
BRANCH  16  17
ATOM     17  C   UNL     1      27.250  34.024  30.415  1.00  0.00     0.000 C 
BRANCH  17  18
ATOM     18  C   UNL     1      25.863  33.364  30.386  1.00  0.00    -0.000 C 
BRANCH  18  19
ATOM     19  C   UNL     1      24.727  34.388  30.213  1.00  0.00    -0.000 C 
BRANCH  19  20
ATOM     20  C   UNL     1      24.898  35.246  28.940  1.00  0.00    -0.000 C 
BRANCH  20  21
ATOM     21  C   UNL     1      23.681  35.204  27.995  1.00  0.00    -0.000 C 
BRANCH  21  22
ATOM     22  C   UNL     1      23.718  36.223  26.839  1.00  0.00    -0.000 C 
BRANCH  22  23
ATOM     23  C   UNL     1      22.379  36.933  26.556  1.00  0.00    -0.000 C 
BRANCH  23  24
ATOM     24  C   UNL     1      22.477  38.460  26.374  1.00  0.00    -0.000 C 
BRANCH  24  25
ATOM     25  C   UNL     1      23.920  39.004  26.431  1.00  0.00    -0.003 C 
ATOM     26  C   UNL     1      24.012  40.474  26.023  1.00  0.00     0.004 C 
ENDBRANCH  24  25
ENDBRANCH  23  24
ENDBRANCH  22  23
ENDBRANCH  21  22
ENDBRANCH  20  21
ENDBRANCH  19  20
ENDBRANCH  18  19
ENDBRANCH  17  18
ENDBRANCH  16  17
ENDBRANCH  15  16
ENDBRANCH   1  15
TORSDOF 22
ENDMDL
MODEL 9
REMARK VINA RESULT:    -1.296      3.271      7.879
REMARK INTER + INTRA:          -5.832
REMARK INTER:                  -3.971
REMARK INTRA:                  -1.860
REMARK UNBOUND:                -2.868
REMARK SMILES CCCCCCCCCCCCCCCCCCCCCCCC(=O)[O-]
REMARK SMILES IDX 13 1 14 2 15 3 16 4 17 5 18 6 19 7 20 8 21 9 22 10 23 11
REMARK SMILES IDX 24 12 25 13 26 14 12 15 11 16 10 17 9 18 8 19 7 20 6 21 5 22
REMARK SMILES IDX 4 23 3 24 2 25 1 26
REMARK H PARENT
REMARK Flexibility Score: inf
ROOT
ATOM      1  C   UNL     1      30.130  29.437  27.876  1.00  0.00     0.000 C 
ENDROOT
BRANCH   1   2
ATOM      2  C   UNL     1      30.924  30.629  27.316  1.00  0.00     0.000 C 
BRANCH   2   3
ATOM      3  C   UNL     1      31.042  31.781  28.330  1.00  0.00     0.000 C 
BRANCH   3   4
ATOM      4  C   UNL     1      29.676  32.339  28.760  1.00  0.00     0.000 C 
BRANCH   4   5
ATOM      5  C   UNL     1      29.560  32.527  30.282  1.00  0.00     0.000 C 
BRANCH   5   6
ATOM      6  C   UNL     1      28.657  33.711  30.675  1.00  0.00     0.000 C 
BRANCH   6   7
ATOM      7  C   UNL     1      27.163  33.542  30.343  1.00  0.00     0.000 C 
BRANCH   7   8
ATOM      8  C   UNL     1      26.337  34.807  30.635  1.00  0.00     0.000 C 
BRANCH   8   9
ATOM      9  C   UNL     1      26.400  35.240  32.111  1.00  0.00     0.000 C 
BRANCH   9  10
ATOM     10  C   UNL     1      26.487  34.089  33.134  1.00  0.00     0.006 C 
BRANCH  10  11
ATOM     11  C   UNL     1      26.477  34.536  34.605  1.00  0.00     0.053 C 
BRANCH  11  12
ATOM     12  C   UNL     1      25.958  33.464  35.515  1.00  0.00     0.041 C 
ATOM     13  O   UNL     1      25.684  33.730  36.715  1.00  0.00    -0.550 OA
ATOM     14  O   UNL     1      25.756  32.178  35.030  1.00  0.00    -0.550 OA
ENDBRANCH  11  12
ENDBRANCH  10  11
ENDBRANCH   9  10
ENDBRANCH   8   9
ENDBRANCH   7   8
ENDBRANCH   6   7
ENDBRANCH   5   6
ENDBRANCH   4   5
ENDBRANCH   3   4
ENDBRANCH   2   3
ENDBRANCH   1   2
BRANCH   1  15
ATOM     15  C   UNL     1      31.002  28.492  28.721  1.00  0.00     0.000 C 
BRANCH  15  16
ATOM     16  C   UNL     1      31.105  28.942  30.187  1.00  0.00     0.000 C 
BRANCH  16  17
ATOM     17  C   UNL     1      31.119  27.755  31.166  1.00  0.00     0.000 C 
BRANCH  17  18
ATOM     18  C   UNL     1      30.555  28.124  32.547  1.00  0.00    -0.000 C 
BRANCH  18  19
ATOM     19  C   UNL     1      30.842  27.046  33.607  1.00  0.00    -0.000 C 
BRANCH  19  20
ATOM     20  C   UNL     1      30.132  27.334  34.948  1.00  0.00    -0.000 C 
BRANCH  20  21
ATOM     21  C   UNL     1      30.684  28.565  35.691  1.00  0.00    -0.000 C 
BRANCH  21  22
ATOM     22  C   UNL     1      30.059  28.826  37.075  1.00  0.00    -0.000 C 
BRANCH  22  23
ATOM     23  C   UNL     1      29.056  29.996  37.125  1.00  0.00    -0.000 C 
BRANCH  23  24
ATOM     24  C   UNL     1      28.690  30.600  35.755  1.00  0.00    -0.000 C 
BRANCH  24  25
ATOM     25  C   UNL     1      29.327  31.980  35.492  1.00  0.00    -0.003 C 
ATOM     26  C   UNL     1      29.381  32.331  34.005  1.00  0.00     0.004 C 
ENDBRANCH  24  25
ENDBRANCH  23  24
ENDBRANCH  22  23
ENDBRANCH  21  22
ENDBRANCH  20  21
ENDBRANCH  19  20
ENDBRANCH  18  19
ENDBRANCH  17  18
ENDBRANCH  16  17
ENDBRANCH  15  16
ENDBRANCH   1  15
TORSDOF 22
ENDMDL
