MODEL 1
REMARK VINA RESULT:    -5.164      0.000      0.000
REMARK INTER + INTRA:          -6.558
REMARK INTER:                  -6.372
REMARK INTRA:                  -0.186
REMARK UNBOUND:                -0.186
REMARK SMILES CCOC(=O)c1ccc(O)c(O)c1
REMARK SMILES IDX 4 1 5 2 3 3 2 4 1 5 6 6 13 7 7 8 11 9 8 10 9 11 12 12 10 14
REMARK H PARENT 12 13 10 15
REMARK Flexibility Score: inf
ROOT
ATOM      1  C   UNL     1      19.778  -1.424 -18.942  1.00  0.00     0.338 C 
ATOM      2  O   UNL     1      19.298  -2.568 -19.173  1.00  0.00    -0.246 OA
ENDROOT
BRANCH   1   3
ATOM      3  O   UNL     1      19.701  -0.878 -17.654  1.00  0.00    -0.462 OA
BRANCH   3   4
ATOM      4  C   UNL     1      18.476  -0.497 -17.032  1.00  0.00     0.230 C 
ATOM      5  C   UNL     1      18.023  -1.561 -16.038  1.00  0.00     0.049 C 
ENDBRANCH   3   4
ENDBRANCH   1   3
BRANCH   1   6
ATOM      6  C   UNL     1      20.430  -0.659 -20.028  1.00  0.00     0.064 A 
ATOM      7  C   UNL     1      20.818   0.676 -19.821  1.00  0.00     0.065 A 
ATOM      8  C   UNL     1      20.672  -1.253 -21.279  1.00  0.00     0.020 A 
ATOM      9  C   UNL     1      21.435   1.406 -20.848  1.00  0.00     0.158 A 
ATOM     10  C   UNL     1      21.287  -0.526 -22.300  1.00  0.00     0.051 A 
ATOM     11  C   UNL     1      21.670   0.804 -22.089  1.00  0.00     0.157 A 
BRANCH   9  12
ATOM     12  O   UNL     1      21.818   2.731 -20.639  1.00  0.00    -0.504 OA
ATOM     13  H   UNL     1      22.111   3.062 -19.728  1.00  0.00     0.293 HD
ENDBRANCH   9  12
BRANCH  11  14
ATOM     14  O   UNL     1      22.285   1.532 -23.107  1.00  0.00    -0.504 OA
ATOM     15  H   UNL     1      21.989   2.474 -23.337  1.00  0.00     0.293 HD
ENDBRANCH  11  14
ENDBRANCH   1   6
TORSDOF 5
ENDMDL
MODEL 2
REMARK VINA RESULT:    -5.062     15.695     18.120
REMARK INTER + INTRA:          -6.433
REMARK INTER:                  -6.098
REMARK INTRA:                  -0.334
REMARK UNBOUND:                -0.186
REMARK SMILES CCOC(=O)c1ccc(O)c(O)c1
REMARK SMILES IDX 4 1 5 2 3 3 2 4 1 5 6 6 13 7 7 8 11 9 8 10 9 11 12 12 10 14
REMARK H PARENT 12 13 10 15
REMARK Flexibility Score: inf
ROOT
ATOM      1  C   UNL     1       9.703  -7.557  -9.352  1.00  0.00     0.338 C 
ATOM      2  O   UNL     1      10.477  -8.545  -9.225  1.00  0.00    -0.246 OA
ENDROOT
BRANCH   1   3
ATOM      3  O   UNL     1       9.301  -7.140 -10.628  1.00  0.00    -0.462 OA
BRANCH   3   4
ATOM      4  C   UNL     1       9.502  -5.818 -11.123  1.00  0.00     0.230 C 
ATOM      5  C   UNL     1       8.169  -5.103 -11.306  1.00  0.00     0.049 C 
ENDBRANCH   3   4
ENDBRANCH   1   3
BRANCH   1   6
ATOM      6  C   UNL     1       9.208  -6.842  -8.154  1.00  0.00     0.064 A 
ATOM      7  C   UNL     1      10.091  -6.090  -7.361  1.00  0.00     0.065 A 
ATOM      8  C   UNL     1       7.850  -6.904  -7.792  1.00  0.00     0.020 A 
ATOM      9  C   UNL     1       9.628  -5.413  -6.223  1.00  0.00     0.158 A 
ATOM     10  C   UNL     1       7.389  -6.229  -6.660  1.00  0.00     0.051 A 
ATOM     11  C   UNL     1       8.274  -5.482  -5.873  1.00  0.00     0.157 A 
BRANCH   9  12
ATOM     12  O   UNL     1      10.508  -4.669  -5.439  1.00  0.00    -0.504 OA
ATOM     13  H   UNL     1      10.654  -3.679  -5.597  1.00  0.00     0.293 HD
ENDBRANCH   9  12
BRANCH  11  14
ATOM     14  O   UNL     1       7.817  -4.806  -4.742  1.00  0.00    -0.504 OA
ATOM     15  H   UNL     1       8.459  -4.448  -4.044  1.00  0.00     0.293 HD
ENDBRANCH  11  14
ENDBRANCH   1   6
TORSDOF 5
ENDMDL
MODEL 3
REMARK VINA RESULT:    -4.977     14.400     17.794
REMARK INTER + INTRA:          -6.327
REMARK INTER:                  -6.050
REMARK INTRA:                  -0.276
REMARK UNBOUND:                -0.186
REMARK SMILES CCOC(=O)c1ccc(O)c(O)c1
REMARK SMILES IDX 4 1 5 2 3 3 2 4 1 5 6 6 13 7 7 8 11 9 8 10 9 11 12 12 10 14
REMARK H PARENT 12 13 10 15
REMARK Flexibility Score: inf
ROOT
ATOM      1  C   UNL     1      10.387  -7.761  -9.311  1.00  0.00     0.338 C 
ATOM      2  O   UNL     1      10.710  -8.975  -9.199  1.00  0.00    -0.246 OA
ENDROOT
BRANCH   1   3
ATOM      3  O   UNL     1      10.707  -7.054 -10.477  1.00  0.00    -0.462 OA
BRANCH   3   4
ATOM      4  C   UNL     1      12.041  -6.879 -10.950  1.00  0.00     0.230 C 
ATOM      5  C   UNL     1      12.725  -5.729 -10.219  1.00  0.00     0.049 C 
ENDBRANCH   3   4
ENDBRANCH   1   3
BRANCH   1   6
ATOM      6  C   UNL     1       9.660  -7.082  -8.215  1.00  0.00     0.064 A 
ATOM      7  C   UNL     1      10.331  -6.184  -7.368  1.00  0.00     0.065 A 
ATOM      8  C   UNL     1       8.290  -7.324  -8.006  1.00  0.00     0.020 A 
ATOM      9  C   UNL     1       9.646  -5.539  -6.326  1.00  0.00     0.158 A 
ATOM     10  C   UNL     1       7.609  -6.681  -6.969  1.00  0.00     0.051 A 
ATOM     11  C   UNL     1       8.283  -5.788  -6.127  1.00  0.00     0.157 A 
BRANCH   9  12
ATOM     12  O   UNL     1      10.316  -4.650  -5.487  1.00  0.00    -0.504 OA
ATOM     13  H   UNL     1      11.321  -4.530  -5.533  1.00  0.00     0.293 HD
ENDBRANCH   9  12
BRANCH  11  14
ATOM     14  O   UNL     1       7.607  -5.145  -5.092  1.00  0.00    -0.504 OA
ATOM     15  H   UNL     1       6.923  -4.420  -5.276  1.00  0.00     0.293 HD
ENDBRANCH  11  14
ENDBRANCH   1   6
TORSDOF 5
ENDMDL
MODEL 4
REMARK VINA RESULT:    -4.678     15.926     17.595
REMARK INTER + INTRA:          -5.958
REMARK INTER:                  -5.727
REMARK INTRA:                  -0.232
REMARK UNBOUND:                -0.186
REMARK SMILES CCOC(=O)c1ccc(O)c(O)c1
REMARK SMILES IDX 4 1 5 2 3 3 2 4 1 5 6 6 13 7 7 8 11 9 8 10 9 11 12 12 10 14
REMARK H PARENT 12 13 10 15
REMARK Flexibility Score: inf
ROOT
ATOM      1  C   UNL     1       8.242  -7.645 -10.554  1.00  0.00     0.338 C 
ATOM      2  O   UNL     1       7.426  -8.600 -10.432  1.00  0.00    -0.246 OA
ENDROOT
BRANCH   1   3
ATOM      3  O   UNL     1       8.630  -7.212 -11.829  1.00  0.00    -0.462 OA
BRANCH   3   4
ATOM      4  C   UNL     1       7.877  -6.286 -12.609  1.00  0.00     0.230 C 
ATOM      5  C   UNL     1       7.936  -4.892 -11.995  1.00  0.00     0.049 C 
ENDBRANCH   3   4
ENDBRANCH   1   3
BRANCH   1   6
ATOM      6  C   UNL     1       8.785  -6.974  -9.352  1.00  0.00     0.064 A 
ATOM      7  C   UNL     1       7.922  -6.336  -8.444  1.00  0.00     0.065 A 
ATOM      8  C   UNL     1      10.168  -6.963  -9.100  1.00  0.00     0.020 A 
ATOM      9  C   UNL     1       8.431  -5.697  -7.304  1.00  0.00     0.158 A 
ATOM     10  C   UNL     1      10.675  -6.327  -7.964  1.00  0.00     0.051 A 
ATOM     11  C   UNL     1       9.810  -5.693  -7.064  1.00  0.00     0.157 A 
BRANCH   9  12
ATOM     12  O   UNL     1       7.571  -5.065  -6.407  1.00  0.00    -0.504 OA
ATOM     13  H   UNL     1       6.879  -4.394  -6.717  1.00  0.00     0.293 HD
ENDBRANCH   9  12
BRANCH  11  14
ATOM     14  O   UNL     1      10.313  -5.057  -5.929  1.00  0.00    -0.504 OA
ATOM     15  H   UNL     1      10.702  -4.123  -5.974  1.00  0.00     0.293 HD
ENDBRANCH  11  14
ENDBRANCH   1   6
TORSDOF 5
ENDMDL
MODEL 5
REMARK VINA RESULT:    -4.591      1.713      5.153
REMARK INTER + INTRA:          -5.851
REMARK INTER:                  -5.733
REMARK INTRA:                  -0.118
REMARK UNBOUND:                -0.186
REMARK SMILES CCOC(=O)c1ccc(O)c(O)c1
REMARK SMILES IDX 4 1 5 2 3 3 2 4 1 5 6 6 13 7 7 8 11 9 8 10 9 11 12 12 10 14
REMARK H PARENT 12 13 10 15
REMARK Flexibility Score: inf
ROOT
ATOM      1  C   UNL     1      20.802  -0.555 -20.941  1.00  0.00     0.338 C 
ATOM      2  O   UNL     1      20.658  -1.239 -21.991  1.00  0.00    -0.246 OA
ENDROOT
BRANCH   1   3
ATOM      3  O   UNL     1      21.638   0.569 -20.945  1.00  0.00    -0.462 OA
BRANCH   3   4
ATOM      4  C   UNL     1      21.443   1.693 -21.800  1.00  0.00     0.230 C 
ATOM      5  C   UNL     1      22.171   1.495 -23.124  1.00  0.00     0.049 C 
ENDBRANCH   3   4
ENDBRANCH   1   3
BRANCH   1   6
ATOM      6  C   UNL     1      20.080  -0.931 -19.704  1.00  0.00     0.064 A 
ATOM      7  C   UNL     1      19.815   0.033 -18.716  1.00  0.00     0.065 A 
ATOM      8  C   UNL     1      19.651  -2.254 -19.499  1.00  0.00     0.020 A 
ATOM      9  C   UNL     1      19.134  -0.319 -17.542  1.00  0.00     0.158 A 
ATOM     10  C   UNL     1      18.972  -2.604 -18.330  1.00  0.00     0.051 A 
ATOM     11  C   UNL     1      18.711  -1.639 -17.349  1.00  0.00     0.157 A 
BRANCH   9  12
ATOM     12  O   UNL     1      18.873   0.640 -16.564  1.00  0.00    -0.504 OA
ATOM     13  H   UNL     1      19.616   1.050 -16.010  1.00  0.00     0.293 HD
ENDBRANCH   9  12
BRANCH  11  14
ATOM     14  O   UNL     1      18.033  -1.985 -16.180  1.00  0.00    -0.504 OA
ATOM     15  H   UNL     1      17.152  -1.551 -15.931  1.00  0.00     0.293 HD
ENDBRANCH  11  14
ENDBRANCH   1   6
TORSDOF 5
ENDMDL
MODEL 6
REMARK VINA RESULT:    -4.550      1.290      2.106
REMARK INTER + INTRA:          -5.801
REMARK INTER:                  -5.651
REMARK INTRA:                  -0.150
REMARK UNBOUND:                -0.186
REMARK SMILES CCOC(=O)c1ccc(O)c(O)c1
REMARK SMILES IDX 4 1 5 2 3 3 2 4 1 5 6 6 13 7 7 8 11 9 8 10 9 11 12 12 10 14
REMARK H PARENT 12 13 10 15
REMARK Flexibility Score: inf
ROOT
ATOM      1  C   UNL     1      19.012  -1.387 -18.416  1.00  0.00     0.338 C 
ATOM      2  O   UNL     1      18.984  -2.644 -18.312  1.00  0.00    -0.246 OA
ENDROOT
BRANCH   1   3
ATOM      3  O   UNL     1      18.258  -0.593 -17.542  1.00  0.00    -0.462 OA
BRANCH   3   4
ATOM      4  C   UNL     1      18.260  -0.761 -16.126  1.00  0.00     0.230 C 
ATOM      5  C   UNL     1      16.870  -0.510 -15.553  1.00  0.00     0.049 C 
ENDBRANCH   3   4
ENDBRANCH   1   3
BRANCH   1   6
ATOM      6  C   UNL     1      19.847  -0.747 -19.456  1.00  0.00     0.064 A 
ATOM      7  C   UNL     1      19.943  -1.314 -20.739  1.00  0.00     0.065 A 
ATOM      8  C   UNL     1      20.557   0.436 -19.179  1.00  0.00     0.020 A 
ATOM      9  C   UNL     1      20.735  -0.712 -21.728  1.00  0.00     0.158 A 
ATOM     10  C   UNL     1      21.345   1.035 -20.164  1.00  0.00     0.051 A 
ATOM     11  C   UNL     1      21.437   0.465 -21.440  1.00  0.00     0.157 A 
BRANCH   9  12
ATOM     12  O   UNL     1      20.828  -1.278 -22.998  1.00  0.00    -0.504 OA
ATOM     13  H   UNL     1      20.181  -1.993 -23.310  1.00  0.00     0.293 HD
ENDBRANCH   9  12
BRANCH  11  14
ATOM     14  O   UNL     1      22.222   1.061 -22.425  1.00  0.00    -0.504 OA
ATOM     15  H   UNL     1      23.127   1.462 -22.210  1.00  0.00     0.293 HD
ENDBRANCH  11  14
ENDBRANCH   1   6
TORSDOF 5
ENDMDL
MODEL 7
REMARK VINA RESULT:    -4.527     14.961     17.438
REMARK INTER + INTRA:          -5.772
REMARK INTER:                  -5.482
REMARK INTRA:                  -0.290
REMARK UNBOUND:                -0.186
REMARK SMILES CCOC(=O)c1ccc(O)c(O)c1
REMARK SMILES IDX 4 1 5 2 3 3 2 4 1 5 6 6 13 7 7 8 11 9 8 10 9 11 12 12 10 14
REMARK H PARENT 12 13 10 15
REMARK Flexibility Score: inf
ROOT
ATOM      1  C   UNL     1       9.864  -6.017 -11.013  1.00  0.00     0.338 C 
ATOM      2  O   UNL     1      11.108  -5.910 -11.191  1.00  0.00    -0.246 OA
ENDROOT
BRANCH   1   3
ATOM      3  O   UNL     1       9.025  -6.334 -12.089  1.00  0.00    -0.462 OA
BRANCH   3   4
ATOM      4  C   UNL     1       8.835  -7.661 -12.575  1.00  0.00     0.230 C 
ATOM      5  C   UNL     1       7.583  -8.282 -11.966  1.00  0.00     0.049 C 
ENDBRANCH   3   4
ENDBRANCH   1   3
BRANCH   1   6
ATOM      6  C   UNL     1       9.287  -5.817  -9.664  1.00  0.00     0.064 A 
ATOM      7  C   UNL     1       7.980  -5.321  -9.517  1.00  0.00     0.065 A 
ATOM      8  C   UNL     1      10.036  -6.118  -8.512  1.00  0.00     0.020 A 
ATOM      9  C   UNL     1       7.430  -5.127  -8.242  1.00  0.00     0.158 A 
ATOM     10  C   UNL     1       9.487  -5.926  -7.242  1.00  0.00     0.051 A 
ATOM     11  C   UNL     1       8.185  -5.431  -7.102  1.00  0.00     0.157 A 
BRANCH   9  12
ATOM     12  O   UNL     1       6.134  -4.635  -8.101  1.00  0.00    -0.504 OA
ATOM     13  H   UNL     1       5.649  -4.661  -7.211  1.00  0.00     0.293 HD
ENDBRANCH   9  12
BRANCH  11  14
ATOM     14  O   UNL     1       7.634  -5.238  -5.836  1.00  0.00    -0.504 OA
ATOM     15  H   UNL     1       8.159  -5.440  -4.994  1.00  0.00     0.293 HD
ENDBRANCH  11  14
ENDBRANCH   1   6
TORSDOF 5
ENDMDL
MODEL 8
REMARK VINA RESULT:    -4.506     18.239     20.285
REMARK INTER + INTRA:          -5.746
REMARK INTER:                  -5.453
REMARK INTRA:                  -0.293
REMARK UNBOUND:                -0.186
REMARK SMILES CCOC(=O)c1ccc(O)c(O)c1
REMARK SMILES IDX 4 1 5 2 3 3 2 4 1 5 6 6 13 7 7 8 11 9 8 10 9 11 12 12 10 14
REMARK H PARENT 12 13 10 15
REMARK Flexibility Score: inf
ROOT
ATOM      1  C   UNL     1       4.373   6.751 -10.135  1.00  0.00     0.338 C 
ATOM      2  O   UNL     1       4.431   6.627 -11.390  1.00  0.00    -0.246 OA
ENDROOT
BRANCH   1   3
ATOM      3  O   UNL     1       3.875   7.932  -9.570  1.00  0.00    -0.462 OA
BRANCH   3   4
ATOM      4  C   UNL     1       4.685   8.867  -8.859  1.00  0.00     0.230 C 
ATOM      5  C   UNL     1       4.093   9.156  -7.485  1.00  0.00     0.049 C 
ENDBRANCH   3   4
ENDBRANCH   1   3
BRANCH   1   6
ATOM      6  C   UNL     1       4.822   5.647  -9.258  1.00  0.00     0.064 A 
ATOM      7  C   UNL     1       6.029   4.977  -9.521  1.00  0.00     0.065 A 
ATOM      8  C   UNL     1       4.049   5.251  -8.151  1.00  0.00     0.020 A 
ATOM      9  C   UNL     1       6.457   3.928  -8.694  1.00  0.00     0.158 A 
ATOM     10  C   UNL     1       4.477   4.208  -7.327  1.00  0.00     0.051 A 
ATOM     11  C   UNL     1       5.680   3.544  -7.595  1.00  0.00     0.157 A 
BRANCH   9  12
ATOM     12  O   UNL     1       7.655   3.266  -8.959  1.00  0.00    -0.504 OA
ATOM     13  H   UNL     1       8.546   3.634  -8.648  1.00  0.00     0.293 HD
ENDBRANCH   9  12
BRANCH  11  14
ATOM     14  O   UNL     1       6.110   2.502  -6.774  1.00  0.00    -0.504 OA
ATOM     15  H   UNL     1       6.607   1.702  -7.150  1.00  0.00     0.293 HD
ENDBRANCH  11  14
ENDBRANCH   1   6
TORSDOF 5
ENDMDL
