MODEL 1
REMARK VINA RESULT:    -3.344      0.000      0.000
REMARK INTER + INTRA:          -3.869
REMARK INTER:                  -3.832
REMARK INTRA:                  -0.036
REMARK UNBOUND:                -0.036
REMARK SMILES CC(C)[C@@H]([NH3+])C(=O)[O-]
REMARK SMILES IDX 4 1 5 2 6 6 7 7 8 8 2 9 1 10 3 11
REMARK H PARENT 5 3 5 4 5 5
REMARK Flexibility Score: inf
ROOT
ATOM      1  C   UNL     1      16.342  46.199  26.755  1.00  0.00     0.230 C 
ENDROOT
BRANCH   1   2
ATOM      2  N   UNL     1      14.872  46.260  26.748  1.00  0.00    -0.350 N 
ATOM      3  H   UNL     1      14.487  45.702  27.544  1.00  0.00     0.345 HD
ATOM      4  H   UNL     1      14.511  45.847  25.858  1.00  0.00     0.345 HD
ATOM      5  H   UNL     1      14.529  47.244  26.821  1.00  0.00     0.345 HD
ENDBRANCH   1   2
BRANCH   1   6
ATOM      6  C   UNL     1      16.832  45.136  27.709  1.00  0.00     0.099 C 
ATOM      7  O   UNL     1      18.003  45.175  28.173  1.00  0.00    -0.544 OA
ATOM      8  O   UNL     1      15.976  44.115  28.105  1.00  0.00    -0.544 OA
ENDBRANCH   1   6
BRANCH   1   9
ATOM      9  C   UNL     1      16.920  46.031  25.317  1.00  0.00     0.047 C 
ATOM     10  C   UNL     1      17.083  44.565  24.884  1.00  0.00     0.014 C 
ATOM     11  C   UNL     1      18.255  46.778  25.162  1.00  0.00     0.014 C 
ENDBRANCH   1   9
TORSDOF 3
ENDMDL
MODEL 2
REMARK VINA RESULT:    -3.269      2.242      2.994
REMARK INTER + INTRA:          -3.783
REMARK INTER:                  -3.728
REMARK INTRA:                  -0.055
REMARK UNBOUND:                -0.036
REMARK SMILES CC(C)[C@@H]([NH3+])C(=O)[O-]
REMARK SMILES IDX 4 1 5 2 6 6 7 7 8 8 2 9 1 10 3 11
REMARK H PARENT 5 3 5 4 5 5
REMARK Flexibility Score: inf
ROOT
ATOM      1  C   UNL     1      16.949  46.254  26.367  1.00  0.00     0.230 C 
ENDROOT
BRANCH   1   2
ATOM      2  N   UNL     1      16.866  46.623  27.788  1.00  0.00    -0.350 N 
ATOM      3  H   UNL     1      16.501  45.818  28.346  1.00  0.00     0.345 HD
ATOM      4  H   UNL     1      16.203  47.424  27.902  1.00  0.00     0.345 HD
ATOM      5  H   UNL     1      17.799  46.907  28.165  1.00  0.00     0.345 HD
ENDBRANCH   1   2
BRANCH   1   6
ATOM      6  C   UNL     1      18.349  46.455  25.839  1.00  0.00     0.099 C 
ATOM      7  O   UNL     1      18.960  45.520  25.256  1.00  0.00    -0.544 OA
ATOM      8  O   UNL     1      18.966  47.694  25.971  1.00  0.00    -0.544 OA
ENDBRANCH   1   6
BRANCH   1   9
ATOM      9  C   UNL     1      16.411  44.813  26.111  1.00  0.00     0.047 C 
ATOM     10  C   UNL     1      15.502  44.703  24.875  1.00  0.00     0.014 C 
ATOM     11  C   UNL     1      15.686  44.260  27.348  1.00  0.00     0.014 C 
ENDBRANCH   1   9
TORSDOF 3
ENDMDL
MODEL 3
REMARK VINA RESULT:    -3.256      1.959      2.365
REMARK INTER + INTRA:          -3.769
REMARK INTER:                  -3.735
REMARK INTRA:                  -0.034
REMARK UNBOUND:                -0.036
REMARK SMILES CC(C)[C@@H]([NH3+])C(=O)[O-]
REMARK SMILES IDX 4 1 5 2 6 6 7 7 8 8 2 9 1 10 3 11
REMARK H PARENT 5 3 5 4 5 5
REMARK Flexibility Score: inf
ROOT
ATOM      1  C   UNL     1      17.207  45.099  25.231  1.00  0.00     0.230 C 
ENDROOT
BRANCH   1   2
ATOM      2  N   UNL     1      17.499  43.702  24.875  1.00  0.00    -0.350 N 
ATOM      3  H   UNL     1      18.530  43.567  24.772  1.00  0.00     0.345 HD
ATOM      4  H   UNL     1      17.049  43.474  23.959  1.00  0.00     0.345 HD
ATOM      5  H   UNL     1      17.136  43.039  25.597  1.00  0.00     0.345 HD
ENDBRANCH   1   2
BRANCH   1   6
ATOM      6  C   UNL     1      16.362  45.171  26.480  1.00  0.00     0.099 C 
ATOM      7  O   UNL     1      15.672  46.194  26.735  1.00  0.00    -0.544 OA
ATOM      8  O   UNL     1      16.319  44.087  27.349  1.00  0.00    -0.544 OA
ENDBRANCH   1   6
BRANCH   1   9
ATOM      9  C   UNL     1      18.507  45.953  25.334  1.00  0.00     0.047 C 
ATOM     10  C   UNL     1      19.153  45.931  26.729  1.00  0.00     0.014 C 
ATOM     11  C   UNL     1      18.259  47.404  24.891  1.00  0.00     0.014 C 
ENDBRANCH   1   9
TORSDOF 3
ENDMDL
MODEL 4
REMARK VINA RESULT:    -3.173      1.808      2.687
REMARK INTER + INTRA:          -3.674
REMARK INTER:                  -3.679
REMARK INTRA:                   0.006
REMARK UNBOUND:                -0.036
REMARK SMILES CC(C)[C@@H]([NH3+])C(=O)[O-]
REMARK SMILES IDX 4 1 5 2 6 6 7 7 8 8 2 9 1 10 3 11
REMARK H PARENT 5 3 5 4 5 5
REMARK Flexibility Score: inf
ROOT
ATOM      1  C   UNL     1      15.869  45.539  25.907  1.00  0.00     0.230 C 
ENDROOT
BRANCH   1   2
ATOM      2  N   UNL     1      14.898  46.253  26.750  1.00  0.00    -0.350 N 
ATOM      3  H   UNL     1      15.268  46.344  27.724  1.00  0.00     0.345 HD
ATOM      4  H   UNL     1      14.006  45.709  26.791  1.00  0.00     0.345 HD
ATOM      5  H   UNL     1      14.690  47.205  26.372  1.00  0.00     0.345 HD
ENDBRANCH   1   2
BRANCH   1   6
ATOM      6  C   UNL     1      17.241  46.159  26.024  1.00  0.00     0.099 C 
ATOM      7  O   UNL     1      17.761  46.370  27.153  1.00  0.00    -0.544 OA
ATOM      8  O   UNL     1      17.957  46.476  24.875  1.00  0.00    -0.544 OA
ENDBRANCH   1   6
BRANCH   1   9
ATOM      9  C   UNL     1      15.873  44.008  26.200  1.00  0.00     0.047 C 
ATOM     10  C   UNL     1      15.699  43.663  27.689  1.00  0.00     0.014 C 
ATOM     11  C   UNL     1      17.141  43.337  25.648  1.00  0.00     0.014 C 
ENDBRANCH   1   9
TORSDOF 3
ENDMDL
MODEL 5
REMARK VINA RESULT:    -3.157     21.172     22.121
REMARK INTER + INTRA:          -3.655
REMARK INTER:                  -3.601
REMARK INTRA:                  -0.053
REMARK UNBOUND:                -0.036
REMARK SMILES CC(C)[C@@H]([NH3+])C(=O)[O-]
REMARK SMILES IDX 4 1 5 2 6 6 7 7 8 8 2 9 1 10 3 11
REMARK H PARENT 5 3 5 4 5 5
REMARK Flexibility Score: inf
ROOT
ATOM      1  C   UNL     1      23.783  30.251  40.596  1.00  0.00     0.230 C 
ENDROOT
BRANCH   1   2
ATOM      2  N   UNL     1      24.525  30.642  39.387  1.00  0.00    -0.350 N 
ATOM      3  H   UNL     1      25.518  30.327  39.460  1.00  0.00     0.345 HD
ATOM      4  H   UNL     1      24.520  31.684  39.299  1.00  0.00     0.345 HD
ATOM      5  H   UNL     1      24.097  30.233  38.526  1.00  0.00     0.345 HD
ENDBRANCH   1   2
BRANCH   1   6
ATOM      6  C   UNL     1      24.724  29.763  41.671  1.00  0.00     0.099 C 
ATOM      7  O   UNL     1      25.770  30.406  41.955  1.00  0.00    -0.544 OA
ATOM      8  O   UNL     1      24.424  28.605  42.379  1.00  0.00    -0.544 OA
ENDBRANCH   1   6
BRANCH   1   9
ATOM      9  C   UNL     1      22.842  31.391  41.092  1.00  0.00     0.047 C 
ATOM     10  C   UNL     1      21.608  30.885  41.856  1.00  0.00     0.014 C 
ATOM     11  C   UNL     1      22.408  32.300  39.931  1.00  0.00     0.014 C 
ENDBRANCH   1   9
TORSDOF 3
ENDMDL
MODEL 6
REMARK VINA RESULT:    -3.132      2.062      2.428
REMARK INTER + INTRA:          -3.626
REMARK INTER:                  -3.550
REMARK INTRA:                  -0.076
REMARK UNBOUND:                -0.036
REMARK SMILES CC(C)[C@@H]([NH3+])C(=O)[O-]
REMARK SMILES IDX 4 1 5 2 6 6 7 7 8 8 2 9 1 10 3 11
REMARK H PARENT 5 3 5 4 5 5
REMARK Flexibility Score: inf
ROOT
ATOM      1  C   UNL     1      17.144  45.296  27.346  1.00  0.00     0.230 C 
ENDROOT
BRANCH   1   2
ATOM      2  N   UNL     1      17.286  46.709  27.729  1.00  0.00    -0.350 N 
ATOM      3  H   UNL     1      18.284  46.920  27.955  1.00  0.00     0.345 HD
ATOM      4  H   UNL     1      16.712  46.898  28.583  1.00  0.00     0.345 HD
ATOM      5  H   UNL     1      16.965  47.347  26.966  1.00  0.00     0.345 HD
ENDBRANCH   1   2
BRANCH   1   6
ATOM      6  C   UNL     1      15.838  45.062  26.626  1.00  0.00     0.099 C 
ATOM      7  O   UNL     1      15.042  46.014  26.406  1.00  0.00    -0.544 OA
ATOM      8  O   UNL     1      15.518  43.788  26.172  1.00  0.00    -0.544 OA
ENDBRANCH   1   6
BRANCH   1   9
ATOM      9  C   UNL     1      18.377  44.789  26.537  1.00  0.00     0.047 C 
ATOM     10  C   UNL     1      19.686  44.787  27.343  1.00  0.00     0.014 C 
ATOM     11  C   UNL     1      18.559  45.589  25.238  1.00  0.00     0.014 C 
ENDBRANCH   1   9
TORSDOF 3
ENDMDL
MODEL 7
REMARK VINA RESULT:    -0.807      2.427      3.009
REMARK INTER + INTRA:          -0.961
REMARK INTER:                  -0.918
REMARK INTRA:                  -0.043
REMARK UNBOUND:                -0.036
REMARK SMILES CC(C)[C@@H]([NH3+])C(=O)[O-]
REMARK SMILES IDX 4 1 5 2 6 6 7 7 8 8 2 9 1 10 3 11
REMARK H PARENT 5 3 5 4 5 5
REMARK Flexibility Score: inf
ROOT
ATOM      1  C   UNL     1      17.714  45.067  26.259  1.00  0.00     0.230 C 
ENDROOT
BRANCH   1   2
ATOM      2  N   UNL     1      17.876  44.596  24.875  1.00  0.00    -0.350 N 
ATOM      3  H   UNL     1      17.934  43.553  24.857  1.00  0.00     0.345 HD
ATOM      4  H   UNL     1      18.765  44.978  24.479  1.00  0.00     0.345 HD
ATOM      5  H   UNL     1      17.082  44.906  24.270  1.00  0.00     0.345 HD
ENDBRANCH   1   2
BRANCH   1   6
ATOM      6  C   UNL     1      18.552  46.298  26.509  1.00  0.00     0.099 C 
ATOM      7  O   UNL     1      19.536  46.261  27.296  1.00  0.00    -0.544 OA
ATOM      8  O   UNL     1      18.255  47.483  25.845  1.00  0.00    -0.544 OA
ENDBRANCH   1   6
BRANCH   1   9
ATOM      9  C   UNL     1      16.214  45.275  26.627  1.00  0.00     0.047 C 
ATOM     10  C   UNL     1      15.628  44.148  27.494  1.00  0.00     0.014 C 
ATOM     11  C   UNL     1      15.353  45.476  25.371  1.00  0.00     0.014 C 
ENDBRANCH   1   9
TORSDOF 3
ENDMDL
MODEL 8
REMARK VINA RESULT:    -0.522      1.906      2.184
REMARK INTER + INTRA:          -0.635
REMARK INTER:                  -0.618
REMARK INTRA:                  -0.017
REMARK UNBOUND:                -0.036
REMARK SMILES CC(C)[C@@H]([NH3+])C(=O)[O-]
REMARK SMILES IDX 4 1 5 2 6 6 7 7 8 8 2 9 1 10 3 11
REMARK H PARENT 5 3 5 4 5 5
REMARK Flexibility Score: inf
ROOT
ATOM      1  C   UNL     1      15.629  44.486  27.337  1.00  0.00     0.230 C 
ENDROOT
BRANCH   1   2
ATOM      2  N   UNL     1      14.841  43.624  28.231  1.00  0.00    -0.350 N 
ATOM      3  H   UNL     1      15.127  42.626  28.110  1.00  0.00     0.345 HD
ATOM      4  H   UNL     1      13.827  43.704  27.987  1.00  0.00     0.345 HD
ATOM      5  H   UNL     1      14.964  43.897  29.233  1.00  0.00     0.345 HD
ENDBRANCH   1   2
BRANCH   1   6
ATOM      6  C   UNL     1      16.749  45.162  28.091  1.00  0.00     0.099 C 
ATOM      7  O   UNL     1      17.229  46.256  27.690  1.00  0.00    -0.544 OA
ATOM      8  O   UNL     1      17.242  44.589  29.258  1.00  0.00    -0.544 OA
ENDBRANCH   1   6
BRANCH   1   9
ATOM      9  C   UNL     1      16.130  43.711  26.081  1.00  0.00     0.047 C 
ATOM     10  C   UNL     1      17.430  42.924  26.318  1.00  0.00     0.014 C 
ATOM     11  C   UNL     1      16.295  44.649  24.875  1.00  0.00     0.014 C 
ENDBRANCH   1   9
TORSDOF 3
ENDMDL
