MODEL 1
REMARK VINA RESULT:    -4.279      0.000      0.000
REMARK INTER + INTRA:          -7.178
REMARK INTER:                  -5.780
REMARK INTRA:                  -1.398
REMARK UNBOUND:                -1.398
REMARK SMILES CC(=O)CCC=C(C)CCC=C(C)C
REMARK SMILES IDX 7 1 6 2 8 3 9 4 10 5 11 6 13 7 12 8 14 9 5 10 4 11 2 12 3 13
REMARK SMILES IDX 1 14
REMARK H PARENT
REMARK Flexibility Score: inf
ROOT
ATOM      1  C   UNL     1       3.147   5.793  28.530  1.00  0.00    -0.077 C 
ATOM      2  C   UNL     1       1.845   5.639  28.854  1.00  0.00    -0.028 C 
ATOM      3  C   UNL     1       3.879   7.086  28.807  1.00  0.00     0.039 C 
ENDROOT
BRANCH   1   4
ATOM      4  C   UNL     1       3.890   4.647  27.874  1.00  0.00     0.034 C 
BRANCH   4   5
ATOM      5  C   UNL     1       3.760   3.346  28.678  1.00  0.00     0.032 C 
BRANCH   5   6
ATOM      6  C   UNL     1       4.525   3.414  29.980  1.00  0.00    -0.028 C 
ATOM      7  C   UNL     1       4.867   3.361  32.411  1.00  0.00     0.039 C 
ATOM      8  C   UNL     1       3.963   3.327  31.206  1.00  0.00    -0.080 C 
ATOM      9  C   UNL     1       2.469   3.216  31.397  1.00  0.00     0.039 C 
ENDBRANCH   5   6
ENDBRANCH   4   5
ENDBRANCH   1   4
BRANCH   2  10
ATOM     10  C   UNL     1       1.027   6.722  29.516  1.00  0.00     0.035 C 
BRANCH  10  11
ATOM     11  C   UNL     1       0.413   6.226  30.832  1.00  0.00     0.079 C 
BRANCH  11  12
ATOM     12  C   UNL     1       1.100   6.709  32.094  1.00  0.00     0.130 C 
ATOM     13  O   UNL     1       0.394   7.064  33.025  1.00  0.00    -0.300 OA
ATOM     14  C   UNL     1       2.594   6.782  32.282  1.00  0.00     0.087 C 
ENDBRANCH  11  12
ENDBRANCH  10  11
ENDBRANCH   2  10
TORSDOF 6
ENDMDL
MODEL 2
REMARK VINA RESULT:    -4.266     18.183     19.256
REMARK INTER + INTRA:          -7.160
REMARK INTER:                  -6.444
REMARK INTRA:                  -0.716
REMARK UNBOUND:                -1.398
REMARK SMILES CC(=O)CCC=C(C)CCC=C(C)C
REMARK SMILES IDX 7 1 6 2 8 3 9 4 10 5 11 6 13 7 12 8 14 9 5 10 4 11 2 12 3 13
REMARK SMILES IDX 1 14
REMARK H PARENT
REMARK Flexibility Score: inf
ROOT
ATOM      1  C   UNL     1      -9.517  -5.078  18.110  1.00  0.00    -0.077 C 
ATOM      2  C   UNL     1      -8.917  -3.994  18.648  1.00  0.00    -0.028 C 
ATOM      3  C   UNL     1     -10.827  -5.601  18.652  1.00  0.00     0.039 C 
ENDROOT
BRANCH   1   4
ATOM      4  C   UNL     1      -8.864  -5.786  16.941  1.00  0.00     0.034 C 
BRANCH   4   5
ATOM      5  C   UNL     1      -8.498  -7.237  17.283  1.00  0.00     0.032 C 
BRANCH   5   6
ATOM      6  C   UNL     1      -7.363  -7.309  18.279  1.00  0.00    -0.028 C 
ATOM      7  C   UNL     1      -5.681  -8.364  19.725  1.00  0.00     0.039 C 
ATOM      8  C   UNL     1      -6.848  -8.455  18.775  1.00  0.00    -0.080 C 
ATOM      9  C   UNL     1      -7.417  -9.809  18.421  1.00  0.00     0.039 C 
ENDBRANCH   5   6
ENDBRANCH   4   5
ENDBRANCH   1   4
BRANCH   2  10
ATOM     10  C   UNL     1      -9.497  -3.221  19.808  1.00  0.00     0.035 C 
BRANCH  10  11
ATOM     11  C   UNL     1      -8.656  -3.413  21.077  1.00  0.00     0.079 C 
BRANCH  11  12
ATOM     12  C   UNL     1      -9.441  -3.711  22.340  1.00  0.00     0.130 C 
ATOM     13  O   UNL     1      -9.227  -3.012  23.318  1.00  0.00    -0.300 OA
ATOM     14  C   UNL     1     -10.468  -4.806  22.472  1.00  0.00     0.087 C 
ENDBRANCH  11  12
ENDBRANCH  10  11
ENDBRANCH   2  10
TORSDOF 6
ENDMDL
MODEL 3
REMARK VINA RESULT:    -4.260     19.149     20.551
REMARK INTER + INTRA:          -7.152
REMARK INTER:                  -6.170
REMARK INTRA:                  -0.982
REMARK UNBOUND:                -1.398
REMARK SMILES CC(=O)CCC=C(C)CCC=C(C)C
REMARK SMILES IDX 7 1 6 2 8 3 9 4 10 5 11 6 13 7 12 8 14 9 5 10 4 11 2 12 3 13
REMARK SMILES IDX 1 14
REMARK H PARENT
REMARK Flexibility Score: inf
ROOT
ATOM      1  C   UNL     1     -10.390  -4.985  17.699  1.00  0.00    -0.077 C 
ATOM      2  C   UNL     1      -9.255  -5.525  17.202  1.00  0.00    -0.028 C 
ATOM      3  C   UNL     1     -11.566  -5.850  18.089  1.00  0.00     0.039 C 
ENDROOT
BRANCH   1   4
ATOM      4  C   UNL     1     -10.486  -3.483  17.867  1.00  0.00     0.034 C 
BRANCH   4   5
ATOM      5  C   UNL     1      -9.359  -2.934  18.754  1.00  0.00     0.032 C 
BRANCH   5   6
ATOM      6  C   UNL     1      -9.752  -2.920  20.213  1.00  0.00    -0.028 C 
ATOM      7  C   UNL     1      -9.776  -3.648  22.559  1.00  0.00     0.039 C 
ATOM      8  C   UNL     1      -9.338  -3.825  21.128  1.00  0.00    -0.080 C 
ATOM      9  C   UNL     1      -8.473  -5.006  20.754  1.00  0.00     0.039 C 
ENDBRANCH   5   6
ENDBRANCH   4   5
ENDBRANCH   1   4
BRANCH   2  10
ATOM     10  C   UNL     1      -9.066  -7.010  17.006  1.00  0.00     0.035 C 
BRANCH  10  11
ATOM     11  C   UNL     1      -7.969  -7.556  17.930  1.00  0.00     0.079 C 
BRANCH  11  12
ATOM     12  C   UNL     1      -7.708  -9.045  17.821  1.00  0.00     0.130 C 
ATOM     13  O   UNL     1      -7.094  -9.581  18.731  1.00  0.00    -0.300 OA
ATOM     14  C   UNL     1      -8.153  -9.912  16.671  1.00  0.00     0.087 C 
ENDBRANCH  11  12
ENDBRANCH  10  11
ENDBRANCH   2  10
TORSDOF 6
ENDMDL
MODEL 4
REMARK VINA RESULT:    -4.226     18.333     19.729
REMARK INTER + INTRA:          -7.106
REMARK INTER:                  -6.414
REMARK INTRA:                  -0.692
REMARK UNBOUND:                -1.398
REMARK SMILES CC(=O)CCC=C(C)CCC=C(C)C
REMARK SMILES IDX 7 1 6 2 8 3 9 4 10 5 11 6 13 7 12 8 14 9 5 10 4 11 2 12 3 13
REMARK SMILES IDX 1 14
REMARK H PARENT
REMARK Flexibility Score: inf
ROOT
ATOM      1  C   UNL     1      -8.674  -6.102  17.704  1.00  0.00    -0.077 C 
ATOM      2  C   UNL     1      -8.589  -7.450  17.670  1.00  0.00    -0.028 C 
ATOM      3  C   UNL     1      -7.464  -5.231  17.455  1.00  0.00     0.039 C 
ENDROOT
BRANCH   1   4
ATOM      4  C   UNL     1     -10.009  -5.448  17.997  1.00  0.00     0.034 C 
BRANCH   4   5
ATOM      5  C   UNL     1     -10.315  -5.423  19.501  1.00  0.00     0.032 C 
BRANCH   5   6
ATOM      6  C   UNL     1      -9.420  -4.454  20.238  1.00  0.00    -0.028 C 
ATOM      7  C   UNL     1      -8.463  -3.274  22.168  1.00  0.00     0.039 C 
ATOM      8  C   UNL     1      -9.456  -4.238  21.572  1.00  0.00    -0.080 C 
ATOM      9  C   UNL     1     -10.468  -4.914  22.467  1.00  0.00     0.039 C 
ENDBRANCH   5   6
ENDBRANCH   4   5
ENDBRANCH   1   4
BRANCH   2  10
ATOM     10  C   UNL     1      -7.304  -8.187  17.379  1.00  0.00     0.035 C 
BRANCH  10  11
ATOM     11  C   UNL     1      -6.827  -8.975  18.607  1.00  0.00     0.079 C 
BRANCH  11  12
ATOM     12  C   UNL     1      -5.846  -8.248  19.505  1.00  0.00     0.130 C 
ATOM     13  O   UNL     1      -5.895  -8.479  20.703  1.00  0.00    -0.300 OA
ATOM     14  C   UNL     1      -4.814  -7.259  19.025  1.00  0.00     0.087 C 
ENDBRANCH  11  12
ENDBRANCH  10  11
ENDBRANCH   2  10
TORSDOF 6
ENDMDL
MODEL 5
REMARK VINA RESULT:    -4.211     18.107     19.225
REMARK INTER + INTRA:          -7.087
REMARK INTER:                  -6.130
REMARK INTRA:                  -0.956
REMARK UNBOUND:                -1.398
REMARK SMILES CC(=O)CCC=C(C)CCC=C(C)C
REMARK SMILES IDX 7 1 6 2 8 3 9 4 10 5 11 6 13 7 12 8 14 9 5 10 4 11 2 12 3 13
REMARK SMILES IDX 1 14
REMARK H PARENT
REMARK Flexibility Score: inf
ROOT
ATOM      1  C   UNL     1      -8.329  -6.214  17.435  1.00  0.00    -0.077 C 
ATOM      2  C   UNL     1      -9.236  -6.110  18.431  1.00  0.00    -0.028 C 
ATOM      3  C   UNL     1      -7.396  -5.073  17.100  1.00  0.00     0.039 C 
ENDROOT
BRANCH   1   4
ATOM      4  C   UNL     1      -8.246  -7.498  16.636  1.00  0.00     0.034 C 
BRANCH   4   5
ATOM      5  C   UNL     1      -6.931  -8.248  16.895  1.00  0.00     0.032 C 
BRANCH   5   6
ATOM      6  C   UNL     1      -6.774  -8.616  18.352  1.00  0.00    -0.028 C 
ATOM      7  C   UNL     1      -5.840  -8.530  20.622  1.00  0.00     0.039 C 
ATOM      8  C   UNL     1      -5.838  -8.099  19.177  1.00  0.00    -0.080 C 
ATOM      9  C   UNL     1      -4.789  -7.127  18.691  1.00  0.00     0.039 C 
ENDBRANCH   5   6
ENDBRANCH   4   5
ENDBRANCH   1   4
BRANCH   2  10
ATOM     10  C   UNL     1      -9.385  -4.873  19.284  1.00  0.00     0.035 C 
BRANCH  10  11
ATOM     11  C   UNL     1      -8.551  -4.981  20.568  1.00  0.00     0.079 C 
BRANCH  11  12
ATOM     12  C   UNL     1      -9.126  -4.273  21.779  1.00  0.00     0.130 C 
ATOM     13  O   UNL     1      -8.526  -3.299  22.205  1.00  0.00    -0.300 OA
ATOM     14  C   UNL     1     -10.387  -4.687  22.495  1.00  0.00     0.087 C 
ENDBRANCH  11  12
ENDBRANCH  10  11
ENDBRANCH   2  10
TORSDOF 6
ENDMDL
MODEL 6
REMARK VINA RESULT:    -4.103      1.881      4.351
REMARK INTER + INTRA:          -6.940
REMARK INTER:                  -5.762
REMARK INTRA:                  -1.178
REMARK UNBOUND:                -1.398
REMARK SMILES CC(=O)CCC=C(C)CCC=C(C)C
REMARK SMILES IDX 7 1 6 2 8 3 9 4 10 5 11 6 13 7 12 8 14 9 5 10 4 11 2 12 3 13
REMARK SMILES IDX 1 14
REMARK H PARENT
REMARK Flexibility Score: inf
ROOT
ATOM      1  C   UNL     1       2.182   5.793  28.925  1.00  0.00    -0.077 C 
ATOM      2  C   UNL     1       2.365   4.471  28.718  1.00  0.00    -0.028 C 
ATOM      3  C   UNL     1       3.227   6.805  28.514  1.00  0.00     0.039 C 
ENDROOT
BRANCH   1   4
ATOM      4  C   UNL     1       0.904   6.273  29.583  1.00  0.00     0.034 C 
BRANCH   4   5
ATOM      5  C   UNL     1       0.759   5.732  31.012  1.00  0.00     0.032 C 
BRANCH   5   6
ATOM      6  C   UNL     1       0.758   6.845  32.034  1.00  0.00    -0.028 C 
ATOM      7  C   UNL     1       1.706   8.478  33.606  1.00  0.00     0.039 C 
ATOM      8  C   UNL     1       1.863   7.328  32.644  1.00  0.00    -0.080 C 
ATOM      9  C   UNL     1       3.234   6.739  32.404  1.00  0.00     0.039 C 
ENDBRANCH   5   6
ENDBRANCH   4   5
ENDBRANCH   1   4
BRANCH   2  10
ATOM     10  C   UNL     1       3.602   3.902  28.064  1.00  0.00     0.035 C 
BRANCH  10  11
ATOM     11  C   UNL     1       4.417   3.062  29.057  1.00  0.00     0.079 C 
BRANCH  11  12
ATOM     12  C   UNL     1       4.653   3.702  30.411  1.00  0.00     0.130 C 
ATOM     13  O   UNL     1       5.425   4.647  30.464  1.00  0.00    -0.300 OA
ATOM     14  C   UNL     1       4.002   3.256  31.695  1.00  0.00     0.087 C 
ENDBRANCH  11  12
ENDBRANCH  10  11
ENDBRANCH   2  10
TORSDOF 6
ENDMDL
MODEL 7
REMARK VINA RESULT:    -4.067      1.472      3.163
REMARK INTER + INTRA:          -6.891
REMARK INTER:                  -5.584
REMARK INTRA:                  -1.307
REMARK UNBOUND:                -1.398
REMARK SMILES CC(=O)CCC=C(C)CCC=C(C)C
REMARK SMILES IDX 7 1 6 2 8 3 9 4 10 5 11 6 13 7 12 8 14 9 5 10 4 11 2 12 3 13
REMARK SMILES IDX 1 14
REMARK H PARENT
REMARK Flexibility Score: inf
ROOT
ATOM      1  C   UNL     1       3.088   5.362  31.858  1.00  0.00    -0.077 C 
ATOM      2  C   UNL     1       1.857   5.069  31.385  1.00  0.00    -0.028 C 
ATOM      3  C   UNL     1       3.448   6.762  32.300  1.00  0.00     0.039 C 
ENDROOT
BRANCH   1   4
ATOM      4  C   UNL     1       4.130   4.266  31.948  1.00  0.00     0.034 C 
BRANCH   4   5
ATOM      5  C   UNL     1       3.876   3.151  30.923  1.00  0.00     0.032 C 
BRANCH   5   6
ATOM      6  C   UNL     1       4.554   3.439  29.604  1.00  0.00    -0.028 C 
ATOM      7  C   UNL     1       4.722   3.914  27.200  1.00  0.00     0.039 C 
ATOM      8  C   UNL     1       3.910   3.578  28.424  1.00  0.00    -0.080 C 
ATOM      9  C   UNL     1       2.416   3.388  28.299  1.00  0.00     0.039 C 
ENDBRANCH   5   6
ENDBRANCH   4   5
ENDBRANCH   1   4
BRANCH   2  10
ATOM     10  C   UNL     1       0.754   6.094  31.267  1.00  0.00     0.035 C 
BRANCH  10  11
ATOM     11  C   UNL     1       0.630   6.610  29.827  1.00  0.00     0.079 C 
BRANCH  11  12
ATOM     12  C   UNL     1       1.718   7.567  29.382  1.00  0.00     0.130 C 
ATOM     13  O   UNL     1       1.626   8.732  29.735  1.00  0.00    -0.300 OA
ATOM     14  C   UNL     1       2.904   7.183  28.536  1.00  0.00     0.087 C 
ENDBRANCH  11  12
ENDBRANCH  10  11
ENDBRANCH   2  10
TORSDOF 6
ENDMDL
MODEL 8
REMARK VINA RESULT:    -4.010     20.136     21.316
REMARK INTER + INTRA:          -6.814
REMARK INTER:                  -5.879
REMARK INTRA:                  -0.935
REMARK UNBOUND:                -1.398
REMARK SMILES CC(=O)CCC=C(C)CCC=C(C)C
REMARK SMILES IDX 7 1 6 2 8 3 9 4 10 5 11 6 13 7 12 8 14 9 5 10 4 11 2 12 3 13
REMARK SMILES IDX 1 14
REMARK H PARENT
REMARK Flexibility Score: inf
ROOT
ATOM      1  C   UNL     1     -11.346  -5.118  17.935  1.00  0.00    -0.077 C 
ATOM      2  C   UNL     1     -10.380  -5.527  18.787  1.00  0.00    -0.028 C 
ATOM      3  C   UNL     1     -11.265  -3.780  17.238  1.00  0.00     0.039 C 
ENDROOT
BRANCH   1   4
ATOM      4  C   UNL     1     -12.535  -6.020  17.672  1.00  0.00     0.034 C 
BRANCH   4   5
ATOM      5  C   UNL     1     -12.621  -6.438  16.198  1.00  0.00     0.032 C 
BRANCH   5   6
ATOM      6  C   UNL     1     -11.775  -7.656  15.911  1.00  0.00    -0.028 C 
ATOM      7  C   UNL     1      -9.822  -8.925  15.131  1.00  0.00     0.039 C 
ATOM      8  C   UNL     1     -10.569  -7.627  15.302  1.00  0.00    -0.080 C 
ATOM      9  C   UNL     1      -9.967  -6.345  14.776  1.00  0.00     0.039 C 
ENDBRANCH   5   6
ENDBRANCH   4   5
ENDBRANCH   1   4
BRANCH   2  10
ATOM     10  C   UNL     1      -9.157  -4.701  19.104  1.00  0.00     0.035 C 
BRANCH  10  11
ATOM     11  C   UNL     1      -8.560  -5.092  20.463  1.00  0.00     0.079 C 
BRANCH  11  12
ATOM     12  C   UNL     1      -9.099  -4.326  21.655  1.00  0.00     0.130 C 
ATOM     13  O   UNL     1      -8.518  -3.304  21.982  1.00  0.00    -0.300 OA
ATOM     14  C   UNL     1     -10.303  -4.737  22.465  1.00  0.00     0.087 C 
ENDBRANCH  11  12
ENDBRANCH  10  11
ENDBRANCH   2  10
TORSDOF 6
ENDMDL
MODEL 9
REMARK VINA RESULT:    -3.933     18.933     20.173
REMARK INTER + INTRA:          -6.710
REMARK INTER:                  -5.799
REMARK INTRA:                  -0.911
REMARK UNBOUND:                -1.398
REMARK SMILES CC(=O)CCC=C(C)CCC=C(C)C
REMARK SMILES IDX 7 1 6 2 8 3 9 4 10 5 11 6 13 7 12 8 14 9 5 10 4 11 2 12 3 13
REMARK SMILES IDX 1 14
REMARK H PARENT
REMARK Flexibility Score: inf
ROOT
ATOM      1  C   UNL     1      -6.788  -6.829  18.691  1.00  0.00    -0.077 C 
ATOM      2  C   UNL     1      -7.891  -6.371  19.323  1.00  0.00    -0.028 C 
ATOM      3  C   UNL     1      -6.081  -6.001  17.644  1.00  0.00     0.039 C 
ENDROOT
BRANCH   1   4
ATOM      4  C   UNL     1      -6.250  -8.202  19.038  1.00  0.00     0.034 C 
BRANCH   4   5
ATOM      5  C   UNL     1      -7.273  -9.308  18.744  1.00  0.00     0.032 C 
BRANCH   5   6
ATOM      6  C   UNL     1      -7.099  -9.876  17.354  1.00  0.00    -0.028 C 
ATOM      7  C   UNL     1      -7.497 -10.125  14.943  1.00  0.00     0.039 C 
ATOM      8  C   UNL     1      -7.823  -9.501  16.276  1.00  0.00    -0.080 C 
ATOM      9  C   UNL     1      -8.949  -8.499  16.375  1.00  0.00     0.039 C 
ENDBRANCH   5   6
ENDBRANCH   4   5
ENDBRANCH   1   4
BRANCH   2  10
ATOM     10  C   UNL     1      -8.495  -5.014  19.049  1.00  0.00     0.035 C 
BRANCH  10  11
ATOM     11  C   UNL     1      -9.763  -4.792  19.884  1.00  0.00     0.079 C 
BRANCH  11  12
ATOM     12  C   UNL     1      -9.530  -4.380  21.324  1.00  0.00     0.130 C 
ATOM     13  O   UNL     1      -8.629  -3.589  21.549  1.00  0.00    -0.300 OA
ATOM     14  C   UNL     1     -10.334  -4.878  22.499  1.00  0.00     0.087 C 
ENDBRANCH  11  12
ENDBRANCH  10  11
ENDBRANCH   2  10
TORSDOF 6
ENDMDL
