MODEL 1
REMARK VINA RESULT:    -5.593      0.000      0.000
REMARK INTER + INTRA:         -17.391
REMARK INTER:                 -14.095
REMARK INTRA:                  -3.297
REMARK UNBOUND:                -3.297
REMARK SMILES CCCCCCCCCCCCCCCCCCCCCCCCCCCC(=O)[O-]
REMARK SMILES IDX 15 1 16 2 17 3 18 4 19 5 20 6 21 7 22 8 23 9 24 10 25 11
REMARK SMILES IDX 26 12 27 13 28 14 29 15 30 16 14 17 13 18 12 19 11 20 10 21
REMARK SMILES IDX 9 22 8 23 7 24 6 25 5 26 4 27 3 28 2 29 1 30
REMARK H PARENT
REMARK Flexibility Score: inf
ROOT
ATOM      1  C   UNL     1      18.374 -46.120 -24.904  1.00  0.00     0.000 C 
ENDROOT
BRANCH   1   2
ATOM      2  C   UNL     1      17.622 -46.406 -23.596  1.00  0.00     0.000 C 
BRANCH   2   3
ATOM      3  C   UNL     1      18.597 -46.639 -22.438  1.00  0.00     0.000 C 
BRANCH   3   4
ATOM      4  C   UNL     1      19.004 -45.307 -21.789  1.00  0.00     0.000 C 
BRANCH   4   5
ATOM      5  C   UNL     1      20.527 -45.162 -21.628  1.00  0.00     0.000 C 
BRANCH   5   6
ATOM      6  C   UNL     1      21.360 -45.824 -22.742  1.00  0.00     0.000 C 
BRANCH   6   7
ATOM      7  C   UNL     1      22.008 -44.849 -23.746  1.00  0.00     0.000 C 
BRANCH   7   8
ATOM      8  C   UNL     1      21.310 -43.483 -23.875  1.00  0.00     0.000 C 
BRANCH   8   9
ATOM      9  C   UNL     1      20.766 -43.214 -25.285  1.00  0.00     0.000 C 
BRANCH   9  10
ATOM     10  C   UNL     1      19.677 -42.135 -25.254  1.00  0.00     0.000 C 
BRANCH  10  11
ATOM     11  C   UNL     1      19.057 -42.015 -23.857  1.00  0.00     0.000 C 
BRANCH  11  12
ATOM     12  C   UNL     1      17.574 -41.636 -23.941  1.00  0.00     0.006 C 
BRANCH  12  13
ATOM     13  C   UNL     1      16.688 -42.754 -23.384  1.00  0.00     0.053 C 
BRANCH  13  14
ATOM     14  C   UNL     1      15.469 -42.187 -22.728  1.00  0.00     0.041 C 
ATOM     15  O   UNL     1      14.342 -42.293 -23.285  1.00  0.00    -0.550 OA
ATOM     16  O   UNL     1      15.570 -41.560 -21.492  1.00  0.00    -0.550 OA
ENDBRANCH  13  14
ENDBRANCH  12  13
ENDBRANCH  11  12
ENDBRANCH  10  11
ENDBRANCH   9  10
ENDBRANCH   8   9
ENDBRANCH   7   8
ENDBRANCH   6   7
ENDBRANCH   5   6
ENDBRANCH   4   5
ENDBRANCH   3   4
ENDBRANCH   2   3
ENDBRANCH   1   2
BRANCH   1  17
ATOM     17  C   UNL     1      17.624 -45.147 -25.832  1.00  0.00     0.000 C 
BRANCH  17  18
ATOM     18  C   UNL     1      18.103 -45.137 -27.296  1.00  0.00     0.000 C 
BRANCH  18  19
ATOM     19  C   UNL     1      17.963 -46.502 -27.987  1.00  0.00     0.000 C 
BRANCH  19  20
ATOM     20  C   UNL     1      17.133 -46.382 -29.273  1.00  0.00     0.000 C 
BRANCH  20  21
ATOM     21  C   UNL     1      17.508 -45.141 -30.099  1.00  0.00     0.000 C 
BRANCH  21  22
ATOM     22  C   UNL     1      18.642 -45.422 -31.100  1.00  0.00    -0.000 C 
BRANCH  22  23
ATOM     23  C   UNL     1      18.258 -46.503 -32.130  1.00  0.00    -0.000 C 
BRANCH  23  24
ATOM     24  C   UNL     1      19.421 -47.434 -32.514  1.00  0.00    -0.000 C 
BRANCH  24  25
ATOM     25  C   UNL     1      19.382 -48.780 -31.777  1.00  0.00    -0.000 C 
BRANCH  25  26
ATOM     26  C   UNL     1      20.302 -49.806 -32.451  1.00  0.00    -0.000 C 
BRANCH  26  27
ATOM     27  C   UNL     1      19.625 -51.179 -32.540  1.00  0.00    -0.000 C 
BRANCH  27  28
ATOM     28  C   UNL     1      20.665 -52.308 -32.530  1.00  0.00    -0.000 C 
BRANCH  28  29
ATOM     29  C   UNL     1      20.448 -53.319 -33.667  1.00  0.00    -0.003 C 
ATOM     30  C   UNL     1      19.264 -54.250 -33.408  1.00  0.00     0.004 C 
ENDBRANCH  28  29
ENDBRANCH  27  28
ENDBRANCH  26  27
ENDBRANCH  25  26
ENDBRANCH  24  25
ENDBRANCH  23  24
ENDBRANCH  22  23
ENDBRANCH  21  22
ENDBRANCH  20  21
ENDBRANCH  19  20
ENDBRANCH  18  19
ENDBRANCH  17  18
ENDBRANCH   1  17
TORSDOF 26
ENDMDL
MODEL 2
REMARK VINA RESULT:    -5.581      4.574     11.524
REMARK INTER + INTRA:         -17.360
REMARK INTER:                 -14.299
REMARK INTRA:                  -3.061
REMARK UNBOUND:                -3.297
REMARK SMILES CCCCCCCCCCCCCCCCCCCCCCCCCCCC(=O)[O-]
REMARK SMILES IDX 15 1 16 2 17 3 18 4 19 5 20 6 21 7 22 8 23 9 24 10 25 11
REMARK SMILES IDX 26 12 27 13 28 14 29 15 30 16 14 17 13 18 12 19 11 20 10 21
REMARK SMILES IDX 9 22 8 23 7 24 6 25 5 26 4 27 3 28 2 29 1 30
REMARK H PARENT
REMARK Flexibility Score: inf
ROOT
ATOM      1  C   UNL     1      18.007 -45.743 -26.683  1.00  0.00     0.000 C 
ENDROOT
BRANCH   1   2
ATOM      2  C   UNL     1      17.695 -45.651 -28.184  1.00  0.00     0.000 C 
BRANCH   2   3
ATOM      3  C   UNL     1      17.796 -47.024 -28.854  1.00  0.00     0.000 C 
BRANCH   3   4
ATOM      4  C   UNL     1      18.571 -46.931 -30.177  1.00  0.00     0.000 C 
BRANCH   4   5
ATOM      5  C   UNL     1      18.535 -48.241 -30.984  1.00  0.00     0.000 C 
BRANCH   5   6
ATOM      6  C   UNL     1      19.525 -48.302 -32.162  1.00  0.00     0.000 C 
BRANCH   6   7
ATOM      7  C   UNL     1      20.456 -49.532 -32.174  1.00  0.00     0.000 C 
BRANCH   7   8
ATOM      8  C   UNL     1      19.758 -50.879 -32.431  1.00  0.00     0.000 C 
BRANCH   8   9
ATOM      9  C   UNL     1      20.741 -52.036 -32.659  1.00  0.00     0.000 C 
BRANCH   9  10
ATOM     10  C   UNL     1      21.544 -51.824 -33.948  1.00  0.00     0.000 C 
BRANCH  10  11
ATOM     11  C   UNL     1      21.704 -53.138 -34.721  1.00  0.00     0.000 C 
BRANCH  11  12
ATOM     12  C   UNL     1      21.040 -54.302 -33.975  1.00  0.00     0.006 C 
BRANCH  12  13
ATOM     13  C   UNL     1      20.107 -55.088 -34.901  1.00  0.00     0.053 C 
BRANCH  13  14
ATOM     14  C   UNL     1      18.683 -54.944 -34.467  1.00  0.00     0.041 C 
ATOM     15  O   UNL     1      18.385 -54.172 -33.515  1.00  0.00    -0.550 OA
ATOM     16  O   UNL     1      17.679 -55.646 -35.124  1.00  0.00    -0.550 OA
ENDBRANCH  13  14
ENDBRANCH  12  13
ENDBRANCH  11  12
ENDBRANCH  10  11
ENDBRANCH   9  10
ENDBRANCH   8   9
ENDBRANCH   7   8
ENDBRANCH   6   7
ENDBRANCH   5   6
ENDBRANCH   4   5
ENDBRANCH   3   4
ENDBRANCH   2   3
ENDBRANCH   1   2
BRANCH   1  17
ATOM     17  C   UNL     1      18.196 -44.366 -26.020  1.00  0.00     0.000 C 
BRANCH  17  18
ATOM     18  C   UNL     1      19.629 -44.059 -25.544  1.00  0.00     0.000 C 
BRANCH  18  19
ATOM     19  C   UNL     1      19.839 -42.583 -25.175  1.00  0.00     0.000 C 
BRANCH  19  20
ATOM     20  C   UNL     1      19.990 -42.415 -23.656  1.00  0.00     0.000 C 
BRANCH  20  21
ATOM     21  C   UNL     1      18.770 -41.730 -23.019  1.00  0.00     0.000 C 
BRANCH  21  22
ATOM     22  C   UNL     1      17.644 -41.469 -24.035  1.00  0.00    -0.000 C 
BRANCH  22  23
ATOM     23  C   UNL     1      16.262 -41.889 -23.496  1.00  0.00    -0.000 C 
BRANCH  23  24
ATOM     24  C   UNL     1      16.301 -43.134 -22.592  1.00  0.00    -0.000 C 
BRANCH  24  25
ATOM     25  C   UNL     1      15.810 -44.405 -23.300  1.00  0.00    -0.000 C 
BRANCH  25  26
ATOM     26  C   UNL     1      16.613 -45.632 -22.851  1.00  0.00    -0.000 C 
BRANCH  26  27
ATOM     27  C   UNL     1      17.959 -45.217 -22.244  1.00  0.00    -0.000 C 
BRANCH  27  28
ATOM     28  C   UNL     1      19.006 -46.328 -22.417  1.00  0.00    -0.000 C 
BRANCH  28  29
ATOM     29  C   UNL     1      20.391 -45.919 -21.892  1.00  0.00    -0.003 C 
ATOM     30  C   UNL     1      21.472 -45.980 -22.972  1.00  0.00     0.004 C 
ENDBRANCH  28  29
ENDBRANCH  27  28
ENDBRANCH  26  27
ENDBRANCH  25  26
ENDBRANCH  24  25
ENDBRANCH  23  24
ENDBRANCH  22  23
ENDBRANCH  21  22
ENDBRANCH  20  21
ENDBRANCH  19  20
ENDBRANCH  18  19
ENDBRANCH  17  18
ENDBRANCH   1  17
TORSDOF 26
ENDMDL
MODEL 3
REMARK VINA RESULT:    -5.577      4.746     11.195
REMARK INTER + INTRA:         -17.351
REMARK INTER:                 -14.163
REMARK INTRA:                  -3.187
REMARK UNBOUND:                -3.297
REMARK SMILES CCCCCCCCCCCCCCCCCCCCCCCCCCCC(=O)[O-]
REMARK SMILES IDX 15 1 16 2 17 3 18 4 19 5 20 6 21 7 22 8 23 9 24 10 25 11
REMARK SMILES IDX 26 12 27 13 28 14 29 15 30 16 14 17 13 18 12 19 11 20 10 21
REMARK SMILES IDX 9 22 8 23 7 24 6 25 5 26 4 27 3 28 2 29 1 30
REMARK H PARENT
REMARK Flexibility Score: inf
ROOT
ATOM      1  C   UNL     1      18.013 -45.731 -26.092  1.00  0.00     0.000 C 
ENDROOT
BRANCH   1   2
ATOM      2  C   UNL     1      17.999 -46.258 -27.535  1.00  0.00     0.000 C 
BRANCH   2   3
ATOM      3  C   UNL     1      17.273 -45.287 -28.470  1.00  0.00     0.000 C 
BRANCH   3   4
ATOM      4  C   UNL     1      17.771 -45.444 -29.915  1.00  0.00     0.000 C 
BRANCH   4   5
ATOM      5  C   UNL     1      18.735 -46.630 -30.089  1.00  0.00     0.000 C 
BRANCH   5   6
ATOM      6  C   UNL     1      18.424 -47.546 -31.287  1.00  0.00     0.000 C 
BRANCH   6   7
ATOM      7  C   UNL     1      19.520 -48.575 -31.630  1.00  0.00     0.000 C 
BRANCH   7   8
ATOM      8  C   UNL     1      20.148 -48.423 -33.027  1.00  0.00     0.000 C 
BRANCH   8   9
ATOM      9  C   UNL     1      20.636 -49.753 -33.618  1.00  0.00     0.000 C 
BRANCH   9  10
ATOM     10  C   UNL     1      20.142 -50.937 -32.779  1.00  0.00     0.000 C 
BRANCH  10  11
ATOM     11  C   UNL     1      21.179 -52.067 -32.753  1.00  0.00     0.000 C 
BRANCH  11  12
ATOM     12  C   UNL     1      21.925 -52.161 -34.089  1.00  0.00     0.006 C 
BRANCH  12  13
ATOM     13  C   UNL     1      21.310 -53.238 -34.987  1.00  0.00     0.053 C 
BRANCH  13  14
ATOM     14  C   UNL     1      20.881 -54.421 -34.178  1.00  0.00     0.041 C 
ATOM     15  O   UNL     1      21.733 -55.261 -33.781  1.00  0.00    -0.550 OA
ATOM     16  O   UNL     1      19.541 -54.587 -33.844  1.00  0.00    -0.550 OA
ENDBRANCH  13  14
ENDBRANCH  12  13
ENDBRANCH  11  12
ENDBRANCH  10  11
ENDBRANCH   9  10
ENDBRANCH   8   9
ENDBRANCH   7   8
ENDBRANCH   6   7
ENDBRANCH   5   6
ENDBRANCH   4   5
ENDBRANCH   3   4
ENDBRANCH   2   3
ENDBRANCH   1   2
BRANCH   1  17
ATOM     17  C   UNL     1      18.351 -44.231 -26.001  1.00  0.00     0.000 C 
BRANCH  17  18
ATOM     18  C   UNL     1      19.680 -43.901 -25.296  1.00  0.00     0.000 C 
BRANCH  18  19
ATOM     19  C   UNL     1      19.874 -42.398 -25.045  1.00  0.00     0.000 C 
BRANCH  19  20
ATOM     20  C   UNL     1      20.017 -42.108 -23.544  1.00  0.00     0.000 C 
BRANCH  20  21
ATOM     21  C   UNL     1      18.686 -41.692 -22.897  1.00  0.00     0.000 C 
BRANCH  21  22
ATOM     22  C   UNL     1      17.604 -41.362 -23.941  1.00  0.00    -0.000 C 
BRANCH  22  23
ATOM     23  C   UNL     1      16.180 -41.620 -23.407  1.00  0.00    -0.000 C 
BRANCH  23  24
ATOM     24  C   UNL     1      16.065 -42.879 -22.529  1.00  0.00    -0.000 C 
BRANCH  24  25
ATOM     25  C   UNL     1      15.830 -44.159 -23.344  1.00  0.00    -0.000 C 
BRANCH  25  26
ATOM     26  C   UNL     1      16.590 -45.346 -22.738  1.00  0.00    -0.000 C 
BRANCH  26  27
ATOM     27  C   UNL     1      17.563 -44.878 -21.649  1.00  0.00    -0.000 C 
BRANCH  27  28
ATOM     28  C   UNL     1      18.985 -45.388 -21.926  1.00  0.00    -0.000 C 
BRANCH  28  29
ATOM     29  C   UNL     1      18.995 -46.743 -22.651  1.00  0.00    -0.003 C 
ATOM     30  C   UNL     1      19.207 -47.919 -21.698  1.00  0.00     0.004 C 
ENDBRANCH  28  29
ENDBRANCH  27  28
ENDBRANCH  26  27
ENDBRANCH  25  26
ENDBRANCH  24  25
ENDBRANCH  23  24
ENDBRANCH  22  23
ENDBRANCH  21  22
ENDBRANCH  20  21
ENDBRANCH  19  20
ENDBRANCH  18  19
ENDBRANCH  17  18
ENDBRANCH   1  17
TORSDOF 26
ENDMDL
MODEL 4
REMARK VINA RESULT:    -5.542      2.253      4.421
REMARK INTER + INTRA:         -17.263
REMARK INTER:                 -14.732
REMARK INTRA:                  -2.531
REMARK UNBOUND:                -3.297
REMARK SMILES CCCCCCCCCCCCCCCCCCCCCCCCCCCC(=O)[O-]
REMARK SMILES IDX 15 1 16 2 17 3 18 4 19 5 20 6 21 7 22 8 23 9 24 10 25 11
REMARK SMILES IDX 26 12 27 13 28 14 29 15 30 16 14 17 13 18 12 19 11 20 10 21
REMARK SMILES IDX 9 22 8 23 7 24 6 25 5 26 4 27 3 28 2 29 1 30
REMARK H PARENT
REMARK Flexibility Score: inf
ROOT
ATOM      1  C   UNL     1      18.057 -45.542 -26.737  1.00  0.00     0.000 C 
ENDROOT
BRANCH   1   2
ATOM      2  C   UNL     1      18.290 -44.214 -26.001  1.00  0.00     0.000 C 
BRANCH   2   3
ATOM      3  C   UNL     1      19.775 -44.012 -25.685  1.00  0.00     0.000 C 
BRANCH   3   4
ATOM      4  C   UNL     1      19.955 -43.046 -24.504  1.00  0.00     0.000 C 
BRANCH   4   5
ATOM      5  C   UNL     1      19.065 -41.796 -24.613  1.00  0.00     0.000 C 
BRANCH   5   6
ATOM      6  C   UNL     1      18.065 -41.612 -23.456  1.00  0.00     0.000 C 
BRANCH   6   7
ATOM      7  C   UNL     1      16.579 -41.751 -23.844  1.00  0.00     0.000 C 
BRANCH   7   8
ATOM      8  C   UNL     1      15.805 -42.849 -23.092  1.00  0.00     0.000 C 
BRANCH   8   9
ATOM      9  C   UNL     1      16.720 -43.909 -22.462  1.00  0.00     0.000 C 
BRANCH   9  10
ATOM     10  C   UNL     1      16.194 -45.322 -22.745  1.00  0.00     0.000 C 
BRANCH  10  11
ATOM     11  C   UNL     1      17.319 -46.243 -23.231  1.00  0.00     0.000 C 
BRANCH  11  12
ATOM     12  C   UNL     1      18.653 -45.884 -22.563  1.00  0.00     0.006 C 
BRANCH  12  13
ATOM     13  C   UNL     1      19.276 -47.110 -21.888  1.00  0.00     0.053 C 
BRANCH  13  14
ATOM     14  C   UNL     1      20.648 -46.795 -21.382  1.00  0.00     0.041 C 
ATOM     15  O   UNL     1      21.460 -47.727 -21.130  1.00  0.00    -0.550 OA
ATOM     16  O   UNL     1      21.041 -45.473 -21.207  1.00  0.00    -0.550 OA
ENDBRANCH  13  14
ENDBRANCH  12  13
ENDBRANCH  11  12
ENDBRANCH  10  11
ENDBRANCH   9  10
ENDBRANCH   8   9
ENDBRANCH   7   8
ENDBRANCH   6   7
ENDBRANCH   5   6
ENDBRANCH   4   5
ENDBRANCH   3   4
ENDBRANCH   2   3
ENDBRANCH   1   2
BRANCH   1  17
ATOM     17  C   UNL     1      17.334 -45.367 -28.085  1.00  0.00     0.000 C 
BRANCH  17  18
ATOM     18  C   UNL     1      17.600 -46.477 -29.120  1.00  0.00     0.000 C 
BRANCH  18  19
ATOM     19  C   UNL     1      18.940 -46.312 -29.852  1.00  0.00     0.000 C 
BRANCH  19  20
ATOM     20  C   UNL     1      18.721 -45.811 -31.287  1.00  0.00     0.000 C 
BRANCH  20  21
ATOM     21  C   UNL     1      18.888 -46.929 -32.329  1.00  0.00     0.000 C 
BRANCH  21  22
ATOM     22  C   UNL     1      19.360 -48.252 -31.701  1.00  0.00    -0.000 C 
BRANCH  22  23
ATOM     23  C   UNL     1      20.233 -49.079 -32.668  1.00  0.00    -0.000 C 
BRANCH  23  24
ATOM     24  C   UNL     1      20.027 -50.599 -32.543  1.00  0.00    -0.000 C 
BRANCH  24  25
ATOM     25  C   UNL     1      20.790 -51.397 -33.609  1.00  0.00    -0.000 C 
BRANCH  25  26
ATOM     26  C   UNL     1      21.112 -52.813 -33.114  1.00  0.00    -0.000 C 
BRANCH  26  27
ATOM     27  C   UNL     1      21.385 -53.759 -34.290  1.00  0.00    -0.000 C 
BRANCH  27  28
ATOM     28  C   UNL     1      20.280 -54.818 -34.412  1.00  0.00    -0.000 C 
BRANCH  28  29
ATOM     29  C   UNL     1      19.139 -54.598 -33.406  1.00  0.00    -0.003 C 
ATOM     30  C   UNL     1      17.757 -54.728 -34.046  1.00  0.00     0.004 C 
ENDBRANCH  28  29
ENDBRANCH  27  28
ENDBRANCH  26  27
ENDBRANCH  25  26
ENDBRANCH  24  25
ENDBRANCH  23  24
ENDBRANCH  22  23
ENDBRANCH  21  22
ENDBRANCH  20  21
ENDBRANCH  19  20
ENDBRANCH  18  19
ENDBRANCH  17  18
ENDBRANCH   1  17
TORSDOF 26
ENDMDL
MODEL 5
REMARK VINA RESULT:    -5.525      1.984      3.841
REMARK INTER + INTRA:         -17.218
REMARK INTER:                 -14.511
REMARK INTRA:                  -2.707
REMARK UNBOUND:                -3.297
REMARK SMILES CCCCCCCCCCCCCCCCCCCCCCCCCCCC(=O)[O-]
REMARK SMILES IDX 15 1 16 2 17 3 18 4 19 5 20 6 21 7 22 8 23 9 24 10 25 11
REMARK SMILES IDX 26 12 27 13 28 14 29 15 30 16 14 17 13 18 12 19 11 20 10 21
REMARK SMILES IDX 9 22 8 23 7 24 6 25 5 26 4 27 3 28 2 29 1 30
REMARK H PARENT
REMARK Flexibility Score: inf
ROOT
ATOM      1  C   UNL     1      17.983 -46.029 -27.333  1.00  0.00     0.000 C 
ENDROOT
BRANCH   1   2
ATOM      2  C   UNL     1      18.094 -44.775 -26.454  1.00  0.00     0.000 C 
BRANCH   2   3
ATOM      3  C   UNL     1      19.177 -44.945 -25.384  1.00  0.00     0.000 C 
BRANCH   3   4
ATOM      4  C   UNL     1      20.155 -43.760 -25.403  1.00  0.00     0.000 C 
BRANCH   4   5
ATOM      5  C   UNL     1      20.537 -43.279 -23.993  1.00  0.00     0.000 C 
BRANCH   5   6
ATOM      6  C   UNL     1      19.812 -42.002 -23.528  1.00  0.00     0.000 C 
BRANCH   6   7
ATOM      7  C   UNL     1      18.776 -41.436 -24.520  1.00  0.00     0.000 C 
BRANCH   7   8
ATOM      8  C   UNL     1      17.308 -41.759 -24.189  1.00  0.00     0.000 C 
BRANCH   8   9
ATOM      9  C   UNL     1      16.909 -41.359 -22.761  1.00  0.00     0.000 C 
BRANCH   9  10
ATOM     10  C   UNL     1      16.364 -42.566 -21.988  1.00  0.00     0.000 C 
BRANCH  10  11
ATOM     11  C   UNL     1      17.454 -43.201 -21.116  1.00  0.00     0.000 C 
BRANCH  11  12
ATOM     12  C   UNL     1      17.897 -44.554 -21.685  1.00  0.00     0.006 C 
BRANCH  12  13
ATOM     13  C   UNL     1      16.789 -45.181 -22.536  1.00  0.00     0.053 C 
BRANCH  13  14
ATOM     14  C   UNL     1      16.862 -46.674 -22.485  1.00  0.00     0.041 C 
ATOM     15  O   UNL     1      15.961 -47.334 -21.898  1.00  0.00    -0.550 OA
ATOM     16  O   UNL     1      17.913 -47.343 -23.102  1.00  0.00    -0.550 OA
ENDBRANCH  13  14
ENDBRANCH  12  13
ENDBRANCH  11  12
ENDBRANCH  10  11
ENDBRANCH   9  10
ENDBRANCH   8   9
ENDBRANCH   7   8
ENDBRANCH   6   7
ENDBRANCH   5   6
ENDBRANCH   4   5
ENDBRANCH   3   4
ENDBRANCH   2   3
ENDBRANCH   1   2
BRANCH   1  17
ATOM     17  C   UNL     1      17.348 -45.748 -28.708  1.00  0.00     0.000 C 
BRANCH  17  18
ATOM     18  C   UNL     1      18.345 -45.622 -29.876  1.00  0.00     0.000 C 
BRANCH  18  19
ATOM     19  C   UNL     1      18.777 -46.979 -30.451  1.00  0.00     0.000 C 
BRANCH  19  20
ATOM     20  C   UNL     1      18.704 -46.972 -31.985  1.00  0.00     0.000 C 
BRANCH  20  21
ATOM     21  C   UNL     1      19.720 -47.932 -32.624  1.00  0.00     0.000 C 
BRANCH  21  22
ATOM     22  C   UNL     1      19.770 -49.295 -31.912  1.00  0.00    -0.000 C 
BRANCH  22  23
ATOM     23  C   UNL     1      20.230 -50.428 -32.851  1.00  0.00    -0.000 C 
BRANCH  23  24
ATOM     24  C   UNL     1      20.952 -49.930 -34.116  1.00  0.00    -0.000 C 
BRANCH  24  25
ATOM     25  C   UNL     1      21.771 -51.028 -34.811  1.00  0.00    -0.000 C 
BRANCH  25  26
ATOM     26  C   UNL     1      21.759 -52.326 -33.995  1.00  0.00    -0.000 C 
BRANCH  26  27
ATOM     27  C   UNL     1      21.426 -53.532 -34.883  1.00  0.00    -0.000 C 
BRANCH  27  28
ATOM     28  C   UNL     1      20.861 -54.691 -34.049  1.00  0.00    -0.000 C 
BRANCH  28  29
ATOM     29  C   UNL     1      19.564 -54.313 -33.317  1.00  0.00    -0.003 C 
ATOM     30  C   UNL     1      18.311 -54.757 -34.071  1.00  0.00     0.004 C 
ENDBRANCH  28  29
ENDBRANCH  27  28
ENDBRANCH  26  27
ENDBRANCH  25  26
ENDBRANCH  24  25
ENDBRANCH  23  24
ENDBRANCH  22  23
ENDBRANCH  21  22
ENDBRANCH  20  21
ENDBRANCH  19  20
ENDBRANCH  18  19
ENDBRANCH  17  18
ENDBRANCH   1  17
TORSDOF 26
ENDMDL
MODEL 6
REMARK VINA RESULT:    -5.523      4.294     10.179
REMARK INTER + INTRA:         -17.215
REMARK INTER:                 -13.889
REMARK INTRA:                  -3.325
REMARK UNBOUND:                -3.297
REMARK SMILES CCCCCCCCCCCCCCCCCCCCCCCCCCCC(=O)[O-]
REMARK SMILES IDX 15 1 16 2 17 3 18 4 19 5 20 6 21 7 22 8 23 9 24 10 25 11
REMARK SMILES IDX 26 12 27 13 28 14 29 15 30 16 14 17 13 18 12 19 11 20 10 21
REMARK SMILES IDX 9 22 8 23 7 24 6 25 5 26 4 27 3 28 2 29 1 30
REMARK H PARENT
REMARK Flexibility Score: inf
ROOT
ATOM      1  C   UNL     1      19.613 -42.014 -23.989  1.00  0.00     0.000 C 
ENDROOT
BRANCH   1   2
ATOM      2  C   UNL     1      20.030 -42.493 -25.387  1.00  0.00     0.000 C 
BRANCH   2   3
ATOM      3  C   UNL     1      19.775 -43.994 -25.555  1.00  0.00     0.000 C 
BRANCH   3   4
ATOM      4  C   UNL     1      18.285 -44.270 -25.810  1.00  0.00     0.000 C 
BRANCH   4   5
ATOM      5  C   UNL     1      18.047 -45.560 -26.614  1.00  0.00     0.000 C 
BRANCH   5   6
ATOM      6  C   UNL     1      17.478 -45.344 -28.029  1.00  0.00     0.000 C 
BRANCH   6   7
ATOM      7  C   UNL     1      17.368 -46.616 -28.894  1.00  0.00     0.000 C 
BRANCH   7   8
ATOM      8  C   UNL     1      17.754 -46.437 -30.373  1.00  0.00     0.000 C 
BRANCH   8   9
ATOM      9  C   UNL     1      19.193 -46.876 -30.680  1.00  0.00     0.000 C 
BRANCH   9  10
ATOM     10  C   UNL     1      19.205 -48.181 -31.485  1.00  0.00     0.000 C 
BRANCH  10  11
ATOM     11  C   UNL     1      19.919 -47.994 -32.829  1.00  0.00     0.000 C 
BRANCH  11  12
ATOM     12  C   UNL     1      20.299 -49.346 -33.445  1.00  0.00     0.006 C 
BRANCH  12  13
ATOM     13  C   UNL     1      20.058 -50.488 -32.454  1.00  0.00     0.053 C 
BRANCH  13  14
ATOM     14  C   UNL     1      20.456 -51.801 -33.051  1.00  0.00     0.041 C 
ATOM     15  O   UNL     1      21.394 -51.856 -33.892  1.00  0.00    -0.550 OA
ATOM     16  O   UNL     1      19.808 -52.968 -32.665  1.00  0.00    -0.550 OA
ENDBRANCH  13  14
ENDBRANCH  12  13
ENDBRANCH  11  12
ENDBRANCH  10  11
ENDBRANCH   9  10
ENDBRANCH   8   9
ENDBRANCH   7   8
ENDBRANCH   6   7
ENDBRANCH   5   6
ENDBRANCH   4   5
ENDBRANCH   3   4
ENDBRANCH   2   3
ENDBRANCH   1   2
BRANCH   1  17
ATOM     17  C   UNL     1      20.698 -42.247 -22.922  1.00  0.00     0.000 C 
BRANCH  17  18
ATOM     18  C   UNL     1      20.318 -41.811 -21.494  1.00  0.00     0.000 C 
BRANCH  18  19
ATOM     19  C   UNL     1      18.947 -41.122 -21.418  1.00  0.00     0.000 C 
BRANCH  19  20
ATOM     20  C   UNL     1      18.154 -41.615 -20.199  1.00  0.00     0.000 C 
BRANCH  20  21
ATOM     21  C   UNL     1      16.733 -42.069 -20.569  1.00  0.00     0.000 C 
BRANCH  21  22
ATOM     22  C   UNL     1      16.303 -41.579 -21.963  1.00  0.00    -0.000 C 
BRANCH  22  23
ATOM     23  C   UNL     1      16.219 -42.730 -22.986  1.00  0.00    -0.000 C 
BRANCH  23  24
ATOM     24  C   UNL     1      16.776 -44.066 -22.463  1.00  0.00    -0.000 C 
BRANCH  24  25
ATOM     25  C   UNL     1      16.107 -45.288 -23.109  1.00  0.00    -0.000 C 
BRANCH  25  26
ATOM     26  C   UNL     1      16.607 -46.591 -22.472  1.00  0.00    -0.000 C 
BRANCH  26  27
ATOM     27  C   UNL     1      17.817 -47.147 -23.232  1.00  0.00    -0.000 C 
BRANCH  27  28
ATOM     28  C   UNL     1      19.073 -47.139 -22.349  1.00  0.00    -0.000 C 
BRANCH  28  29
ATOM     29  C   UNL     1      19.985 -45.934 -22.631  1.00  0.00    -0.003 C 
ATOM     30  C   UNL     1      20.795 -45.509 -21.406  1.00  0.00     0.004 C 
ENDBRANCH  28  29
ENDBRANCH  27  28
ENDBRANCH  26  27
ENDBRANCH  25  26
ENDBRANCH  24  25
ENDBRANCH  23  24
ENDBRANCH  22  23
ENDBRANCH  21  22
ENDBRANCH  20  21
ENDBRANCH  19  20
ENDBRANCH  18  19
ENDBRANCH  17  18
ENDBRANCH   1  17
TORSDOF 26
ENDMDL
MODEL 7
REMARK VINA RESULT:    -5.516      1.589      2.300
REMARK INTER + INTRA:         -17.196
REMARK INTER:                 -14.357
REMARK INTRA:                  -2.839
REMARK UNBOUND:                -3.297
REMARK SMILES CCCCCCCCCCCCCCCCCCCCCCCCCCCC(=O)[O-]
REMARK SMILES IDX 15 1 16 2 17 3 18 4 19 5 20 6 21 7 22 8 23 9 24 10 25 11
REMARK SMILES IDX 26 12 27 13 28 14 29 15 30 16 14 17 13 18 12 19 11 20 10 21
REMARK SMILES IDX 9 22 8 23 7 24 6 25 5 26 4 27 3 28 2 29 1 30
REMARK H PARENT
REMARK Flexibility Score: inf
ROOT
ATOM      1  C   UNL     1      17.838 -46.828 -23.728  1.00  0.00     0.000 C 
ENDROOT
BRANCH   1   2
ATOM      2  C   UNL     1      18.214 -46.306 -22.333  1.00  0.00     0.000 C 
BRANCH   2   3
ATOM      3  C   UNL     1      19.656 -45.790 -22.307  1.00  0.00     0.000 C 
BRANCH   3   4
ATOM      4  C   UNL     1      19.743 -44.452 -21.556  1.00  0.00     0.000 C 
BRANCH   4   5
ATOM      5  C   UNL     1      20.726 -43.464 -22.209  1.00  0.00     0.000 C 
BRANCH   5   6
ATOM      6  C   UNL     1      21.065 -43.767 -23.680  1.00  0.00     0.000 C 
BRANCH   6   7
ATOM      7  C   UNL     1      20.065 -43.209 -24.713  1.00  0.00     0.000 C 
BRANCH   7   8
ATOM      8  C   UNL     1      19.847 -41.686 -24.657  1.00  0.00     0.000 C 
BRANCH   8   9
ATOM      9  C   UNL     1      18.364 -41.288 -24.677  1.00  0.00     0.000 C 
BRANCH   9  10
ATOM     10  C   UNL     1      17.561 -42.123 -23.672  1.00  0.00     0.000 C 
BRANCH  10  11
ATOM     11  C   UNL     1      17.281 -41.327 -22.391  1.00  0.00     0.000 C 
BRANCH  11  12
ATOM     12  C   UNL     1      16.458 -42.155 -21.397  1.00  0.00     0.006 C 
BRANCH  12  13
ATOM     13  C   UNL     1      17.185 -42.284 -20.056  1.00  0.00     0.053 C 
BRANCH  13  14
ATOM     14  C   UNL     1      16.317 -41.807 -18.934  1.00  0.00     0.041 C 
ATOM     15  O   UNL     1      16.816 -41.583 -17.798  1.00  0.00    -0.550 OA
ATOM     16  O   UNL     1      14.961 -41.589 -19.146  1.00  0.00    -0.550 OA
ENDBRANCH  13  14
ENDBRANCH  12  13
ENDBRANCH  11  12
ENDBRANCH  10  11
ENDBRANCH   9  10
ENDBRANCH   8   9
ENDBRANCH   7   8
ENDBRANCH   6   7
ENDBRANCH   5   6
ENDBRANCH   4   5
ENDBRANCH   3   4
ENDBRANCH   2   3
ENDBRANCH   1   2
BRANCH   1  17
ATOM     17  C   UNL     1      17.688 -45.707 -24.773  1.00  0.00     0.000 C 
BRANCH  17  18
ATOM     18  C   UNL     1      18.198 -46.054 -26.184  1.00  0.00     0.000 C 
BRANCH  18  19
ATOM     19  C   UNL     1      17.915 -44.952 -27.216  1.00  0.00     0.000 C 
BRANCH  19  20
ATOM     20  C   UNL     1      17.262 -45.537 -28.477  1.00  0.00     0.000 C 
BRANCH  20  21
ATOM     21  C   UNL     1      17.774 -46.950 -28.800  1.00  0.00     0.000 C 
BRANCH  21  22
ATOM     22  C   UNL     1      17.788 -47.238 -30.311  1.00  0.00    -0.000 C 
BRANCH  22  23
ATOM     23  C   UNL     1      19.202 -47.574 -30.829  1.00  0.00    -0.000 C 
BRANCH  23  24
ATOM     24  C   UNL     1      19.322 -47.555 -32.362  1.00  0.00    -0.000 C 
BRANCH  24  25
ATOM     25  C   UNL     1      19.990 -48.816 -32.929  1.00  0.00    -0.000 C 
BRANCH  25  26
ATOM     26  C   UNL     1      19.567 -50.064 -32.144  1.00  0.00    -0.000 C 
BRANCH  26  27
ATOM     27  C   UNL     1      20.638 -51.159 -32.233  1.00  0.00    -0.000 C 
BRANCH  27  28
ATOM     28  C   UNL     1      20.098 -52.398 -32.962  1.00  0.00    -0.000 C 
BRANCH  28  29
ATOM     29  C   UNL     1      21.121 -52.998 -33.940  1.00  0.00    -0.003 C 
ATOM     30  C   UNL     1      21.009 -54.519 -34.049  1.00  0.00     0.004 C 
ENDBRANCH  28  29
ENDBRANCH  27  28
ENDBRANCH  26  27
ENDBRANCH  25  26
ENDBRANCH  24  25
ENDBRANCH  23  24
ENDBRANCH  22  23
ENDBRANCH  21  22
ENDBRANCH  20  21
ENDBRANCH  19  20
ENDBRANCH  18  19
ENDBRANCH  17  18
ENDBRANCH   1  17
TORSDOF 26
ENDMDL
MODEL 8
REMARK VINA RESULT:    -5.458      1.567      2.928
REMARK INTER + INTRA:         -17.051
REMARK INTER:                 -14.352
REMARK INTRA:                  -2.699
REMARK UNBOUND:                -3.297
REMARK SMILES CCCCCCCCCCCCCCCCCCCCCCCCCCCC(=O)[O-]
REMARK SMILES IDX 15 1 16 2 17 3 18 4 19 5 20 6 21 7 22 8 23 9 24 10 25 11
REMARK SMILES IDX 26 12 27 13 28 14 29 15 30 16 14 17 13 18 12 19 11 20 10 21
REMARK SMILES IDX 9 22 8 23 7 24 6 25 5 26 4 27 3 28 2 29 1 30
REMARK H PARENT
REMARK Flexibility Score: inf
ROOT
ATOM      1  C   UNL     1      19.058 -43.480 -25.437  1.00  0.00     0.000 C 
ENDROOT
BRANCH   1   2
ATOM      2  C   UNL     1      19.770 -43.320 -24.086  1.00  0.00     0.000 C 
BRANCH   2   3
ATOM      3  C   UNL     1      21.053 -44.156 -24.035  1.00  0.00     0.000 C 
BRANCH   3   4
ATOM      4  C   UNL     1      21.388 -44.555 -22.589  1.00  0.00     0.000 C 
BRANCH   4   5
ATOM      5  C   UNL     1      20.843 -45.943 -22.211  1.00  0.00     0.000 C 
BRANCH   5   6
ATOM      6  C   UNL     1      19.411 -45.944 -21.646  1.00  0.00     0.000 C 
BRANCH   6   7
ATOM      7  C   UNL     1      18.435 -46.924 -22.328  1.00  0.00     0.000 C 
BRANCH   7   8
ATOM      8  C   UNL     1      17.041 -46.349 -22.641  1.00  0.00     0.000 C 
BRANCH   8   9
ATOM      9  C   UNL     1      16.929 -44.846 -22.351  1.00  0.00     0.000 C 
BRANCH   9  10
ATOM     10  C   UNL     1      15.904 -44.185 -23.281  1.00  0.00     0.000 C 
BRANCH  10  11
ATOM     11  C   UNL     1      15.875 -42.666 -23.081  1.00  0.00     0.000 C 
BRANCH  11  12
ATOM     12  C   UNL     1      16.840 -42.237 -21.969  1.00  0.00     0.006 C 
BRANCH  12  13
ATOM     13  C   UNL     1      16.077 -41.702 -20.754  1.00  0.00     0.053 C 
BRANCH  13  14
ATOM     14  C   UNL     1      16.947 -41.704 -19.538  1.00  0.00     0.041 C 
ATOM     15  O   UNL     1      16.438 -41.848 -18.394  1.00  0.00    -0.550 OA
ATOM     16  O   UNL     1      18.325 -41.568 -19.666  1.00  0.00    -0.550 OA
ENDBRANCH  13  14
ENDBRANCH  12  13
ENDBRANCH  11  12
ENDBRANCH  10  11
ENDBRANCH   9  10
ENDBRANCH   8   9
ENDBRANCH   7   8
ENDBRANCH   6   7
ENDBRANCH   5   6
ENDBRANCH   4   5
ENDBRANCH   3   4
ENDBRANCH   2   3
ENDBRANCH   1   2
BRANCH   1  17
ATOM     17  C   UNL     1      18.603 -44.926 -25.712  1.00  0.00     0.000 C 
BRANCH  17  18
ATOM     18  C   UNL     1      17.625 -45.091 -26.891  1.00  0.00     0.000 C 
BRANCH  18  19
ATOM     19  C   UNL     1      18.197 -45.942 -28.035  1.00  0.00     0.000 C 
BRANCH  19  20
ATOM     20  C   UNL     1      17.135 -46.192 -29.115  1.00  0.00     0.000 C 
BRANCH  20  21
ATOM     21  C   UNL     1      17.604 -47.199 -30.177  1.00  0.00     0.000 C 
BRANCH  21  22
ATOM     22  C   UNL     1      19.042 -46.925 -30.652  1.00  0.00    -0.000 C 
BRANCH  22  23
ATOM     23  C   UNL     1      19.402 -47.727 -31.918  1.00  0.00    -0.000 C 
BRANCH  23  24
ATOM     24  C   UNL     1      19.284 -49.251 -31.741  1.00  0.00    -0.000 C 
BRANCH  24  25
ATOM     25  C   UNL     1      20.024 -50.042 -32.830  1.00  0.00    -0.000 C 
BRANCH  25  26
ATOM     26  C   UNL     1      20.693 -51.292 -32.246  1.00  0.00    -0.000 C 
BRANCH  26  27
ATOM     27  C   UNL     1      20.858 -52.379 -33.315  1.00  0.00    -0.000 C 
BRANCH  27  28
ATOM     28  C   UNL     1      19.773 -53.457 -33.176  1.00  0.00    -0.000 C 
BRANCH  28  29
ATOM     29  C   UNL     1      20.050 -54.689 -34.052  1.00  0.00    -0.003 C 
ATOM     30  C   UNL     1      21.539 -55.022 -34.146  1.00  0.00     0.004 C 
ENDBRANCH  28  29
ENDBRANCH  27  28
ENDBRANCH  26  27
ENDBRANCH  25  26
ENDBRANCH  24  25
ENDBRANCH  23  24
ENDBRANCH  22  23
ENDBRANCH  21  22
ENDBRANCH  20  21
ENDBRANCH  19  20
ENDBRANCH  18  19
ENDBRANCH  17  18
ENDBRANCH   1  17
TORSDOF 26
ENDMDL
MODEL 9
REMARK VINA RESULT:    -5.453      2.265      4.084
REMARK INTER + INTRA:         -17.039
REMARK INTER:                 -14.920
REMARK INTRA:                  -2.120
REMARK UNBOUND:                -3.297
REMARK SMILES CCCCCCCCCCCCCCCCCCCCCCCCCCCC(=O)[O-]
REMARK SMILES IDX 15 1 16 2 17 3 18 4 19 5 20 6 21 7 22 8 23 9 24 10 25 11
REMARK SMILES IDX 26 12 27 13 28 14 29 15 30 16 14 17 13 18 12 19 11 20 10 21
REMARK SMILES IDX 9 22 8 23 7 24 6 25 5 26 4 27 3 28 2 29 1 30
REMARK H PARENT
REMARK Flexibility Score: inf
ROOT
ATOM      1  C   UNL     1      18.650 -44.558 -25.719  1.00  0.00     0.000 C 
ENDROOT
BRANCH   1   2
ATOM      2  C   UNL     1      20.009 -43.842 -25.746  1.00  0.00     0.000 C 
BRANCH   2   3
ATOM      3  C   UNL     1      19.860 -42.361 -25.385  1.00  0.00     0.000 C 
BRANCH   3   4
ATOM      4  C   UNL     1      20.333 -42.099 -23.947  1.00  0.00     0.000 C 
BRANCH   4   5
ATOM      5  C   UNL     1      19.170 -41.992 -22.946  1.00  0.00     0.000 C 
BRANCH   5   6
ATOM      6  C   UNL     1      17.816 -41.602 -23.568  1.00  0.00     0.000 C 
BRANCH   6   7
ATOM      7  C   UNL     1      16.607 -41.686 -22.614  1.00  0.00     0.000 C 
BRANCH   7   8
ATOM      8  C   UNL     1      15.491 -42.650 -23.055  1.00  0.00     0.000 C 
BRANCH   8   9
ATOM      9  C   UNL     1      15.965 -44.105 -23.182  1.00  0.00     0.000 C 
BRANCH   9  10
ATOM     10  C   UNL     1      16.821 -44.507 -21.974  1.00  0.00     0.000 C 
BRANCH  10  11
ATOM     11  C   UNL     1      17.789 -45.640 -22.336  1.00  0.00     0.000 C 
BRANCH  11  12
ATOM     12  C   UNL     1      17.404 -46.943 -21.625  1.00  0.00     0.006 C 
BRANCH  12  13
ATOM     13  C   UNL     1      16.206 -47.608 -22.307  1.00  0.00     0.053 C 
BRANCH  13  14
ATOM     14  C   UNL     1      15.377 -48.357 -21.312  1.00  0.00     0.041 C 
ATOM     15  O   UNL     1      14.306 -47.856 -20.874  1.00  0.00    -0.550 OA
ATOM     16  O   UNL     1      15.775 -49.617 -20.881  1.00  0.00    -0.550 OA
ENDBRANCH  13  14
ENDBRANCH  12  13
ENDBRANCH  11  12
ENDBRANCH  10  11
ENDBRANCH   9  10
ENDBRANCH   8   9
ENDBRANCH   7   8
ENDBRANCH   6   7
ENDBRANCH   5   6
ENDBRANCH   4   5
ENDBRANCH   3   4
ENDBRANCH   2   3
ENDBRANCH   1   2
BRANCH   1  17
ATOM     17  C   UNL     1      18.421 -45.466 -26.941  1.00  0.00     0.000 C 
BRANCH  17  18
ATOM     18  C   UNL     1      17.292 -45.018 -27.888  1.00  0.00     0.000 C 
BRANCH  18  19
ATOM     19  C   UNL     1      17.291 -45.772 -29.227  1.00  0.00     0.000 C 
BRANCH  19  20
ATOM     20  C   UNL     1      17.664 -47.248 -29.024  1.00  0.00     0.000 C 
BRANCH  20  21
ATOM     21  C   UNL     1      17.921 -47.975 -30.353  1.00  0.00     0.000 C 
BRANCH  21  22
ATOM     22  C   UNL     1      19.286 -47.616 -30.965  1.00  0.00    -0.000 C 
BRANCH  22  23
ATOM     23  C   UNL     1      19.268 -47.671 -32.507  1.00  0.00    -0.000 C 
BRANCH  23  24
ATOM     24  C   UNL     1      20.255 -48.690 -33.102  1.00  0.00    -0.000 C 
BRANCH  24  25
ATOM     25  C   UNL     1      20.140 -50.082 -32.464  1.00  0.00    -0.000 C 
BRANCH  25  26
ATOM     26  C   UNL     1      20.824 -51.145 -33.332  1.00  0.00    -0.000 C 
BRANCH  26  27
ATOM     27  C   UNL     1      20.695 -52.537 -32.701  1.00  0.00    -0.000 C 
BRANCH  27  28
ATOM     28  C   UNL     1      19.467 -53.279 -33.249  1.00  0.00    -0.000 C 
BRANCH  28  29
ATOM     29  C   UNL     1      19.816 -54.671 -33.798  1.00  0.00    -0.003 C 
ATOM     30  C   UNL     1      21.250 -54.757 -34.319  1.00  0.00     0.004 C 
ENDBRANCH  28  29
ENDBRANCH  27  28
ENDBRANCH  26  27
ENDBRANCH  25  26
ENDBRANCH  24  25
ENDBRANCH  23  24
ENDBRANCH  22  23
ENDBRANCH  21  22
ENDBRANCH  20  21
ENDBRANCH  19  20
ENDBRANCH  18  19
ENDBRANCH  17  18
ENDBRANCH   1  17
TORSDOF 26
ENDMDL
