MODEL 1
REMARK VINA RESULT:    -4.577      0.000      0.000
REMARK INTER + INTRA:          -6.283
REMARK INTER:                  -6.183
REMARK INTRA:                  -0.100
REMARK UNBOUND:                -0.100
REMARK SMILES [NH3+]CCCC[C@H]([NH3+])C(=O)[O-]
REMARK SMILES IDX 4 1 3 2 2 3 1 4 5 8 6 9 7 10 8 14 9 15 10 16
REMARK H PARENT 1 5 1 6 1 7 7 11 7 12 7 13
REMARK Flexibility Score: inf
ROOT
ATOM      1  C   UNL     1       3.793  -3.223 -22.070  1.00  0.00     0.012 C 
ENDROOT
BRANCH   1   2
ATOM      2  C   UNL     1       3.945  -4.696 -21.659  1.00  0.00     0.061 C 
BRANCH   2   3
ATOM      3  C   UNL     1       4.266  -5.615 -22.849  1.00  0.00     0.258 C 
BRANCH   3   4
ATOM      4  N   UNL     1       3.678  -6.940 -22.656  1.00  0.00    -0.358 N 
ATOM      5  H   UNL     1       2.635  -6.871 -22.637  1.00  0.00     0.344 HD
ATOM      6  H   UNL     1       3.959  -7.558 -23.452  1.00  0.00     0.344 HD
ATOM      7  H   UNL     1       4.023  -7.360 -21.763  1.00  0.00     0.344 HD
ENDBRANCH   3   4
ENDBRANCH   2   3
ENDBRANCH   1   2
BRANCH   1   8
ATOM      8  C   UNL     1       2.349  -2.864 -22.465  1.00  0.00     0.072 C 
BRANCH   8   9
ATOM      9  C   UNL     1       1.842  -1.601 -21.734  1.00  0.00     0.227 C 
BRANCH   9  10
ATOM     10  N   UNL     1       0.526  -1.852 -21.133  1.00  0.00    -0.350 N 
ATOM     11  H   UNL     1       0.283  -1.077 -20.473  1.00  0.00     0.345 HD
ATOM     12  H   UNL     1       0.547  -2.745 -20.592  1.00  0.00     0.345 HD
ATOM     13  H   UNL     1      -0.211  -1.917 -21.873  1.00  0.00     0.345 HD
ENDBRANCH   9  10
BRANCH   9  14
ATOM     14  C   UNL     1       1.762  -0.426 -22.673  1.00  0.00     0.099 C 
ATOM     15  O   UNL     1       2.753  -0.116 -23.386  1.00  0.00    -0.544 OA
ATOM     16  O   UNL     1       0.595   0.325 -22.759  1.00  0.00    -0.544 OA
ENDBRANCH   9  14
ENDBRANCH   8   9
ENDBRANCH   1   8
TORSDOF 7
ENDMDL
MODEL 2
REMARK VINA RESULT:    -4.255      3.009      5.242
REMARK INTER + INTRA:          -5.848
REMARK INTER:                  -5.724
REMARK INTRA:                  -0.123
REMARK UNBOUND:                -0.100
REMARK SMILES [NH3+]CCCC[C@H]([NH3+])C(=O)[O-]
REMARK SMILES IDX 4 1 3 2 2 3 1 4 5 8 6 9 7 10 8 14 9 15 10 16
REMARK H PARENT 1 5 1 6 1 7 7 11 7 12 7 13
REMARK Flexibility Score: inf
ROOT
ATOM      1  C   UNL     1       2.580  -3.149 -22.146  1.00  0.00     0.012 C 
ENDROOT
BRANCH   1   2
ATOM      2  C   UNL     1       2.535  -1.762 -22.806  1.00  0.00     0.061 C 
BRANCH   2   3
ATOM      3  C   UNL     1       1.576  -0.795 -22.095  1.00  0.00     0.258 C 
BRANCH   3   4
ATOM      4  N   UNL     1       0.531  -1.528 -21.382  1.00  0.00    -0.358 N 
ATOM      5  H   UNL     1       0.930  -2.392 -20.947  1.00  0.00     0.344 HD
ATOM      6  H   UNL     1       0.140  -0.920 -20.626  1.00  0.00     0.344 HD
ATOM      7  H   UNL     1      -0.239  -1.786 -22.040  1.00  0.00     0.344 HD
ENDBRANCH   3   4
ENDBRANCH   2   3
ENDBRANCH   1   2
BRANCH   1   8
ATOM      8  C   UNL     1       4.014  -3.686 -21.991  1.00  0.00     0.072 C 
BRANCH   8   9
ATOM      9  C   UNL     1       4.050  -5.226 -21.869  1.00  0.00     0.227 C 
BRANCH   9  10
ATOM     10  N   UNL     1       5.202  -5.649 -21.064  1.00  0.00    -0.350 N 
ATOM     11  H   UNL     1       6.089  -5.457 -21.585  1.00  0.00     0.345 HD
ATOM     12  H   UNL     1       5.148  -6.676 -20.880  1.00  0.00     0.345 HD
ATOM     13  H   UNL     1       5.222  -5.139 -20.151  1.00  0.00     0.345 HD
ENDBRANCH   9  10
BRANCH   9  14
ATOM     14  C   UNL     1       4.106  -5.876 -23.227  1.00  0.00     0.099 C 
ATOM     15  O   UNL     1       4.611  -5.261 -24.203  1.00  0.00    -0.544 OA
ATOM     16  O   UNL     1       3.602  -7.159 -23.412  1.00  0.00    -0.544 OA
ENDBRANCH   9  14
ENDBRANCH   8   9
ENDBRANCH   1   8
TORSDOF 7
ENDMDL
MODEL 3
REMARK VINA RESULT:    -4.158      8.987      9.770
REMARK INTER + INTRA:          -5.716
REMARK INTER:                  -5.621
REMARK INTRA:                  -0.095
REMARK UNBOUND:                -0.100
REMARK SMILES [NH3+]CCCC[C@H]([NH3+])C(=O)[O-]
REMARK SMILES IDX 4 1 3 2 2 3 1 4 5 8 6 9 7 10 8 14 9 15 10 16
REMARK H PARENT 1 5 1 6 1 7 7 11 7 12 7 13
REMARK Flexibility Score: inf
ROOT
ATOM      1  C   UNL     1      -2.793   4.212 -23.518  1.00  0.00     0.012 C 
ENDROOT
BRANCH   1   2
ATOM      2  C   UNL     1      -1.278   4.450 -23.615  1.00  0.00     0.061 C 
BRANCH   2   3
ATOM      3  C   UNL     1      -0.927   5.886 -24.034  1.00  0.00     0.258 C 
BRANCH   3   4
ATOM      4  N   UNL     1      -0.548   6.690 -22.873  1.00  0.00    -0.358 N 
ATOM      5  H   UNL     1      -0.666   7.707 -23.084  1.00  0.00     0.344 HD
ATOM      6  H   UNL     1      -1.166   6.439 -22.067  1.00  0.00     0.344 HD
ATOM      7  H   UNL     1       0.445   6.495 -22.610  1.00  0.00     0.344 HD
ENDBRANCH   3   4
ENDBRANCH   2   3
ENDBRANCH   1   2
BRANCH   1   8
ATOM      8  C   UNL     1      -3.150   3.032 -22.596  1.00  0.00     0.072 C 
BRANCH   8   9
ATOM      9  C   UNL     1      -4.290   3.384 -21.615  1.00  0.00     0.227 C 
BRANCH   9  10
ATOM     10  N   UNL     1      -3.908   3.038 -20.240  1.00  0.00    -0.350 N 
ATOM     11  H   UNL     1      -4.586   2.343 -19.848  1.00  0.00     0.345 HD
ATOM     12  H   UNL     1      -3.933   3.892 -19.639  1.00  0.00     0.345 HD
ATOM     13  H   UNL     1      -2.945   2.630 -20.216  1.00  0.00     0.345 HD
ENDBRANCH   9  10
BRANCH   9  14
ATOM     14  C   UNL     1      -5.566   2.674 -21.988  1.00  0.00     0.099 C 
ATOM     15  O   UNL     1      -6.342   3.175 -22.843  1.00  0.00    -0.544 OA
ATOM     16  O   UNL     1      -5.894   1.462 -21.391  1.00  0.00    -0.544 OA
ENDBRANCH   9  14
ENDBRANCH   8   9
ENDBRANCH   1   8
TORSDOF 7
ENDMDL
MODEL 4
REMARK VINA RESULT:    -3.896      9.013      9.813
REMARK INTER + INTRA:          -5.363
REMARK INTER:                  -5.241
REMARK INTRA:                  -0.122
REMARK UNBOUND:                -0.100
REMARK SMILES [NH3+]CCCC[C@H]([NH3+])C(=O)[O-]
REMARK SMILES IDX 4 1 3 2 2 3 1 4 5 8 6 9 7 10 8 14 9 15 10 16
REMARK H PARENT 1 5 1 6 1 7 7 11 7 12 7 13
REMARK Flexibility Score: inf
ROOT
ATOM      1  C   UNL     1      -2.971   3.910 -23.394  1.00  0.00     0.012 C 
ENDROOT
BRANCH   1   2
ATOM      2  C   UNL     1      -1.465   4.148 -23.585  1.00  0.00     0.061 C 
BRANCH   2   3
ATOM      3  C   UNL     1      -1.144   5.573 -24.064  1.00  0.00     0.258 C 
BRANCH   3   4
ATOM      4  N   UNL     1      -0.750   6.422 -22.941  1.00  0.00    -0.358 N 
ATOM      5  H   UNL     1      -0.804   5.885 -22.046  1.00  0.00     0.344 HD
ATOM      6  H   UNL     1       0.236   6.742 -23.082  1.00  0.00     0.344 HD
ATOM      7  H   UNL     1      -1.372   7.261 -22.889  1.00  0.00     0.344 HD
ENDBRANCH   3   4
ENDBRANCH   2   3
ENDBRANCH   1   2
BRANCH   1   8
ATOM      8  C   UNL     1      -3.274   2.896 -22.276  1.00  0.00     0.072 C 
BRANCH   8   9
ATOM      9  C   UNL     1      -4.323   3.430 -21.275  1.00  0.00     0.227 C 
BRANCH   9  10
ATOM     10  N   UNL     1      -4.275   2.661 -20.025  1.00  0.00    -0.350 N 
ATOM     11  H   UNL     1      -4.509   3.283 -19.216  1.00  0.00     0.345 HD
ATOM     12  H   UNL     1      -3.311   2.285 -19.877  1.00  0.00     0.345 HD
ATOM     13  H   UNL     1      -4.953   1.865 -20.054  1.00  0.00     0.345 HD
ENDBRANCH   9  10
BRANCH   9  14
ATOM     14  C   UNL     1      -5.710   3.372 -21.860  1.00  0.00     0.099 C 
ATOM     15  O   UNL     1      -6.230   2.261 -22.147  1.00  0.00    -0.544 OA
ATOM     16  O   UNL     1      -6.425   4.542 -22.086  1.00  0.00    -0.544 OA
ENDBRANCH   9  14
ENDBRANCH   8   9
ENDBRANCH   1   8
TORSDOF 7
ENDMDL
MODEL 5
REMARK VINA RESULT:    -3.888      6.818      8.505
REMARK INTER + INTRA:          -5.351
REMARK INTER:                  -5.202
REMARK INTRA:                  -0.149
REMARK UNBOUND:                -0.100
REMARK SMILES [NH3+]CCCC[C@H]([NH3+])C(=O)[O-]
REMARK SMILES IDX 4 1 3 2 2 3 1 4 5 8 6 9 7 10 8 14 9 15 10 16
REMARK H PARENT 1 5 1 6 1 7 7 11 7 12 7 13
REMARK Flexibility Score: inf
ROOT
ATOM      1  C   UNL     1      -2.237   3.367 -22.827  1.00  0.00     0.012 C 
ENDROOT
BRANCH   1   2
ATOM      2  C   UNL     1      -1.627   2.655 -24.045  1.00  0.00     0.061 C 
BRANCH   2   3
ATOM      3  C   UNL     1      -0.857   1.380 -23.664  1.00  0.00     0.258 C 
BRANCH   3   4
ATOM      4  N   UNL     1      -1.650   0.541 -22.768  1.00  0.00    -0.358 N 
ATOM      5  H   UNL     1      -1.759   1.008 -21.839  1.00  0.00     0.344 HD
ATOM      6  H   UNL     1      -2.599   0.396 -23.185  1.00  0.00     0.344 HD
ATOM      7  H   UNL     1      -1.189  -0.390 -22.646  1.00  0.00     0.344 HD
ENDBRANCH   3   4
ENDBRANCH   2   3
ENDBRANCH   1   2
BRANCH   1   8
ATOM      8  C   UNL     1      -3.724   3.711 -23.024  1.00  0.00     0.072 C 
BRANCH   8   9
ATOM      9  C   UNL     1      -4.540   3.533 -21.725  1.00  0.00     0.227 C 
BRANCH   9  10
ATOM     10  N   UNL     1      -3.670   3.080 -20.632  1.00  0.00    -0.350 N 
ATOM     11  H   UNL     1      -4.245   2.878 -19.781  1.00  0.00     0.345 HD
ATOM     12  H   UNL     1      -2.984   3.830 -20.391  1.00  0.00     0.345 HD
ATOM     13  H   UNL     1      -3.150   2.215 -20.908  1.00  0.00     0.345 HD
ENDBRANCH   9  10
BRANCH   9  14
ATOM     14  C   UNL     1      -5.668   2.553 -21.922  1.00  0.00     0.099 C 
ATOM     15  O   UNL     1      -5.693   1.476 -21.271  1.00  0.00    -0.544 OA
ATOM     16  O   UNL     1      -6.689   2.832 -22.824  1.00  0.00    -0.544 OA
ENDBRANCH   9  14
ENDBRANCH   8   9
ENDBRANCH   1   8
TORSDOF 7
ENDMDL
MODEL 6
REMARK VINA RESULT:    -3.681      8.900     10.462
REMARK INTER + INTRA:          -5.072
REMARK INTER:                  -4.961
REMARK INTRA:                  -0.111
REMARK UNBOUND:                -0.100
REMARK SMILES [NH3+]CCCC[C@H]([NH3+])C(=O)[O-]
REMARK SMILES IDX 4 1 3 2 2 3 1 4 5 8 6 9 7 10 8 14 9 15 10 16
REMARK H PARENT 1 5 1 6 1 7 7 11 7 12 7 13
REMARK Flexibility Score: inf
ROOT
ATOM      1  C   UNL     1      -6.701   2.178 -22.422  1.00  0.00     0.012 C 
ENDROOT
BRANCH   1   2
ATOM      2  C   UNL     1      -7.831   2.792 -23.264  1.00  0.00     0.061 C 
BRANCH   2   3
ATOM      3  C   UNL     1      -7.764   2.376 -24.742  1.00  0.00     0.258 C 
BRANCH   3   4
ATOM      4  N   UNL     1      -8.453   1.104 -24.957  1.00  0.00    -0.358 N 
ATOM      5  H   UNL     1      -8.289   0.767 -25.933  1.00  0.00     0.344 HD
ATOM      6  H   UNL     1      -8.077   0.394 -24.287  1.00  0.00     0.344 HD
ATOM      7  H   UNL     1      -9.478   1.218 -24.788  1.00  0.00     0.344 HD
ENDBRANCH   3   4
ENDBRANCH   2   3
ENDBRANCH   1   2
BRANCH   1   8
ATOM      8  C   UNL     1      -5.805   3.244 -21.766  1.00  0.00     0.072 C 
BRANCH   8   9
ATOM      9  C   UNL     1      -4.333   2.785 -21.663  1.00  0.00     0.227 C 
BRANCH   9  10
ATOM     10  N   UNL     1      -3.814   3.029 -20.312  1.00  0.00    -0.350 N 
ATOM     11  H   UNL     1      -3.186   3.867 -20.319  1.00  0.00     0.345 HD
ATOM     12  H   UNL     1      -3.255   2.206 -19.993  1.00  0.00     0.345 HD
ATOM     13  H   UNL     1      -4.598   3.192 -19.639  1.00  0.00     0.345 HD
ENDBRANCH   9  10
BRANCH   9  14
ATOM     14  C   UNL     1      -3.473   3.490 -22.679  1.00  0.00     0.099 C 
ATOM     15  O   UNL     1      -3.994   4.274 -23.515  1.00  0.00    -0.544 OA
ATOM     16  O   UNL     1      -2.098   3.280 -22.700  1.00  0.00    -0.544 OA
ENDBRANCH   9  14
ENDBRANCH   8   9
ENDBRANCH   1   8
TORSDOF 7
ENDMDL
MODEL 7
REMARK VINA RESULT:    -3.671      8.785     11.049
REMARK INTER + INTRA:          -5.059
REMARK INTER:                  -4.697
REMARK INTRA:                  -0.362
REMARK UNBOUND:                -0.100
REMARK SMILES [NH3+]CCCC[C@H]([NH3+])C(=O)[O-]
REMARK SMILES IDX 4 1 3 2 2 3 1 4 5 8 6 9 7 10 8 14 9 15 10 16
REMARK H PARENT 1 5 1 6 1 7 7 11 7 12 7 13
REMARK Flexibility Score: inf
ROOT
ATOM      1  C   UNL     1      -6.118   4.256 -21.359  1.00  0.00     0.012 C 
ENDROOT
BRANCH   1   2
ATOM      2  C   UNL     1      -7.224   4.990 -22.133  1.00  0.00     0.061 C 
BRANCH   2   3
ATOM      3  C   UNL     1      -6.866   6.454 -22.437  1.00  0.00     0.258 C 
BRANCH   3   4
ATOM      4  N   UNL     1      -5.754   6.532 -23.383  1.00  0.00    -0.358 N 
ATOM      5  H   UNL     1      -5.046   5.793 -23.169  1.00  0.00     0.344 HD
ATOM      6  H   UNL     1      -6.118   6.379 -24.352  1.00  0.00     0.344 HD
ATOM      7  H   UNL     1      -5.307   7.476 -23.335  1.00  0.00     0.344 HD
ENDBRANCH   3   4
ENDBRANCH   2   3
ENDBRANCH   1   2
BRANCH   1   8
ATOM      8  C   UNL     1      -5.621   2.994 -22.088  1.00  0.00     0.072 C 
BRANCH   8   9
ATOM      9  C   UNL     1      -4.126   2.714 -21.815  1.00  0.00     0.227 C 
BRANCH   9  10
ATOM     10  N   UNL     1      -3.774   3.108 -20.446  1.00  0.00    -0.350 N 
ATOM     11  H   UNL     1      -4.571   3.626 -20.009  1.00  0.00     0.345 HD
ATOM     12  H   UNL     1      -2.943   3.742 -20.461  1.00  0.00     0.345 HD
ATOM     13  H   UNL     1      -3.551   2.267 -19.865  1.00  0.00     0.345 HD
ENDBRANCH   9  10
BRANCH   9  14
ATOM     14  C   UNL     1      -3.249   3.442 -22.800  1.00  0.00     0.099 C 
ATOM     15  O   UNL     1      -1.996   3.339 -22.730  1.00  0.00    -0.544 OA
ATOM     16  O   UNL     1      -3.816   4.232 -23.794  1.00  0.00    -0.544 OA
ENDBRANCH   9  14
ENDBRANCH   8   9
ENDBRANCH   1   8
TORSDOF 7
ENDMDL
MODEL 8
REMARK VINA RESULT:    -3.624      6.272      8.764
REMARK INTER + INTRA:          -4.995
REMARK INTER:                  -4.851
REMARK INTRA:                  -0.143
REMARK UNBOUND:                -0.100
REMARK SMILES [NH3+]CCCC[C@H]([NH3+])C(=O)[O-]
REMARK SMILES IDX 4 1 3 2 2 3 1 4 5 8 6 9 7 10 8 14 9 15 10 16
REMARK H PARENT 1 5 1 6 1 7 7 11 7 12 7 13
REMARK Flexibility Score: inf
ROOT
ATOM      1  C   UNL     1      -1.590   4.756 -24.472  1.00  0.00     0.012 C 
ENDROOT
BRANCH   1   2
ATOM      2  C   UNL     1      -0.482   5.642 -25.063  1.00  0.00     0.061 C 
BRANCH   2   3
ATOM      3  C   UNL     1      -0.317   6.970 -24.307  1.00  0.00     0.258 C 
BRANCH   3   4
ATOM      4  N   UNL     1      -0.530   6.783 -22.873  1.00  0.00    -0.358 N 
ATOM      5  H   UNL     1      -1.314   6.111 -22.710  1.00  0.00     0.344 HD
ATOM      6  H   UNL     1       0.342   6.394 -22.445  1.00  0.00     0.344 HD
ATOM      7  H   UNL     1      -0.749   7.700 -22.419  1.00  0.00     0.344 HD
ENDBRANCH   3   4
ENDBRANCH   2   3
ENDBRANCH   1   2
BRANCH   1   8
ATOM      8  C   UNL     1      -1.462   3.282 -24.900  1.00  0.00     0.072 C 
BRANCH   8   9
ATOM      9  C   UNL     1      -1.592   2.314 -23.703  1.00  0.00     0.227 C 
BRANCH   9  10
ATOM     10  N   UNL     1      -1.533   3.055 -22.437  1.00  0.00    -0.350 N 
ATOM     11  H   UNL     1      -1.840   4.044 -22.590  1.00  0.00     0.345 HD
ATOM     12  H   UNL     1      -0.550   3.071 -22.081  1.00  0.00     0.345 HD
ATOM     13  H   UNL     1      -2.150   2.610 -21.720  1.00  0.00     0.345 HD
ENDBRANCH   9  10
BRANCH   9  14
ATOM     14  C   UNL     1      -0.511   1.265 -23.735  1.00  0.00     0.099 C 
ATOM     15  O   UNL     1      -0.400   0.442 -22.789  1.00  0.00    -0.544 OA
ATOM     16  O   UNL     1       0.370   1.198 -24.809  1.00  0.00    -0.544 OA
ENDBRANCH   9  14
ENDBRANCH   8   9
ENDBRANCH   1   8
TORSDOF 7
ENDMDL
MODEL 9
REMARK VINA RESULT:    -3.532      9.480     10.891
REMARK INTER + INTRA:          -4.870
REMARK INTER:                  -4.391
REMARK INTRA:                  -0.479
REMARK UNBOUND:                -0.100
REMARK SMILES [NH3+]CCCC[C@H]([NH3+])C(=O)[O-]
REMARK SMILES IDX 4 1 3 2 2 3 1 4 5 8 6 9 7 10 8 14 9 15 10 16
REMARK H PARENT 1 5 1 6 1 7 7 11 7 12 7 13
REMARK Flexibility Score: inf
ROOT
ATOM      1  C   UNL     1      -6.198   4.843 -22.486  1.00  0.00     0.012 C 
ENDROOT
BRANCH   1   2
ATOM      2  C   UNL     1      -7.550   4.244 -22.904  1.00  0.00     0.061 C 
BRANCH   2   3
ATOM      3  C   UNL     1      -7.415   3.187 -24.012  1.00  0.00     0.258 C 
BRANCH   3   4
ATOM      4  N   UNL     1      -7.846   1.874 -23.534  1.00  0.00    -0.358 N 
ATOM      5  H   UNL     1      -7.244   1.565 -22.737  1.00  0.00     0.344 HD
ATOM      6  H   UNL     1      -8.837   1.939 -23.203  1.00  0.00     0.344 HD
ATOM      7  H   UNL     1      -7.794   1.175 -24.310  1.00  0.00     0.344 HD
ENDBRANCH   3   4
ENDBRANCH   2   3
ENDBRANCH   1   2
BRANCH   1   8
ATOM      8  C   UNL     1      -5.017   3.893 -22.761  1.00  0.00     0.072 C 
BRANCH   8   9
ATOM      9  C   UNL     1      -4.268   3.506 -21.466  1.00  0.00     0.227 C 
BRANCH   9  10
ATOM     10  N   UNL     1      -2.895   3.090 -21.775  1.00  0.00    -0.350 N 
ATOM     11  H   UNL     1      -2.289   3.934 -21.903  1.00  0.00     0.345 HD
ATOM     12  H   UNL     1      -2.881   2.542 -22.665  1.00  0.00     0.345 HD
ATOM     13  H   UNL     1      -2.505   2.501 -21.004  1.00  0.00     0.345 HD
ENDBRANCH   9  10
BRANCH   9  14
ATOM     14  C   UNL     1      -4.987   2.403 -20.734  1.00  0.00     0.099 C 
ATOM     15  O   UNL     1      -5.666   1.557 -21.372  1.00  0.00    -0.544 OA
ATOM     16  O   UNL     1      -4.903   2.311 -19.349  1.00  0.00    -0.544 OA
ENDBRANCH   9  14
ENDBRANCH   8   9
ENDBRANCH   1   8
TORSDOF 7
ENDMDL
