MODEL 1
REMARK VINA RESULT:    -5.683      0.000      0.000
REMARK INTER + INTRA:          -6.955
REMARK INTER:                  -6.680
REMARK INTRA:                  -0.275
REMARK UNBOUND:                -0.275
REMARK SMILES O=c1cc(-c2ccc(O)c(O)c2)oc2cc(O)cc(O)c12
REMARK SMILES IDX 4 1 3 2 2 3 1 4 21 5 19 6 18 7 16 8 15 9 14 10 13 11 5 12
REMARK SMILES IDX 6 13 7 14 8 15 12 16 10 17 9 18 11 20 20 22 17 24
REMARK H PARENT 9 19 11 21 20 23 17 25
REMARK Flexibility Score: inf
ROOT
ATOM      1  C   UNL     1      25.230  -8.753   6.446  1.00  0.00     0.138 A 
ATOM      2  C   UNL     1      25.059  -9.838   7.317  1.00  0.00     0.100 A 
ATOM      3  C   UNL     1      25.368 -11.127   6.883  1.00  0.00     0.197 A 
ATOM      4  O   UNL     1      25.263 -12.072   7.706  1.00  0.00    -0.289 OA
ATOM      5  C   UNL     1      25.819 -11.334   5.557  1.00  0.00     0.107 A 
ATOM      6  C   UNL     1      26.124 -12.608   4.992  1.00  0.00     0.134 A 
ATOM      7  C   UNL     1      26.674 -12.679   3.706  1.00  0.00     0.093 A 
ATOM      8  C   UNL     1      26.874 -11.526   2.942  1.00  0.00     0.123 A 
ATOM      9  C   UNL     1      26.529 -10.282   3.466  1.00  0.00     0.094 A 
ATOM     10  C   UNL     1      26.010 -10.176   4.758  1.00  0.00     0.146 A 
ATOM     11  O   UNL     1      25.708  -8.968   5.224  1.00  0.00    -0.456 OA
ENDROOT
BRANCH   1  12
ATOM     12  C   UNL     1      24.917  -7.360   6.857  1.00  0.00     0.021 A 
ATOM     13  C   UNL     1      25.865  -6.346   6.636  1.00  0.00     0.016 A 
ATOM     14  C   UNL     1      25.591  -5.026   7.007  1.00  0.00     0.051 A 
ATOM     15  C   UNL     1      24.366  -4.696   7.592  1.00  0.00     0.157 A 
ATOM     16  C   UNL     1      23.679  -7.020   7.434  1.00  0.00     0.062 A 
ATOM     17  C   UNL     1      23.403  -5.695   7.804  1.00  0.00     0.158 A 
BRANCH  15  18
ATOM     18  O   UNL     1      24.123  -3.371   7.952  1.00  0.00    -0.504 OA
ATOM     19  H   UNL     1      23.478  -3.124   8.692  1.00  0.00     0.293 HD
ENDBRANCH  15  18
BRANCH  17  20
ATOM     20  O   UNL     1      22.175  -5.369   8.377  1.00  0.00    -0.504 OA
ATOM     21  H   UNL     1      21.445  -6.061   8.498  1.00  0.00     0.293 HD
ENDBRANCH  17  20
ENDBRANCH   1  12
BRANCH   6  22
ATOM     22  O   UNL     1      25.884 -13.826   5.636  1.00  0.00    -0.507 OA
ATOM     23  H   UNL     1      26.596 -14.492   5.893  1.00  0.00     0.293 HD
ENDBRANCH   6  22
BRANCH   8  24
ATOM     24  O   UNL     1      27.408 -11.608   1.659  1.00  0.00    -0.508 OA
ATOM     25  H   UNL     1      27.934 -12.418   1.354  1.00  0.00     0.293 HD
ENDBRANCH   8  24
TORSDOF 5
ENDMDL
MODEL 2
REMARK VINA RESULT:    -5.631      2.212      3.955
REMARK INTER + INTRA:          -6.894
REMARK INTER:                  -6.578
REMARK INTRA:                  -0.316
REMARK UNBOUND:                -0.275
REMARK SMILES O=c1cc(-c2ccc(O)c(O)c2)oc2cc(O)cc(O)c12
REMARK SMILES IDX 4 1 3 2 2 3 1 4 21 5 19 6 18 7 16 8 15 9 14 10 13 11 5 12
REMARK SMILES IDX 6 13 7 14 8 15 12 16 10 17 9 18 11 20 20 22 17 24
REMARK H PARENT 9 19 11 21 20 23 17 25
REMARK Flexibility Score: inf
ROOT
ATOM      1  C   UNL     1      26.594  -7.792   6.279  1.00  0.00     0.138 A 
ATOM      2  C   UNL     1      27.131  -8.758   5.417  1.00  0.00     0.100 A 
ATOM      3  C   UNL     1      26.730 -10.089   5.536  1.00  0.00     0.197 A 
ATOM      4  O   UNL     1      27.182 -10.922   4.708  1.00  0.00    -0.289 OA
ATOM      5  C   UNL     1      25.811 -10.460   6.547  1.00  0.00     0.107 A 
ATOM      6  C   UNL     1      25.363 -11.792   6.789  1.00  0.00     0.134 A 
ATOM      7  C   UNL     1      24.362 -12.021   7.741  1.00  0.00     0.093 A 
ATOM      8  C   UNL     1      23.838 -10.974   8.503  1.00  0.00     0.123 A 
ATOM      9  C   UNL     1      24.308  -9.677   8.312  1.00  0.00     0.094 A 
ATOM     10  C   UNL     1      25.281  -9.411   7.345  1.00  0.00     0.146 A 
ATOM     11  O   UNL     1      25.691  -8.157   7.184  1.00  0.00    -0.456 OA
ENDROOT
BRANCH   1  12
ATOM     12  C   UNL     1      26.986  -6.362   6.196  1.00  0.00     0.021 A 
ATOM     13  C   UNL     1      28.076  -5.990   5.391  1.00  0.00     0.016 A 
ATOM     14  C   UNL     1      28.459  -4.650   5.291  1.00  0.00     0.051 A 
ATOM     15  C   UNL     1      27.755  -3.659   5.981  1.00  0.00     0.157 A 
ATOM     16  C   UNL     1      26.271  -5.359   6.879  1.00  0.00     0.062 A 
ATOM     17  C   UNL     1      26.654  -4.013   6.776  1.00  0.00     0.158 A 
BRANCH  15  18
ATOM     18  O   UNL     1      28.163  -2.331   5.861  1.00  0.00    -0.504 OA
ATOM     19  H   UNL     1      27.701  -1.580   6.359  1.00  0.00     0.293 HD
ENDBRANCH  15  18
BRANCH  17  20
ATOM     20  O   UNL     1      25.941  -3.028   7.458  1.00  0.00    -0.504 OA
ATOM     21  H   UNL     1      26.366  -2.477   8.194  1.00  0.00     0.293 HD
ENDBRANCH  17  20
ENDBRANCH   1  12
BRANCH   6  22
ATOM     22  O   UNL     1      25.881 -12.920   6.144  1.00  0.00    -0.507 OA
ATOM     23  H   UNL     1      26.855 -13.178   6.128  1.00  0.00     0.293 HD
ENDBRANCH   6  22
BRANCH   8  24
ATOM     24  O   UNL     1      22.854 -11.214   9.459  1.00  0.00    -0.508 OA
ATOM     25  H   UNL     1      22.538 -10.486  10.089  1.00  0.00     0.293 HD
ENDBRANCH   8  24
TORSDOF 5
ENDMDL
MODEL 3
REMARK VINA RESULT:    -5.599      3.436      7.477
REMARK INTER + INTRA:          -6.856
REMARK INTER:                  -6.591
REMARK INTRA:                  -0.266
REMARK UNBOUND:                -0.275
REMARK SMILES O=c1cc(-c2ccc(O)c(O)c2)oc2cc(O)cc(O)c12
REMARK SMILES IDX 4 1 3 2 2 3 1 4 21 5 19 6 18 7 16 8 15 9 14 10 13 11 5 12
REMARK SMILES IDX 6 13 7 14 8 15 12 16 10 17 9 18 11 20 20 22 17 24
REMARK H PARENT 9 19 11 21 20 23 17 25
REMARK Flexibility Score: inf
ROOT
ATOM      1  C   UNL     1      24.373 -13.312   5.248  1.00  0.00     0.138 A 
ATOM      2  C   UNL     1      24.618 -13.033   3.897  1.00  0.00     0.100 A 
ATOM      3  C   UNL     1      25.323 -11.881   3.546  1.00  0.00     0.197 A 
ATOM      4  O   UNL     1      25.581 -11.689   2.330  1.00  0.00    -0.289 OA
ATOM      5  C   UNL     1      25.756 -10.986   4.554  1.00  0.00     0.107 A 
ATOM      6  C   UNL     1      26.445  -9.761   4.312  1.00  0.00     0.134 A 
ATOM      7  C   UNL     1      26.927  -9.015   5.395  1.00  0.00     0.093 A 
ATOM      8  C   UNL     1      26.692  -9.419   6.712  1.00  0.00     0.123 A 
ATOM      9  C   UNL     1      25.972 -10.586   6.958  1.00  0.00     0.094 A 
ATOM     10  C   UNL     1      25.508 -11.370   5.899  1.00  0.00     0.146 A 
ATOM     11  O   UNL     1      24.839 -12.484   6.178  1.00  0.00    -0.456 OA
ENDROOT
BRANCH   1  12
ATOM     12  C   UNL     1      23.629 -14.524   5.677  1.00  0.00     0.021 A 
ATOM     13  C   UNL     1      24.272 -15.773   5.654  1.00  0.00     0.016 A 
ATOM     14  C   UNL     1      23.596 -16.927   6.059  1.00  0.00     0.051 A 
ATOM     15  C   UNL     1      22.273 -16.852   6.504  1.00  0.00     0.157 A 
ATOM     16  C   UNL     1      22.301 -14.450   6.139  1.00  0.00     0.062 A 
ATOM     17  C   UNL     1      21.623 -15.609   6.548  1.00  0.00     0.158 A 
BRANCH  15  18
ATOM     18  O   UNL     1      21.625 -18.021   6.901  1.00  0.00    -0.504 OA
ATOM     19  H   UNL     1      20.656 -18.025   7.196  1.00  0.00     0.293 HD
ENDBRANCH  15  18
BRANCH  17  20
ATOM     20  O   UNL     1      20.307 -15.526   7.002  1.00  0.00    -0.504 OA
ATOM     21  H   UNL     1      20.027 -15.912   7.895  1.00  0.00     0.293 HD
ENDBRANCH  17  20
ENDBRANCH   1  12
BRANCH   6  22
ATOM     22  O   UNL     1      26.660  -9.224   3.039  1.00  0.00    -0.507 OA
ATOM     23  H   UNL     1      25.976  -8.706   2.509  1.00  0.00     0.293 HD
ENDBRANCH   6  22
BRANCH   8  24
ATOM     24  O   UNL     1      27.162  -8.663   7.782  1.00  0.00    -0.508 OA
ATOM     25  H   UNL     1      28.138  -8.679   8.055  1.00  0.00     0.293 HD
ENDBRANCH   8  24
TORSDOF 5
ENDMDL
MODEL 4
REMARK VINA RESULT:    -5.569      1.420      7.211
REMARK INTER + INTRA:          -6.821
REMARK INTER:                  -6.513
REMARK INTRA:                  -0.308
REMARK UNBOUND:                -0.275
REMARK SMILES O=c1cc(-c2ccc(O)c(O)c2)oc2cc(O)cc(O)c12
REMARK SMILES IDX 4 1 3 2 2 3 1 4 21 5 19 6 18 7 16 8 15 9 14 10 13 11 5 12
REMARK SMILES IDX 6 13 7 14 8 15 12 16 10 17 9 18 11 20 20 22 17 24
REMARK H PARENT 9 19 11 21 20 23 17 25
REMARK Flexibility Score: inf
ROOT
ATOM      1  C   UNL     1      26.199  -8.865   5.523  1.00  0.00     0.138 A 
ATOM      2  C   UNL     1      27.219  -7.935   5.284  1.00  0.00     0.100 A 
ATOM      3  C   UNL     1      27.058  -6.612   5.697  1.00  0.00     0.197 A 
ATOM      4  O   UNL     1      28.015  -5.814   5.524  1.00  0.00    -0.289 OA
ATOM      5  C   UNL     1      25.853  -6.212   6.325  1.00  0.00     0.107 A 
ATOM      6  C   UNL     1      25.561  -4.882   6.750  1.00  0.00     0.134 A 
ATOM      7  C   UNL     1      24.384  -4.630   7.465  1.00  0.00     0.093 A 
ATOM      8  C   UNL     1      23.460  -5.647   7.717  1.00  0.00     0.123 A 
ATOM      9  C   UNL     1      23.712  -6.938   7.258  1.00  0.00     0.094 A 
ATOM     10  C   UNL     1      24.893  -7.229   6.572  1.00  0.00     0.146 A 
ATOM     11  O   UNL     1      25.101  -8.477   6.164  1.00  0.00    -0.456 OA
ENDROOT
BRANCH   1  12
ATOM     12  C   UNL     1      26.318 -10.285   5.105  1.00  0.00     0.021 A 
ATOM     13  C   UNL     1      27.143 -10.618   4.017  1.00  0.00     0.016 A 
ATOM     14  C   UNL     1      27.278 -11.948   3.609  1.00  0.00     0.051 A 
ATOM     15  C   UNL     1      26.602 -12.967   4.285  1.00  0.00     0.157 A 
ATOM     16  C   UNL     1      25.650 -11.317   5.792  1.00  0.00     0.062 A 
ATOM     17  C   UNL     1      25.787 -12.653   5.383  1.00  0.00     0.158 A 
BRANCH  15  18
ATOM     18  O   UNL     1      26.755 -14.284   3.853  1.00  0.00    -0.504 OA
ATOM     19  H   UNL     1      27.350 -14.528   3.071  1.00  0.00     0.293 HD
ENDBRANCH  15  18
BRANCH  17  20
ATOM     20  O   UNL     1      25.119 -13.666   6.070  1.00  0.00    -0.504 OA
ATOM     21  H   UNL     1      25.614 -14.324   6.659  1.00  0.00     0.293 HD
ENDBRANCH  17  20
ENDBRANCH   1  12
BRANCH   6  22
ATOM     22  O   UNL     1      26.375  -3.778   6.477  1.00  0.00    -0.507 OA
ATOM     23  H   UNL     1      26.578  -3.037   7.129  1.00  0.00     0.293 HD
ENDBRANCH   6  22
BRANCH   8  24
ATOM     24  O   UNL     1      22.285  -5.383   8.416  1.00  0.00    -0.508 OA
ATOM     25  H   UNL     1      21.385  -5.357   7.951  1.00  0.00     0.293 HD
ENDBRANCH   8  24
TORSDOF 5
ENDMDL
MODEL 5
REMARK VINA RESULT:    -5.455      4.635      7.901
REMARK INTER + INTRA:          -6.687
REMARK INTER:                  -6.425
REMARK INTRA:                  -0.262
REMARK UNBOUND:                -0.275
REMARK SMILES O=c1cc(-c2ccc(O)c(O)c2)oc2cc(O)cc(O)c12
REMARK SMILES IDX 4 1 3 2 2 3 1 4 21 5 19 6 18 7 16 8 15 9 14 10 13 11 5 12
REMARK SMILES IDX 6 13 7 14 8 15 12 16 10 17 9 18 11 20 20 22 17 24
REMARK H PARENT 9 19 11 21 20 23 17 25
REMARK Flexibility Score: inf
ROOT
ATOM      1  C   UNL     1      25.896  -2.120   9.472  1.00  0.00     0.138 A 
ATOM      2  C   UNL     1      24.644  -2.272  10.084  1.00  0.00     0.100 A 
ATOM      3  C   UNL     1      23.770  -3.261   9.632  1.00  0.00     0.197 A 
ATOM      4  O   UNL     1      22.680  -3.414  10.241  1.00  0.00    -0.289 OA
ATOM      5  C   UNL     1      24.140  -4.081   8.538  1.00  0.00     0.107 A 
ATOM      6  C   UNL     1      23.313  -5.092   7.966  1.00  0.00     0.134 A 
ATOM      7  C   UNL     1      23.831  -5.919   6.961  1.00  0.00     0.093 A 
ATOM      8  C   UNL     1      25.125  -5.732   6.467  1.00  0.00     0.123 A 
ATOM      9  C   UNL     1      25.920  -4.711   6.983  1.00  0.00     0.094 A 
ATOM     10  C   UNL     1      25.444  -3.891   8.009  1.00  0.00     0.146 A 
ATOM     11  O   UNL     1      26.241  -2.939   8.483  1.00  0.00    -0.456 OA
ENDROOT
BRANCH   1  12
ATOM     12  C   UNL     1      26.864  -1.084   9.913  1.00  0.00     0.021 A 
ATOM     13  C   UNL     1      27.164  -0.009   9.059  1.00  0.00     0.016 A 
ATOM     14  C   UNL     1      28.066   0.982   9.454  1.00  0.00     0.051 A 
ATOM     15  C   UNL     1      28.675   0.924  10.711  1.00  0.00     0.157 A 
ATOM     16  C   UNL     1      27.470  -1.132  11.184  1.00  0.00     0.062 A 
ATOM     17  C   UNL     1      28.375  -0.135  11.582  1.00  0.00     0.158 A 
BRANCH  15  18
ATOM     18  O   UNL     1      29.572   1.927  11.076  1.00  0.00    -0.504 OA
ATOM     19  H   UNL     1      30.533   1.931  10.758  1.00  0.00     0.293 HD
ENDBRANCH  15  18
BRANCH  17  20
ATOM     20  O   UNL     1      28.971  -0.194  12.841  1.00  0.00    -0.504 OA
ATOM     21  H   UNL     1      29.075   0.632  13.418  1.00  0.00     0.293 HD
ENDBRANCH  17  20
ENDBRANCH   1  12
BRANCH   6  22
ATOM     22  O   UNL     1      21.980  -5.309   8.327  1.00  0.00    -0.507 OA
ATOM     23  H   UNL     1      21.675  -5.679   9.213  1.00  0.00     0.293 HD
ENDBRANCH   6  22
BRANCH   8  24
ATOM     24  O   UNL     1      25.625  -6.549   5.458  1.00  0.00    -0.508 OA
ATOM     25  H   UNL     1      25.442  -7.546   5.442  1.00  0.00     0.293 HD
ENDBRANCH   8  24
TORSDOF 5
ENDMDL
MODEL 6
REMARK VINA RESULT:    -5.424      3.563      7.674
REMARK INTER + INTRA:          -6.651
REMARK INTER:                  -6.339
REMARK INTRA:                  -0.312
REMARK UNBOUND:                -0.275
REMARK SMILES O=c1cc(-c2ccc(O)c(O)c2)oc2cc(O)cc(O)c12
REMARK SMILES IDX 4 1 3 2 2 3 1 4 21 5 19 6 18 7 16 8 15 9 14 10 13 11 5 12
REMARK SMILES IDX 6 13 7 14 8 15 12 16 10 17 9 18 11 20 20 22 17 24
REMARK H PARENT 9 19 11 21 20 23 17 25
REMARK Flexibility Score: inf
ROOT
ATOM      1  C   UNL     1      24.447 -11.801   2.679  1.00  0.00     0.138 A 
ATOM      2  C   UNL     1      24.899 -11.013   1.612  1.00  0.00     0.100 A 
ATOM      3  C   UNL     1      25.759  -9.942   1.861  1.00  0.00     0.197 A 
ATOM      4  O   UNL     1      26.197  -9.292   0.877  1.00  0.00    -0.289 OA
ATOM      5  C   UNL     1      26.142  -9.641   3.190  1.00  0.00     0.107 A 
ATOM      6  C   UNL     1      26.980  -8.550   3.566  1.00  0.00     0.134 A 
ATOM      7  C   UNL     1      27.386  -8.420   4.900  1.00  0.00     0.093 A 
ATOM      8  C   UNL     1      26.935  -9.306   5.882  1.00  0.00     0.123 A 
ATOM      9  C   UNL     1      26.073 -10.343   5.532  1.00  0.00     0.094 A 
ATOM     10  C   UNL     1      25.677 -10.520   4.204  1.00  0.00     0.146 A 
ATOM     11  O   UNL     1      24.866 -11.530   3.912  1.00  0.00    -0.456 OA
ENDROOT
BRANCH   1  12
ATOM     12  C   UNL     1      23.531 -12.951   2.472  1.00  0.00     0.021 A 
ATOM     13  C   UNL     1      22.765 -13.021   1.295  1.00  0.00     0.016 A 
ATOM     14  C   UNL     1      21.902 -14.097   1.073  1.00  0.00     0.051 A 
ATOM     15  C   UNL     1      21.797 -15.125   2.013  1.00  0.00     0.157 A 
ATOM     16  C   UNL     1      23.433 -13.997   3.410  1.00  0.00     0.062 A 
ATOM     17  C   UNL     1      22.567 -15.079   3.186  1.00  0.00     0.158 A 
BRANCH  15  18
ATOM     18  O   UNL     1      20.925 -16.185   1.764  1.00  0.00    -0.504 OA
ATOM     19  H   UNL     1      19.923 -16.056   1.708  1.00  0.00     0.293 HD
ENDBRANCH  15  18
BRANCH  17  20
ATOM     20  O   UNL     1      22.475 -16.107   4.123  1.00  0.00    -0.504 OA
ATOM     21  H   UNL     1      23.300 -16.558   4.499  1.00  0.00     0.293 HD
ENDBRANCH  17  20
ENDBRANCH   1  12
BRANCH   6  22
ATOM     22  O   UNL     1      27.419  -7.560   2.681  1.00  0.00    -0.507 OA
ATOM     23  H   UNL     1      27.110  -6.600   2.691  1.00  0.00     0.293 HD
ENDBRANCH   6  22
BRANCH   8  24
ATOM     24  O   UNL     1      27.332  -9.160   7.208  1.00  0.00    -0.508 OA
ATOM     25  H   UNL     1      27.991  -8.443   7.489  1.00  0.00     0.293 HD
ENDBRANCH   8  24
TORSDOF 5
ENDMDL
MODEL 7
REMARK VINA RESULT:    -5.374      3.984      7.059
REMARK INTER + INTRA:          -6.592
REMARK INTER:                  -6.305
REMARK INTRA:                  -0.287
REMARK UNBOUND:                -0.275
REMARK SMILES O=c1cc(-c2ccc(O)c(O)c2)oc2cc(O)cc(O)c12
REMARK SMILES IDX 4 1 3 2 2 3 1 4 21 5 19 6 18 7 16 8 15 9 14 10 13 11 5 12
REMARK SMILES IDX 6 13 7 14 8 15 12 16 10 17 9 18 11 20 20 22 17 24
REMARK H PARENT 9 19 11 21 20 23 17 25
REMARK Flexibility Score: inf
ROOT
ATOM      1  C   UNL     1      25.636 -12.470   5.845  1.00  0.00     0.138 A 
ATOM      2  C   UNL     1      25.560 -11.547   6.897  1.00  0.00     0.100 A 
ATOM      3  C   UNL     1      24.489 -11.605   7.790  1.00  0.00     0.197 A 
ATOM      4  O   UNL     1      24.480 -10.803   8.759  1.00  0.00    -0.289 OA
ATOM      5  C   UNL     1      23.473 -12.574   7.608  1.00  0.00     0.107 A 
ATOM      6  C   UNL     1      22.315 -12.701   8.431  1.00  0.00     0.134 A 
ATOM      7  C   UNL     1      21.437 -13.772   8.226  1.00  0.00     0.093 A 
ATOM      8  C   UNL     1      21.643 -14.686   7.190  1.00  0.00     0.123 A 
ATOM      9  C   UNL     1      22.742 -14.539   6.347  1.00  0.00     0.094 A 
ATOM     10  C   UNL     1      23.655 -13.500   6.547  1.00  0.00     0.146 A 
ATOM     11  O   UNL     1      24.698 -13.405   5.730  1.00  0.00    -0.456 OA
ENDROOT
BRANCH   1  12
ATOM     12  C   UNL     1      26.753 -12.453   4.866  1.00  0.00     0.021 A 
ATOM     13  C   UNL     1      28.079 -12.427   5.331  1.00  0.00     0.016 A 
ATOM     14  C   UNL     1      29.148 -12.419   4.431  1.00  0.00     0.051 A 
ATOM     15  C   UNL     1      28.912 -12.446   3.054  1.00  0.00     0.157 A 
ATOM     16  C   UNL     1      26.520 -12.495   3.478  1.00  0.00     0.062 A 
ATOM     17  C   UNL     1      27.594 -12.488   2.573  1.00  0.00     0.158 A 
BRANCH  15  18
ATOM     18  O   UNL     1      29.998 -12.435   2.180  1.00  0.00    -0.504 OA
ATOM     19  H   UNL     1      30.212 -11.635   1.598  1.00  0.00     0.293 HD
ENDBRANCH  15  18
BRANCH  17  20
ATOM     20  O   UNL     1      27.351 -12.527   1.201  1.00  0.00    -0.504 OA
ATOM     21  H   UNL     1      27.853 -13.161   0.591  1.00  0.00     0.293 HD
ENDBRANCH  17  20
ENDBRANCH   1  12
BRANCH   6  22
ATOM     22  O   UNL     1      21.970 -11.795   9.440  1.00  0.00    -0.507 OA
ATOM     23  H   UNL     1      22.496 -11.647  10.287  1.00  0.00     0.293 HD
ENDBRANCH   6  22
BRANCH   8  24
ATOM     24  O   UNL     1      20.756 -15.740   6.984  1.00  0.00    -0.508 OA
ATOM     25  H   UNL     1      20.344 -15.917   6.076  1.00  0.00     0.293 HD
ENDBRANCH   8  24
TORSDOF 5
ENDMDL
MODEL 8
REMARK VINA RESULT:    -5.330      3.622      9.331
REMARK INTER + INTRA:          -6.540
REMARK INTER:                  -6.222
REMARK INTRA:                  -0.317
REMARK UNBOUND:                -0.275
REMARK SMILES O=c1cc(-c2ccc(O)c(O)c2)oc2cc(O)cc(O)c12
REMARK SMILES IDX 4 1 3 2 2 3 1 4 21 5 19 6 18 7 16 8 15 9 14 10 13 11 5 12
REMARK SMILES IDX 6 13 7 14 8 15 12 16 10 17 9 18 11 20 20 22 17 24
REMARK H PARENT 9 19 11 21 20 23 17 25
REMARK Flexibility Score: inf
ROOT
ATOM      1  C   UNL     1      25.112  -3.518   7.996  1.00  0.00     0.138 A 
ATOM      2  C   UNL     1      24.126  -3.190   8.936  1.00  0.00     0.100 A 
ATOM      3  C   UNL     1      24.183  -1.961   9.596  1.00  0.00     0.197 A 
ATOM      4  O   UNL     1      23.250  -1.669  10.388  1.00  0.00    -0.289 OA
ATOM      5  C   UNL     1      25.252  -1.071   9.335  1.00  0.00     0.107 A 
ATOM      6  C   UNL     1      25.435   0.189   9.978  1.00  0.00     0.134 A 
ATOM      7  C   UNL     1      26.466   1.036   9.554  1.00  0.00     0.093 A 
ATOM      8  C   UNL     1      27.358   0.644   8.553  1.00  0.00     0.123 A 
ATOM      9  C   UNL     1      27.219  -0.608   7.957  1.00  0.00     0.094 A 
ATOM     10  C   UNL     1      26.180  -1.462   8.334  1.00  0.00     0.146 A 
ATOM     11  O   UNL     1      26.075  -2.640   7.729  1.00  0.00    -0.456 OA
ENDROOT
BRANCH   1  12
ATOM     12  C   UNL     1      25.100  -4.811   7.265  1.00  0.00     0.021 A 
ATOM     13  C   UNL     1      24.005  -5.679   7.416  1.00  0.00     0.016 A 
ATOM     14  C   UNL     1      23.967  -6.898   6.733  1.00  0.00     0.051 A 
ATOM     15  C   UNL     1      25.013  -7.265   5.881  1.00  0.00     0.157 A 
ATOM     16  C   UNL     1      26.145  -5.178   6.396  1.00  0.00     0.062 A 
ATOM     17  C   UNL     1      26.106  -6.401   5.708  1.00  0.00     0.158 A 
BRANCH  15  18
ATOM     18  O   UNL     1      24.946  -8.488   5.215  1.00  0.00    -0.504 OA
ATOM     19  H   UNL     1      25.749  -9.099   5.131  1.00  0.00     0.293 HD
ENDBRANCH  15  18
BRANCH  17  20
ATOM     20  O   UNL     1      27.147  -6.756   4.852  1.00  0.00    -0.504 OA
ATOM     21  H   UNL     1      27.374  -6.203   4.034  1.00  0.00     0.293 HD
ENDBRANCH  17  20
ENDBRANCH   1  12
BRANCH   6  22
ATOM     22  O   UNL     1      24.654   0.642  11.046  1.00  0.00    -0.507 OA
ATOM     23  H   UNL     1      25.012   1.110  11.865  1.00  0.00     0.293 HD
ENDBRANCH   6  22
BRANCH   8  24
ATOM     24  O   UNL     1      28.389   1.487   8.149  1.00  0.00    -0.508 OA
ATOM     25  H   UNL     1      28.893   1.332   7.283  1.00  0.00     0.293 HD
ENDBRANCH   8  24
TORSDOF 5
ENDMDL
MODEL 9
REMARK VINA RESULT:    -5.303      3.313      6.940
REMARK INTER + INTRA:          -6.508
REMARK INTER:                  -6.225
REMARK INTRA:                  -0.282
REMARK UNBOUND:                -0.275
REMARK SMILES O=c1cc(-c2ccc(O)c(O)c2)oc2cc(O)cc(O)c12
REMARK SMILES IDX 4 1 3 2 2 3 1 4 21 5 19 6 18 7 16 8 15 9 14 10 13 11 5 12
REMARK SMILES IDX 6 13 7 14 8 15 12 16 10 17 9 18 11 20 20 22 17 24
REMARK H PARENT 9 19 11 21 20 23 17 25
REMARK Flexibility Score: inf
ROOT
ATOM      1  C   UNL     1      24.462 -12.788   6.455  1.00  0.00     0.138 A 
ATOM      2  C   UNL     1      24.292 -11.950   7.565  1.00  0.00     0.100 A 
ATOM      3  C   UNL     1      25.024 -10.765   7.654  1.00  0.00     0.197 A 
ATOM      4  O   UNL     1      24.805 -10.004   8.631  1.00  0.00    -0.289 OA
ATOM      5  C   UNL     1      25.955 -10.435   6.640  1.00  0.00     0.107 A 
ATOM      6  C   UNL     1      26.785  -9.275   6.646  1.00  0.00     0.134 A 
ATOM      7  C   UNL     1      27.584  -8.992   5.531  1.00  0.00     0.093 A 
ATOM      8  C   UNL     1      27.628  -9.860   4.436  1.00  0.00     0.123 A 
ATOM      9  C   UNL     1      26.861 -11.023   4.445  1.00  0.00     0.094 A 
ATOM     10  C   UNL     1      26.028 -11.315   5.528  1.00  0.00     0.146 A 
ATOM     11  O   UNL     1      25.302 -12.427   5.489  1.00  0.00    -0.456 OA
ENDROOT
BRANCH   1  12
ATOM     12  C   UNL     1      23.710 -14.060   6.309  1.00  0.00     0.021 A 
ATOM     13  C   UNL     1      24.350 -15.183   5.757  1.00  0.00     0.016 A 
ATOM     14  C   UNL     1      23.666 -16.393   5.617  1.00  0.00     0.051 A 
ATOM     15  C   UNL     1      22.337 -16.506   6.035  1.00  0.00     0.157 A 
ATOM     16  C   UNL     1      22.375 -14.183   6.742  1.00  0.00     0.062 A 
ATOM     17  C   UNL     1      21.688 -15.399   6.602  1.00  0.00     0.158 A 
BRANCH  15  18
ATOM     18  O   UNL     1      21.680 -17.727   5.880  1.00  0.00    -0.504 OA
ATOM     19  H   UNL     1      20.997 -17.881   5.149  1.00  0.00     0.293 HD
ENDBRANCH  15  18
BRANCH  17  20
ATOM     20  O   UNL     1      20.366 -15.508   7.031  1.00  0.00    -0.504 OA
ATOM     21  H   UNL     1      19.683 -16.049   6.515  1.00  0.00     0.293 HD
ENDBRANCH  17  20
ENDBRANCH   1  12
BRANCH   6  22
ATOM     22  O   UNL     1      26.881  -8.388   7.723  1.00  0.00    -0.507 OA
ATOM     23  H   UNL     1      26.122  -8.148   8.341  1.00  0.00     0.293 HD
ENDBRANCH   6  22
BRANCH   8  24
ATOM     24  O   UNL     1      28.437  -9.578   3.339  1.00  0.00    -0.508 OA
ATOM     25  H   UNL     1      28.281  -8.760   2.760  1.00  0.00     0.293 HD
ENDBRANCH   8  24
TORSDOF 5
ENDMDL
