MODEL 1
REMARK VINA RESULT:    -4.935      0.000      0.000
REMARK INTER + INTRA:          -5.962
REMARK INTER:                  -5.657
REMARK INTRA:                  -0.305
REMARK UNBOUND:                -0.305
REMARK SMILES COc1ccc(C(C)=O)c(O)c1
REMARK SMILES IDX 6 1 10 2 12 3 3 4 4 5 5 6 7 7 8 8 9 9 11 10 2 12 1 13
REMARK H PARENT 11 11
REMARK Flexibility Score: inf
ROOT
ATOM      1  C   UNL     1      72.904  34.136  55.130  1.00  0.00     0.059 A 
ATOM      2  C   UNL     1      73.113  33.344  53.975  1.00  0.00     0.130 A 
ATOM      3  C   UNL     1      73.734  33.904  52.852  1.00  0.00     0.093 A 
ATOM      4  C   UNL     1      74.186  35.226  52.861  1.00  0.00     0.122 A 
ATOM      5  C   UNL     1      74.006  36.004  54.017  1.00  0.00     0.047 A 
ATOM      6  C   UNL     1      73.371  35.463  55.138  1.00  0.00     0.019 A 
ENDROOT
BRANCH   1   7
ATOM      7  C   UNL     1      72.176  33.622  56.314  1.00  0.00     0.163 C 
ATOM      8  C   UNL     1      70.817  34.139  56.672  1.00  0.00     0.093 C 
ATOM      9  O   UNL     1      72.663  32.677  56.992  1.00  0.00    -0.294 OA
ENDBRANCH   1   7
BRANCH   2  10
ATOM     10  O   UNL     1      72.747  31.998  53.914  1.00  0.00    -0.507 OA
ATOM     11  H   UNL     1      73.416  31.243  53.833  1.00  0.00     0.293 HD
ENDBRANCH   2  10
BRANCH   4  12
ATOM     12  O   UNL     1      74.808  35.727  51.708  1.00  0.00    -0.497 OA
ATOM     13  C   UNL     1      76.217  35.856  51.545  1.00  0.00     0.278 C 
ENDBRANCH   4  12
TORSDOF 3
ENDMDL
MODEL 2
REMARK VINA RESULT:    -4.418      2.686      5.778
REMARK INTER + INTRA:          -5.369
REMARK INTER:                  -5.025
REMARK INTRA:                  -0.345
REMARK UNBOUND:                -0.305
REMARK SMILES COc1ccc(C(C)=O)c(O)c1
REMARK SMILES IDX 6 1 10 2 12 3 3 4 4 5 5 6 7 7 8 8 9 9 11 10 2 12 1 13
REMARK H PARENT 11 11
REMARK Flexibility Score: inf
ROOT
ATOM      1  C   UNL     1      77.479  34.628  51.620  1.00  0.00     0.059 A 
ATOM      2  C   UNL     1      76.750  33.488  52.038  1.00  0.00     0.130 A 
ATOM      3  C   UNL     1      75.418  33.627  52.449  1.00  0.00     0.093 A 
ATOM      4  C   UNL     1      74.780  34.871  52.422  1.00  0.00     0.122 A 
ATOM      5  C   UNL     1      75.494  35.997  51.980  1.00  0.00     0.047 A 
ATOM      6  C   UNL     1      76.829  35.875  51.585  1.00  0.00     0.019 A 
ENDROOT
BRANCH   1   7
ATOM      7  C   UNL     1      78.914  34.554  51.258  1.00  0.00     0.163 C 
ATOM      8  C   UNL     1      79.462  35.335  50.104  1.00  0.00     0.093 C 
ATOM      9  O   UNL     1      79.710  33.889  51.973  1.00  0.00    -0.294 OA
ENDBRANCH   1   7
BRANCH   2  10
ATOM     10  O   UNL     1      77.299  32.205  52.031  1.00  0.00    -0.507 OA
ATOM     11  H   UNL     1      77.072  31.506  51.335  1.00  0.00     0.293 HD
ENDBRANCH   2  10
BRANCH   4  12
ATOM     12  O   UNL     1      73.443  34.943  52.838  1.00  0.00    -0.497 OA
ATOM     13  C   UNL     1      72.761  33.909  53.539  1.00  0.00     0.278 C 
ENDBRANCH   4  12
TORSDOF 3
ENDMDL
MODEL 3
REMARK VINA RESULT:    -4.383     15.969     16.665
REMARK INTER + INTRA:          -5.329
REMARK INTER:                  -5.013
REMARK INTRA:                  -0.316
REMARK UNBOUND:                -0.305
REMARK SMILES COc1ccc(C(C)=O)c(O)c1
REMARK SMILES IDX 6 1 10 2 12 3 3 4 4 5 5 6 7 7 8 8 9 9 11 10 2 12 1 13
REMARK H PARENT 11 11
REMARK Flexibility Score: inf
ROOT
ATOM      1  C   UNL     1      84.888  30.285  64.751  1.00  0.00     0.059 A 
ATOM      2  C   UNL     1      84.757  31.678  64.531  1.00  0.00     0.130 A 
ATOM      3  C   UNL     1      85.828  32.530  64.825  1.00  0.00     0.093 A 
ATOM      4  C   UNL     1      87.043  32.027  65.300  1.00  0.00     0.122 A 
ATOM      5  C   UNL     1      87.184  30.643  65.489  1.00  0.00     0.047 A 
ATOM      6  C   UNL     1      86.116  29.783  65.218  1.00  0.00     0.019 A 
ENDROOT
BRANCH   1   7
ATOM      7  C   UNL     1      83.760  29.347  64.539  1.00  0.00     0.163 C 
ATOM      8  C   UNL     1      83.994  27.875  64.395  1.00  0.00     0.093 C 
ATOM      9  O   UNL     1      82.575  29.774  64.561  1.00  0.00    -0.294 OA
ENDBRANCH   1   7
BRANCH   2  10
ATOM     10  O   UNL     1      83.599  32.246  63.999  1.00  0.00    -0.507 OA
ATOM     11  H   UNL     1      83.603  32.889  63.218  1.00  0.00     0.293 HD
ENDBRANCH   2  10
BRANCH   4  12
ATOM     12  O   UNL     1      88.081  32.933  65.567  1.00  0.00    -0.497 OA
ATOM     13  C   UNL     1      88.125  34.271  65.085  1.00  0.00     0.278 C 
ENDBRANCH   4  12
TORSDOF 3
ENDMDL
MODEL 4
REMARK VINA RESULT:    -4.340      2.977      4.216
REMARK INTER + INTRA:          -5.280
REMARK INTER:                  -4.976
REMARK INTRA:                  -0.304
REMARK UNBOUND:                -0.305
REMARK SMILES COc1ccc(C(C)=O)c(O)c1
REMARK SMILES IDX 6 1 10 2 12 3 3 4 4 5 5 6 7 7 8 8 9 9 11 10 2 12 1 13
REMARK H PARENT 11 11
REMARK Flexibility Score: inf
ROOT
ATOM      1  C   UNL     1      75.243  35.026  52.105  1.00  0.00     0.059 A 
ATOM      2  C   UNL     1      75.949  33.822  52.339  1.00  0.00     0.130 A 
ATOM      3  C   UNL     1      77.281  33.706  51.925  1.00  0.00     0.093 A 
ATOM      4  C   UNL     1      77.943  34.775  51.313  1.00  0.00     0.122 A 
ATOM      5  C   UNL     1      77.251  35.980  51.107  1.00  0.00     0.047 A 
ATOM      6  C   UNL     1      75.916  36.102  51.499  1.00  0.00     0.019 A 
ENDROOT
BRANCH   1   7
ATOM      7  C   UNL     1      73.807  35.174  52.444  1.00  0.00     0.163 C 
ATOM      8  C   UNL     1      72.927  36.122  51.689  1.00  0.00     0.093 C 
ATOM      9  O   UNL     1      73.289  34.436  53.325  1.00  0.00    -0.294 OA
ENDBRANCH   1   7
BRANCH   2  10
ATOM     10  O   UNL     1      75.376  32.734  53.002  1.00  0.00    -0.507 OA
ATOM     11  H   UNL     1      75.755  31.797  52.964  1.00  0.00     0.293 HD
ENDBRANCH   2  10
BRANCH   4  12
ATOM     12  O   UNL     1      79.280  34.599  50.929  1.00  0.00    -0.497 OA
ATOM     13  C   UNL     1      79.797  34.925  49.643  1.00  0.00     0.278 C 
ENDBRANCH   4  12
TORSDOF 3
ENDMDL
MODEL 5
REMARK VINA RESULT:    -4.083      2.140      5.247
REMARK INTER + INTRA:          -4.985
REMARK INTER:                  -4.642
REMARK INTRA:                  -0.343
REMARK UNBOUND:                -0.305
REMARK SMILES COc1ccc(C(C)=O)c(O)c1
REMARK SMILES IDX 6 1 10 2 12 3 3 4 4 5 5 6 7 7 8 8 9 9 11 10 2 12 1 13
REMARK H PARENT 11 11
REMARK Flexibility Score: inf
ROOT
ATOM      1  C   UNL     1      76.346  34.817  51.967  1.00  0.00     0.059 A 
ATOM      2  C   UNL     1      75.860  33.542  52.347  1.00  0.00     0.130 A 
ATOM      3  C   UNL     1      74.681  33.444  53.096  1.00  0.00     0.093 A 
ATOM      4  C   UNL     1      73.952  34.583  53.448  1.00  0.00     0.122 A 
ATOM      5  C   UNL     1      74.419  35.846  53.046  1.00  0.00     0.047 A 
ATOM      6  C   UNL     1      75.603  35.959  52.314  1.00  0.00     0.019 A 
ENDROOT
BRANCH   1   7
ATOM      7  C   UNL     1      77.633  34.985  51.249  1.00  0.00     0.163 C 
ATOM      8  C   UNL     1      77.815  36.069  50.232  1.00  0.00     0.093 C 
ATOM      9  O   UNL     1      78.620  34.262  51.549  1.00  0.00    -0.294 OA
ENDBRANCH   1   7
BRANCH   2  10
ATOM     10  O   UNL     1      76.498  32.357  51.977  1.00  0.00    -0.507 OA
ATOM     11  H   UNL     1      77.500  32.277  51.860  1.00  0.00     0.293 HD
ENDBRANCH   2  10
BRANCH   4  12
ATOM     12  O   UNL     1      72.775  34.417  54.192  1.00  0.00    -0.497 OA
ATOM     13  C   UNL     1      72.360  33.189  54.780  1.00  0.00     0.278 C 
ENDBRANCH   4  12
TORSDOF 3
ENDMDL
MODEL 6
REMARK VINA RESULT:    -3.990      1.138      4.731
REMARK INTER + INTRA:          -4.879
REMARK INTER:                  -4.597
REMARK INTRA:                  -0.282
REMARK UNBOUND:                -0.305
REMARK SMILES COc1ccc(C(C)=O)c(O)c1
REMARK SMILES IDX 6 1 10 2 12 3 3 4 4 5 5 6 7 7 8 8 9 9 11 10 2 12 1 13
REMARK H PARENT 11 11
REMARK Flexibility Score: inf
ROOT
ATOM      1  C   UNL     1      74.798  35.223  53.099  1.00  0.00     0.059 A 
ATOM      2  C   UNL     1      74.423  33.868  52.934  1.00  0.00     0.130 A 
ATOM      3  C   UNL     1      73.507  33.288  53.820  1.00  0.00     0.093 A 
ATOM      4  C   UNL     1      72.927  34.034  54.850  1.00  0.00     0.122 A 
ATOM      5  C   UNL     1      73.276  35.387  54.997  1.00  0.00     0.047 A 
ATOM      6  C   UNL     1      74.202  35.972  54.130  1.00  0.00     0.019 A 
ENDROOT
BRANCH   1   7
ATOM      7  C   UNL     1      75.826  35.864  52.245  1.00  0.00     0.163 C 
ATOM      8  C   UNL     1      77.208  36.124  52.759  1.00  0.00     0.093 C 
ATOM      9  O   UNL     1      75.568  36.125  51.039  1.00  0.00    -0.294 OA
ENDBRANCH   1   7
BRANCH   2  10
ATOM     10  O   UNL     1      74.910  33.078  51.891  1.00  0.00    -0.507 OA
ATOM     11  H   UNL     1      75.822  32.639  51.906  1.00  0.00     0.293 HD
ENDBRANCH   2  10
BRANCH   4  12
ATOM     12  O   UNL     1      72.010  33.397  55.700  1.00  0.00    -0.497 OA
ATOM     13  C   UNL     1      71.284  34.052  56.735  1.00  0.00     0.278 C 
ENDBRANCH   4  12
TORSDOF 3
ENDMDL
MODEL 7
REMARK VINA RESULT:    -3.778      1.575      2.486
REMARK INTER + INTRA:          -4.636
REMARK INTER:                  -4.299
REMARK INTRA:                  -0.336
REMARK UNBOUND:                -0.305
REMARK SMILES COc1ccc(C(C)=O)c(O)c1
REMARK SMILES IDX 6 1 10 2 12 3 3 4 4 5 5 6 7 7 8 8 9 9 11 10 2 12 1 13
REMARK H PARENT 11 11
REMARK Flexibility Score: inf
ROOT
ATOM      1  C   UNL     1      74.219  34.173  53.344  1.00  0.00     0.059 A 
ATOM      2  C   UNL     1      75.375  33.488  52.897  1.00  0.00     0.130 A 
ATOM      3  C   UNL     1      76.260  34.120  52.015  1.00  0.00     0.093 A 
ATOM      4  C   UNL     1      76.042  35.434  51.592  1.00  0.00     0.122 A 
ATOM      5  C   UNL     1      74.911  36.125  52.058  1.00  0.00     0.047 A 
ATOM      6  C   UNL     1      74.010  35.499  52.924  1.00  0.00     0.019 A 
ENDROOT
BRANCH   1   7
ATOM      7  C   UNL     1      73.205  33.522  54.208  1.00  0.00     0.163 C 
ATOM      8  C   UNL     1      72.679  34.205  55.432  1.00  0.00     0.093 C 
ATOM      9  O   UNL     1      72.712  32.412  53.872  1.00  0.00    -0.294 OA
ENDBRANCH   1   7
BRANCH   2  10
ATOM     10  O   UNL     1      75.694  32.198  53.326  1.00  0.00    -0.507 OA
ATOM     11  H   UNL     1      75.429  31.362  52.821  1.00  0.00     0.293 HD
ENDBRANCH   2  10
BRANCH   4  12
ATOM     12  O   UNL     1      76.970  36.015  50.715  1.00  0.00    -0.497 OA
ATOM     13  C   UNL     1      78.224  35.436  50.372  1.00  0.00     0.278 C 
ENDBRANCH   4  12
TORSDOF 3
ENDMDL
MODEL 8
REMARK VINA RESULT:    -3.628      3.413      6.383
REMARK INTER + INTRA:          -4.464
REMARK INTER:                  -4.132
REMARK INTRA:                  -0.332
REMARK UNBOUND:                -0.305
REMARK SMILES COc1ccc(C(C)=O)c(O)c1
REMARK SMILES IDX 6 1 10 2 12 3 3 4 4 5 5 6 7 7 8 8 9 9 11 10 2 12 1 13
REMARK H PARENT 11 11
REMARK Flexibility Score: inf
ROOT
ATOM      1  C   UNL     1      78.330  33.804  51.889  1.00  0.00     0.059 A 
ATOM      2  C   UNL     1      78.323  35.218  51.814  1.00  0.00     0.130 A 
ATOM      3  C   UNL     1      77.109  35.911  51.880  1.00  0.00     0.093 A 
ATOM      4  C   UNL     1      75.899  35.233  52.055  1.00  0.00     0.122 A 
ATOM      5  C   UNL     1      75.908  33.832  52.158  1.00  0.00     0.047 A 
ATOM      6  C   UNL     1      77.111  33.127  52.075  1.00  0.00     0.019 A 
ENDROOT
BRANCH   1   7
ATOM      7  C   UNL     1      79.576  33.015  51.738  1.00  0.00     0.163 C 
ATOM      8  C   UNL     1      79.717  31.663  52.366  1.00  0.00     0.093 C 
ATOM      9  O   UNL     1      80.508  33.444  51.005  1.00  0.00    -0.294 OA
ENDBRANCH   1   7
BRANCH   2  10
ATOM     10  O   UNL     1      79.496  35.968  51.705  1.00  0.00    -0.507 OA
ATOM     11  H   UNL     1      80.366  35.708  52.151  1.00  0.00     0.293 HD
ENDBRANCH   2  10
BRANCH   4  12
ATOM     12  O   UNL     1      74.716  35.985  52.122  1.00  0.00    -0.497 OA
ATOM     13  C   UNL     1      73.434  35.443  52.420  1.00  0.00     0.278 C 
ENDBRANCH   4  12
TORSDOF 3
ENDMDL
