MODEL 1
REMARK VINA RESULT:    -3.935      0.000      0.000
REMARK INTER + INTRA:          -4.651
REMARK INTER:                  -4.626
REMARK INTRA:                  -0.025
REMARK UNBOUND:                -0.025
REMARK SMILES CCCCC(=O)[O-]
REMARK SMILES IDX 4 1 5 2 6 3 7 4 3 5 2 6 1 7
REMARK H PARENT
REMARK Flexibility Score: inf
ROOT
ATOM      1  C   UNL     1     -16.823  -8.595  -2.660  1.00  0.00     0.053 C 
ENDROOT
BRANCH   1   2
ATOM      2  C   UNL     1     -16.252  -8.656  -4.041  1.00  0.00     0.041 C 
ATOM      3  O   UNL     1     -16.781  -7.999  -4.975  1.00  0.00    -0.550 OA
ATOM      4  O   UNL     1     -15.163  -9.478  -4.308  1.00  0.00    -0.550 OA
ENDBRANCH   1   2
BRANCH   1   5
ATOM      5  C   UNL     1     -16.037  -7.601  -1.798  1.00  0.00     0.006 C 
BRANCH   5   6
ATOM      6  C   UNL     1     -15.727  -8.196  -0.420  1.00  0.00    -0.003 C 
ATOM      7  C   UNL     1     -16.420  -7.408   0.688  1.00  0.00     0.004 C 
ENDBRANCH   5   6
ENDBRANCH   1   5
TORSDOF 3
ENDMDL
MODEL 2
REMARK VINA RESULT:    -3.913      2.893      4.162
REMARK INTER + INTRA:          -4.625
REMARK INTER:                  -4.600
REMARK INTRA:                  -0.025
REMARK UNBOUND:                -0.025
REMARK SMILES CCCCC(=O)[O-]
REMARK SMILES IDX 4 1 5 2 6 3 7 4 3 5 2 6 1 7
REMARK H PARENT
REMARK Flexibility Score: inf
ROOT
ATOM      1  C   UNL     1     -15.747  -7.564  -1.421  1.00  0.00     0.053 C 
ENDROOT
BRANCH   1   2
ATOM      2  C   UNL     1     -16.011  -7.953  -0.001  1.00  0.00     0.041 C 
ATOM      3  O   UNL     1     -16.454  -7.104   0.816  1.00  0.00    -0.550 OA
ATOM      4  O   UNL     1     -15.722  -9.242   0.432  1.00  0.00    -0.550 OA
ENDBRANCH   1   2
BRANCH   1   5
ATOM      5  C   UNL     1     -16.719  -8.282  -2.363  1.00  0.00     0.006 C 
BRANCH   5   6
ATOM      6  C   UNL     1     -16.017  -8.701  -3.660  1.00  0.00    -0.003 C 
ATOM      7  C   UNL     1     -16.628  -7.999  -4.869  1.00  0.00     0.004 C 
ENDBRANCH   5   6
ENDBRANCH   1   5
TORSDOF 3
ENDMDL
MODEL 3
REMARK VINA RESULT:    -3.783      1.478      1.921
REMARK INTER + INTRA:          -4.472
REMARK INTER:                  -4.363
REMARK INTRA:                  -0.109
REMARK UNBOUND:                -0.025
REMARK SMILES CCCCC(=O)[O-]
REMARK SMILES IDX 4 1 5 2 6 3 7 4 3 5 2 6 1 7
REMARK H PARENT
REMARK Flexibility Score: inf
ROOT
ATOM      1  C   UNL     1     -15.981  -7.605  -1.625  1.00  0.00     0.053 C 
ENDROOT
BRANCH   1   2
ATOM      2  C   UNL     1     -16.768  -8.441  -2.583  1.00  0.00     0.041 C 
ATOM      3  O   UNL     1     -16.694  -8.226  -3.821  1.00  0.00    -0.550 OA
ATOM      4  O   UNL     1     -17.622  -9.428  -2.105  1.00  0.00    -0.550 OA
ENDBRANCH   1   2
BRANCH   1   5
ATOM      5  C   UNL     1     -15.825  -8.329  -0.283  1.00  0.00     0.006 C 
BRANCH   5   6
ATOM      6  C   UNL     1     -16.493  -7.538   0.847  1.00  0.00    -0.003 C 
ATOM      7  C   UNL     1     -17.849  -8.136   1.211  1.00  0.00     0.004 C 
ENDBRANCH   5   6
ENDBRANCH   1   5
TORSDOF 3
ENDMDL
MODEL 4
REMARK VINA RESULT:    -3.721      5.873      6.898
REMARK INTER + INTRA:          -4.399
REMARK INTER:                  -4.362
REMARK INTRA:                  -0.038
REMARK UNBOUND:                -0.025
REMARK SMILES CCCCC(=O)[O-]
REMARK SMILES IDX 4 1 5 2 6 3 7 4 3 5 2 6 1 7
REMARK H PARENT
REMARK Flexibility Score: inf
ROOT
ATOM      1  C   UNL     1     -17.185 -13.637  -0.612  1.00  0.00     0.053 C 
ENDROOT
BRANCH   1   2
ATOM      2  C   UNL     1     -16.239 -13.068   0.397  1.00  0.00     0.041 C 
ATOM      3  O   UNL     1     -15.635 -13.828   1.198  1.00  0.00    -0.550 OA
ATOM      4  O   UNL     1     -16.062 -11.692   0.486  1.00  0.00    -0.550 OA
ENDBRANCH   1   2
BRANCH   1   5
ATOM      5  C   UNL     1     -16.465 -14.646  -1.512  1.00  0.00     0.006 C 
BRANCH   5   6
ATOM      6  C   UNL     1     -17.173 -14.777  -2.866  1.00  0.00    -0.003 C 
ATOM      7  C   UNL     1     -18.504 -14.031  -2.865  1.00  0.00     0.004 C 
ENDBRANCH   5   6
ENDBRANCH   1   5
TORSDOF 3
ENDMDL
MODEL 5
REMARK VINA RESULT:    -3.706      3.130      4.189
REMARK INTER + INTRA:          -4.381
REMARK INTER:                  -4.363
REMARK INTRA:                  -0.018
REMARK UNBOUND:                -0.025
REMARK SMILES CCCCC(=O)[O-]
REMARK SMILES IDX 4 1 5 2 6 3 7 4 3 5 2 6 1 7
REMARK H PARENT
REMARK Flexibility Score: inf
ROOT
ATOM      1  C   UNL     1     -17.457  -9.558  -2.124  1.00  0.00     0.053 C 
ENDROOT
BRANCH   1   2
ATOM      2  C   UNL     1     -17.969  -9.545  -0.719  1.00  0.00     0.041 C 
ATOM      3  O   UNL     1     -17.205  -9.843   0.236  1.00  0.00    -0.550 OA
ATOM      4  O   UNL     1     -19.304  -9.250  -0.467  1.00  0.00    -0.550 OA
ENDBRANCH   1   2
BRANCH   1   5
ATOM      5  C   UNL     1     -16.612  -8.310  -2.399  1.00  0.00     0.006 C 
BRANCH   5   6
ATOM      6  C   UNL     1     -15.808  -8.466  -3.695  1.00  0.00    -0.003 C 
ATOM      7  C   UNL     1     -16.628  -8.032  -4.907  1.00  0.00     0.004 C 
ENDBRANCH   5   6
ENDBRANCH   1   5
TORSDOF 3
ENDMDL
MODEL 6
REMARK VINA RESULT:    -3.691      5.164      5.517
REMARK INTER + INTRA:          -4.364
REMARK INTER:                  -4.295
REMARK INTRA:                  -0.068
REMARK UNBOUND:                -0.025
REMARK SMILES CCCCC(=O)[O-]
REMARK SMILES IDX 4 1 5 2 6 3 7 4 3 5 2 6 1 7
REMARK H PARENT
REMARK Flexibility Score: inf
ROOT
ATOM      1  C   UNL     1     -17.133 -14.355  -2.212  1.00  0.00     0.053 C 
ENDROOT
BRANCH   1   2
ATOM      2  C   UNL     1     -16.976 -12.944  -2.679  1.00  0.00     0.041 C 
ATOM      3  O   UNL     1     -17.946 -12.143  -2.614  1.00  0.00    -0.550 OA
ATOM      4  O   UNL     1     -15.772 -12.524  -3.233  1.00  0.00    -0.550 OA
ENDBRANCH   1   2
BRANCH   1   5
ATOM      5  C   UNL     1     -16.223 -14.627  -1.009  1.00  0.00     0.006 C 
BRANCH   5   6
ATOM      6  C   UNL     1     -16.538 -13.668   0.145  1.00  0.00    -0.003 C 
ATOM      7  C   UNL     1     -15.581 -13.881   1.314  1.00  0.00     0.004 C 
ENDBRANCH   5   6
ENDBRANCH   1   5
TORSDOF 3
ENDMDL
MODEL 7
REMARK VINA RESULT:    -3.669      2.096      2.404
REMARK INTER + INTRA:          -4.338
REMARK INTER:                  -4.233
REMARK INTRA:                  -0.105
REMARK UNBOUND:                -0.025
REMARK SMILES CCCCC(=O)[O-]
REMARK SMILES IDX 4 1 5 2 6 3 7 4 3 5 2 6 1 7
REMARK H PARENT
REMARK Flexibility Score: inf
ROOT
ATOM      1  C   UNL     1     -17.303  -9.771  -2.134  1.00  0.00     0.053 C 
ENDROOT
BRANCH   1   2
ATOM      2  C   UNL     1     -16.758  -8.501  -2.704  1.00  0.00     0.041 C 
ATOM      3  O   UNL     1     -16.285  -7.617  -1.944  1.00  0.00    -0.550 OA
ATOM      4  O   UNL     1     -16.817  -8.272  -4.074  1.00  0.00    -0.550 OA
ENDBRANCH   1   2
BRANCH   1   5
ATOM      5  C   UNL     1     -18.489  -9.479  -1.209  1.00  0.00     0.006 C 
BRANCH   5   6
ATOM      6  C   UNL     1     -18.115  -9.723   0.257  1.00  0.00    -0.003 C 
ATOM      7  C   UNL     1     -18.185  -8.431   1.066  1.00  0.00     0.004 C 
ENDBRANCH   5   6
ENDBRANCH   1   5
TORSDOF 3
ENDMDL
MODEL 8
REMARK VINA RESULT:    -3.637      3.512      4.041
REMARK INTER + INTRA:          -4.301
REMARK INTER:                  -4.216
REMARK INTRA:                  -0.084
REMARK UNBOUND:                -0.025
REMARK SMILES CCCCC(=O)[O-]
REMARK SMILES IDX 4 1 5 2 6 3 7 4 3 5 2 6 1 7
REMARK H PARENT
REMARK Flexibility Score: inf
ROOT
ATOM      1  C   UNL     1     -18.148  -9.118  -0.233  1.00  0.00     0.053 C 
ENDROOT
BRANCH   1   2
ATOM      2  C   UNL     1     -18.029 -10.591  -0.010  1.00  0.00     0.041 C 
ATOM      3  O   UNL     1     -19.039 -11.333  -0.127  1.00  0.00    -0.550 OA
ATOM      4  O   UNL     1     -16.811 -11.140   0.376  1.00  0.00    -0.550 OA
ENDBRANCH   1   2
BRANCH   1   5
ATOM      5  C   UNL     1     -17.769  -8.350   1.037  1.00  0.00     0.006 C 
BRANCH   5   6
ATOM      6  C   UNL     1     -16.491  -7.530   0.823  1.00  0.00    -0.003 C 
ATOM      7  C   UNL     1     -16.014  -7.623  -0.624  1.00  0.00     0.004 C 
ENDBRANCH   5   6
ENDBRANCH   1   5
TORSDOF 3
ENDMDL
MODEL 9
REMARK VINA RESULT:    -3.618      1.716      2.331
REMARK INTER + INTRA:          -4.278
REMARK INTER:                  -4.258
REMARK INTRA:                  -0.019
REMARK UNBOUND:                -0.025
REMARK SMILES CCCCC(=O)[O-]
REMARK SMILES IDX 4 1 5 2 6 3 7 4 3 5 2 6 1 7
REMARK H PARENT
REMARK Flexibility Score: inf
ROOT
ATOM      1  C   UNL     1     -16.710  -8.353  -2.657  1.00  0.00     0.053 C 
ENDROOT
BRANCH   1   2
ATOM      2  C   UNL     1     -16.212  -8.504  -4.059  1.00  0.00     0.041 C 
ATOM      3  O   UNL     1     -16.765  -7.876  -4.999  1.00  0.00    -0.550 OA
ATOM      4  O   UNL     1     -15.166  -9.377  -4.336  1.00  0.00    -0.550 OA
ENDBRANCH   1   2
BRANCH   1   5
ATOM      5  C   UNL     1     -17.159  -9.708  -2.099  1.00  0.00     0.006 C 
BRANCH   5   6
ATOM      6  C   UNL     1     -18.549  -9.604  -1.461  1.00  0.00    -0.003 C 
ATOM      7  C   UNL     1     -18.959 -10.925  -0.816  1.00  0.00     0.004 C 
ENDBRANCH   5   6
ENDBRANCH   1   5
TORSDOF 3
ENDMDL
