MODEL 1
REMARK VINA RESULT:    -3.186      0.000      0.000
REMARK INTER + INTRA:          -3.186
REMARK INTER:                  -3.186
REMARK INTRA:                   0.000
REMARK UNBOUND:                 0.000
REMARK SMILES CC1(C)[C@H]2CC[C@]1(C)C(=O)C2
REMARK SMILES IDX 1 1 2 2 4 3 5 4 6 5 7 6 9 7 10 8 11 9 8 10 3 11
REMARK H PARENT
REMARK Flexibility Score: inf
ROOT
ATOM      1  C   UNL     1     132.759 141.371 139.475  1.00  0.00     0.012 C 
ATOM      2  C   UNL     1     133.691 141.146 140.706  1.00  0.00    -0.020 C 
ATOM      3  C   UNL     1     133.824 142.389 141.619  1.00  0.00     0.003 C 
ATOM      4  C   UNL     1     134.914 141.950 142.636  1.00  0.00     0.005 C 
ATOM      5  C   UNL     1     135.868 141.089 141.773  1.00  0.00     0.015 C 
ATOM      6  C   UNL     1     135.200 141.135 140.378  1.00  0.00     0.032 C 
ATOM      7  C   UNL     1     135.393 142.554 139.906  1.00  0.00     0.139 C 
ATOM      8  O   UNL     1     136.210 142.932 139.080  1.00  0.00    -0.299 OA
ATOM      9  C   UNL     1     134.488 143.448 140.697  1.00  0.00     0.080 C 
ATOM     10  C   UNL     1     135.679 140.056 139.400  1.00  0.00     0.020 C 
ATOM     11  C   UNL     1     133.155 139.880 141.439  1.00  0.00     0.012 C 
ENDROOT
TORSDOF 0
ENDMDL
MODEL 2
REMARK VINA RESULT:    -3.157      7.872      9.456
REMARK INTER + INTRA:          -3.157
REMARK INTER:                  -3.157
REMARK INTRA:                   0.000
REMARK UNBOUND:                 0.000
REMARK SMILES CC1(C)[C@H]2CC[C@]1(C)C(=O)C2
REMARK SMILES IDX 1 1 2 2 4 3 5 4 6 5 7 6 9 7 10 8 11 9 8 10 3 11
REMARK H PARENT
REMARK Flexibility Score: inf
ROOT
ATOM      1  C   UNL     1     141.895 133.290 141.341  1.00  0.00     0.012 C 
ATOM      2  C   UNL     1     141.204 134.462 140.577  1.00  0.00    -0.020 C 
ATOM      3  C   UNL     1     140.927 135.701 141.462  1.00  0.00     0.003 C 
ATOM      4  C   UNL     1     140.101 136.618 140.518  1.00  0.00     0.005 C 
ATOM      5  C   UNL     1     139.251 135.608 139.709  1.00  0.00     0.015 C 
ATOM      6  C   UNL     1     139.704 134.244 140.285  1.00  0.00     0.032 C 
ATOM      7  C   UNL     1     139.148 134.215 141.686  1.00  0.00     0.139 C 
ATOM      8  O   UNL     1     138.167 133.588 142.057  1.00  0.00    -0.299 OA
ATOM      9  C   UNL     1     139.934 135.169 142.533  1.00  0.00     0.080 C 
ATOM     10  C   UNL     1     139.345 133.031 139.420  1.00  0.00     0.020 C 
ATOM     11  C   UNL     1     142.093 134.762 139.333  1.00  0.00     0.012 C 
ENDROOT
TORSDOF 0
ENDMDL
MODEL 3
REMARK VINA RESULT:    -3.149     11.539     12.917
REMARK INTER + INTRA:          -3.149
REMARK INTER:                  -3.149
REMARK INTRA:                   0.000
REMARK UNBOUND:                 0.000
REMARK SMILES CC1(C)[C@H]2CC[C@]1(C)C(=O)C2
REMARK SMILES IDX 1 1 2 2 4 3 5 4 6 5 7 6 9 7 10 8 11 9 8 10 3 11
REMARK H PARENT
REMARK Flexibility Score: inf
ROOT
ATOM      1  C   UNL     1     148.450 141.870 141.354  1.00  0.00     0.012 C 
ATOM      2  C   UNL     1     147.285 141.170 140.588  1.00  0.00    -0.020 C 
ATOM      3  C   UNL     1     146.038 140.903 141.466  1.00  0.00     0.003 C 
ATOM      4  C   UNL     1     145.130 140.066 140.523  1.00  0.00     0.005 C 
ATOM      5  C   UNL     1     146.147 139.206 139.734  1.00  0.00     0.015 C 
ATOM      6  C   UNL     1     147.505 139.666 140.316  1.00  0.00     0.032 C 
ATOM      7  C   UNL     1     147.522 139.127 141.724  1.00  0.00     0.139 C 
ATOM      8  O   UNL     1     148.146 138.151 142.113  1.00  0.00    -0.299 OA
ATOM      9  C   UNL     1     146.561 139.923 142.553  1.00  0.00     0.080 C 
ATOM     10  C   UNL     1     148.726 139.297 139.466  1.00  0.00     0.020 C 
ATOM     11  C   UNL     1     146.995 142.044 139.331  1.00  0.00     0.012 C 
ENDROOT
TORSDOF 0
ENDMDL
MODEL 4
REMARK VINA RESULT:    -3.141     11.351     12.805
REMARK INTER + INTRA:          -3.141
REMARK INTER:                  -3.141
REMARK INTRA:                   0.000
REMARK UNBOUND:                 0.000
REMARK SMILES CC1(C)[C@H]2CC[C@]1(C)C(=O)C2
REMARK SMILES IDX 1 1 2 2 4 3 5 4 6 5 7 6 9 7 10 8 11 9 8 10 3 11
REMARK H PARENT
REMARK Flexibility Score: inf
ROOT
ATOM      1  C   UNL     1     148.889 140.237 139.546  1.00  0.00     0.012 C 
ATOM      2  C   UNL     1     147.939 140.489 140.758  1.00  0.00    -0.020 C 
ATOM      3  C   UNL     1     147.779 139.261 141.687  1.00  0.00     0.003 C 
ATOM      4  C   UNL     1     146.678 139.724 142.680  1.00  0.00     0.005 C 
ATOM      5  C   UNL     1     145.746 140.582 141.789  1.00  0.00     0.015 C 
ATOM      6  C   UNL     1     146.436 140.510 140.406  1.00  0.00     0.032 C 
ATOM      7  C   UNL     1     146.237 139.086 139.951  1.00  0.00     0.139 C 
ATOM      8  O   UNL     1     145.430 138.704 139.117  1.00  0.00    -0.299 OA
ATOM      9  C   UNL     1     147.120 138.194 140.768  1.00  0.00     0.080 C 
ATOM     10  C   UNL     1     145.983 141.579 139.405  1.00  0.00     0.020 C 
ATOM     11  C   UNL     1     148.476 141.760 141.482  1.00  0.00     0.012 C 
ENDROOT
TORSDOF 0
ENDMDL
MODEL 5
REMARK VINA RESULT:    -3.135      7.801      9.044
REMARK INTER + INTRA:          -3.135
REMARK INTER:                  -3.135
REMARK INTRA:                   0.000
REMARK UNBOUND:                 0.000
REMARK SMILES CC1(C)[C@H]2CC[C@]1(C)C(=O)C2
REMARK SMILES IDX 1 1 2 2 4 3 5 4 6 5 7 6 9 7 10 8 11 9 8 10 3 11
REMARK H PARENT
REMARK Flexibility Score: inf
ROOT
ATOM      1  C   UNL     1     141.411 148.956 139.651  1.00  0.00     0.012 C 
ATOM      2  C   UNL     1     141.122 147.956 140.813  1.00  0.00    -0.020 C 
ATOM      3  C   UNL     1     142.323 147.751 141.768  1.00  0.00     0.003 C 
ATOM      4  C   UNL     1     141.829 146.609 142.699  1.00  0.00     0.005 C 
ATOM      5  C   UNL     1     140.994 145.720 141.744  1.00  0.00     0.015 C 
ATOM      6  C   UNL     1     141.108 146.469 140.395  1.00  0.00     0.032 C 
ATOM      7  C   UNL     1     142.544 146.285 139.973  1.00  0.00     0.139 C 
ATOM      8  O   UNL     1     142.947 145.514 139.116  1.00  0.00    -0.299 OA
ATOM      9  C   UNL     1     143.414 147.129 140.853  1.00  0.00     0.080 C 
ATOM     10  C   UNL     1     140.067 146.065 139.345  1.00  0.00     0.020 C 
ATOM     11  C   UNL     1     139.832 148.465 141.523  1.00  0.00     0.012 C 
ENDROOT
TORSDOF 0
ENDMDL
MODEL 6
REMARK VINA RESULT:    -3.118      1.942      3.141
REMARK INTER + INTRA:          -3.118
REMARK INTER:                  -3.118
REMARK INTRA:                   0.000
REMARK UNBOUND:                 0.000
REMARK SMILES CC1(C)[C@H]2CC[C@]1(C)C(=O)C2
REMARK SMILES IDX 1 1 2 2 4 3 5 4 6 5 7 6 9 7 10 8 11 9 8 10 3 11
REMARK H PARENT
REMARK Flexibility Score: inf
ROOT
ATOM      1  C   UNL     1     134.439 140.541 138.756  1.00  0.00     0.012 C 
ATOM      2  C   UNL     1     134.679 141.418 140.024  1.00  0.00    -0.020 C 
ATOM      3  C   UNL     1     134.597 140.625 141.351  1.00  0.00     0.003 C 
ATOM      4  C   UNL     1     134.698 141.743 142.424  1.00  0.00     0.005 C 
ATOM      5  C   UNL     1     133.929 142.920 141.774  1.00  0.00     0.015 C 
ATOM      6  C   UNL     1     133.495 142.330 140.410  1.00  0.00     0.032 C 
ATOM      7  C   UNL     1     132.449 141.299 140.753  1.00  0.00     0.139 C 
ATOM      8  O   UNL     1     131.242 141.430 140.623  1.00  0.00    -0.299 OA
ATOM      9  C   UNL     1     133.127 140.121 141.382  1.00  0.00     0.080 C 
ATOM     10  C   UNL     1     133.064 143.369 139.369  1.00  0.00     0.020 C 
ATOM     11  C   UNL     1     136.042 142.142 139.807  1.00  0.00     0.012 C 
ENDROOT
TORSDOF 0
ENDMDL
MODEL 7
REMARK VINA RESULT:    -3.111      7.894      9.132
REMARK INTER + INTRA:          -3.111
REMARK INTER:                  -3.111
REMARK INTRA:                   0.000
REMARK UNBOUND:                 0.000
REMARK SMILES CC1(C)[C@H]2CC[C@]1(C)C(=O)C2
REMARK SMILES IDX 1 1 2 2 4 3 5 4 6 5 7 6 9 7 10 8 11 9 8 10 3 11
REMARK H PARENT
REMARK Flexibility Score: inf
ROOT
ATOM      1  C   UNL     1     139.875 148.425 141.375  1.00  0.00     0.012 C 
ATOM      2  C   UNL     1     140.551 147.212 140.664  1.00  0.00    -0.020 C 
ATOM      3  C   UNL     1     140.822 146.013 141.605  1.00  0.00     0.003 C 
ATOM      4  C   UNL     1     141.634 145.045 140.701  1.00  0.00     0.005 C 
ATOM      5  C   UNL     1     142.489 146.008 139.841  1.00  0.00     0.015 C 
ATOM      6  C   UNL     1     142.052 147.401 140.354  1.00  0.00     0.032 C 
ATOM      7  C   UNL     1     142.616 147.491 141.750  1.00  0.00     0.139 C 
ATOM      8  O   UNL     1     143.604 148.125 142.086  1.00  0.00    -0.299 OA
ATOM      9  C   UNL     1     141.825 146.586 142.644  1.00  0.00     0.080 C 
ATOM     10  C   UNL     1     142.418 148.569 139.431  1.00  0.00     0.020 C 
ATOM     11  C   UNL     1     139.653 146.862 139.440  1.00  0.00     0.012 C 
ENDROOT
TORSDOF 0
ENDMDL
MODEL 8
REMARK VINA RESULT:    -3.108      1.712      2.861
REMARK INTER + INTRA:          -3.108
REMARK INTER:                  -3.108
REMARK INTRA:                   0.000
REMARK UNBOUND:                 0.000
REMARK SMILES CC1(C)[C@H]2CC[C@]1(C)C(=O)C2
REMARK SMILES IDX 1 1 2 2 4 3 5 4 6 5 7 6 9 7 10 8 11 9 8 10 3 11
REMARK H PARENT
REMARK Flexibility Score: inf
ROOT
ATOM      1  C   UNL     1     133.169 139.889 141.474  1.00  0.00     0.012 C 
ATOM      2  C   UNL     1     133.975 140.736 140.441  1.00  0.00    -0.020 C 
ATOM      3  C   UNL     1     134.934 141.761 141.093  1.00  0.00     0.003 C 
ATOM      4  C   UNL     1     135.462 142.560 139.870  1.00  0.00     0.005 C 
ATOM      5  C   UNL     1     134.230 142.619 138.934  1.00  0.00     0.015 C 
ATOM      6  C   UNL     1     133.159 141.839 139.733  1.00  0.00     0.032 C 
ATOM      7  C   UNL     1     132.826 142.732 140.902  1.00  0.00     0.139 C 
ATOM      8  O   UNL     1     131.825 143.423 141.016  1.00  0.00    -0.299 OA
ATOM      9  C   UNL     1     133.978 142.716 141.860  1.00  0.00     0.080 C 
ATOM     10  C   UNL     1     131.953 141.374 138.909  1.00  0.00     0.020 C 
ATOM     11  C   UNL     1     134.687 139.719 139.498  1.00  0.00     0.012 C 
ENDROOT
TORSDOF 0
ENDMDL
MODEL 9
REMARK VINA RESULT:    -3.079     12.151     13.340
REMARK INTER + INTRA:          -3.079
REMARK INTER:                  -3.079
REMARK INTRA:                   0.000
REMARK UNBOUND:                 0.000
REMARK SMILES CC1(C)[C@H]2CC[C@]1(C)C(=O)C2
REMARK SMILES IDX 1 1 2 2 4 3 5 4 6 5 7 6 9 7 10 8 11 9 8 10 3 11
REMARK H PARENT
REMARK Flexibility Score: inf
ROOT
ATOM      1  C   UNL     1     147.136 141.000 138.836  1.00  0.00     0.012 C 
ATOM      2  C   UNL     1     146.921 140.133 140.116  1.00  0.00    -0.020 C 
ATOM      3  C   UNL     1     147.017 140.940 141.434  1.00  0.00     0.003 C 
ATOM      4  C   UNL     1     146.939 139.832 142.520  1.00  0.00     0.005 C 
ATOM      5  C   UNL     1     147.708 138.654 141.870  1.00  0.00     0.015 C 
ATOM      6  C   UNL     1     148.117 139.233 140.495  1.00  0.00     0.032 C 
ATOM      7  C   UNL     1     149.161 140.275 140.812  1.00  0.00     0.139 C 
ATOM      8  O   UNL     1     150.367 140.151 140.665  1.00  0.00    -0.299 OA
ATOM      9  C   UNL     1     148.484 141.455 141.439  1.00  0.00     0.080 C 
ATOM     10  C   UNL     1     148.540 138.187 139.457  1.00  0.00     0.020 C 
ATOM     11  C   UNL     1     145.561 139.397 139.927  1.00  0.00     0.012 C 
ENDROOT
TORSDOF 0
ENDMDL
