MODEL 1
REMARK VINA RESULT:    -4.820      0.000      0.000
REMARK INTER + INTRA:         -10.910
REMARK INTER:                  -9.047
REMARK INTRA:                  -1.863
REMARK UNBOUND:                -1.863
REMARK SMILES O=C([O-])CCCCCCCCCCCCCCC(=O)[O-]
REMARK SMILES IDX 10 1 9 2 8 3 7 4 6 5 5 6 4 7 2 8 1 9 3 10 11 11 12 12 13 13
REMARK SMILES IDX 14 14 15 15 16 16 17 17 18 18 19 19 20 20
REMARK H PARENT
REMARK Flexibility Score: inf
ROOT
ATOM      1  C   UNL     1       7.291 -13.200  -1.354  1.00  0.00     0.000 C 
ENDROOT
BRANCH   1   2
ATOM      2  C   UNL     1       7.763 -13.771  -2.705  1.00  0.00     0.000 C 
BRANCH   2   3
ATOM      3  C   UNL     1       7.069 -13.191  -3.950  1.00  0.00     0.000 C 
BRANCH   3   4
ATOM      4  C   UNL     1       5.534 -13.215  -3.851  1.00  0.00     0.000 C 
BRANCH   4   5
ATOM      5  C   UNL     1       4.840 -12.982  -5.206  1.00  0.00     0.000 C 
BRANCH   5   6
ATOM      6  C   UNL     1       4.909 -11.539  -5.739  1.00  0.00     0.006 C 
BRANCH   6   7
ATOM      7  C   UNL     1       3.585 -11.059  -6.346  1.00  0.00     0.053 C 
BRANCH   7   8
ATOM      8  C   UNL     1       3.796  -9.812  -7.143  1.00  0.00     0.041 C 
ATOM      9  O   UNL     1       2.953  -9.463  -8.011  1.00  0.00    -0.550 OA
ATOM     10  O   UNL     1       4.949  -9.058  -6.962  1.00  0.00    -0.550 OA
ENDBRANCH   7   8
ENDBRANCH   6   7
ENDBRANCH   5   6
ENDBRANCH   4   5
ENDBRANCH   3   4
ENDBRANCH   2   3
ENDBRANCH   1   2
BRANCH   1  11
ATOM     11  C   UNL     1       8.439 -12.624  -0.510  1.00  0.00     0.000 C 
BRANCH  11  12
ATOM     12  C   UNL     1       8.406 -11.087  -0.420  1.00  0.00     0.000 C 
BRANCH  12  13
ATOM     13  C   UNL     1       8.004 -10.360  -1.717  1.00  0.00     0.000 C 
BRANCH  13  14
ATOM     14  C   UNL     1       6.811  -9.410  -1.528  1.00  0.00     0.000 C 
BRANCH  14  15
ATOM     15  C   UNL     1       5.501 -10.076  -1.973  1.00  0.00     0.000 C 
BRANCH  15  16
ATOM     16  C   UNL     1       4.682 -10.640  -0.798  1.00  0.00     0.006 C 
BRANCH  16  17
ATOM     17  C   UNL     1       3.468 -11.481  -1.231  1.00  0.00     0.053 C 
BRANCH  17  18
ATOM     18  C   UNL     1       3.277 -12.697  -0.375  1.00  0.00     0.041 C 
ATOM     19  O   UNL     1       3.936 -13.745  -0.605  1.00  0.00    -0.550 OA
ATOM     20  O   UNL     1       2.398 -12.663   0.701  1.00  0.00    -0.550 OA
ENDBRANCH  17  18
ENDBRANCH  16  17
ENDBRANCH  15  16
ENDBRANCH  14  15
ENDBRANCH  13  14
ENDBRANCH  12  13
ENDBRANCH  11  12
ENDBRANCH   1  11
TORSDOF 15
ENDMDL
MODEL 2
REMARK VINA RESULT:    -4.774      1.721      2.885
REMARK INTER + INTRA:         -10.824
REMARK INTER:                  -9.342
REMARK INTRA:                  -1.481
REMARK UNBOUND:                -1.863
REMARK SMILES O=C([O-])CCCCCCCCCCCCCCC(=O)[O-]
REMARK SMILES IDX 10 1 9 2 8 3 7 4 6 5 5 6 4 7 2 8 1 9 3 10 11 11 12 12 13 13
REMARK SMILES IDX 14 14 15 15 16 16 17 17 18 18 19 19 20 20
REMARK H PARENT
REMARK Flexibility Score: inf
ROOT
ATOM      1  C   UNL     1       6.626 -13.095  -3.658  1.00  0.00     0.000 C 
ENDROOT
BRANCH   1   2
ATOM      2  C   UNL     1       5.158 -13.348  -3.265  1.00  0.00     0.000 C 
BRANCH   2   3
ATOM      3  C   UNL     1       4.134 -13.221  -4.407  1.00  0.00     0.000 C 
BRANCH   3   4
ATOM      4  C   UNL     1       4.777 -12.855  -5.756  1.00  0.00     0.000 C 
BRANCH   4   5
ATOM      5  C   UNL     1       4.614 -11.366  -6.115  1.00  0.00     0.000 C 
BRANCH   5   6
ATOM      6  C   UNL     1       3.208 -10.784  -5.882  1.00  0.00     0.006 C 
BRANCH   6   7
ATOM      7  C   UNL     1       2.423 -10.571  -7.182  1.00  0.00     0.053 C 
BRANCH   7   8
ATOM      8  C   UNL     1       2.722  -9.224  -7.760  1.00  0.00     0.041 C 
ATOM      9  O   UNL     1       2.133  -8.201  -7.320  1.00  0.00    -0.550 OA
ATOM     10  O   UNL     1       3.615  -9.103  -8.817  1.00  0.00    -0.550 OA
ENDBRANCH   7   8
ENDBRANCH   6   7
ENDBRANCH   5   6
ENDBRANCH   4   5
ENDBRANCH   3   4
ENDBRANCH   2   3
ENDBRANCH   1   2
BRANCH   1  11
ATOM     11  C   UNL     1       7.628 -13.656  -2.636  1.00  0.00     0.000 C 
BRANCH  11  12
ATOM     12  C   UNL     1       7.428 -13.081  -1.222  1.00  0.00     0.000 C 
BRANCH  12  13
ATOM     13  C   UNL     1       8.723 -12.738  -0.462  1.00  0.00     0.000 C 
BRANCH  13  14
ATOM     14  C   UNL     1       9.000 -11.228  -0.396  1.00  0.00     0.000 C 
BRANCH  14  15
ATOM     15  C   UNL     1       8.025 -10.532   0.564  1.00  0.00     0.000 C 
BRANCH  15  16
ATOM     16  C   UNL     1       7.238  -9.387  -0.100  1.00  0.00     0.006 C 
BRANCH  16  17
ATOM     17  C   UNL     1       7.034  -9.566  -1.615  1.00  0.00     0.053 C 
BRANCH  17  18
ATOM     18  C   UNL     1       5.617  -9.902  -1.969  1.00  0.00     0.041 C 
ATOM     19  O   UNL     1       5.149  -9.573  -3.091  1.00  0.00    -0.550 OA
ATOM     20  O   UNL     1       4.822 -10.610  -1.076  1.00  0.00    -0.550 OA
ENDBRANCH  17  18
ENDBRANCH  16  17
ENDBRANCH  15  16
ENDBRANCH  14  15
ENDBRANCH  13  14
ENDBRANCH  12  13
ENDBRANCH  11  12
ENDBRANCH   1  11
TORSDOF 15
ENDMDL
MODEL 3
REMARK VINA RESULT:    -4.758      2.639      7.642
REMARK INTER + INTRA:         -10.794
REMARK INTER:                  -9.657
REMARK INTRA:                  -1.137
REMARK UNBOUND:                -1.863
REMARK SMILES O=C([O-])CCCCCCCCCCCCCCC(=O)[O-]
REMARK SMILES IDX 10 1 9 2 8 3 7 4 6 5 5 6 4 7 2 8 1 9 3 10 11 11 12 12 13 13
REMARK SMILES IDX 14 14 15 15 16 16 17 17 18 18 19 19 20 20
REMARK H PARENT
REMARK Flexibility Score: inf
ROOT
ATOM      1  C   UNL     1       2.516 -11.768  -5.186  1.00  0.00     0.000 C 
ENDROOT
BRANCH   1   2
ATOM      2  C   UNL     1       3.298 -13.064  -4.898  1.00  0.00     0.000 C 
BRANCH   2   3
ATOM      3  C   UNL     1       4.677 -13.170  -5.573  1.00  0.00     0.000 C 
BRANCH   3   4
ATOM      4  C   UNL     1       5.740 -12.272  -4.919  1.00  0.00     0.000 C 
BRANCH   4   5
ATOM      5  C   UNL     1       6.806 -13.069  -4.144  1.00  0.00     0.000 C 
BRANCH   5   6
ATOM      6  C   UNL     1       6.436 -13.420  -2.691  1.00  0.00     0.006 C 
BRANCH   6   7
ATOM      7  C   UNL     1       7.660 -13.671  -1.803  1.00  0.00     0.053 C 
BRANCH   7   8
ATOM      8  C   UNL     1       7.914 -12.494  -0.916  1.00  0.00     0.041 C 
ATOM      9  O   UNL     1       7.194 -11.464  -1.008  1.00  0.00    -0.550 OA
ATOM     10  O   UNL     1       8.976 -12.513  -0.022  1.00  0.00    -0.550 OA
ENDBRANCH   7   8
ENDBRANCH   6   7
ENDBRANCH   5   6
ENDBRANCH   4   5
ENDBRANCH   3   4
ENDBRANCH   2   3
ENDBRANCH   1   2
BRANCH   1  11
ATOM     11  C   UNL     1       1.711 -11.830  -6.494  1.00  0.00     0.000 C 
BRANCH  11  12
ATOM     12  C   UNL     1       0.278 -11.288  -6.344  1.00  0.00     0.000 C 
BRANCH  12  13
ATOM     13  C   UNL     1       0.164  -9.758  -6.209  1.00  0.00     0.000 C 
BRANCH  13  14
ATOM     14  C   UNL     1      -0.668  -9.115  -7.329  1.00  0.00     0.000 C 
BRANCH  14  15
ATOM     15  C   UNL     1       0.233  -8.374  -8.328  1.00  0.00     0.000 C 
BRANCH  15  16
ATOM     16  C   UNL     1       1.709  -8.330  -7.892  1.00  0.00     0.006 C 
BRANCH  16  17
ATOM     17  C   UNL     1       2.686  -8.890  -8.939  1.00  0.00     0.053 C 
BRANCH  17  18
ATOM     18  C   UNL     1       4.103  -8.912  -8.450  1.00  0.00     0.041 C 
ATOM     19  O   UNL     1       4.943  -8.092  -8.905  1.00  0.00    -0.550 OA
ATOM     20  O   UNL     1       4.489  -9.813  -7.465  1.00  0.00    -0.550 OA
ENDBRANCH  17  18
ENDBRANCH  16  17
ENDBRANCH  15  16
ENDBRANCH  14  15
ENDBRANCH  13  14
ENDBRANCH  12  13
ENDBRANCH  11  12
ENDBRANCH   1  11
TORSDOF 15
ENDMDL
MODEL 4
REMARK VINA RESULT:    -4.705      1.426      5.994
REMARK INTER + INTRA:         -10.694
REMARK INTER:                  -9.305
REMARK INTRA:                  -1.390
REMARK UNBOUND:                -1.863
REMARK SMILES O=C([O-])CCCCCCCCCCCCCCC(=O)[O-]
REMARK SMILES IDX 10 1 9 2 8 3 7 4 6 5 5 6 4 7 2 8 1 9 3 10 11 11 12 12 13 13
REMARK SMILES IDX 14 14 15 15 16 16 17 17 18 18 19 19 20 20
REMARK H PARENT
REMARK Flexibility Score: inf
ROOT
ATOM      1  C   UNL     1       7.732 -13.932  -2.448  1.00  0.00     0.000 C 
ENDROOT
BRANCH   1   2
ATOM      2  C   UNL     1       7.292 -13.029  -1.279  1.00  0.00     0.000 C 
BRANCH   2   3
ATOM      3  C   UNL     1       8.433 -12.352  -0.498  1.00  0.00     0.000 C 
BRANCH   3   4
ATOM      4  C   UNL     1       8.275 -10.825  -0.404  1.00  0.00     0.000 C 
BRANCH   4   5
ATOM      5  C   UNL     1       7.562 -10.217  -1.626  1.00  0.00     0.000 C 
BRANCH   5   6
ATOM      6  C   UNL     1       6.580  -9.073  -1.313  1.00  0.00     0.006 C 
BRANCH   6   7
ATOM      7  C   UNL     1       5.419  -9.509  -0.411  1.00  0.00     0.053 C 
BRANCH   7   8
ATOM      8  C   UNL     1       4.557 -10.508  -1.114  1.00  0.00     0.041 C 
ATOM      9  O   UNL     1       4.099 -10.256  -2.260  1.00  0.00    -0.550 OA
ATOM     10  O   UNL     1       4.218 -11.699  -0.484  1.00  0.00    -0.550 OA
ENDBRANCH   7   8
ENDBRANCH   6   7
ENDBRANCH   5   6
ENDBRANCH   4   5
ENDBRANCH   3   4
ENDBRANCH   2   3
ENDBRANCH   1   2
BRANCH   1  11
ATOM     11  C   UNL     1       7.298 -13.392  -3.820  1.00  0.00     0.000 C 
BRANCH  11  12
ATOM     12  C   UNL     1       5.837 -12.906  -3.839  1.00  0.00     0.000 C 
BRANCH  12  13
ATOM     13  C   UNL     1       5.091 -13.115  -5.170  1.00  0.00     0.000 C 
BRANCH  13  14
ATOM     14  C   UNL     1       4.043 -12.026  -5.449  1.00  0.00     0.000 C 
BRANCH  14  15
ATOM     15  C   UNL     1       4.597 -10.964  -6.411  1.00  0.00     0.000 C 
BRANCH  15  16
ATOM     16  C   UNL     1       3.493 -10.142  -7.102  1.00  0.00     0.006 C 
BRANCH  16  17
ATOM     17  C   UNL     1       4.026  -9.029  -8.021  1.00  0.00     0.053 C 
BRANCH  17  18
ATOM     18  C   UNL     1       4.344  -7.770  -7.274  1.00  0.00     0.041 C 
ATOM     19  O   UNL     1       5.542  -7.435  -7.077  1.00  0.00    -0.550 OA
ATOM     20  O   UNL     1       3.320  -6.944  -6.826  1.00  0.00    -0.550 OA
ENDBRANCH  17  18
ENDBRANCH  16  17
ENDBRANCH  15  16
ENDBRANCH  14  15
ENDBRANCH  13  14
ENDBRANCH  12  13
ENDBRANCH  11  12
ENDBRANCH   1  11
TORSDOF 15
ENDMDL
MODEL 5
REMARK VINA RESULT:    -4.687      2.325      6.609
REMARK INTER + INTRA:         -10.660
REMARK INTER:                  -9.371
REMARK INTRA:                  -1.290
REMARK UNBOUND:                -1.863
REMARK SMILES O=C([O-])CCCCCCCCCCCCCCC(=O)[O-]
REMARK SMILES IDX 10 1 9 2 8 3 7 4 6 5 5 6 4 7 2 8 1 9 3 10 11 11 12 12 13 13
REMARK SMILES IDX 14 14 15 15 16 16 17 17 18 18 19 19 20 20
REMARK H PARENT
REMARK Flexibility Score: inf
ROOT
ATOM      1  C   UNL     1       5.847 -12.477  -3.961  1.00  0.00     0.000 C 
ENDROOT
BRANCH   1   2
ATOM      2  C   UNL     1       7.234 -13.147  -3.922  1.00  0.00     0.000 C 
BRANCH   2   3
ATOM      3  C   UNL     1       7.615 -13.806  -2.584  1.00  0.00     0.000 C 
BRANCH   3   4
ATOM      4  C   UNL     1       7.151 -12.997  -1.360  1.00  0.00     0.000 C 
BRANCH   4   5
ATOM      5  C   UNL     1       8.321 -12.492  -0.495  1.00  0.00     0.000 C 
BRANCH   5   6
ATOM      6  C   UNL     1       8.518 -10.965  -0.482  1.00  0.00     0.006 C 
BRANCH   6   7
ATOM      7  C   UNL     1       7.709 -10.246  -1.569  1.00  0.00     0.053 C 
BRANCH   7   8
ATOM      8  C   UNL     1       6.786  -9.242  -0.956  1.00  0.00     0.041 C 
ATOM      9  O   UNL     1       5.586  -9.172  -1.332  1.00  0.00    -0.550 OA
ATOM     10  O   UNL     1       7.262  -8.350  -0.004  1.00  0.00    -0.550 OA
ENDBRANCH   7   8
ENDBRANCH   6   7
ENDBRANCH   5   6
ENDBRANCH   4   5
ENDBRANCH   3   4
ENDBRANCH   2   3
ENDBRANCH   1   2
BRANCH   1  11
ATOM     11  C   UNL     1       5.204 -12.507  -5.357  1.00  0.00     0.000 C 
BRANCH  11  12
ATOM     12  C   UNL     1       3.864 -13.266  -5.384  1.00  0.00     0.000 C 
BRANCH  12  13
ATOM     13  C   UNL     1       2.628 -12.432  -4.999  1.00  0.00     0.000 C 
BRANCH  13  14
ATOM     14  C   UNL     1       1.882 -11.865  -6.216  1.00  0.00     0.000 C 
BRANCH  14  15
ATOM     15  C   UNL     1       2.076 -10.345  -6.322  1.00  0.00     0.000 C 
BRANCH  15  16
ATOM     16  C   UNL     1       2.764  -9.915  -7.630  1.00  0.00     0.006 C 
BRANCH  16  17
ATOM     17  C   UNL     1       4.254  -9.569  -7.468  1.00  0.00     0.053 C 
BRANCH  17  18
ATOM     18  C   UNL     1       4.523  -8.102  -7.612  1.00  0.00     0.041 C 
ATOM     19  O   UNL     1       4.079  -7.289  -6.759  1.00  0.00    -0.550 OA
ATOM     20  O   UNL     1       5.295  -7.632  -8.669  1.00  0.00    -0.550 OA
ENDBRANCH  17  18
ENDBRANCH  16  17
ENDBRANCH  15  16
ENDBRANCH  14  15
ENDBRANCH  13  14
ENDBRANCH  12  13
ENDBRANCH  11  12
ENDBRANCH   1  11
TORSDOF 15
ENDMDL
MODEL 6
REMARK VINA RESULT:    -4.677      2.779      3.881
REMARK INTER + INTRA:         -10.641
REMARK INTER:                  -9.681
REMARK INTRA:                  -0.959
REMARK UNBOUND:                -1.863
REMARK SMILES O=C([O-])CCCCCCCCCCCCCCC(=O)[O-]
REMARK SMILES IDX 10 1 9 2 8 3 7 4 6 5 5 6 4 7 2 8 1 9 3 10 11 11 12 12 13 13
REMARK SMILES IDX 14 14 15 15 16 16 17 17 18 18 19 19 20 20
REMARK H PARENT
REMARK Flexibility Score: inf
ROOT
ATOM      1  C   UNL     1       6.314 -12.347  -3.504  1.00  0.00     0.000 C 
ENDROOT
BRANCH   1   2
ATOM      2  C   UNL     1       4.998 -13.038  -3.911  1.00  0.00     0.000 C 
BRANCH   2   3
ATOM      3  C   UNL     1       4.749 -13.150  -5.425  1.00  0.00     0.000 C 
BRANCH   3   4
ATOM      4  C   UNL     1       4.576 -11.784  -6.111  1.00  0.00     0.000 C 
BRANCH   4   5
ATOM      5  C   UNL     1       3.115 -11.298  -6.125  1.00  0.00     0.000 C 
BRANCH   5   6
ATOM      6  C   UNL     1       2.808 -10.170  -7.127  1.00  0.00     0.006 C 
BRANCH   6   7
ATOM      7  C   UNL     1       1.312  -9.846  -7.227  1.00  0.00     0.053 C 
BRANCH   7   8
ATOM      8  C   UNL     1       1.111  -8.424  -7.643  1.00  0.00     0.041 C 
ATOM      9  O   UNL     1       0.439  -8.154  -8.674  1.00  0.00    -0.550 OA
ATOM     10  O   UNL     1       1.706  -7.398  -6.922  1.00  0.00    -0.550 OA
ENDBRANCH   7   8
ENDBRANCH   6   7
ENDBRANCH   5   6
ENDBRANCH   4   5
ENDBRANCH   3   4
ENDBRANCH   2   3
ENDBRANCH   1   2
BRANCH   1  11
ATOM     11  C   UNL     1       7.496 -13.324  -3.389  1.00  0.00     0.000 C 
BRANCH  11  12
ATOM     12  C   UNL     1       7.753 -13.788  -1.943  1.00  0.00     0.000 C 
BRANCH  12  13
ATOM     13  C   UNL     1       7.462 -12.738  -0.854  1.00  0.00     0.000 C 
BRANCH  13  14
ATOM     14  C   UNL     1       8.735 -12.203  -0.180  1.00  0.00     0.000 C 
BRANCH  14  15
ATOM     15  C   UNL     1       8.660 -10.680   0.005  1.00  0.00     0.000 C 
BRANCH  15  16
ATOM     16  C   UNL     1       7.482 -10.038  -0.750  1.00  0.00     0.006 C 
BRANCH  16  17
ATOM     17  C   UNL     1       6.534  -9.224   0.149  1.00  0.00     0.053 C 
BRANCH  17  18
ATOM     18  C   UNL     1       6.528  -7.765  -0.194  1.00  0.00     0.041 C 
ATOM     19  O   UNL     1       5.752  -7.326  -1.084  1.00  0.00    -0.550 OA
ATOM     20  O   UNL     1       7.351  -6.882   0.493  1.00  0.00    -0.550 OA
ENDBRANCH  17  18
ENDBRANCH  16  17
ENDBRANCH  15  16
ENDBRANCH  14  15
ENDBRANCH  13  14
ENDBRANCH  12  13
ENDBRANCH  11  12
ENDBRANCH   1  11
TORSDOF 15
ENDMDL
MODEL 7
REMARK VINA RESULT:    -4.634      2.157      2.687
REMARK INTER + INTRA:         -10.561
REMARK INTER:                  -8.354
REMARK INTRA:                  -2.207
REMARK UNBOUND:                -1.863
REMARK SMILES O=C([O-])CCCCCCCCCCCCCCC(=O)[O-]
REMARK SMILES IDX 10 1 9 2 8 3 7 4 6 5 5 6 4 7 2 8 1 9 3 10 11 11 12 12 13 13
REMARK SMILES IDX 14 14 15 15 16 16 17 17 18 18 19 19 20 20
REMARK H PARENT
REMARK Flexibility Score: inf
ROOT
ATOM      1  C   UNL     1       7.603 -13.324  -2.883  1.00  0.00     0.000 C 
ENDROOT
BRANCH   1   2
ATOM      2  C   UNL     1       6.361 -13.253  -3.791  1.00  0.00     0.000 C 
BRANCH   2   3
ATOM      3  C   UNL     1       5.010 -13.463  -3.085  1.00  0.00     0.000 C 
BRANCH   3   4
ATOM      4  C   UNL     1       3.809 -13.385  -4.044  1.00  0.00     0.000 C 
BRANCH   4   5
ATOM      5  C   UNL     1       4.219 -13.075  -5.495  1.00  0.00     0.000 C 
BRANCH   5   6
ATOM      6  C   UNL     1       3.805 -11.684  -6.012  1.00  0.00     0.006 C 
BRANCH   6   7
ATOM      7  C   UNL     1       4.991 -10.852  -6.514  1.00  0.00     0.053 C 
BRANCH   7   8
ATOM      8  C   UNL     1       4.521  -9.530  -7.032  1.00  0.00     0.041 C 
ATOM      9  O   UNL     1       4.921  -8.462  -6.498  1.00  0.00    -0.550 OA
ATOM     10  O   UNL     1       3.603  -9.478  -8.073  1.00  0.00    -0.550 OA
ENDBRANCH   7   8
ENDBRANCH   6   7
ENDBRANCH   5   6
ENDBRANCH   4   5
ENDBRANCH   3   4
ENDBRANCH   2   3
ENDBRANCH   1   2
BRANCH   1  11
ATOM     11  C   UNL     1       7.256 -13.284  -1.385  1.00  0.00     0.000 C 
BRANCH  11  12
ATOM     12  C   UNL     1       8.333 -12.581  -0.538  1.00  0.00     0.000 C 
BRANCH  12  13
ATOM     13  C   UNL     1       8.599 -11.109  -0.902  1.00  0.00     0.000 C 
BRANCH  13  14
ATOM     14  C   UNL     1       7.679 -10.129  -0.158  1.00  0.00     0.000 C 
BRANCH  14  15
ATOM     15  C   UNL     1       6.816  -9.328  -1.143  1.00  0.00     0.000 C 
BRANCH  15  16
ATOM     16  C   UNL     1       5.515 -10.054  -1.533  1.00  0.00     0.006 C 
BRANCH  16  17
ATOM     17  C   UNL     1       5.032  -9.746  -2.961  1.00  0.00     0.053 C 
BRANCH  17  18
ATOM     18  C   UNL     1       3.824  -8.860  -2.981  1.00  0.00     0.041 C 
ATOM     19  O   UNL     1       3.714  -7.917  -2.153  1.00  0.00    -0.550 OA
ATOM     20  O   UNL     1       2.833  -9.049  -3.937  1.00  0.00    -0.550 OA
ENDBRANCH  17  18
ENDBRANCH  16  17
ENDBRANCH  15  16
ENDBRANCH  14  15
ENDBRANCH  13  14
ENDBRANCH  12  13
ENDBRANCH  11  12
ENDBRANCH   1  11
TORSDOF 15
ENDMDL
MODEL 8
REMARK VINA RESULT:    -4.576      0.873      5.489
REMARK INTER + INTRA:         -10.452
REMARK INTER:                  -8.278
REMARK INTRA:                  -2.174
REMARK UNBOUND:                -1.863
REMARK SMILES O=C([O-])CCCCCCCCCCCCCCC(=O)[O-]
REMARK SMILES IDX 10 1 9 2 8 3 7 4 6 5 5 6 4 7 2 8 1 9 3 10 11 11 12 12 13 13
REMARK SMILES IDX 14 14 15 15 16 16 17 17 18 18 19 19 20 20
REMARK H PARENT
REMARK Flexibility Score: inf
ROOT
ATOM      1  C   UNL     1       8.467 -11.115  -0.717  1.00  0.00     0.000 C 
ENDROOT
BRANCH   1   2
ATOM      2  C   UNL     1       7.916 -10.306   0.472  1.00  0.00     0.000 C 
BRANCH   2   3
ATOM      3  C   UNL     1       6.659  -9.467   0.178  1.00  0.00     0.000 C 
BRANCH   3   4
ATOM      4  C   UNL     1       6.440  -9.215  -1.324  1.00  0.00     0.000 C 
BRANCH   4   5
ATOM      5  C   UNL     1       5.205  -9.945  -1.882  1.00  0.00     0.000 C 
BRANCH   5   6
ATOM      6  C   UNL     1       4.688 -11.114  -1.023  1.00  0.00     0.006 C 
BRANCH   6   7
ATOM      7  C   UNL     1       3.297 -11.601  -1.447  1.00  0.00     0.053 C 
BRANCH   7   8
ATOM      8  C   UNL     1       2.957 -12.880  -0.750  1.00  0.00     0.041 C 
ATOM      9  O   UNL     1       2.865 -13.953  -1.403  1.00  0.00    -0.550 OA
ATOM     10  O   UNL     1       2.691 -12.879   0.613  1.00  0.00    -0.550 OA
ENDBRANCH   7   8
ENDBRANCH   6   7
ENDBRANCH   5   6
ENDBRANCH   4   5
ENDBRANCH   3   4
ENDBRANCH   2   3
ENDBRANCH   1   2
BRANCH   1  11
ATOM     11  C   UNL     1       8.361 -12.635  -0.511  1.00  0.00     0.000 C 
BRANCH  11  12
ATOM     12  C   UNL     1       7.598 -13.343  -1.647  1.00  0.00     0.000 C 
BRANCH  12  13
ATOM     13  C   UNL     1       7.505 -12.556  -2.967  1.00  0.00     0.000 C 
BRANCH  13  14
ATOM     14  C   UNL     1       6.850 -13.360  -4.101  1.00  0.00     0.000 C 
BRANCH  14  15
ATOM     15  C   UNL     1       5.321 -13.357  -3.966  1.00  0.00     0.000 C 
BRANCH  15  16
ATOM     16  C   UNL     1       4.608 -12.764  -5.194  1.00  0.00     0.006 C 
BRANCH  16  17
ATOM     17  C   UNL     1       4.988 -11.303  -5.492  1.00  0.00     0.053 C 
BRANCH  17  18
ATOM     18  C   UNL     1       4.099 -10.676  -6.523  1.00  0.00     0.041 C 
ATOM     19  O   UNL     1       2.902 -11.049  -6.639  1.00  0.00    -0.550 OA
ATOM     20  O   UNL     1       4.580  -9.653  -7.332  1.00  0.00    -0.550 OA
ENDBRANCH  17  18
ENDBRANCH  16  17
ENDBRANCH  15  16
ENDBRANCH  14  15
ENDBRANCH  13  14
ENDBRANCH  12  13
ENDBRANCH  11  12
ENDBRANCH   1  11
TORSDOF 15
ENDMDL
MODEL 9
REMARK VINA RESULT:    -4.553      1.854      3.931
REMARK INTER + INTRA:         -10.409
REMARK INTER:                  -8.428
REMARK INTRA:                  -1.980
REMARK UNBOUND:                -1.863
REMARK SMILES O=C([O-])CCCCCCCCCCCCCCC(=O)[O-]
REMARK SMILES IDX 10 1 9 2 8 3 7 4 6 5 5 6 4 7 2 8 1 9 3 10 11 11 12 12 13 13
REMARK SMILES IDX 14 14 15 15 16 16 17 17 18 18 19 19 20 20
REMARK H PARENT
REMARK Flexibility Score: inf
ROOT
ATOM      1  C   UNL     1       8.318 -12.566  -0.500  1.00  0.00     0.000 C 
ENDROOT
BRANCH   1   2
ATOM      2  C   UNL     1       8.767 -11.104  -0.315  1.00  0.00     0.000 C 
BRANCH   2   3
ATOM      3  C   UNL     1       7.723 -10.164   0.314  1.00  0.00     0.000 C 
BRANCH   3   4
ATOM      4  C   UNL     1       7.028  -9.258  -0.717  1.00  0.00     0.000 C 
BRANCH   4   5
ATOM      5  C   UNL     1       5.492  -9.282  -0.600  1.00  0.00     0.000 C 
BRANCH   5   6
ATOM      6  C   UNL     1       4.757  -9.989  -1.753  1.00  0.00     0.006 C 
BRANCH   6   7
ATOM      7  C   UNL     1       4.650  -9.126  -3.016  1.00  0.00     0.053 C 
BRANCH   7   8
ATOM      8  C   UNL     1       3.463  -9.534  -3.830  1.00  0.00     0.041 C 
ATOM      9  O   UNL     1       3.574  -9.700  -5.074  1.00  0.00    -0.550 OA
ATOM     10  O   UNL     1       2.223  -9.683  -3.223  1.00  0.00    -0.550 OA
ENDBRANCH   7   8
ENDBRANCH   6   7
ENDBRANCH   5   6
ENDBRANCH   4   5
ENDBRANCH   3   4
ENDBRANCH   2   3
ENDBRANCH   1   2
BRANCH   1  11
ATOM     11  C   UNL     1       7.235 -12.730  -1.579  1.00  0.00     0.000 C 
BRANCH  11  12
ATOM     12  C   UNL     1       7.626 -13.741  -2.673  1.00  0.00     0.000 C 
BRANCH  12  13
ATOM     13  C   UNL     1       7.248 -13.336  -4.110  1.00  0.00     0.000 C 
BRANCH  13  14
ATOM     14  C   UNL     1       6.027 -12.405  -4.170  1.00  0.00     0.000 C 
BRANCH  14  15
ATOM     15  C   UNL     1       5.050 -12.851  -5.267  1.00  0.00     0.000 C 
BRANCH  15  16
ATOM     16  C   UNL     1       3.815 -13.585  -4.713  1.00  0.00     0.006 C 
BRANCH  16  17
ATOM     17  C   UNL     1       3.476 -13.225  -3.256  1.00  0.00     0.053 C 
BRANCH  17  18
ATOM     18  C   UNL     1       3.468 -14.422  -2.355  1.00  0.00     0.041 C 
ATOM     19  O   UNL     1       4.053 -14.382  -1.241  1.00  0.00    -0.550 OA
ATOM     20  O   UNL     1       2.783 -15.573  -2.727  1.00  0.00    -0.550 OA
ENDBRANCH  17  18
ENDBRANCH  16  17
ENDBRANCH  15  16
ENDBRANCH  14  15
ENDBRANCH  13  14
ENDBRANCH  12  13
ENDBRANCH  11  12
ENDBRANCH   1  11
TORSDOF 15
ENDMDL
