MODEL 1
REMARK VINA RESULT:    -4.501      0.000      0.000
REMARK INTER + INTRA:          -9.548
REMARK INTER:                  -8.184
REMARK INTRA:                  -1.364
REMARK UNBOUND:                -1.364
REMARK SMILES CCCCCCCCCCCCCC[C@@H](C)C(=O)[O-]
REMARK SMILES IDX 9 1 10 2 11 3 12 4 13 5 14 6 15 7 16 8 17 9 18 10 19 11 8 12
REMARK SMILES IDX 7 13 6 14 5 15 4 16 3 17 2 18 1 19
REMARK H PARENT
REMARK Flexibility Score: inf
ROOT
ATOM      1  C   UNL     1      18.746   2.607  -4.236  1.00  0.00     0.000 C 
ENDROOT
BRANCH   1   2
ATOM      2  C   UNL     1      19.350   3.865  -3.581  1.00  0.00     0.000 C 
BRANCH   2   3
ATOM      3  C   UNL     1      19.431   3.826  -2.044  1.00  0.00     0.000 C 
BRANCH   3   4
ATOM      4  C   UNL     1      19.359   5.225  -1.408  1.00  0.00     0.000 C 
BRANCH   4   5
ATOM      5  C   UNL     1      18.015   5.487  -0.708  1.00  0.00     0.001 C 
BRANCH   5   6
ATOM      6  C   UNL     1      17.357   4.196  -0.186  1.00  0.00     0.009 C 
BRANCH   6   7
ATOM      7  C   UNL     1      17.821   3.845   1.243  1.00  0.00     0.032 C 
ATOM      8  C   UNL     1      18.073   5.119   2.056  1.00  0.00     0.014 C 
BRANCH   7   9
ATOM      9  C   UNL     1      16.811   2.984   1.952  1.00  0.00     0.044 C 
ATOM     10  O   UNL     1      15.984   2.305   1.290  1.00  0.00    -0.550 OA
ATOM     11  O   UNL     1      16.786   2.929   3.341  1.00  0.00    -0.550 OA
ENDBRANCH   7   9
ENDBRANCH   6   7
ENDBRANCH   5   6
ENDBRANCH   4   5
ENDBRANCH   3   4
ENDBRANCH   2   3
ENDBRANCH   1   2
BRANCH   1  12
ATOM     12  C   UNL     1      17.207   2.516  -4.188  1.00  0.00     0.000 C 
BRANCH  12  13
ATOM     13  C   UNL     1      16.537   2.041  -5.490  1.00  0.00    -0.000 C 
BRANCH  13  14
ATOM     14  C   UNL     1      17.463   2.147  -6.713  1.00  0.00    -0.000 C 
BRANCH  14  15
ATOM     15  C   UNL     1      17.111   3.331  -7.634  1.00  0.00    -0.000 C 
BRANCH  15  16
ATOM     16  C   UNL     1      17.404   4.727  -7.053  1.00  0.00    -0.000 C 
BRANCH  16  17
ATOM     17  C   UNL     1      16.221   5.698  -7.199  1.00  0.00    -0.000 C 
BRANCH  17  18
ATOM     18  C   UNL     1      14.980   5.234  -6.418  1.00  0.00    -0.003 C 
ATOM     19  C   UNL     1      13.721   6.019  -6.784  1.00  0.00     0.004 C 
ENDBRANCH  17  18
ENDBRANCH  16  17
ENDBRANCH  15  16
ENDBRANCH  14  15
ENDBRANCH  13  14
ENDBRANCH  12  13
ENDBRANCH   1  12
TORSDOF 14
ENDMDL
MODEL 2
REMARK VINA RESULT:    -4.420      1.377      2.901
REMARK INTER + INTRA:          -9.400
REMARK INTER:                  -8.293
REMARK INTRA:                  -1.107
REMARK UNBOUND:                -1.364
REMARK SMILES CCCCCCCCCCCCCC[C@@H](C)C(=O)[O-]
REMARK SMILES IDX 9 1 10 2 11 3 12 4 13 5 14 6 15 7 16 8 17 9 18 10 19 11 8 12
REMARK SMILES IDX 7 13 6 14 5 15 4 16 3 17 2 18 1 19
REMARK H PARENT
REMARK Flexibility Score: inf
ROOT
ATOM      1  C   UNL     1      18.609   4.249  -0.686  1.00  0.00     0.000 C 
ENDROOT
BRANCH   1   2
ATOM      2  C   UNL     1      18.336   5.745  -0.431  1.00  0.00     0.000 C 
BRANCH   2   3
ATOM      3  C   UNL     1      18.215   6.143   1.051  1.00  0.00     0.000 C 
BRANCH   3   4
ATOM      4  C   UNL     1      19.408   5.662   1.896  1.00  0.00     0.000 C 
BRANCH   4   5
ATOM      5  C   UNL     1      18.974   5.082   3.253  1.00  0.00     0.001 C 
BRANCH   5   6
ATOM      6  C   UNL     1      17.519   4.578   3.246  1.00  0.00     0.009 C 
BRANCH   6   7
ATOM      7  C   UNL     1      17.436   3.046   3.413  1.00  0.00     0.032 C 
ATOM      8  C   UNL     1      16.399   2.675   4.477  1.00  0.00     0.014 C 
BRANCH   7   9
ATOM      9  C   UNL     1      17.091   2.370   2.113  1.00  0.00     0.044 C 
ATOM     10  O   UNL     1      17.923   1.607   1.557  1.00  0.00    -0.550 OA
ATOM     11  O   UNL     1      15.851   2.579   1.520  1.00  0.00    -0.550 OA
ENDBRANCH   7   9
ENDBRANCH   6   7
ENDBRANCH   5   6
ENDBRANCH   4   5
ENDBRANCH   3   4
ENDBRANCH   2   3
ENDBRANCH   1   2
BRANCH   1  12
ATOM     12  C   UNL     1      17.531   3.515  -1.510  1.00  0.00     0.000 C 
BRANCH  12  13
ATOM     13  C   UNL     1      18.061   2.434  -2.468  1.00  0.00    -0.000 C 
BRANCH  13  14
ATOM     14  C   UNL     1      18.170   2.924  -3.922  1.00  0.00    -0.000 C 
BRANCH  14  15
ATOM     15  C   UNL     1      16.809   3.303  -4.533  1.00  0.00    -0.000 C 
BRANCH  15  16
ATOM     16  C   UNL     1      16.854   3.784  -5.996  1.00  0.00    -0.000 C 
BRANCH  16  17
ATOM     17  C   UNL     1      15.465   4.129  -6.558  1.00  0.00    -0.000 C 
BRANCH  17  18
ATOM     18  C   UNL     1      15.247   5.645  -6.696  1.00  0.00    -0.003 C 
ATOM     19  C   UNL     1      13.768   6.029  -6.748  1.00  0.00     0.004 C 
ENDBRANCH  17  18
ENDBRANCH  16  17
ENDBRANCH  15  16
ENDBRANCH  14  15
ENDBRANCH  13  14
ENDBRANCH  12  13
ENDBRANCH   1  12
TORSDOF 14
ENDMDL
MODEL 3
REMARK VINA RESULT:    -4.354      1.457      2.672
REMARK INTER + INTRA:          -9.282
REMARK INTER:                  -7.962
REMARK INTRA:                  -1.319
REMARK UNBOUND:                -1.364
REMARK SMILES CCCCCCCCCCCCCC[C@@H](C)C(=O)[O-]
REMARK SMILES IDX 9 1 10 2 11 3 12 4 13 5 14 6 15 7 16 8 17 9 18 10 19 11 8 12
REMARK SMILES IDX 7 13 6 14 5 15 4 16 3 17 2 18 1 19
REMARK H PARENT
REMARK Flexibility Score: inf
ROOT
ATOM      1  C   UNL     1      17.436   3.054  -1.240  1.00  0.00     0.000 C 
ENDROOT
BRANCH   1   2
ATOM      2  C   UNL     1      17.082   4.534  -0.991  1.00  0.00     0.000 C 
BRANCH   2   3
ATOM      3  C   UNL     1      18.275   5.440  -0.634  1.00  0.00     0.000 C 
BRANCH   3   4
ATOM      4  C   UNL     1      18.232   5.933   0.823  1.00  0.00     0.000 C 
BRANCH   4   5
ATOM      5  C   UNL     1      19.476   5.515   1.624  1.00  0.00     0.001 C 
BRANCH   5   6
ATOM      6  C   UNL     1      19.261   4.213   2.419  1.00  0.00     0.009 C 
BRANCH   6   7
ATOM      7  C   UNL     1      17.787   4.024   2.833  1.00  0.00     0.032 C 
ATOM      8  C   UNL     1      17.280   2.642   2.408  1.00  0.00     0.014 C 
BRANCH   7   9
ATOM      9  C   UNL     1      17.608   4.194   4.318  1.00  0.00     0.044 C 
ATOM     10  O   UNL     1      18.500   4.763   5.000  1.00  0.00    -0.550 OA
ATOM     11  O   UNL     1      16.458   3.730   4.945  1.00  0.00    -0.550 OA
ENDBRANCH   7   9
ENDBRANCH   6   7
ENDBRANCH   5   6
ENDBRANCH   4   5
ENDBRANCH   3   4
ENDBRANCH   2   3
ENDBRANCH   1   2
BRANCH   1  12
ATOM     12  C   UNL     1      18.612   2.814  -2.209  1.00  0.00     0.000 C 
BRANCH  12  13
ATOM     13  C   UNL     1      18.314   3.112  -3.689  1.00  0.00    -0.000 C 
BRANCH  13  14
ATOM     14  C   UNL     1      17.132   2.296  -4.238  1.00  0.00    -0.000 C 
BRANCH  14  15
ATOM     15  C   UNL     1      17.174   2.129  -5.768  1.00  0.00    -0.000 C 
BRANCH  15  16
ATOM     16  C   UNL     1      16.091   2.900  -6.545  1.00  0.00    -0.000 C 
BRANCH  16  17
ATOM     17  C   UNL     1      15.607   4.161  -5.809  1.00  0.00    -0.000 C 
BRANCH  17  18
ATOM     18  C   UNL     1      15.461   5.369  -6.748  1.00  0.00    -0.003 C 
ATOM     19  C   UNL     1      14.051   5.961  -6.739  1.00  0.00     0.004 C 
ENDBRANCH  17  18
ENDBRANCH  16  17
ENDBRANCH  15  16
ENDBRANCH  14  15
ENDBRANCH  13  14
ENDBRANCH  12  13
ENDBRANCH   1  12
TORSDOF 14
ENDMDL
MODEL 4
REMARK VINA RESULT:    -4.316      3.241      7.695
REMARK INTER + INTRA:          -9.213
REMARK INTER:                  -7.248
REMARK INTRA:                  -1.965
REMARK UNBOUND:                -1.364
REMARK SMILES CCCCCCCCCCCCCC[C@@H](C)C(=O)[O-]
REMARK SMILES IDX 9 1 10 2 11 3 12 4 13 5 14 6 15 7 16 8 17 9 18 10 19 11 8 12
REMARK SMILES IDX 7 13 6 14 5 15 4 16 3 17 2 18 1 19
REMARK H PARENT
REMARK Flexibility Score: inf
ROOT
ATOM      1  C   UNL     1      18.130   5.633  -0.675  1.00  0.00     0.000 C 
ENDROOT
BRANCH   1   2
ATOM      2  C   UNL     1      19.155   4.569  -1.117  1.00  0.00     0.000 C 
BRANCH   2   3
ATOM      3  C   UNL     1      19.014   4.093  -2.574  1.00  0.00     0.000 C 
BRANCH   3   4
ATOM      4  C   UNL     1      17.974   2.971  -2.736  1.00  0.00     0.000 C 
BRANCH   4   5
ATOM      5  C   UNL     1      17.057   3.187  -3.951  1.00  0.00     0.001 C 
BRANCH   5   6
ATOM      6  C   UNL     1      17.829   3.195  -5.284  1.00  0.00     0.009 C 
BRANCH   6   7
ATOM      7  C   UNL     1      16.887   3.342  -6.498  1.00  0.00     0.032 C 
ATOM      8  C   UNL     1      15.690   2.395  -6.369  1.00  0.00     0.014 C 
BRANCH   7   9
ATOM      9  C   UNL     1      16.398   4.757  -6.645  1.00  0.00     0.044 C 
ATOM     10  O   UNL     1      15.207   5.048  -6.360  1.00  0.00    -0.550 OA
ATOM     11  O   UNL     1      17.258   5.754  -7.092  1.00  0.00    -0.550 OA
ENDBRANCH   7   9
ENDBRANCH   6   7
ENDBRANCH   5   6
ENDBRANCH   4   5
ENDBRANCH   3   4
ENDBRANCH   2   3
ENDBRANCH   1   2
BRANCH   1  12
ATOM     12  C   UNL     1      18.253   6.094   0.792  1.00  0.00     0.000 C 
BRANCH  12  13
ATOM     13  C   UNL     1      19.313   5.351   1.626  1.00  0.00    -0.000 C 
BRANCH  13  14
ATOM     14  C   UNL     1      18.815   4.980   3.032  1.00  0.00    -0.000 C 
BRANCH  14  15
ATOM     15  C   UNL     1      18.191   3.573   3.098  1.00  0.00    -0.000 C 
BRANCH  15  16
ATOM     16  C   UNL     1      18.755   2.554   2.091  1.00  0.00    -0.000 C 
BRANCH  16  17
ATOM     17  C   UNL     1      17.701   2.049   1.092  1.00  0.00    -0.000 C 
BRANCH  17  18
ATOM     18  C   UNL     1      16.276   2.483   1.472  1.00  0.00    -0.003 C 
ATOM     19  C   UNL     1      15.506   3.089   0.299  1.00  0.00     0.004 C 
ENDBRANCH  17  18
ENDBRANCH  16  17
ENDBRANCH  15  16
ENDBRANCH  14  15
ENDBRANCH  13  14
ENDBRANCH  12  13
ENDBRANCH   1  12
TORSDOF 14
ENDMDL
MODEL 5
REMARK VINA RESULT:    -4.307      1.394      2.737
REMARK INTER + INTRA:          -9.196
REMARK INTER:                  -7.150
REMARK INTRA:                  -2.046
REMARK UNBOUND:                -1.364
REMARK SMILES CCCCCCCCCCCCCC[C@@H](C)C(=O)[O-]
REMARK SMILES IDX 9 1 10 2 11 3 12 4 13 5 14 6 15 7 16 8 17 9 18 10 19 11 8 12
REMARK SMILES IDX 7 13 6 14 5 15 4 16 3 17 2 18 1 19
REMARK H PARENT
REMARK Flexibility Score: inf
ROOT
ATOM      1  C   UNL     1      17.966   2.315  -5.174  1.00  0.00     0.000 C 
ENDROOT
BRANCH   1   2
ATOM      2  C   UNL     1      18.191   3.384  -4.086  1.00  0.00     0.000 C 
BRANCH   2   3
ATOM      3  C   UNL     1      19.651   3.838  -3.908  1.00  0.00     0.000 C 
BRANCH   3   4
ATOM      4  C   UNL     1      19.767   5.279  -3.383  1.00  0.00     0.000 C 
BRANCH   4   5
ATOM      5  C   UNL     1      19.937   5.340  -1.856  1.00  0.00     0.001 C 
BRANCH   5   6
ATOM      6  C   UNL     1      18.654   5.790  -1.133  1.00  0.00     0.009 C 
BRANCH   6   7
ATOM      7  C   UNL     1      18.471   5.076   0.223  1.00  0.00     0.032 C 
ATOM      8  C   UNL     1      18.278   6.096   1.348  1.00  0.00     0.014 C 
BRANCH   7   9
ATOM      9  C   UNL     1      17.301   4.130   0.190  1.00  0.00     0.044 C 
ATOM     10  O   UNL     1      17.096   3.345   1.153  1.00  0.00    -0.550 OA
ATOM     11  O   UNL     1      16.436   4.120  -0.898  1.00  0.00    -0.550 OA
ENDBRANCH   7   9
ENDBRANCH   6   7
ENDBRANCH   5   6
ENDBRANCH   4   5
ENDBRANCH   3   4
ENDBRANCH   2   3
ENDBRANCH   1   2
BRANCH   1  12
ATOM     12  C   UNL     1      16.492   2.067  -5.556  1.00  0.00     0.000 C 
BRANCH  12  13
ATOM     13  C   UNL     1      15.958   2.935  -6.709  1.00  0.00    -0.000 C 
BRANCH  13  14
ATOM     14  C   UNL     1      15.346   4.261  -6.226  1.00  0.00    -0.000 C 
BRANCH  14  15
ATOM     15  C   UNL     1      15.992   5.496  -6.882  1.00  0.00    -0.000 C 
BRANCH  15  16
ATOM     16  C   UNL     1      17.197   5.203  -7.795  1.00  0.00    -0.000 C 
BRANCH  16  17
ATOM     17  C   UNL     1      18.539   5.621  -7.171  1.00  0.00    -0.000 C 
BRANCH  17  18
ATOM     18  C   UNL     1      19.685   4.669  -7.550  1.00  0.00    -0.003 C 
ATOM     19  C   UNL     1      19.231   3.524  -8.455  1.00  0.00     0.004 C 
ENDBRANCH  17  18
ENDBRANCH  16  17
ENDBRANCH  15  16
ENDBRANCH  14  15
ENDBRANCH  13  14
ENDBRANCH  12  13
ENDBRANCH   1  12
TORSDOF 14
ENDMDL
MODEL 6
REMARK VINA RESULT:    -4.297      1.437      2.696
REMARK INTER + INTRA:          -9.177
REMARK INTER:                  -7.352
REMARK INTRA:                  -1.826
REMARK UNBOUND:                -1.364
REMARK SMILES CCCCCCCCCCCCCC[C@@H](C)C(=O)[O-]
REMARK SMILES IDX 9 1 10 2 11 3 12 4 13 5 14 6 15 7 16 8 17 9 18 10 19 11 8 12
REMARK SMILES IDX 7 13 6 14 5 15 4 16 3 17 2 18 1 19
REMARK H PARENT
REMARK Flexibility Score: inf
ROOT
ATOM      1  C   UNL     1      19.479   5.279  -2.601  1.00  0.00     0.000 C 
ENDROOT
BRANCH   1   2
ATOM      2  C   UNL     1      19.145   4.759  -1.188  1.00  0.00     0.000 C 
BRANCH   2   3
ATOM      3  C   UNL     1      17.836   5.301  -0.585  1.00  0.00     0.000 C 
BRANCH   3   4
ATOM      4  C   UNL     1      16.630   4.388  -0.864  1.00  0.00     0.000 C 
BRANCH   4   5
ATOM      5  C   UNL     1      16.823   2.968  -0.305  1.00  0.00     0.001 C 
BRANCH   5   6
ATOM      6  C   UNL     1      16.161   2.777   1.072  1.00  0.00     0.009 C 
BRANCH   6   7
ATOM      7  C   UNL     1      17.199   2.496   2.179  1.00  0.00     0.032 C 
ATOM      8  C   UNL     1      18.581   2.242   1.571  1.00  0.00     0.014 C 
BRANCH   7   9
ATOM      9  C   UNL     1      17.279   3.636   3.158  1.00  0.00     0.044 C 
ATOM     10  O   UNL     1      17.762   4.742   2.802  1.00  0.00    -0.550 OA
ATOM     11  O   UNL     1      16.816   3.478   4.460  1.00  0.00    -0.550 OA
ENDBRANCH   7   9
ENDBRANCH   6   7
ENDBRANCH   5   6
ENDBRANCH   4   5
ENDBRANCH   3   4
ENDBRANCH   2   3
ENDBRANCH   1   2
BRANCH   1  12
ATOM     12  C   UNL     1      19.289   4.257  -3.739  1.00  0.00     0.000 C 
BRANCH  12  13
ATOM     13  C   UNL     1      19.241   2.783  -3.297  1.00  0.00    -0.000 C 
BRANCH  13  14
ATOM     14  C   UNL     1      17.865   2.135  -3.522  1.00  0.00    -0.000 C 
BRANCH  14  15
ATOM     15  C   UNL     1      16.981   2.924  -4.505  1.00  0.00    -0.000 C 
BRANCH  15  16
ATOM     16  C   UNL     1      16.519   2.143  -5.750  1.00  0.00    -0.000 C 
BRANCH  16  17
ATOM     17  C   UNL     1      15.584   2.959  -6.657  1.00  0.00    -0.000 C 
BRANCH  17  18
ATOM     18  C   UNL     1      15.492   4.433  -6.233  1.00  0.00    -0.003 C 
ATOM     19  C   UNL     1      16.298   5.364  -7.140  1.00  0.00     0.004 C 
ENDBRANCH  17  18
ENDBRANCH  16  17
ENDBRANCH  15  16
ENDBRANCH  14  15
ENDBRANCH  13  14
ENDBRANCH  12  13
ENDBRANCH   1  12
TORSDOF 14
ENDMDL
MODEL 7
REMARK VINA RESULT:    -4.236      9.490     12.484
REMARK INTER + INTRA:          -9.067
REMARK INTER:                  -7.189
REMARK INTRA:                  -1.878
REMARK UNBOUND:                -1.364
REMARK SMILES CCCCCCCCCCCCCC[C@@H](C)C(=O)[O-]
REMARK SMILES IDX 9 1 10 2 11 3 12 4 13 5 14 6 15 7 16 8 17 9 18 10 19 11 8 12
REMARK SMILES IDX 7 13 6 14 5 15 4 16 3 17 2 18 1 19
REMARK H PARENT
REMARK Flexibility Score: inf
ROOT
ATOM      1  C   UNL     1      16.106  15.163  -5.978  1.00  0.00     0.000 C 
ENDROOT
BRANCH   1   2
ATOM      2  C   UNL     1      16.528  13.859  -6.683  1.00  0.00     0.000 C 
BRANCH   2   3
ATOM      3  C   UNL     1      15.376  12.892  -7.013  1.00  0.00     0.000 C 
BRANCH   3   4
ATOM      4  C   UNL     1      15.014  12.886  -8.508  1.00  0.00     0.000 C 
BRANCH   4   5
ATOM      5  C   UNL     1      15.894  13.840  -9.333  1.00  0.00     0.001 C 
BRANCH   5   6
ATOM      6  C   UNL     1      17.142  13.146  -9.911  1.00  0.00     0.009 C 
BRANCH   6   7
ATOM      7  C   UNL     1      18.341  14.111 -10.026  1.00  0.00     0.032 C 
ATOM      8  C   UNL     1      17.996  15.474  -9.419  1.00  0.00     0.014 C 
BRANCH   7   9
ATOM      9  C   UNL     1      19.562  13.550  -9.349  1.00  0.00     0.044 C 
ATOM     10  O   UNL     1      20.085  12.485  -9.770  1.00  0.00    -0.550 OA
ATOM     11  O   UNL     1      20.125  14.205  -8.260  1.00  0.00    -0.550 OA
ENDBRANCH   7   9
ENDBRANCH   6   7
ENDBRANCH   5   6
ENDBRANCH   4   5
ENDBRANCH   3   4
ENDBRANCH   2   3
ENDBRANCH   1   2
BRANCH   1  12
ATOM     12  C   UNL     1      17.224  15.874  -5.188  1.00  0.00     0.000 C 
BRANCH  12  13
ATOM     13  C   UNL     1      18.590  15.166  -5.205  1.00  0.00    -0.000 C 
BRANCH  13  14
ATOM     14  C   UNL     1      19.044  14.708  -3.809  1.00  0.00    -0.000 C 
BRANCH  14  15
ATOM     15  C   UNL     1      19.523  13.244  -3.782  1.00  0.00    -0.000 C 
BRANCH  15  16
ATOM     16  C   UNL     1      20.113  12.720  -5.104  1.00  0.00    -0.000 C 
BRANCH  16  17
ATOM     17  C   UNL     1      20.063  11.187  -5.218  1.00  0.00    -0.000 C 
BRANCH  17  18
ATOM     18  C   UNL     1      19.914  10.710  -6.672  1.00  0.00    -0.003 C 
ATOM     19  C   UNL     1      18.468  10.752  -7.165  1.00  0.00     0.004 C 
ENDBRANCH  17  18
ENDBRANCH  16  17
ENDBRANCH  15  16
ENDBRANCH  14  15
ENDBRANCH  13  14
ENDBRANCH  12  13
ENDBRANCH   1  12
TORSDOF 14
ENDMDL
MODEL 8
REMARK VINA RESULT:    -4.236      3.166      7.586
REMARK INTER + INTRA:          -9.066
REMARK INTER:                  -7.306
REMARK INTRA:                  -1.760
REMARK UNBOUND:                -1.364
REMARK SMILES CCCCCCCCCCCCCC[C@@H](C)C(=O)[O-]
REMARK SMILES IDX 9 1 10 2 11 3 12 4 13 5 14 6 15 7 16 8 17 9 18 10 19 11 8 12
REMARK SMILES IDX 7 13 6 14 5 15 4 16 3 17 2 18 1 19
REMARK H PARENT
REMARK Flexibility Score: inf
ROOT
ATOM      1  C   UNL     1      19.208   3.360  -1.245  1.00  0.00     0.000 C 
ENDROOT
BRANCH   1   2
ATOM      2  C   UNL     1      17.777   3.145  -1.778  1.00  0.00     0.000 C 
BRANCH   2   3
ATOM      3  C   UNL     1      17.683   2.794  -3.274  1.00  0.00     0.000 C 
BRANCH   3   4
ATOM      4  C   UNL     1      18.626   3.643  -4.144  1.00  0.00     0.000 C 
BRANCH   4   5
ATOM      5  C   UNL     1      19.046   2.920  -5.436  1.00  0.00     0.001 C 
BRANCH   5   6
ATOM      6  C   UNL     1      17.962   2.980  -6.528  1.00  0.00     0.009 C 
BRANCH   6   7
ATOM      7  C   UNL     1      17.118   4.269  -6.438  1.00  0.00     0.032 C 
ATOM      8  C   UNL     1      17.451   5.213  -7.598  1.00  0.00     0.014 C 
BRANCH   7   9
ATOM      9  C   UNL     1      15.645   3.962  -6.443  1.00  0.00     0.044 C 
ATOM     10  O   UNL     1      15.249   2.768  -6.474  1.00  0.00    -0.550 OA
ATOM     11  O   UNL     1      14.713   4.992  -6.409  1.00  0.00    -0.550 OA
ENDBRANCH   7   9
ENDBRANCH   6   7
ENDBRANCH   5   6
ENDBRANCH   4   5
ENDBRANCH   3   4
ENDBRANCH   2   3
ENDBRANCH   1   2
BRANCH   1  12
ATOM     12  C   UNL     1      19.518   4.788  -0.753  1.00  0.00     0.000 C 
BRANCH  12  13
ATOM     13  C   UNL     1      18.288   5.639  -0.391  1.00  0.00    -0.000 C 
BRANCH  13  14
ATOM     14  C   UNL     1      18.447   6.384   0.945  1.00  0.00    -0.000 C 
BRANCH  14  15
ATOM     15  C   UNL     1      18.671   5.438   2.139  1.00  0.00    -0.000 C 
BRANCH  15  16
ATOM     16  C   UNL     1      17.565   4.390   2.366  1.00  0.00    -0.000 C 
BRANCH  16  17
ATOM     17  C   UNL     1      18.094   2.947   2.361  1.00  0.00    -0.000 C 
BRANCH  17  18
ATOM     18  C   UNL     1      17.062   1.944   1.821  1.00  0.00    -0.003 C 
ATOM     19  C   UNL     1      15.842   2.625   1.198  1.00  0.00     0.004 C 
ENDBRANCH  17  18
ENDBRANCH  16  17
ENDBRANCH  15  16
ENDBRANCH  14  15
ENDBRANCH  13  14
ENDBRANCH  12  13
ENDBRANCH   1  12
TORSDOF 14
ENDMDL
MODEL 9
REMARK VINA RESULT:    -3.971      3.294      7.908
REMARK INTER + INTRA:          -8.585
REMARK INTER:                  -6.914
REMARK INTRA:                  -1.671
REMARK UNBOUND:                -1.364
REMARK SMILES CCCCCCCCCCCCCC[C@@H](C)C(=O)[O-]
REMARK SMILES IDX 9 1 10 2 11 3 12 4 13 5 14 6 15 7 16 8 17 9 18 10 19 11 8 12
REMARK SMILES IDX 7 13 6 14 5 15 4 16 3 17 2 18 1 19
REMARK H PARENT
REMARK Flexibility Score: inf
ROOT
ATOM      1  C   UNL     1      18.245   2.363   0.114  1.00  0.00     0.000 C 
ENDROOT
BRANCH   1   2
ATOM      2  C   UNL     1      18.781   2.955  -1.206  1.00  0.00     0.000 C 
BRANCH   2   3
ATOM      3  C   UNL     1      17.771   3.803  -1.999  1.00  0.00     0.000 C 
BRANCH   3   4
ATOM      4  C   UNL     1      17.303   3.115  -3.293  1.00  0.00     0.000 C 
BRANCH   4   5
ATOM      5  C   UNL     1      18.431   2.977  -4.330  1.00  0.00     0.001 C 
BRANCH   5   6
ATOM      6  C   UNL     1      17.909   2.981  -5.779  1.00  0.00     0.009 C 
BRANCH   6   7
ATOM      7  C   UNL     1      17.143   4.278  -6.115  1.00  0.00     0.032 C 
ATOM      8  C   UNL     1      17.743   4.953  -7.352  1.00  0.00     0.014 C 
BRANCH   7   9
ATOM      9  C   UNL     1      15.681   4.006  -6.345  1.00  0.00     0.044 C 
ATOM     10  O   UNL     1      14.854   4.956  -6.346  1.00  0.00    -0.550 OA
ATOM     11  O   UNL     1      15.233   2.709  -6.565  1.00  0.00    -0.550 OA
ENDBRANCH   7   9
ENDBRANCH   6   7
ENDBRANCH   5   6
ENDBRANCH   4   5
ENDBRANCH   3   4
ENDBRANCH   2   3
ENDBRANCH   1   2
BRANCH   1  12
ATOM     12  C   UNL     1      16.784   2.725   0.450  1.00  0.00     0.000 C 
BRANCH  12  13
ATOM     13  C   UNL     1      16.472   2.865   1.951  1.00  0.00    -0.000 C 
BRANCH  13  14
ATOM     14  C   UNL     1      17.426   2.049   2.839  1.00  0.00    -0.000 C 
BRANCH  14  15
ATOM     15  C   UNL     1      18.331   2.931   3.719  1.00  0.00    -0.000 C 
BRANCH  15  16
ATOM     16  C   UNL     1      17.939   4.419   3.784  1.00  0.00    -0.000 C 
BRANCH  16  17
ATOM     17  C   UNL     1      19.106   5.362   3.447  1.00  0.00    -0.000 C 
BRANCH  17  18
ATOM     18  C   UNL     1      19.418   5.395   1.942  1.00  0.00    -0.003 C 
ATOM     19  C   UNL     1      18.351   6.129   1.129  1.00  0.00     0.004 C 
ENDBRANCH  17  18
ENDBRANCH  16  17
ENDBRANCH  15  16
ENDBRANCH  14  15
ENDBRANCH  13  14
ENDBRANCH  12  13
ENDBRANCH   1  12
TORSDOF 14
ENDMDL
