MODEL 1
REMARK VINA RESULT:    -5.687      0.000      0.000
REMARK INTER + INTRA:          -8.292
REMARK INTER:                  -8.015
REMARK INTRA:                  -0.278
REMARK UNBOUND:                -0.278
REMARK SMILES CCCCCCCCC(=O)[O-]
REMARK SMILES IDX 6 1 7 2 8 3 9 4 10 5 11 6 5 7 4 8 3 9 2 10 1 11
REMARK H PARENT
REMARK Flexibility Score: inf
ROOT
ATOM      1  C   UNL     1      -6.248   6.006   3.921  1.00  0.00     0.000 C 
ENDROOT
BRANCH   1   2
ATOM      2  C   UNL     1      -4.823   5.889   4.488  1.00  0.00     0.006 C 
BRANCH   2   3
ATOM      3  C   UNL     1      -4.699   4.759   5.518  1.00  0.00     0.053 C 
BRANCH   3   4
ATOM      4  C   UNL     1      -3.337   4.138   5.498  1.00  0.00     0.041 C 
ATOM      5  O   UNL     1      -2.609   4.239   4.476  1.00  0.00    -0.550 OA
ATOM      6  O   UNL     1      -2.885   3.417   6.596  1.00  0.00    -0.550 OA
ENDBRANCH   3   4
ENDBRANCH   2   3
ENDBRANCH   1   2
BRANCH   1   7
ATOM      7  C   UNL     1      -6.265   6.456   2.452  1.00  0.00     0.000 C 
BRANCH   7   8
ATOM      8  C   UNL     1      -7.590   6.116   1.746  1.00  0.00    -0.000 C 
BRANCH   8   9
ATOM      9  C   UNL     1      -8.716   5.780   2.736  1.00  0.00    -0.000 C 
BRANCH   9  10
ATOM     10  C   UNL     1     -10.079   5.618   2.047  1.00  0.00    -0.003 C 
ATOM     11  C   UNL     1      -9.993   5.985   0.568  1.00  0.00     0.004 C 
ENDBRANCH   9  10
ENDBRANCH   8   9
ENDBRANCH   7   8
ENDBRANCH   1   7
TORSDOF 7
ENDMDL
MODEL 2
REMARK VINA RESULT:    -5.566      3.670      6.107
REMARK INTER + INTRA:          -8.122
REMARK INTER:                  -7.856
REMARK INTRA:                  -0.266
REMARK UNBOUND:                -0.278
REMARK SMILES CCCCCCCCC(=O)[O-]
REMARK SMILES IDX 6 1 7 2 8 3 9 4 10 5 11 6 5 7 4 8 3 9 2 10 1 11
REMARK H PARENT
REMARK Flexibility Score: inf
ROOT
ATOM      1  C   UNL     1      -6.883   6.357   1.747  1.00  0.00     0.000 C 
ENDROOT
BRANCH   1   2
ATOM      2  C   UNL     1      -7.952   5.664   2.610  1.00  0.00     0.006 C 
BRANCH   2   3
ATOM      3  C   UNL     1      -9.360   5.818   2.022  1.00  0.00     0.053 C 
BRANCH   3   4
ATOM      4  C   UNL     1     -10.420   5.595   3.056  1.00  0.00     0.041 C 
ATOM      5  O   UNL     1     -11.054   6.571   3.536  1.00  0.00    -0.550 OA
ATOM      6  O   UNL     1     -10.683   4.311   3.517  1.00  0.00    -0.550 OA
ENDBRANCH   3   4
ENDBRANCH   2   3
ENDBRANCH   1   2
BRANCH   1   7
ATOM      7  C   UNL     1      -5.654   6.791   2.562  1.00  0.00     0.000 C 
BRANCH   7   8
ATOM      8  C   UNL     1      -5.705   6.291   4.017  1.00  0.00    -0.000 C 
BRANCH   8   9
ATOM      9  C   UNL     1      -4.321   5.887   4.550  1.00  0.00    -0.000 C 
BRANCH   9  10
ATOM     10  C   UNL     1      -4.381   4.671   5.485  1.00  0.00    -0.003 C 
ATOM     11  C   UNL     1      -3.228   3.709   5.211  1.00  0.00     0.004 C 
ENDBRANCH   9  10
ENDBRANCH   8   9
ENDBRANCH   7   8
ENDBRANCH   1   7
TORSDOF 7
ENDMDL
MODEL 3
REMARK VINA RESULT:    -5.530      3.108      4.544
REMARK INTER + INTRA:          -8.071
REMARK INTER:                  -7.764
REMARK INTRA:                  -0.306
REMARK UNBOUND:                -0.278
REMARK SMILES CCCCCCCCC(=O)[O-]
REMARK SMILES IDX 6 1 7 2 8 3 9 4 10 5 11 6 5 7 4 8 3 9 2 10 1 11
REMARK H PARENT
REMARK Flexibility Score: inf
ROOT
ATOM      1  C   UNL     1      -3.403   2.972   5.098  1.00  0.00     0.000 C 
ENDROOT
BRANCH   1   2
ATOM      2  C   UNL     1      -3.294   2.238   3.750  1.00  0.00     0.006 C 
BRANCH   2   3
ATOM      3  C   UNL     1      -4.598   1.524   3.372  1.00  0.00     0.053 C 
BRANCH   3   4
ATOM      4  C   UNL     1      -4.337   0.245   2.639  1.00  0.00     0.041 C 
ATOM      5  O   UNL     1      -4.070  -0.808   3.276  1.00  0.00    -0.550 OA
ATOM      6  O   UNL     1      -4.353   0.223   1.250  1.00  0.00    -0.550 OA
ENDBRANCH   3   4
ENDBRANCH   2   3
ENDBRANCH   1   2
BRANCH   1   7
ATOM      7  C   UNL     1      -3.520   4.495   4.935  1.00  0.00     0.000 C 
BRANCH   7   8
ATOM      8  C   UNL     1      -4.971   4.993   5.065  1.00  0.00    -0.000 C 
BRANCH   8   9
ATOM      9  C   UNL     1      -5.256   6.217   4.180  1.00  0.00    -0.000 C 
BRANCH   9  10
ATOM     10  C   UNL     1      -6.399   5.972   3.186  1.00  0.00    -0.003 C 
ATOM     11  C   UNL     1      -6.161   6.723   1.878  1.00  0.00     0.004 C 
ENDBRANCH   9  10
ENDBRANCH   8   9
ENDBRANCH   7   8
ENDBRANCH   1   7
TORSDOF 7
ENDMDL
MODEL 4
REMARK VINA RESULT:    -5.428      2.866      4.583
REMARK INTER + INTRA:          -7.927
REMARK INTER:                  -7.768
REMARK INTRA:                  -0.159
REMARK UNBOUND:                -0.278
REMARK SMILES CCCCCCCCC(=O)[O-]
REMARK SMILES IDX 6 1 7 2 8 3 9 4 10 5 11 6 5 7 4 8 3 9 2 10 1 11
REMARK H PARENT
REMARK Flexibility Score: inf
ROOT
ATOM      1  C   UNL     1      -3.339   3.389   6.144  1.00  0.00     0.000 C 
ENDROOT
BRANCH   1   2
ATOM      2  C   UNL     1      -3.322   3.083   7.652  1.00  0.00     0.006 C 
BRANCH   2   3
ATOM      3  C   UNL     1      -2.379   1.924   7.997  1.00  0.00     0.053 C 
BRANCH   3   4
ATOM      4  C   UNL     1      -1.873   2.022   9.403  1.00  0.00     0.041 C 
ATOM      5  O   UNL     1      -2.678   1.997  10.371  1.00  0.00    -0.550 OA
ATOM      6  O   UNL     1      -0.513   2.177   9.644  1.00  0.00    -0.550 OA
ENDBRANCH   3   4
ENDBRANCH   2   3
ENDBRANCH   1   2
BRANCH   1   7
ATOM      7  C   UNL     1      -4.379   4.457   5.769  1.00  0.00     0.000 C 
BRANCH   7   8
ATOM      8  C   UNL     1      -3.841   5.469   4.742  1.00  0.00    -0.000 C 
BRANCH   8   9
ATOM      9  C   UNL     1      -4.918   6.457   4.268  1.00  0.00    -0.000 C 
BRANCH   9  10
ATOM     10  C   UNL     1      -6.119   5.755   3.620  1.00  0.00    -0.003 C 
ATOM     11  C   UNL     1      -6.439   6.360   2.255  1.00  0.00     0.004 C 
ENDBRANCH   9  10
ENDBRANCH   8   9
ENDBRANCH   7   8
ENDBRANCH   1   7
TORSDOF 7
ENDMDL
MODEL 5
REMARK VINA RESULT:    -5.311      3.144      5.474
REMARK INTER + INTRA:          -7.762
REMARK INTER:                  -7.487
REMARK INTRA:                  -0.275
REMARK UNBOUND:                -0.278
REMARK SMILES CCCCCCCCC(=O)[O-]
REMARK SMILES IDX 6 1 7 2 8 3 9 4 10 5 11 6 5 7 4 8 3 9 2 10 1 11
REMARK H PARENT
REMARK Flexibility Score: inf
ROOT
ATOM      1  C   UNL     1      -3.564   3.337   7.468  1.00  0.00     0.000 C 
ENDROOT
BRANCH   1   2
ATOM      2  C   UNL     1      -2.764   2.740   8.639  1.00  0.00     0.006 C 
BRANCH   2   3
ATOM      3  C   UNL     1      -2.397   1.270   8.400  1.00  0.00     0.053 C 
BRANCH   3   4
ATOM      4  C   UNL     1      -1.070   0.925   9.004  1.00  0.00     0.041 C 
ATOM      5  O   UNL     1      -0.931  -0.137   9.664  1.00  0.00    -0.550 OA
ATOM      6  O   UNL     1       0.003   1.796   8.867  1.00  0.00    -0.550 OA
ENDBRANCH   3   4
ENDBRANCH   2   3
ENDBRANCH   1   2
BRANCH   1   7
ATOM      7  C   UNL     1      -2.948   3.004   6.100  1.00  0.00     0.000 C 
BRANCH   7   8
ATOM      8  C   UNL     1      -3.340   4.020   5.013  1.00  0.00    -0.000 C 
BRANCH   8   9
ATOM      9  C   UNL     1      -4.625   4.789   5.360  1.00  0.00    -0.000 C 
BRANCH   9  10
ATOM     10  C   UNL     1      -4.836   6.019   4.467  1.00  0.00    -0.003 C 
ATOM     11  C   UNL     1      -6.271   6.086   3.954  1.00  0.00     0.004 C 
ENDBRANCH   9  10
ENDBRANCH   8   9
ENDBRANCH   7   8
ENDBRANCH   1   7
TORSDOF 7
ENDMDL
MODEL 6
REMARK VINA RESULT:    -5.237      7.915      8.848
REMARK INTER + INTRA:          -7.657
REMARK INTER:                  -7.354
REMARK INTRA:                  -0.303
REMARK UNBOUND:                -0.278
REMARK SMILES CCCCCCCCC(=O)[O-]
REMARK SMILES IDX 6 1 7 2 8 3 9 4 10 5 11 6 5 7 4 8 3 9 2 10 1 11
REMARK H PARENT
REMARK Flexibility Score: inf
ROOT
ATOM      1  C   UNL     1      -4.972   0.265  -1.421  1.00  0.00     0.000 C 
ENDROOT
BRANCH   1   2
ATOM      2  C   UNL     1      -4.078   0.057  -2.655  1.00  0.00     0.006 C 
BRANCH   2   3
ATOM      3  C   UNL     1      -4.278  -1.326  -3.289  1.00  0.00     0.053 C 
BRANCH   3   4
ATOM      4  C   UNL     1      -3.228  -2.296  -2.846  1.00  0.00     0.041 C 
ATOM      5  O   UNL     1      -3.405  -3.534  -2.992  1.00  0.00    -0.550 OA
ATOM      6  O   UNL     1      -2.067  -1.835  -2.239  1.00  0.00    -0.550 OA
ENDBRANCH   3   4
ENDBRANCH   2   3
ENDBRANCH   1   2
BRANCH   1   7
ATOM      7  C   UNL     1      -4.223   0.024  -0.100  1.00  0.00     0.000 C 
BRANCH   7   8
ATOM      8  C   UNL     1      -5.036   0.467   1.129  1.00  0.00    -0.000 C 
BRANCH   8   9
ATOM      9  C   UNL     1      -4.201   0.469   2.419  1.00  0.00    -0.000 C 
BRANCH   9  10
ATOM     10  C   UNL     1      -4.925  -0.207   3.592  1.00  0.00    -0.003 C 
ATOM     11  C   UNL     1      -6.405  -0.411   3.279  1.00  0.00     0.004 C 
ENDBRANCH   9  10
ENDBRANCH   8   9
ENDBRANCH   7   8
ENDBRANCH   1   7
TORSDOF 7
ENDMDL
MODEL 7
REMARK VINA RESULT:    -5.209     15.203     16.574
REMARK INTER + INTRA:          -7.618
REMARK INTER:                  -7.360
REMARK INTRA:                  -0.258
REMARK UNBOUND:                -0.278
REMARK SMILES CCCCCCCCC(=O)[O-]
REMARK SMILES IDX 6 1 7 2 8 3 9 4 10 5 11 6 5 7 4 8 3 9 2 10 1 11
REMARK H PARENT
REMARK Flexibility Score: inf
ROOT
ATOM      1  C   UNL     1       2.402  -3.859  -7.674  1.00  0.00     0.000 C 
ENDROOT
BRANCH   1   2
ATOM      2  C   UNL     1       1.045  -3.379  -8.216  1.00  0.00     0.006 C 
BRANCH   2   3
ATOM      3  C   UNL     1      -0.135  -4.056  -7.506  1.00  0.00     0.053 C 
BRANCH   3   4
ATOM      4  C   UNL     1      -0.178  -3.709  -6.050  1.00  0.00     0.041 C 
ATOM      5  O   UNL     1      -0.229  -2.505  -5.685  1.00  0.00    -0.550 OA
ATOM      6  O   UNL     1      -0.127  -4.716  -5.094  1.00  0.00    -0.550 OA
ENDBRANCH   3   4
ENDBRANCH   2   3
ENDBRANCH   1   2
BRANCH   1   7
ATOM      7  C   UNL     1       3.585  -3.071  -8.259  1.00  0.00     0.000 C 
BRANCH   7   8
ATOM      8  C   UNL     1       4.766  -2.964  -7.278  1.00  0.00    -0.000 C 
BRANCH   8   9
ATOM      9  C   UNL     1       4.551  -1.876  -6.214  1.00  0.00    -0.000 C 
BRANCH   9  10
ATOM     10  C   UNL     1       5.717  -1.786  -5.220  1.00  0.00    -0.003 C 
ATOM     11  C   UNL     1       5.236  -1.311  -3.851  1.00  0.00     0.004 C 
ENDBRANCH   9  10
ENDBRANCH   8   9
ENDBRANCH   7   8
ENDBRANCH   1   7
TORSDOF 7
ENDMDL
MODEL 8
REMARK VINA RESULT:    -5.069     12.770     13.363
REMARK INTER + INTRA:          -7.420
REMARK INTER:                  -7.228
REMARK INTRA:                  -0.192
REMARK UNBOUND:                -0.278
REMARK SMILES CCCCCCCCC(=O)[O-]
REMARK SMILES IDX 6 1 7 2 8 3 9 4 10 5 11 6 5 7 4 8 3 9 2 10 1 11
REMARK H PARENT
REMARK Flexibility Score: inf
ROOT
ATOM      1  C   UNL     1      -0.533  -2.489  -5.408  1.00  0.00     0.000 C 
ENDROOT
BRANCH   1   2
ATOM      2  C   UNL     1      -0.266  -3.975  -5.701  1.00  0.00     0.006 C 
BRANCH   2   3
ATOM      3  C   UNL     1      -0.244  -4.275  -7.206  1.00  0.00     0.053 C 
BRANCH   3   4
ATOM      4  C   UNL     1       0.665  -3.341  -7.943  1.00  0.00     0.041 C 
ATOM      5  O   UNL     1       0.204  -2.573  -8.828  1.00  0.00    -0.550 OA
ATOM      6  O   UNL     1       2.029  -3.345  -7.678  1.00  0.00    -0.550 OA
ENDBRANCH   3   4
ENDBRANCH   2   3
ENDBRANCH   1   2
BRANCH   1   7
ATOM      7  C   UNL     1      -1.475  -2.282  -4.212  1.00  0.00     0.000 C 
BRANCH   7   8
ATOM      8  C   UNL     1      -2.126  -0.887  -4.208  1.00  0.00    -0.000 C 
BRANCH   8   9
ATOM      9  C   UNL     1      -3.506  -0.883  -3.532  1.00  0.00    -0.000 C 
BRANCH   9  10
ATOM     10  C   UNL     1      -3.737   0.367  -2.670  1.00  0.00    -0.003 C 
ATOM     11  C   UNL     1      -4.409   0.006  -1.348  1.00  0.00     0.004 C 
ENDBRANCH   9  10
ENDBRANCH   8   9
ENDBRANCH   7   8
ENDBRANCH   1   7
TORSDOF 7
ENDMDL
MODEL 9
REMARK VINA RESULT:    -4.935     12.000     12.489
REMARK INTER + INTRA:          -7.232
REMARK INTER:                  -6.955
REMARK INTRA:                  -0.277
REMARK UNBOUND:                -0.278
REMARK SMILES CCCCCCCCC(=O)[O-]
REMARK SMILES IDX 6 1 7 2 8 3 9 4 10 5 11 6 5 7 4 8 3 9 2 10 1 11
REMARK H PARENT
REMARK Flexibility Score: inf
ROOT
ATOM      1  C   UNL     1      -1.322  -1.225  -4.976  1.00  0.00     0.000 C 
ENDROOT
BRANCH   1   2
ATOM      2  C   UNL     1      -1.001  -2.718  -4.787  1.00  0.00     0.006 C 
BRANCH   2   3
ATOM      3  C   UNL     1       0.105  -3.198  -5.736  1.00  0.00     0.053 C 
BRANCH   3   4
ATOM      4  C   UNL     1      -0.264  -4.482  -6.413  1.00  0.00     0.041 C 
ATOM      5  O   UNL     1      -0.635  -4.481  -7.616  1.00  0.00    -0.550 OA
ATOM      6  O   UNL     1      -0.231  -5.676  -5.704  1.00  0.00    -0.550 OA
ENDBRANCH   3   4
ENDBRANCH   2   3
ENDBRANCH   1   2
BRANCH   1   7
ATOM      7  C   UNL     1      -2.438  -0.737  -4.039  1.00  0.00     0.000 C 
BRANCH   7   8
ATOM      8  C   UNL     1      -2.814  -1.782  -2.974  1.00  0.00    -0.000 C 
BRANCH   8   9
ATOM      9  C   UNL     1      -4.334  -1.951  -2.823  1.00  0.00    -0.000 C 
BRANCH   9  10
ATOM     10  C   UNL     1      -5.056  -0.615  -2.599  1.00  0.00    -0.003 C 
ATOM     11  C   UNL     1      -4.606   0.042  -1.297  1.00  0.00     0.004 C 
ENDBRANCH   9  10
ENDBRANCH   8   9
ENDBRANCH   7   8
ENDBRANCH   1   7
TORSDOF 7
ENDMDL
