MODEL 1
REMARK VINA RESULT:    -2.275      0.000      0.000
REMARK INTER + INTRA:          -2.603
REMARK INTER:                  -2.541
REMARK INTRA:                  -0.062
REMARK UNBOUND:                -0.062
REMARK SMILES CCCC(=O)[O-]
REMARK SMILES IDX 3 1 4 2 5 3 6 4 2 5 1 6
REMARK H PARENT
REMARK Flexibility Score: inf
ROOT
ATOM      1  C   UNL     1      13.637  65.329  16.721  1.00  0.00     0.052 C 
ENDROOT
BRANCH   1   2
ATOM      2  C   UNL     1      13.858  64.611  15.425  1.00  0.00     0.041 C 
ATOM      3  O   UNL     1      13.368  63.465  15.242  1.00  0.00    -0.550 OA
ATOM      4  O   UNL     1      14.634  65.195  14.430  1.00  0.00    -0.550 OA
ENDBRANCH   1   2
BRANCH   1   5
ATOM      5  C   UNL     1      14.405  64.669  17.873  1.00  0.00     0.003 C 
ATOM      6  C   UNL     1      15.919  64.709  17.660  1.00  0.00     0.004 C 
ENDBRANCH   1   5
TORSDOF 2
ENDMDL
MODEL 2
REMARK VINA RESULT:    -2.275      0.178      1.334
REMARK INTER + INTRA:          -2.603
REMARK INTER:                  -2.541
REMARK INTRA:                  -0.062
REMARK UNBOUND:                -0.062
REMARK SMILES CCCC(=O)[O-]
REMARK SMILES IDX 3 1 4 2 5 3 6 4 2 5 1 6
REMARK H PARENT
REMARK Flexibility Score: inf
ROOT
ATOM      1  C   UNL     1      13.855  65.458  16.544  1.00  0.00     0.052 C 
ENDROOT
BRANCH   1   2
ATOM      2  C   UNL     1      13.973  64.654  15.286  1.00  0.00     0.041 C 
ATOM      3  O   UNL     1      14.648  65.089  14.315  1.00  0.00    -0.550 OA
ATOM      4  O   UNL     1      13.312  63.437  15.173  1.00  0.00    -0.550 OA
ENDBRANCH   1   2
BRANCH   1   5
ATOM      5  C   UNL     1      14.429  64.708  17.752  1.00  0.00     0.003 C 
ATOM      6  C   UNL     1      15.957  64.660  17.735  1.00  0.00     0.004 C 
ENDBRANCH   1   5
TORSDOF 2
ENDMDL
MODEL 3
REMARK VINA RESULT:    -2.186     17.238     18.380
REMARK INTER + INTRA:          -2.504
REMARK INTER:                  -2.460
REMARK INTRA:                  -0.044
REMARK UNBOUND:                -0.062
REMARK SMILES CCCC(=O)[O-]
REMARK SMILES IDX 3 1 4 2 5 3 6 4 2 5 1 6
REMARK H PARENT
REMARK Flexibility Score: inf
ROOT
ATOM      1  C   UNL     1      33.077  63.488  15.191  1.00  0.00     0.052 C 
ENDROOT
BRANCH   1   2
ATOM      2  C   UNL     1      32.973  63.090  16.631  1.00  0.00     0.041 C 
ATOM      3  O   UNL     1      33.125  61.886  16.970  1.00  0.00    -0.550 OA
ATOM      4  O   UNL     1      32.677  64.044  17.597  1.00  0.00    -0.550 OA
ENDBRANCH   1   2
BRANCH   1   5
ATOM      5  C   UNL     1      31.830  63.078  14.398  1.00  0.00     0.003 C 
ATOM      6  C   UNL     1      30.572  63.802  14.879  1.00  0.00     0.004 C 
ENDBRANCH   1   5
TORSDOF 2
ENDMDL
MODEL 4
REMARK VINA RESULT:    -2.082     17.544     18.418
REMARK INTER + INTRA:          -2.387
REMARK INTER:                  -2.338
REMARK INTRA:                  -0.049
REMARK UNBOUND:                -0.062
REMARK SMILES CCCC(=O)[O-]
REMARK SMILES IDX 3 1 4 2 5 3 6 4 2 5 1 6
REMARK H PARENT
REMARK Flexibility Score: inf
ROOT
ATOM      1  C   UNL     1      32.843  62.809  16.718  1.00  0.00     0.052 C 
ENDROOT
BRANCH   1   2
ATOM      2  C   UNL     1      32.523  63.974  17.604  1.00  0.00     0.041 C 
ATOM      3  O   UNL     1      33.093  65.083  17.426  1.00  0.00    -0.550 OA
ATOM      4  O   UNL     1      31.619  63.826  18.649  1.00  0.00    -0.550 OA
ENDBRANCH   1   2
BRANCH   1   5
ATOM      5  C   UNL     1      32.852  63.210  15.237  1.00  0.00     0.003 C 
ATOM      6  C   UNL     1      31.449  63.218  14.630  1.00  0.00     0.004 C 
ENDBRANCH   1   5
TORSDOF 2
ENDMDL
MODEL 5
REMARK VINA RESULT:    -1.988     15.506     16.631
REMARK INTER + INTRA:          -2.283
REMARK INTER:                  -2.251
REMARK INTRA:                  -0.032
REMARK UNBOUND:                -0.062
REMARK SMILES CCCC(=O)[O-]
REMARK SMILES IDX 3 1 4 2 5 3 6 4 2 5 1 6
REMARK H PARENT
REMARK Flexibility Score: inf
ROOT
ATOM      1  C   UNL     1      30.455  63.841  14.801  1.00  0.00     0.052 C 
ENDROOT
BRANCH   1   2
ATOM      2  C   UNL     1      29.886  64.636  15.936  1.00  0.00     0.041 C 
ATOM      3  O   UNL     1      28.720  65.106  15.861  1.00  0.00    -0.550 OA
ATOM      4  O   UNL     1      30.658  64.887  17.065  1.00  0.00    -0.550 OA
ENDBRANCH   1   2
BRANCH   1   5
ATOM      5  C   UNL     1      31.719  63.080  15.219  1.00  0.00     0.003 C 
ATOM      6  C   UNL     1      32.921  63.421  14.338  1.00  0.00     0.004 C 
ENDBRANCH   1   5
TORSDOF 2
ENDMDL
MODEL 6
REMARK VINA RESULT:    -1.966      2.030      3.010
REMARK INTER + INTRA:          -2.258
REMARK INTER:                  -2.242
REMARK INTRA:                  -0.016
REMARK UNBOUND:                -0.062
REMARK SMILES CCCC(=O)[O-]
REMARK SMILES IDX 3 1 4 2 5 3 6 4 2 5 1 6
REMARK H PARENT
REMARK Flexibility Score: inf
ROOT
ATOM      1  C   UNL     1      15.858  64.880  17.421  1.00  0.00     0.052 C 
ENDROOT
BRANCH   1   2
ATOM      2  C   UNL     1      16.684  65.568  16.378  1.00  0.00     0.041 C 
ATOM      3  O   UNL     1      16.135  66.070  15.362  1.00  0.00    -0.550 OA
ATOM      4  O   UNL     1      18.066  65.626  16.512  1.00  0.00    -0.550 OA
ENDBRANCH   1   2
BRANCH   1   5
ATOM      5  C   UNL     1      14.501  64.431  16.865  1.00  0.00     0.003 C 
ATOM      6  C   UNL     1      13.363  65.360  17.289  1.00  0.00     0.004 C 
ENDBRANCH   1   5
TORSDOF 2
ENDMDL
MODEL 7
REMARK VINA RESULT:    -1.938      1.796      2.715
REMARK INTER + INTRA:          -2.227
REMARK INTER:                  -2.155
REMARK INTRA:                  -0.072
REMARK UNBOUND:                -0.062
REMARK SMILES CCCC(=O)[O-]
REMARK SMILES IDX 3 1 4 2 5 3 6 4 2 5 1 6
REMARK H PARENT
REMARK Flexibility Score: inf
ROOT
ATOM      1  C   UNL     1      13.327  65.327  16.698  1.00  0.00     0.052 C 
ENDROOT
BRANCH   1   2
ATOM      2  C   UNL     1      14.787  65.076  16.920  1.00  0.00     0.041 C 
ATOM      3  O   UNL     1      15.165  64.260  17.802  1.00  0.00    -0.550 OA
ATOM      4  O   UNL     1      15.733  65.768  16.173  1.00  0.00    -0.550 OA
ENDBRANCH   1   2
BRANCH   1   5
ATOM      5  C   UNL     1      12.910  65.012  15.256  1.00  0.00     0.003 C 
ATOM      6  C   UNL     1      13.168  63.551  14.883  1.00  0.00     0.004 C 
ENDBRANCH   1   5
TORSDOF 2
ENDMDL
MODEL 8
REMARK VINA RESULT:    -1.903     18.278     18.944
REMARK INTER + INTRA:          -2.188
REMARK INTER:                  -2.171
REMARK INTRA:                  -0.017
REMARK UNBOUND:                -0.062
REMARK SMILES CCCC(=O)[O-]
REMARK SMILES IDX 3 1 4 2 5 3 6 4 2 5 1 6
REMARK H PARENT
REMARK Flexibility Score: inf
ROOT
ATOM      1  C   UNL     1      32.262  62.684  20.159  1.00  0.00     0.052 C 
ENDROOT
BRANCH   1   2
ATOM      2  C   UNL     1      32.623  61.408  20.856  1.00  0.00     0.041 C 
ATOM      3  O   UNL     1      32.783  61.391  22.106  1.00  0.00    -0.550 OA
ATOM      4  O   UNL     1      32.815  60.244  20.122  1.00  0.00    -0.550 OA
ENDBRANCH   1   2
BRANCH   1   5
ATOM      5  C   UNL     1      32.342  63.889  21.105  1.00  0.00     0.003 C 
ATOM      6  C   UNL     1      31.328  64.976  20.748  1.00  0.00     0.004 C 
ENDBRANCH   1   5
TORSDOF 2
ENDMDL
MODEL 9
REMARK VINA RESULT:    -1.886      1.674      2.490
REMARK INTER + INTRA:          -2.169
REMARK INTER:                  -2.158
REMARK INTRA:                  -0.010
REMARK UNBOUND:                -0.062
REMARK SMILES CCCC(=O)[O-]
REMARK SMILES IDX 3 1 4 2 5 3 6 4 2 5 1 6
REMARK H PARENT
REMARK Flexibility Score: inf
ROOT
ATOM      1  C   UNL     1      13.216  63.618  15.109  1.00  0.00     0.052 C 
ENDROOT
BRANCH   1   2
ATOM      2  C   UNL     1      13.321  63.576  13.615  1.00  0.00     0.041 C 
ATOM      3  O   UNL     1      13.628  64.615  12.971  1.00  0.00    -0.550 OA
ATOM      4  O   UNL     1      13.048  62.398  12.931  1.00  0.00    -0.550 OA
ENDBRANCH   1   2
BRANCH   1   5
ATOM      5  C   UNL     1      13.976  64.813  15.698  1.00  0.00     0.003 C 
ATOM      6  C   UNL     1      14.319  64.613  17.174  1.00  0.00     0.004 C 
ENDBRANCH   1   5
TORSDOF 2
ENDMDL
