MODEL 1
REMARK VINA RESULT:    -3.299      0.000      0.000
REMARK INTER + INTRA:          -8.320
REMARK INTER:                  -6.192
REMARK INTRA:                  -2.128
REMARK UNBOUND:                -2.128
REMARK SMILES O=C([O-])CCCCCCCCCCCCCCC(=O)[O-]
REMARK SMILES IDX 10 1 9 2 8 3 7 4 6 5 5 6 4 7 2 8 1 9 3 10 11 11 12 12 13 13
REMARK SMILES IDX 14 14 15 15 16 16 17 17 18 18 19 19 20 20
REMARK H PARENT
REMARK Flexibility Score: inf
ROOT
ATOM      1  C   UNL     1      63.617  33.421  59.292  1.00  0.00     0.000 C 
ENDROOT
BRANCH   1   2
ATOM      2  C   UNL     1      62.187  32.886  59.094  1.00  0.00     0.000 C 
BRANCH   2   3
ATOM      3  C   UNL     1      61.384  32.761  60.406  1.00  0.00     0.000 C 
BRANCH   3   4
ATOM      4  C   UNL     1      60.770  31.361  60.577  1.00  0.00     0.000 C 
BRANCH   4   5
ATOM      5  C   UNL     1      61.399  30.574  61.737  1.00  0.00     0.000 C 
BRANCH   5   6
ATOM      6  C   UNL     1      62.369  29.482  61.255  1.00  0.00     0.006 C 
BRANCH   6   7
ATOM      7  C   UNL     1      63.827  29.962  61.252  1.00  0.00     0.053 C 
BRANCH   7   8
ATOM      8  C   UNL     1      64.483  29.746  59.923  1.00  0.00     0.041 C 
ATOM      9  O   UNL     1      65.721  29.527  59.857  1.00  0.00    -0.550 OA
ATOM     10  O   UNL     1      63.725  29.765  58.760  1.00  0.00    -0.550 OA
ENDBRANCH   7   8
ENDBRANCH   6   7
ENDBRANCH   5   6
ENDBRANCH   4   5
ENDBRANCH   3   4
ENDBRANCH   2   3
ENDBRANCH   1   2
BRANCH   1  11
ATOM     11  C   UNL     1      64.050  33.428  60.767  1.00  0.00     0.000 C 
BRANCH  11  12
ATOM     12  C   UNL     1      64.283  34.848  61.309  1.00  0.00     0.000 C 
BRANCH  12  13
ATOM     13  C   UNL     1      63.585  35.927  60.461  1.00  0.00     0.000 C 
BRANCH  13  14
ATOM     14  C   UNL     1      62.225  36.346  61.044  1.00  0.00     0.000 C 
BRANCH  14  15
ATOM     15  C   UNL     1      61.310  36.999  59.994  1.00  0.00     0.000 C 
BRANCH  15  16
ATOM     16  C   UNL     1      60.022  36.195  59.750  1.00  0.00     0.006 C 
BRANCH  16  17
ATOM     17  C   UNL     1      59.962  35.583  58.344  1.00  0.00     0.053 C 
BRANCH  17  18
ATOM     18  C   UNL     1      58.766  36.091  57.604  1.00  0.00     0.041 C 
ATOM     19  O   UNL     1      58.165  37.124  58.004  1.00  0.00    -0.550 OA
ATOM     20  O   UNL     1      58.343  35.456  56.443  1.00  0.00    -0.550 OA
ENDBRANCH  17  18
ENDBRANCH  16  17
ENDBRANCH  15  16
ENDBRANCH  14  15
ENDBRANCH  13  14
ENDBRANCH  12  13
ENDBRANCH  11  12
ENDBRANCH   1  11
TORSDOF 15
ENDMDL
MODEL 2
REMARK VINA RESULT:    -3.297     10.537     12.422
REMARK INTER + INTRA:          -8.315
REMARK INTER:                  -6.488
REMARK INTRA:                  -1.827
REMARK UNBOUND:                -2.128
REMARK SMILES O=C([O-])CCCCCCCCCCCCCCC(=O)[O-]
REMARK SMILES IDX 10 1 9 2 8 3 7 4 6 5 5 6 4 7 2 8 1 9 3 10 11 11 12 12 13 13
REMARK SMILES IDX 14 14 15 15 16 16 17 17 18 18 19 19 20 20
REMARK H PARENT
REMARK Flexibility Score: inf
ROOT
ATOM      1  C   UNL     1      54.828  30.169  51.843  1.00  0.00     0.000 C 
ENDROOT
BRANCH   1   2
ATOM      2  C   UNL     1      53.344  30.337  51.471  1.00  0.00     0.000 C 
BRANCH   2   3
ATOM      3  C   UNL     1      52.875  29.388  50.347  1.00  0.00     0.000 C 
BRANCH   3   4
ATOM      4  C   UNL     1      53.971  28.387  49.939  1.00  0.00     0.000 C 
BRANCH   4   5
ATOM      5  C   UNL     1      53.399  27.051  49.442  1.00  0.00     0.000 C 
BRANCH   5   6
ATOM      6  C   UNL     1      54.379  25.881  49.630  1.00  0.00     0.006 C 
BRANCH   6   7
ATOM      7  C   UNL     1      55.799  26.362  49.956  1.00  0.00     0.053 C 
BRANCH   7   8
ATOM      8  C   UNL     1      56.231  25.940  51.326  1.00  0.00     0.041 C 
ATOM      9  O   UNL     1      57.379  25.455  51.507  1.00  0.00    -0.550 OA
ATOM     10  O   UNL     1      55.374  26.100  52.408  1.00  0.00    -0.550 OA
ENDBRANCH   7   8
ENDBRANCH   6   7
ENDBRANCH   5   6
ENDBRANCH   4   5
ENDBRANCH   3   4
ENDBRANCH   2   3
ENDBRANCH   1   2
BRANCH   1  11
ATOM     11  C   UNL     1      55.029  29.714  53.298  1.00  0.00     0.000 C 
BRANCH  11  12
ATOM     12  C   UNL     1      56.504  29.744  53.729  1.00  0.00     0.000 C 
BRANCH  12  13
ATOM     13  C   UNL     1      57.284  30.908  53.090  1.00  0.00     0.000 C 
BRANCH  13  14
ATOM     14  C   UNL     1      58.533  30.432  52.329  1.00  0.00     0.000 C 
BRANCH  14  15
ATOM     15  C   UNL     1      58.314  29.080  51.626  1.00  0.00     0.000 C 
BRANCH  15  16
ATOM     16  C   UNL     1      57.867  29.238  50.164  1.00  0.00     0.006 C 
BRANCH  16  17
ATOM     17  C   UNL     1      59.044  29.235  49.180  1.00  0.00     0.053 C 
BRANCH  17  18
ATOM     18  C   UNL     1      59.930  28.056  49.428  1.00  0.00     0.041 C 
ATOM     19  O   UNL     1      61.121  28.226  49.801  1.00  0.00    -0.550 OA
ATOM     20  O   UNL     1      59.427  26.768  49.298  1.00  0.00    -0.550 OA
ENDBRANCH  17  18
ENDBRANCH  16  17
ENDBRANCH  15  16
ENDBRANCH  14  15
ENDBRANCH  13  14
ENDBRANCH  12  13
ENDBRANCH  11  12
ENDBRANCH   1  11
TORSDOF 15
ENDMDL
MODEL 3
REMARK VINA RESULT:    -3.243     12.275     14.887
REMARK INTER + INTRA:          -8.215
REMARK INTER:                  -6.800
REMARK INTRA:                  -1.415
REMARK UNBOUND:                -2.128
REMARK SMILES O=C([O-])CCCCCCCCCCCCCCC(=O)[O-]
REMARK SMILES IDX 10 1 9 2 8 3 7 4 6 5 5 6 4 7 2 8 1 9 3 10 11 11 12 12 13 13
REMARK SMILES IDX 14 14 15 15 16 16 17 17 18 18 19 19 20 20
REMARK H PARENT
REMARK Flexibility Score: inf
ROOT
ATOM      1  C   UNL     1      59.759  27.484  49.340  1.00  0.00     0.000 C 
ENDROOT
BRANCH   1   2
ATOM      2  C   UNL     1      59.272  28.944  49.379  1.00  0.00     0.000 C 
BRANCH   2   3
ATOM      3  C   UNL     1      57.928  29.130  50.114  1.00  0.00     0.000 C 
BRANCH   3   4
ATOM      4  C   UNL     1      57.919  28.437  51.489  1.00  0.00     0.000 C 
BRANCH   4   5
ATOM      5  C   UNL     1      56.810  27.381  51.614  1.00  0.00     0.000 C 
BRANCH   5   6
ATOM      6  C   UNL     1      56.325  26.868  50.248  1.00  0.00     0.006 C 
BRANCH   6   7
ATOM      7  C   UNL     1      54.804  27.001  50.087  1.00  0.00     0.053 C 
BRANCH   7   8
ATOM      8  C   UNL     1      54.102  25.703  50.340  1.00  0.00     0.041 C 
ATOM      9  O   UNL     1      53.716  24.993  49.373  1.00  0.00    -0.550 OA
ATOM     10  O   UNL     1      53.890  25.266  51.641  1.00  0.00    -0.550 OA
ENDBRANCH   7   8
ENDBRANCH   6   7
ENDBRANCH   5   6
ENDBRANCH   4   5
ENDBRANCH   3   4
ENDBRANCH   2   3
ENDBRANCH   1   2
BRANCH   1  11
ATOM     11  C   UNL     1      61.198  27.323  49.859  1.00  0.00     0.000 C 
BRANCH  11  12
ATOM     12  C   UNL     1      61.489  25.901  50.364  1.00  0.00     0.000 C 
BRANCH  12  13
ATOM     13  C   UNL     1      60.296  25.285  51.120  1.00  0.00     0.000 C 
BRANCH  13  14
ATOM     14  C   UNL     1      59.948  23.873  50.620  1.00  0.00     0.000 C 
BRANCH  14  15
ATOM     15  C   UNL     1      60.968  23.342  49.597  1.00  0.00     0.000 C 
BRANCH  15  16
ATOM     16  C   UNL     1      60.846  21.826  49.372  1.00  0.00     0.006 C 
BRANCH  16  17
ATOM     17  C   UNL     1      60.327  21.082  50.610  1.00  0.00     0.053 C 
BRANCH  17  18
ATOM     18  C   UNL     1      60.000  19.663  50.267  1.00  0.00     0.041 C 
ATOM     19  O   UNL     1      60.649  18.719  50.792  1.00  0.00    -0.550 OA
ATOM     20  O   UNL     1      58.945  19.380  49.409  1.00  0.00    -0.550 OA
ENDBRANCH  17  18
ENDBRANCH  16  17
ENDBRANCH  15  16
ENDBRANCH  14  15
ENDBRANCH  13  14
ENDBRANCH  12  13
ENDBRANCH  11  12
ENDBRANCH   1  11
TORSDOF 15
ENDMDL
MODEL 4
REMARK VINA RESULT:    -3.206     11.638     12.937
REMARK INTER + INTRA:          -8.146
REMARK INTER:                  -6.782
REMARK INTRA:                  -1.363
REMARK UNBOUND:                -2.128
REMARK SMILES O=C([O-])CCCCCCCCCCCCCCC(=O)[O-]
REMARK SMILES IDX 10 1 9 2 8 3 7 4 6 5 5 6 4 7 2 8 1 9 3 10 11 11 12 12 13 13
REMARK SMILES IDX 14 14 15 15 16 16 17 17 18 18 19 19 20 20
REMARK H PARENT
REMARK Flexibility Score: inf
ROOT
ATOM      1  C   UNL     1      60.331  26.031  50.726  1.00  0.00     0.000 C 
ENDROOT
BRANCH   1   2
ATOM      2  C   UNL     1      61.649  26.767  51.025  1.00  0.00     0.000 C 
BRANCH   2   3
ATOM      3  C   UNL     1      62.899  25.869  50.919  1.00  0.00     0.000 C 
BRANCH   3   4
ATOM      4  C   UNL     1      64.007  26.517  50.069  1.00  0.00     0.000 C 
BRANCH   4   5
ATOM      5  C   UNL     1      63.731  27.998  49.766  1.00  0.00     0.000 C 
BRANCH   5   6
ATOM      6  C   UNL     1      63.856  28.329  48.269  1.00  0.00     0.006 C 
BRANCH   6   7
ATOM      7  C   UNL     1      64.771  29.535  48.016  1.00  0.00     0.053 C 
BRANCH   7   8
ATOM      8  C   UNL     1      65.859  29.215  47.039  1.00  0.00     0.041 C 
ATOM      9  O   UNL     1      65.868  28.105  46.443  1.00  0.00    -0.550 OA
ATOM     10  O   UNL     1      66.852  30.148  46.770  1.00  0.00    -0.550 OA
ENDBRANCH   7   8
ENDBRANCH   6   7
ENDBRANCH   5   6
ENDBRANCH   4   5
ENDBRANCH   3   4
ENDBRANCH   2   3
ENDBRANCH   1   2
BRANCH   1  11
ATOM     11  C   UNL     1      59.503  26.717  49.627  1.00  0.00     0.000 C 
BRANCH  11  12
ATOM     12  C   UNL     1      60.029  28.119  49.278  1.00  0.00     0.000 C 
BRANCH  12  13
ATOM     13  C   UNL     1      58.942  29.204  49.388  1.00  0.00     0.000 C 
BRANCH  13  14
ATOM     14  C   UNL     1      58.124  29.089  50.684  1.00  0.00     0.000 C 
BRANCH  14  15
ATOM     15  C   UNL     1      56.617  28.925  50.417  1.00  0.00     0.000 C 
BRANCH  15  16
ATOM     16  C   UNL     1      56.034  27.662  51.072  1.00  0.00     0.006 C 
BRANCH  16  17
ATOM     17  C   UNL     1      55.849  26.508  50.078  1.00  0.00     0.053 C 
BRANCH  17  18
ATOM     18  C   UNL     1      54.459  26.514  49.524  1.00  0.00     0.041 C 
ATOM     19  O   UNL     1      53.999  25.486  48.958  1.00  0.00    -0.550 OA
ATOM     20  O   UNL     1      53.653  27.634  49.678  1.00  0.00    -0.550 OA
ENDBRANCH  17  18
ENDBRANCH  16  17
ENDBRANCH  15  16
ENDBRANCH  14  15
ENDBRANCH  13  14
ENDBRANCH  12  13
ENDBRANCH  11  12
ENDBRANCH   1  11
TORSDOF 15
ENDMDL
MODEL 5
REMARK VINA RESULT:    -3.203      0.938      6.845
REMARK INTER + INTRA:          -8.140
REMARK INTER:                  -5.869
REMARK INTRA:                  -2.271
REMARK UNBOUND:                -2.128
REMARK SMILES O=C([O-])CCCCCCCCCCCCCCC(=O)[O-]
REMARK SMILES IDX 10 1 9 2 8 3 7 4 6 5 5 6 4 7 2 8 1 9 3 10 11 11 12 12 13 13
REMARK SMILES IDX 14 14 15 15 16 16 17 17 18 18 19 19 20 20
REMARK H PARENT
REMARK Flexibility Score: inf
ROOT
ATOM      1  C   UNL     1      63.530  32.774  59.576  1.00  0.00     0.000 C 
ENDROOT
BRANCH   1   2
ATOM      2  C   UNL     1      63.693  33.539  60.902  1.00  0.00     0.000 C 
BRANCH   2   3
ATOM      3  C   UNL     1      64.440  34.882  60.756  1.00  0.00     0.000 C 
BRANCH   3   4
ATOM      4  C   UNL     1      63.537  35.986  60.177  1.00  0.00     0.000 C 
BRANCH   4   5
ATOM      5  C   UNL     1      62.341  36.311  61.086  1.00  0.00     0.000 C 
BRANCH   5   6
ATOM      6  C   UNL     1      60.994  36.210  60.349  1.00  0.00     0.006 C 
BRANCH   6   7
ATOM      7  C   UNL     1      61.163  35.757  58.893  1.00  0.00     0.053 C 
BRANCH   7   8
ATOM      8  C   UNL     1      59.848  35.426  58.256  1.00  0.00     0.041 C 
ATOM      9  O   UNL     1      58.805  36.040  58.603  1.00  0.00    -0.550 OA
ATOM     10  O   UNL     1      59.777  34.455  57.266  1.00  0.00    -0.550 OA
ENDBRANCH   7   8
ENDBRANCH   6   7
ENDBRANCH   5   6
ENDBRANCH   4   5
ENDBRANCH   3   4
ENDBRANCH   2   3
ENDBRANCH   1   2
BRANCH   1  11
ATOM     11  C   UNL     1      62.095  32.268  59.354  1.00  0.00     0.000 C 
BRANCH  11  12
ATOM     12  C   UNL     1      61.206  32.446  60.596  1.00  0.00     0.000 C 
BRANCH  12  13
ATOM     13  C   UNL     1      61.019  31.137  61.384  1.00  0.00     0.000 C 
BRANCH  13  14
ATOM     14  C   UNL     1      61.327  29.891  60.536  1.00  0.00     0.000 C 
BRANCH  14  15
ATOM     15  C   UNL     1      62.359  28.965  61.204  1.00  0.00     0.000 C 
BRANCH  15  16
ATOM     16  C   UNL     1      63.771  29.572  61.227  1.00  0.00     0.006 C 
BRANCH  16  17
ATOM     17  C   UNL     1      64.769  28.786  60.366  1.00  0.00     0.053 C 
BRANCH  17  18
ATOM     18  C   UNL     1      65.021  29.499  59.075  1.00  0.00     0.041 C 
ATOM     19  O   UNL     1      64.217  29.372  58.114  1.00  0.00    -0.550 OA
ATOM     20  O   UNL     1      66.115  30.345  58.950  1.00  0.00    -0.550 OA
ENDBRANCH  17  18
ENDBRANCH  16  17
ENDBRANCH  15  16
ENDBRANCH  14  15
ENDBRANCH  13  14
ENDBRANCH  12  13
ENDBRANCH  11  12
ENDBRANCH   1  11
TORSDOF 15
ENDMDL
MODEL 6
REMARK VINA RESULT:    -3.151     10.767     13.272
REMARK INTER + INTRA:          -8.041
REMARK INTER:                  -6.004
REMARK INTRA:                  -2.036
REMARK UNBOUND:                -2.128
REMARK SMILES O=C([O-])CCCCCCCCCCCCCCC(=O)[O-]
REMARK SMILES IDX 10 1 9 2 8 3 7 4 6 5 5 6 4 7 2 8 1 9 3 10 11 11 12 12 13 13
REMARK SMILES IDX 14 14 15 15 16 16 17 17 18 18 19 19 20 20
REMARK H PARENT
REMARK Flexibility Score: inf
ROOT
ATOM      1  C   UNL     1      57.529  27.591  50.888  1.00  0.00     0.000 C 
ENDROOT
BRANCH   1   2
ATOM      2  C   UNL     1      56.501  26.758  50.103  1.00  0.00     0.000 C 
BRANCH   2   3
ATOM      3  C   UNL     1      55.489  26.014  51.001  1.00  0.00     0.000 C 
BRANCH   3   4
ATOM      4  C   UNL     1      54.056  26.090  50.445  1.00  0.00     0.000 C 
BRANCH   4   5
ATOM      5  C   UNL     1      53.817  27.346  49.593  1.00  0.00     0.000 C 
BRANCH   5   6
ATOM      6  C   UNL     1      53.117  28.469  50.377  1.00  0.00     0.006 C 
BRANCH   6   7
ATOM      7  C   UNL     1      54.034  29.679  50.599  1.00  0.00     0.053 C 
BRANCH   7   8
ATOM      8  C   UNL     1      54.439  29.817  52.034  1.00  0.00     0.041 C 
ATOM      9  O   UNL     1      54.831  30.929  52.477  1.00  0.00    -0.550 OA
ATOM     10  O   UNL     1      54.365  28.724  52.888  1.00  0.00    -0.550 OA
ENDBRANCH   7   8
ENDBRANCH   6   7
ENDBRANCH   5   6
ENDBRANCH   4   5
ENDBRANCH   3   4
ENDBRANCH   2   3
ENDBRANCH   1   2
BRANCH   1  11
ATOM     11  C   UNL     1      57.660  29.028  50.358  1.00  0.00     0.000 C 
BRANCH  11  12
ATOM     12  C   UNL     1      58.834  29.194  49.380  1.00  0.00     0.000 C 
BRANCH  12  13
ATOM     13  C   UNL     1      60.139  29.608  50.086  1.00  0.00     0.000 C 
BRANCH  13  14
ATOM     14  C   UNL     1      61.263  28.576  49.899  1.00  0.00     0.000 C 
BRANCH  14  15
ATOM     15  C   UNL     1      61.695  27.928  51.227  1.00  0.00     0.000 C 
BRANCH  15  16
ATOM     16  C   UNL     1      61.079  26.535  51.433  1.00  0.00     0.006 C 
BRANCH  16  17
ATOM     17  C   UNL     1      60.569  25.912  50.127  1.00  0.00     0.053 C 
BRANCH  17  18
ATOM     18  C   UNL     1      60.003  24.551  50.383  1.00  0.00     0.041 C 
ATOM     19  O   UNL     1      60.464  23.548  49.777  1.00  0.00    -0.550 OA
ATOM     20  O   UNL     1      59.000  24.381  51.329  1.00  0.00    -0.550 OA
ENDBRANCH  17  18
ENDBRANCH  16  17
ENDBRANCH  15  16
ENDBRANCH  14  15
ENDBRANCH  13  14
ENDBRANCH  12  13
ENDBRANCH  11  12
ENDBRANCH   1  11
TORSDOF 15
ENDMDL
MODEL 7
REMARK VINA RESULT:    -3.150     13.033     15.860
REMARK INTER + INTRA:          -8.040
REMARK INTER:                  -7.190
REMARK INTRA:                  -0.850
REMARK UNBOUND:                -2.128
REMARK SMILES O=C([O-])CCCCCCCCCCCCCCC(=O)[O-]
REMARK SMILES IDX 10 1 9 2 8 3 7 4 6 5 5 6 4 7 2 8 1 9 3 10 11 11 12 12 13 13
REMARK SMILES IDX 14 14 15 15 16 16 17 17 18 18 19 19 20 20
REMARK H PARENT
REMARK Flexibility Score: inf
ROOT
ATOM      1  C   UNL     1      59.733  26.038  49.731  1.00  0.00     0.000 C 
ENDROOT
BRANCH   1   2
ATOM      2  C   UNL     1      60.310  27.458  49.588  1.00  0.00     0.000 C 
BRANCH   2   3
ATOM      3  C   UNL     1      59.237  28.544  49.360  1.00  0.00     0.000 C 
BRANCH   3   4
ATOM      4  C   UNL     1      58.508  28.919  50.663  1.00  0.00     0.000 C 
BRANCH   4   5
ATOM      5  C   UNL     1      56.982  28.970  50.494  1.00  0.00     0.000 C 
BRANCH   5   6
ATOM      6  C   UNL     1      56.279  27.735  51.084  1.00  0.00     0.006 C 
BRANCH   6   7
ATOM      7  C   UNL     1      56.055  26.639  50.033  1.00  0.00     0.053 C 
BRANCH   7   8
ATOM      8  C   UNL     1      54.616  26.542  49.628  1.00  0.00     0.041 C 
ATOM      9  O   UNL     1      54.113  25.423  49.344  1.00  0.00    -0.550 OA
ATOM     10  O   UNL     1      53.825  27.683  49.582  1.00  0.00    -0.550 OA
ENDBRANCH   7   8
ENDBRANCH   6   7
ENDBRANCH   5   6
ENDBRANCH   4   5
ENDBRANCH   3   4
ENDBRANCH   2   3
ENDBRANCH   1   2
BRANCH   1  11
ATOM     11  C   UNL     1      60.673  25.088  50.491  1.00  0.00     0.000 C 
BRANCH  11  12
ATOM     12  C   UNL     1      60.302  23.609  50.298  1.00  0.00     0.000 C 
BRANCH  12  13
ATOM     13  C   UNL     1      61.493  22.756  49.825  1.00  0.00     0.000 C 
BRANCH  13  14
ATOM     14  C   UNL     1      61.442  21.319  50.370  1.00  0.00     0.000 C 
BRANCH  14  15
ATOM     15  C   UNL     1      60.002  20.804  50.539  1.00  0.00     0.000 C 
BRANCH  15  16
ATOM     16  C   UNL     1      59.861  19.314  50.187  1.00  0.00     0.006 C 
BRANCH  16  17
ATOM     17  C   UNL     1      58.759  18.615  50.995  1.00  0.00     0.053 C 
BRANCH  17  18
ATOM     18  C   UNL     1      57.705  18.075  50.082  1.00  0.00     0.041 C 
ATOM     19  O   UNL     1      58.013  17.262  49.170  1.00  0.00    -0.550 OA
ATOM     20  O   UNL     1      56.375  18.428  50.268  1.00  0.00    -0.550 OA
ENDBRANCH  17  18
ENDBRANCH  16  17
ENDBRANCH  15  16
ENDBRANCH  14  15
ENDBRANCH  13  14
ENDBRANCH  12  13
ENDBRANCH  11  12
ENDBRANCH   1  11
TORSDOF 15
ENDMDL
MODEL 8
REMARK VINA RESULT:    -3.149      4.491      7.337
REMARK INTER + INTRA:          -8.038
REMARK INTER:                  -6.629
REMARK INTRA:                  -1.408
REMARK UNBOUND:                -2.128
REMARK SMILES O=C([O-])CCCCCCCCCCCCCCC(=O)[O-]
REMARK SMILES IDX 10 1 9 2 8 3 7 4 6 5 5 6 4 7 2 8 1 9 3 10 11 11 12 12 13 13
REMARK SMILES IDX 14 14 15 15 16 16 17 17 18 18 19 19 20 20
REMARK H PARENT
REMARK Flexibility Score: inf
ROOT
ATOM      1  C   UNL     1      63.003  30.232  61.224  1.00  0.00     0.000 C 
ENDROOT
BRANCH   1   2
ATOM      2  C   UNL     1      61.634  30.446  61.894  1.00  0.00     0.000 C 
BRANCH   2   3
ATOM      3  C   UNL     1      60.741  31.473  61.167  1.00  0.00     0.000 C 
BRANCH   3   4
ATOM      4  C   UNL     1      61.465  32.132  59.980  1.00  0.00     0.000 C 
BRANCH   4   5
ATOM      5  C   UNL     1      61.620  33.652  60.149  1.00  0.00     0.000 C 
BRANCH   5   6
ATOM      6  C   UNL     1      63.029  34.054  60.617  1.00  0.00     0.006 C 
BRANCH   6   7
ATOM      7  C   UNL     1      63.186  35.576  60.739  1.00  0.00     0.053 C 
BRANCH   7   8
ATOM      8  C   UNL     1      64.571  35.961  61.158  1.00  0.00     0.041 C 
ATOM      9  O   UNL     1      65.501  36.006  60.309  1.00  0.00    -0.550 OA
ATOM     10  O   UNL     1      64.833  36.291  62.482  1.00  0.00    -0.550 OA
ENDBRANCH   7   8
ENDBRANCH   6   7
ENDBRANCH   5   6
ENDBRANCH   4   5
ENDBRANCH   3   4
ENDBRANCH   2   3
ENDBRANCH   1   2
BRANCH   1  11
ATOM     11  C   UNL     1      63.170  28.813  60.654  1.00  0.00     0.000 C 
BRANCH  11  12
ATOM     12  C   UNL     1      62.164  27.814  61.248  1.00  0.00     0.000 C 
BRANCH  12  13
ATOM     13  C   UNL     1      61.383  27.046  60.165  1.00  0.00     0.000 C 
BRANCH  13  14
ATOM     14  C   UNL     1      60.317  27.916  59.479  1.00  0.00     0.000 C 
BRANCH  14  15
ATOM     15  C   UNL     1      59.161  28.286  60.425  1.00  0.00     0.000 C 
BRANCH  15  16
ATOM     16  C   UNL     1      57.943  27.363  60.259  1.00  0.00     0.006 C 
BRANCH  16  17
ATOM     17  C   UNL     1      57.511  26.706  61.577  1.00  0.00     0.053 C 
BRANCH  17  18
ATOM     18  C   UNL     1      56.094  27.062  61.899  1.00  0.00     0.041 C 
ATOM     19  O   UNL     1      55.168  26.237  61.677  1.00  0.00    -0.550 OA
ATOM     20  O   UNL     1      55.800  28.284  62.490  1.00  0.00    -0.550 OA
ENDBRANCH  17  18
ENDBRANCH  16  17
ENDBRANCH  15  16
ENDBRANCH  14  15
ENDBRANCH  13  14
ENDBRANCH  12  13
ENDBRANCH  11  12
ENDBRANCH   1  11
TORSDOF 15
ENDMDL
MODEL 9
REMARK VINA RESULT:    -3.144     11.448     12.978
REMARK INTER + INTRA:          -8.028
REMARK INTER:                  -6.296
REMARK INTRA:                  -1.732
REMARK UNBOUND:                -2.128
REMARK SMILES O=C([O-])CCCCCCCCCCCCCCC(=O)[O-]
REMARK SMILES IDX 10 1 9 2 8 3 7 4 6 5 5 6 4 7 2 8 1 9 3 10 11 11 12 12 13 13
REMARK SMILES IDX 14 14 15 15 16 16 17 17 18 18 19 19 20 20
REMARK H PARENT
REMARK Flexibility Score: inf
ROOT
ATOM      1  C   UNL     1      56.481  27.856  50.398  1.00  0.00     0.000 C 
ENDROOT
BRANCH   1   2
ATOM      2  C   UNL     1      56.748  26.343  50.314  1.00  0.00     0.000 C 
BRANCH   2   3
ATOM      3  C   UNL     1      57.841  25.851  51.286  1.00  0.00     0.000 C 
BRANCH   3   4
ATOM      4  C   UNL     1      58.980  25.119  50.554  1.00  0.00     0.000 C 
BRANCH   4   5
ATOM      5  C   UNL     1      60.288  25.102  51.359  1.00  0.00     0.000 C 
BRANCH   5   6
ATOM      6  C   UNL     1      61.333  24.139  50.769  1.00  0.00     0.006 C 
BRANCH   6   7
ATOM      7  C   UNL     1      60.754  23.276  49.641  1.00  0.00     0.053 C 
BRANCH   7   8
ATOM      8  C   UNL     1      61.186  21.847  49.754  1.00  0.00     0.041 C 
ATOM      9  O   UNL     1      60.393  20.919  49.443  1.00  0.00    -0.550 OA
ATOM     10  O   UNL     1      62.471  21.538  50.183  1.00  0.00    -0.550 OA
ENDBRANCH   7   8
ENDBRANCH   6   7
ENDBRANCH   5   6
ENDBRANCH   4   5
ENDBRANCH   3   4
ENDBRANCH   2   3
ENDBRANCH   1   2
BRANCH   1  11
ATOM     11  C   UNL     1      57.703  28.649  50.889  1.00  0.00     0.000 C 
BRANCH  11  12
ATOM     12  C   UNL     1      58.491  29.296  49.737  1.00  0.00     0.000 C 
BRANCH  12  13
ATOM     13  C   UNL     1      59.592  28.374  49.183  1.00  0.00     0.000 C 
BRANCH  13  14
ATOM     14  C   UNL     1      60.930  28.543  49.922  1.00  0.00     0.000 C 
BRANCH  14  15
ATOM     15  C   UNL     1      62.048  27.672  49.324  1.00  0.00     0.000 C 
BRANCH  15  16
ATOM     16  C   UNL     1      63.289  27.598  50.229  1.00  0.00     0.006 C 
BRANCH  16  17
ATOM     17  C   UNL     1      64.596  27.850  49.467  1.00  0.00     0.053 C 
BRANCH  17  18
ATOM     18  C   UNL     1      64.481  29.080  48.624  1.00  0.00     0.041 C 
ATOM     19  O   UNL     1      64.390  30.213  49.167  1.00  0.00    -0.550 OA
ATOM     20  O   UNL     1      64.524  28.982  47.239  1.00  0.00    -0.550 OA
ENDBRANCH  17  18
ENDBRANCH  16  17
ENDBRANCH  15  16
ENDBRANCH  14  15
ENDBRANCH  13  14
ENDBRANCH  12  13
ENDBRANCH  11  12
ENDBRANCH   1  11
TORSDOF 15
ENDMDL
