MODEL 1
REMARK VINA RESULT:    -1.797      0.000      0.000
REMARK INTER + INTRA:          -1.797
REMARK INTER:                  -1.797
REMARK INTRA:                   0.000
REMARK UNBOUND:                 0.000
REMARK SMILES O=c1ccc2ccc3occc3c2o1
REMARK SMILES IDX 6 1 7 2 8 3 12 4 11 5 10 6 9 7 13 8 5 9 4 10 3 11 2 12 1 13
REMARK SMILES IDX 14 14
REMARK H PARENT
REMARK Flexibility Score: inf
ROOT
ATOM      1  C   UNL     1      20.981  13.875   3.560  1.00  0.00     0.016 A 
ATOM      2  C   UNL     1      19.647  14.131   3.192  1.00  0.00     0.048 A 
ATOM      3  C   UNL     1      19.404  14.631   1.913  1.00  0.00     0.137 A 
ATOM      4  C   UNL     1      20.417  14.873   1.026  1.00  0.00     0.064 A 
ATOM      5  C   UNL     1      19.836  15.355  -0.125  1.00  0.00     0.054 A 
ATOM      6  C   UNL     1      18.473  15.371   0.152  1.00  0.00     0.196 A 
ATOM      7  O   UNL     1      18.246  14.933   1.378  1.00  0.00    -0.464 OA
ATOM      8  C   UNL     1      21.750  14.634   1.352  1.00  0.00     0.149 A 
ATOM      9  C   UNL     1      22.035  14.125   2.646  1.00  0.00     0.018 A 
ATOM     10  C   UNL     1      23.369  13.883   2.980  1.00  0.00     0.019 A 
ATOM     11  C   UNL     1      24.369  14.145   2.041  1.00  0.00     0.094 A 
ATOM     12  C   UNL     1      24.009  14.648   0.784  1.00  0.00     0.336 A 
ATOM     13  O   UNL     1      24.899  14.890  -0.073  1.00  0.00    -0.246 OA
ATOM     14  O   UNL     1      22.732  14.872   0.486  1.00  0.00    -0.422 OA
ENDROOT
TORSDOF 0
ENDMDL
MODEL 2
REMARK VINA RESULT:     0.091      1.567      2.718
REMARK INTER + INTRA:           0.091
REMARK INTER:                   0.091
REMARK INTRA:                   0.000
REMARK UNBOUND:                 0.000
REMARK SMILES O=c1ccc2ccc3occc3c2o1
REMARK SMILES IDX 6 1 7 2 8 3 12 4 11 5 10 6 9 7 13 8 5 9 4 10 3 11 2 12 1 13
REMARK SMILES IDX 14 14
REMARK H PARENT
REMARK Flexibility Score: inf
ROOT
ATOM      1  C   UNL     1      22.112  15.719  -0.125  1.00  0.00     0.016 A 
ATOM      2  C   UNL     1      20.736  15.541   0.112  1.00  0.00     0.048 A 
ATOM      3  C   UNL     1      20.352  14.901   1.290  1.00  0.00     0.137 A 
ATOM      4  C   UNL     1      21.267  14.451   2.201  1.00  0.00     0.064 A 
ATOM      5  C   UNL     1      20.559  13.877   3.232  1.00  0.00     0.054 A 
ATOM      6  C   UNL     1      19.226  14.023   2.863  1.00  0.00     0.196 A 
ATOM      7  O   UNL     1      19.134  14.639   1.698  1.00  0.00    -0.464 OA
ATOM      8  C   UNL     1      22.638  14.607   2.004  1.00  0.00     0.149 A 
ATOM      9  C   UNL     1      23.065  15.254   0.815  1.00  0.00     0.018 A 
ATOM     10  C   UNL     1      24.438  15.414   0.610  1.00  0.00     0.019 A 
ATOM     11  C   UNL     1      25.334  14.939   1.569  1.00  0.00     0.094 A 
ATOM     12  C   UNL     1      24.834  14.310   2.717  1.00  0.00     0.336 A 
ATOM     13  O   UNL     1      25.630  13.875   3.590  1.00  0.00    -0.246 OA
ATOM     14  O   UNL     1      23.524  14.167   2.893  1.00  0.00    -0.422 OA
ENDROOT
TORSDOF 0
ENDMDL
