MODEL 1
REMARK VINA RESULT:    -6.074      0.000      0.000
REMARK INTER + INTRA:          -6.659
REMARK INTER:                  -6.607
REMARK INTRA:                  -0.052
REMARK UNBOUND:                -0.052
REMARK SMILES COc1cc2ccc(=O)oc2cc1O
REMARK SMILES IDX 3 1 13 2 12 3 11 4 5 5 4 6 6 7 7 8 8 9 9 10 10 11 2 12 1 13
REMARK SMILES IDX 14 14
REMARK H PARENT 14 15
REMARK Flexibility Score: inf
ROOT
ATOM      1  C   UNL     1     -33.774  10.789 -39.227  1.00  0.00     0.161 A 
ATOM      2  C   UNL     1     -34.007  12.127 -38.873  1.00  0.00     0.161 A 
ATOM      3  C   UNL     1     -33.711  12.579 -37.578  1.00  0.00     0.098 A 
ATOM      4  C   UNL     1     -33.180  11.701 -36.630  1.00  0.00     0.142 A 
ATOM      5  C   UNL     1     -32.943  10.354 -36.977  1.00  0.00     0.022 A 
ATOM      6  C   UNL     1     -33.239   9.902 -38.270  1.00  0.00     0.062 A 
ATOM      7  C   UNL     1     -32.412   9.499 -36.006  1.00  0.00     0.019 A 
ATOM      8  C   UNL     1     -32.134   9.998 -34.733  1.00  0.00     0.094 A 
ATOM      9  C   UNL     1     -32.396  11.344 -34.460  1.00  0.00     0.336 A 
ATOM     10  O   UNL     1     -32.152  11.813 -33.318  1.00  0.00    -0.246 OA
ATOM     11  O   UNL     1     -32.902  12.136 -35.403  1.00  0.00    -0.423 OA
ENDROOT
BRANCH   1  12
ATOM     12  O   UNL     1     -34.085  10.380 -40.533  1.00  0.00    -0.493 OA
ATOM     13  C   UNL     1     -34.741   9.160 -40.862  1.00  0.00     0.278 C 
ENDBRANCH   1  12
BRANCH   2  14
ATOM     14  O   UNL     1     -34.536  13.005 -39.817  1.00  0.00    -0.504 OA
ATOM     15  H   UNL     1     -34.488  12.809 -40.810  1.00  0.00     0.293 HD
ENDBRANCH   2  14
TORSDOF 2
ENDMDL
MODEL 2
REMARK VINA RESULT:    -6.018      1.292      5.383
REMARK INTER + INTRA:          -6.597
REMARK INTER:                  -6.551
REMARK INTRA:                  -0.046
REMARK UNBOUND:                -0.052
REMARK SMILES COc1cc2ccc(=O)oc2cc1O
REMARK SMILES IDX 3 1 13 2 12 3 11 4 5 5 4 6 6 7 7 8 8 9 9 10 10 11 2 12 1 13
REMARK SMILES IDX 14 14
REMARK H PARENT 14 15
REMARK Flexibility Score: inf
ROOT
ATOM      1  C   UNL     1     -32.632  11.173 -35.335  1.00  0.00     0.161 A 
ATOM      2  C   UNL     1     -32.565   9.827 -35.728  1.00  0.00     0.161 A 
ATOM      3  C   UNL     1     -32.989   9.441 -37.008  1.00  0.00     0.098 A 
ATOM      4  C   UNL     1     -33.482  10.393 -37.903  1.00  0.00     0.142 A 
ATOM      5  C   UNL     1     -33.554  11.748 -37.517  1.00  0.00     0.022 A 
ATOM      6  C   UNL     1     -33.130  12.135 -36.239  1.00  0.00     0.062 A 
ATOM      7  C   UNL     1     -34.053  12.677 -38.435  1.00  0.00     0.019 A 
ATOM      8  C   UNL     1     -34.462  12.242 -39.696  1.00  0.00     0.094 A 
ATOM      9  C   UNL     1     -34.363  10.882 -40.009  1.00  0.00     0.336 A 
ATOM     10  O   UNL     1     -34.727  10.470 -41.141  1.00  0.00    -0.246 OA
ATOM     11  O   UNL     1     -33.884  10.019 -39.116  1.00  0.00    -0.423 OA
ENDROOT
BRANCH   1  12
ATOM     12  O   UNL     1     -32.196  11.516 -34.046  1.00  0.00    -0.493 OA
ATOM     13  C   UNL     1     -32.572  12.702 -33.355  1.00  0.00     0.278 C 
ENDBRANCH   1  12
BRANCH   2  14
ATOM     14  O   UNL     1     -32.072   8.876 -34.836  1.00  0.00    -0.504 OA
ATOM     15  H   UNL     1     -32.203   7.883 -34.994  1.00  0.00     0.293 HD
ENDBRANCH   2  14
TORSDOF 2
ENDMDL
MODEL 3
REMARK VINA RESULT:    -5.505      1.718      5.029
REMARK INTER + INTRA:          -6.040
REMARK INTER:                  -6.210
REMARK INTRA:                   0.170
REMARK UNBOUND:                -0.052
REMARK SMILES COc1cc2ccc(=O)oc2cc1O
REMARK SMILES IDX 3 1 13 2 12 3 11 4 5 5 4 6 6 7 7 8 8 9 9 10 10 11 2 12 1 13
REMARK SMILES IDX 14 14
REMARK H PARENT 14 15
REMARK Flexibility Score: inf
ROOT
ATOM      1  C   UNL     1     -32.467  11.273 -34.357  1.00  0.00     0.161 A 
ATOM      2  C   UNL     1     -33.648  11.767 -34.933  1.00  0.00     0.161 A 
ATOM      3  C   UNL     1     -33.989  11.423 -36.250  1.00  0.00     0.098 A 
ATOM      4  C   UNL     1     -33.158  10.587 -36.998  1.00  0.00     0.142 A 
ATOM      5  C   UNL     1     -31.969  10.087 -36.426  1.00  0.00     0.022 A 
ATOM      6  C   UNL     1     -31.626  10.428 -35.111  1.00  0.00     0.062 A 
ATOM      7  C   UNL     1     -31.157   9.252 -37.201  1.00  0.00     0.019 A 
ATOM      8  C   UNL     1     -31.542   8.940 -38.505  1.00  0.00     0.094 A 
ATOM      9  C   UNL     1     -32.734   9.473 -39.006  1.00  0.00     0.336 A 
ATOM     10  O   UNL     1     -33.098   9.205 -40.180  1.00  0.00    -0.246 OA
ATOM     11  O   UNL     1     -33.488  10.266 -38.247  1.00  0.00    -0.423 OA
ENDROOT
BRANCH   1  12
ATOM     12  O   UNL     1     -32.164  11.641 -33.036  1.00  0.00    -0.493 OA
ATOM     13  C   UNL     1     -31.837  12.963 -32.622  1.00  0.00     0.278 C 
ENDBRANCH   1  12
BRANCH   2  14
ATOM     14  O   UNL     1     -34.479  12.601 -34.189  1.00  0.00    -0.504 OA
ATOM     15  H   UNL     1     -34.146  13.080 -33.361  1.00  0.00     0.293 HD
ENDBRANCH   2  14
TORSDOF 2
ENDMDL
MODEL 4
REMARK VINA RESULT:    -5.444      1.610      2.625
REMARK INTER + INTRA:          -5.973
REMARK INTER:                  -5.928
REMARK INTRA:                  -0.045
REMARK UNBOUND:                -0.052
REMARK SMILES COc1cc2ccc(=O)oc2cc1O
REMARK SMILES IDX 3 1 13 2 12 3 11 4 5 5 4 6 6 7 7 8 8 9 9 10 10 11 2 12 1 13
REMARK SMILES IDX 14 14
REMARK H PARENT 14 15
REMARK Flexibility Score: inf
ROOT
ATOM      1  C   UNL     1     -32.845  10.429 -38.330  1.00  0.00     0.161 A 
ATOM      2  C   UNL     1     -31.744   9.778 -37.750  1.00  0.00     0.161 A 
ATOM      3  C   UNL     1     -31.393  10.033 -36.417  1.00  0.00     0.098 A 
ATOM      4  C   UNL     1     -32.136  10.936 -35.653  1.00  0.00     0.142 A 
ATOM      5  C   UNL     1     -33.243  11.595 -36.227  1.00  0.00     0.022 A 
ATOM      6  C   UNL     1     -33.596  11.342 -37.560  1.00  0.00     0.062 A 
ATOM      7  C   UNL     1     -33.967  12.495 -35.437  1.00  0.00     0.019 A 
ATOM      8  C   UNL     1     -33.577  12.713 -34.116  1.00  0.00     0.094 A 
ATOM      9  C   UNL     1     -32.468  12.025 -33.614  1.00  0.00     0.336 A 
ATOM     10  O   UNL     1     -32.099  12.207 -32.425  1.00  0.00    -0.246 OA
ATOM     11  O   UNL     1     -31.796  11.174 -34.388  1.00  0.00    -0.423 OA
ENDROOT
BRANCH   1  12
ATOM     12  O   UNL     1     -33.162  10.144 -39.667  1.00  0.00    -0.493 OA
ATOM     13  C   UNL     1     -34.386  10.499 -40.300  1.00  0.00     0.278 C 
ENDBRANCH   1  12
BRANCH   2  14
ATOM     14  O   UNL     1     -31.002   8.876 -38.510  1.00  0.00    -0.504 OA
ATOM     15  H   UNL     1     -30.393   8.192 -38.076  1.00  0.00     0.293 HD
ENDBRANCH   2  14
TORSDOF 2
ENDMDL
MODEL 5
REMARK VINA RESULT:    -4.836      2.005      5.875
REMARK INTER + INTRA:          -5.311
REMARK INTER:                  -5.248
REMARK INTRA:                  -0.063
REMARK UNBOUND:                -0.052
REMARK SMILES COc1cc2ccc(=O)oc2cc1O
REMARK SMILES IDX 3 1 13 2 12 3 11 4 5 5 4 6 6 7 7 8 8 9 9 10 10 11 2 12 1 13
REMARK SMILES IDX 14 14
REMARK H PARENT 14 15
REMARK Flexibility Score: inf
ROOT
ATOM      1  C   UNL     1     -32.965  11.166 -38.081  1.00  0.00     0.161 A 
ATOM      2  C   UNL     1     -32.357   9.951 -38.434  1.00  0.00     0.161 A 
ATOM      3  C   UNL     1     -32.771   9.260 -39.582  1.00  0.00     0.098 A 
ATOM      4  C   UNL     1     -33.791   9.775 -40.385  1.00  0.00     0.142 A 
ATOM      5  C   UNL     1     -34.408  10.996 -40.038  1.00  0.00     0.022 A 
ATOM      6  C   UNL     1     -33.996  11.687 -38.891  1.00  0.00     0.062 A 
ATOM      7  C   UNL     1     -35.427  11.485 -40.861  1.00  0.00     0.019 A 
ATOM      8  C   UNL     1     -35.801  10.760 -41.992  1.00  0.00     0.094 A 
ATOM      9  C   UNL     1     -35.146   9.557 -42.274  1.00  0.00     0.336 A 
ATOM     10  O   UNL     1     -35.469   8.887 -43.289  1.00  0.00    -0.246 OA
ATOM     11  O   UNL     1     -34.179   9.113 -41.473  1.00  0.00    -0.423 OA
ENDROOT
BRANCH   1  12
ATOM     12  O   UNL     1     -32.520  11.825 -36.924  1.00  0.00    -0.493 OA
ATOM     13  C   UNL     1     -33.300  12.007 -35.748  1.00  0.00     0.278 C 
ENDBRANCH   1  12
BRANCH   2  14
ATOM     14  O   UNL     1     -31.339   9.436 -37.634  1.00  0.00    -0.504 OA
ATOM     15  H   UNL     1     -30.622  10.032 -37.238  1.00  0.00     0.293 HD
ENDBRANCH   2  14
TORSDOF 2
ENDMDL
MODEL 6
REMARK VINA RESULT:    -4.808      1.962      3.313
REMARK INTER + INTRA:          -5.282
REMARK INTER:                  -5.368
REMARK INTRA:                   0.086
REMARK UNBOUND:                -0.052
REMARK SMILES COc1cc2ccc(=O)oc2cc1O
REMARK SMILES IDX 3 1 13 2 12 3 11 4 5 5 4 6 6 7 7 8 8 9 9 10 10 11 2 12 1 13
REMARK SMILES IDX 14 14
REMARK H PARENT 14 15
REMARK Flexibility Score: inf
ROOT
ATOM      1  C   UNL     1     -35.121  10.964 -41.093  1.00  0.00     0.161 A 
ATOM      2  C   UNL     1     -34.466   9.725 -41.171  1.00  0.00     0.161 A 
ATOM      3  C   UNL     1     -33.551   9.344 -40.178  1.00  0.00     0.098 A 
ATOM      4  C   UNL     1     -33.285  10.194 -39.102  1.00  0.00     0.142 A 
ATOM      5  C   UNL     1     -33.938  11.442 -39.016  1.00  0.00     0.022 A 
ATOM      6  C   UNL     1     -34.853  11.824 -40.007  1.00  0.00     0.062 A 
ATOM      7  C   UNL     1     -33.650  12.271 -37.927  1.00  0.00     0.019 A 
ATOM      8  C   UNL     1     -32.733  11.845 -36.967  1.00  0.00     0.094 A 
ATOM      9  C   UNL     1     -32.123  10.596 -37.118  1.00  0.00     0.336 A 
ATOM     10  O   UNL     1     -31.292  10.194 -36.262  1.00  0.00    -0.246 OA
ATOM     11  O   UNL     1     -32.415   9.826 -38.164  1.00  0.00    -0.423 OA
ENDROOT
BRANCH   1  12
ATOM     12  O   UNL     1     -36.029  11.305 -42.107  1.00  0.00    -0.493 OA
ATOM     13  C   UNL     1     -37.330  10.743 -42.249  1.00  0.00     0.278 C 
ENDBRANCH   1  12
BRANCH   2  14
ATOM     14  O   UNL     1     -34.731   8.875 -42.243  1.00  0.00    -0.504 OA
ATOM     15  H   UNL     1     -35.380   8.101 -42.159  1.00  0.00     0.293 HD
ENDBRANCH   2  14
TORSDOF 2
ENDMDL
MODEL 7
REMARK VINA RESULT:    -4.801      1.637      5.266
REMARK INTER + INTRA:          -5.274
REMARK INTER:                  -5.215
REMARK INTRA:                  -0.059
REMARK UNBOUND:                -0.052
REMARK SMILES COc1cc2ccc(=O)oc2cc1O
REMARK SMILES IDX 3 1 13 2 12 3 11 4 5 5 4 6 6 7 7 8 8 9 9 10 10 11 2 12 1 13
REMARK SMILES IDX 14 14
REMARK H PARENT 14 15
REMARK Flexibility Score: inf
ROOT
ATOM      1  C   UNL     1     -32.714  10.388 -37.803  1.00  0.00     0.161 A 
ATOM      2  C   UNL     1     -33.207  11.703 -37.823  1.00  0.00     0.161 A 
ATOM      3  C   UNL     1     -34.064  12.121 -38.852  1.00  0.00     0.098 A 
ATOM      4  C   UNL     1     -34.435  11.234 -39.865  1.00  0.00     0.142 A 
ATOM      5  C   UNL     1     -33.943   9.912 -39.853  1.00  0.00     0.022 A 
ATOM      6  C   UNL     1     -33.087   9.492 -38.826  1.00  0.00     0.062 A 
ATOM      7  C   UNL     1     -34.331   9.047 -40.881  1.00  0.00     0.019 A 
ATOM      8  C   UNL     1     -35.186   9.512 -41.881  1.00  0.00     0.094 A 
ATOM      9  C   UNL     1     -35.633  10.837 -41.829  1.00  0.00     0.336 A 
ATOM     10  O   UNL     1     -36.404  11.276 -42.721  1.00  0.00    -0.246 OA
ATOM     11  O   UNL     1     -35.248  11.639 -40.838  1.00  0.00    -0.423 OA
ENDROOT
BRANCH   1  12
ATOM     12  O   UNL     1     -31.859  10.011 -36.755  1.00  0.00    -0.493 OA
ATOM     13  C   UNL     1     -32.113   8.939 -35.854  1.00  0.00     0.278 C 
ENDBRANCH   1  12
BRANCH   2  14
ATOM     14  O   UNL     1     -32.839  12.590 -36.813  1.00  0.00    -0.504 OA
ATOM     15  H   UNL     1     -32.480  12.262 -35.924  1.00  0.00     0.293 HD
ENDBRANCH   2  14
TORSDOF 2
ENDMDL
MODEL 8
REMARK VINA RESULT:    -4.661      1.495      1.816
REMARK INTER + INTRA:          -5.122
REMARK INTER:                  -5.094
REMARK INTRA:                  -0.027
REMARK UNBOUND:                -0.052
REMARK SMILES COc1cc2ccc(=O)oc2cc1O
REMARK SMILES IDX 3 1 13 2 12 3 11 4 5 5 4 6 6 7 7 8 8 9 9 10 10 11 2 12 1 13
REMARK SMILES IDX 14 14
REMARK H PARENT 14 15
REMARK Flexibility Score: inf
ROOT
ATOM      1  C   UNL     1     -34.349  10.714 -40.460  1.00  0.00     0.161 A 
ATOM      2  C   UNL     1     -34.544  11.882 -39.706  1.00  0.00     0.161 A 
ATOM      3  C   UNL     1     -33.903  12.041 -38.469  1.00  0.00     0.098 A 
ATOM      4  C   UNL     1     -33.064  11.038 -37.977  1.00  0.00     0.142 A 
ATOM      5  C   UNL     1     -32.862   9.861 -38.728  1.00  0.00     0.022 A 
ATOM      6  C   UNL     1     -33.502   9.701 -39.964  1.00  0.00     0.062 A 
ATOM      7  C   UNL     1     -32.017   8.875 -38.208  1.00  0.00     0.019 A 
ATOM      8  C   UNL     1     -31.403   9.082 -36.973  1.00  0.00     0.094 A 
ATOM      9  C   UNL     1     -31.649  10.274 -36.284  1.00  0.00     0.336 A 
ATOM     10  O   UNL     1     -31.105  10.479 -35.168  1.00  0.00    -0.246 OA
ATOM     11  O   UNL     1     -32.459  11.196 -36.801  1.00  0.00    -0.423 OA
ENDROOT
BRANCH   1  12
ATOM     12  O   UNL     1     -35.010  10.597 -41.694  1.00  0.00    -0.493 OA
ATOM     13  C   UNL     1     -36.320  10.066 -41.860  1.00  0.00     0.278 C 
ENDBRANCH   1  12
BRANCH   2  14
ATOM     14  O   UNL     1     -35.380  12.884 -40.196  1.00  0.00    -0.504 OA
ATOM     15  H   UNL     1     -35.008  13.741 -40.587  1.00  0.00     0.293 HD
ENDBRANCH   2  14
TORSDOF 2
ENDMDL
