MODEL 1
REMARK VINA RESULT:    -5.529      0.000      0.000
REMARK INTER + INTRA:         -11.661
REMARK INTER:                 -10.701
REMARK INTRA:                  -0.960
REMARK UNBOUND:                -0.960
REMARK SMILES CCCCCCCCCCCCCCCCCC(=O)[O-]
REMARK SMILES IDX 10 1 11 2 12 3 13 4 14 5 15 6 16 7 17 8 18 9 19 10 20 11
REMARK SMILES IDX 9 12 8 13 7 14 6 15 5 16 4 17 3 18 2 19 1 20
REMARK H PARENT
REMARK Flexibility Score: inf
ROOT
ATOM      1  C   UNL     1      27.144  -0.123  31.422  1.00  0.00     0.000 C 
ENDROOT
BRANCH   1   2
ATOM      2  C   UNL     1      27.860  -1.480  31.542  1.00  0.00     0.000 C 
BRANCH   2   3
ATOM      3  C   UNL     1      28.477  -2.005  30.230  1.00  0.00     0.000 C 
BRANCH   3   4
ATOM      4  C   UNL     1      28.664  -3.534  30.159  1.00  0.00     0.000 C 
BRANCH   4   5
ATOM      5  C   UNL     1      27.508  -4.364  30.747  1.00  0.00     0.000 C 
BRANCH   5   6
ATOM      6  C   UNL     1      27.256  -5.668  29.972  1.00  0.00     0.000 C 
BRANCH   6   7
ATOM      7  C   UNL     1      28.553  -6.443  29.674  1.00  0.00     0.006 C 
BRANCH   7   8
ATOM      8  C   UNL     1      29.243  -7.027  30.917  1.00  0.00     0.053 C 
BRANCH   8   9
ATOM      9  C   UNL     1      28.728  -8.392  31.256  1.00  0.00     0.041 C 
ATOM     10  O   UNL     1      28.397  -9.191  30.340  1.00  0.00    -0.550 OA
ATOM     11  O   UNL     1      28.643  -8.794  32.583  1.00  0.00    -0.550 OA
ENDBRANCH   8   9
ENDBRANCH   7   8
ENDBRANCH   6   7
ENDBRANCH   5   6
ENDBRANCH   4   5
ENDBRANCH   3   4
ENDBRANCH   2   3
ENDBRANCH   1   2
BRANCH   1  12
ATOM     12  C   UNL     1      27.058   0.376  29.970  1.00  0.00     0.000 C 
BRANCH  12  13
ATOM     13  C   UNL     1      27.827   1.690  29.753  1.00  0.00    -0.000 C 
BRANCH  13  14
ATOM     14  C   UNL     1      28.432   2.239  31.057  1.00  0.00    -0.000 C 
BRANCH  14  15
ATOM     15  C   UNL     1      28.255   3.761  31.201  1.00  0.00    -0.000 C 
BRANCH  15  16
ATOM     16  C   UNL     1      27.572   4.420  29.983  1.00  0.00    -0.000 C 
BRANCH  16  17
ATOM     17  C   UNL     1      27.161   5.876  30.265  1.00  0.00    -0.000 C 
BRANCH  17  18
ATOM     18  C   UNL     1      28.355   6.846  30.261  1.00  0.00    -0.000 C 
BRANCH  18  19
ATOM     19  C   UNL     1      27.975   8.335  30.185  1.00  0.00    -0.003 C 
ATOM     20  C   UNL     1      26.505   8.594  30.507  1.00  0.00     0.004 C 
ENDBRANCH  18  19
ENDBRANCH  17  18
ENDBRANCH  16  17
ENDBRANCH  15  16
ENDBRANCH  14  15
ENDBRANCH  13  14
ENDBRANCH  12  13
ENDBRANCH   1  12
TORSDOF 16
ENDMDL
MODEL 2
REMARK VINA RESULT:    -5.522      1.382      1.771
REMARK INTER + INTRA:         -11.647
REMARK INTER:                 -10.925
REMARK INTRA:                  -0.723
REMARK UNBOUND:                -0.960
REMARK SMILES CCCCCCCCCCCCCCCCCC(=O)[O-]
REMARK SMILES IDX 10 1 11 2 12 3 13 4 14 5 15 6 16 7 17 8 18 9 19 10 20 11
REMARK SMILES IDX 9 12 8 13 7 14 6 15 5 16 4 17 3 18 2 19 1 20
REMARK H PARENT
REMARK Flexibility Score: inf
ROOT
ATOM      1  C   UNL     1      27.487  -0.603  28.871  1.00  0.00     0.000 C 
ENDROOT
BRANCH   1   2
ATOM      2  C   UNL     1      28.989  -0.871  29.068  1.00  0.00     0.000 C 
BRANCH   2   3
ATOM      3  C   UNL     1      29.331  -1.802  30.248  1.00  0.00     0.000 C 
BRANCH   3   4
ATOM      4  C   UNL     1      28.894  -3.271  30.072  1.00  0.00     0.000 C 
BRANCH   4   5
ATOM      5  C   UNL     1      30.044  -4.283  29.921  1.00  0.00     0.000 C 
BRANCH   5   6
ATOM      6  C   UNL     1      29.750  -5.628  30.606  1.00  0.00     0.000 C 
BRANCH   6   7
ATOM      7  C   UNL     1      28.829  -6.533  29.767  1.00  0.00     0.006 C 
BRANCH   7   8
ATOM      8  C   UNL     1      28.983  -8.036  30.055  1.00  0.00     0.053 C 
BRANCH   8   9
ATOM      9  C   UNL     1      28.877  -8.861  28.809  1.00  0.00     0.041 C 
ATOM     10  O   UNL     1      29.558  -8.564  27.792  1.00  0.00    -0.550 OA
ATOM     11  O   UNL     1      28.050  -9.976  28.782  1.00  0.00    -0.550 OA
ENDBRANCH   8   9
ENDBRANCH   7   8
ENDBRANCH   6   7
ENDBRANCH   5   6
ENDBRANCH   4   5
ENDBRANCH   3   4
ENDBRANCH   2   3
ENDBRANCH   1   2
BRANCH   1  12
ATOM     12  C   UNL     1      26.939   0.453  29.846  1.00  0.00     0.000 C 
BRANCH  12  13
ATOM     13  C   UNL     1      27.668   1.801  29.724  1.00  0.00    -0.000 C 
BRANCH  13  14
ATOM     14  C   UNL     1      28.287   2.257  31.057  1.00  0.00    -0.000 C 
BRANCH  14  15
ATOM     15  C   UNL     1      28.110   3.764  31.311  1.00  0.00    -0.000 C 
BRANCH  15  16
ATOM     16  C   UNL     1      27.827   4.576  30.030  1.00  0.00    -0.000 C 
BRANCH  16  17
ATOM     17  C   UNL     1      27.221   5.957  30.338  1.00  0.00    -0.000 C 
BRANCH  17  18
ATOM     18  C   UNL     1      28.248   7.098  30.229  1.00  0.00    -0.000 C 
BRANCH  18  19
ATOM     19  C   UNL     1      27.648   8.514  30.301  1.00  0.00    -0.003 C 
ATOM     20  C   UNL     1      26.353   8.573  31.107  1.00  0.00     0.004 C 
ENDBRANCH  18  19
ENDBRANCH  17  18
ENDBRANCH  16  17
ENDBRANCH  15  16
ENDBRANCH  14  15
ENDBRANCH  13  14
ENDBRANCH  12  13
ENDBRANCH   1  12
TORSDOF 16
ENDMDL
MODEL 3
REMARK VINA RESULT:    -5.451      6.186     11.430
REMARK INTER + INTRA:         -11.509
REMARK INTER:                 -10.266
REMARK INTRA:                  -1.243
REMARK UNBOUND:                -0.960
REMARK SMILES CCCCCCCCCCCCCCCCCC(=O)[O-]
REMARK SMILES IDX 10 1 11 2 12 3 13 4 14 5 15 6 16 7 17 8 18 9 19 10 20 11
REMARK SMILES IDX 9 12 8 13 7 14 6 15 5 16 4 17 3 18 2 19 1 20
REMARK H PARENT
REMARK Flexibility Score: inf
ROOT
ATOM      1  C   UNL     1      29.444   1.193  31.792  1.00  0.00     0.000 C 
ENDROOT
BRANCH   1   2
ATOM      2  C   UNL     1      28.246   1.997  31.255  1.00  0.00     0.000 C 
BRANCH   2   3
ATOM      3  C   UNL     1      28.375   3.526  31.402  1.00  0.00     0.000 C 
BRANCH   3   4
ATOM      4  C   UNL     1      28.007   4.340  30.145  1.00  0.00     0.000 C 
BRANCH   4   5
ATOM      5  C   UNL     1      27.035   5.511  30.384  1.00  0.00     0.000 C 
BRANCH   5   6
ATOM      6  C   UNL     1      27.704   6.885  30.217  1.00  0.00     0.000 C 
BRANCH   6   7
ATOM      7  C   UNL     1      26.873   8.029  30.828  1.00  0.00     0.006 C 
BRANCH   7   8
ATOM      8  C   UNL     1      26.740   9.267  29.926  1.00  0.00     0.053 C 
BRANCH   8   9
ATOM      9  C   UNL     1      28.071   9.762  29.450  1.00  0.00     0.041 C 
ATOM     10  O   UNL     1      28.946  10.125  30.280  1.00  0.00    -0.550 OA
ATOM     11  O   UNL     1      28.357   9.792  28.091  1.00  0.00    -0.550 OA
ENDBRANCH   8   9
ENDBRANCH   7   8
ENDBRANCH   6   7
ENDBRANCH   5   6
ENDBRANCH   4   5
ENDBRANCH   3   4
ENDBRANCH   2   3
ENDBRANCH   1   2
BRANCH   1  12
ATOM     12  C   UNL     1      29.964   0.157  30.781  1.00  0.00     0.000 C 
BRANCH  12  13
ATOM     13  C   UNL     1      29.330   0.321  29.391  1.00  0.00    -0.000 C 
BRANCH  13  14
ATOM     14  C   UNL     1      28.724  -0.991  28.862  1.00  0.00    -0.000 C 
BRANCH  14  15
ATOM     15  C   UNL     1      27.199  -1.062  29.051  1.00  0.00    -0.000 C 
BRANCH  15  16
ATOM     16  C   UNL     1      26.773  -1.703  30.389  1.00  0.00    -0.000 C 
BRANCH  16  17
ATOM     17  C   UNL     1      27.639  -2.921  30.753  1.00  0.00    -0.000 C 
BRANCH  17  18
ATOM     18  C   UNL     1      26.868  -4.250  30.667  1.00  0.00    -0.000 C 
BRANCH  18  19
ATOM     19  C   UNL     1      27.712  -5.456  30.217  1.00  0.00    -0.003 C 
ATOM     20  C   UNL     1      29.180  -5.105  29.985  1.00  0.00     0.004 C 
ENDBRANCH  18  19
ENDBRANCH  17  18
ENDBRANCH  16  17
ENDBRANCH  15  16
ENDBRANCH  14  15
ENDBRANCH  13  14
ENDBRANCH  12  13
ENDBRANCH   1  12
TORSDOF 16
ENDMDL
MODEL 4
REMARK VINA RESULT:    -5.405      1.008      1.886
REMARK INTER + INTRA:         -11.420
REMARK INTER:                 -10.408
REMARK INTRA:                  -1.013
REMARK UNBOUND:                -0.960
REMARK SMILES CCCCCCCCCCCCCCCCCC(=O)[O-]
REMARK SMILES IDX 10 1 11 2 12 3 13 4 14 5 15 6 16 7 17 8 18 9 19 10 20 11
REMARK SMILES IDX 9 12 8 13 7 14 6 15 5 16 4 17 3 18 2 19 1 20
REMARK H PARENT
REMARK Flexibility Score: inf
ROOT
ATOM      1  C   UNL     1      27.522   0.472  30.984  1.00  0.00     0.000 C 
ENDROOT
BRANCH   1   2
ATOM      2  C   UNL     1      26.620  -0.005  29.831  1.00  0.00     0.000 C 
BRANCH   2   3
ATOM      3  C   UNL     1      27.200  -1.160  28.991  1.00  0.00     0.000 C 
BRANCH   3   4
ATOM      4  C   UNL     1      28.635  -1.585  29.362  1.00  0.00     0.000 C 
BRANCH   4   5
ATOM      5  C   UNL     1      28.745  -2.905  30.146  1.00  0.00     0.000 C 
BRANCH   5   6
ATOM      6  C   UNL     1      27.375  -3.496  30.515  1.00  0.00     0.000 C 
BRANCH   6   7
ATOM      7  C   UNL     1      27.463  -4.964  30.971  1.00  0.00     0.006 C 
BRANCH   7   8
ATOM      8  C   UNL     1      27.643  -5.974  29.825  1.00  0.00     0.053 C 
BRANCH   8   9
ATOM      9  C   UNL     1      28.261  -7.254  30.297  1.00  0.00     0.041 C 
ATOM     10  O   UNL     1      28.341  -8.243  29.521  1.00  0.00    -0.550 OA
ATOM     11  O   UNL     1      28.778  -7.345  31.583  1.00  0.00    -0.550 OA
ENDBRANCH   8   9
ENDBRANCH   7   8
ENDBRANCH   6   7
ENDBRANCH   5   6
ENDBRANCH   4   5
ENDBRANCH   3   4
ENDBRANCH   2   3
ENDBRANCH   1   2
BRANCH   1  12
ATOM     12  C   UNL     1      28.069   1.892  30.763  1.00  0.00     0.000 C 
BRANCH  12  13
ATOM     13  C   UNL     1      27.859   2.385  29.322  1.00  0.00    -0.000 C 
BRANCH  13  14
ATOM     14  C   UNL     1      27.311   3.821  29.265  1.00  0.00    -0.000 C 
BRANCH  14  15
ATOM     15  C   UNL     1      27.815   4.698  30.425  1.00  0.00    -0.000 C 
BRANCH  15  16
ATOM     16  C   UNL     1      27.242   6.131  30.408  1.00  0.00    -0.000 C 
BRANCH  16  17
ATOM     17  C   UNL     1      28.341   7.195  30.245  1.00  0.00    -0.000 C 
BRANCH  17  18
ATOM     18  C   UNL     1      27.777   8.612  30.036  1.00  0.00    -0.000 C 
BRANCH  18  19
ATOM     19  C   UNL     1      26.402   8.859  30.682  1.00  0.00    -0.003 C 
ATOM     20  C   UNL     1      26.490   9.626  31.999  1.00  0.00     0.004 C 
ENDBRANCH  18  19
ENDBRANCH  17  18
ENDBRANCH  16  17
ENDBRANCH  15  16
ENDBRANCH  14  15
ENDBRANCH  13  14
ENDBRANCH  12  13
ENDBRANCH   1  12
TORSDOF 16
ENDMDL
MODEL 5
REMARK VINA RESULT:    -5.375      5.816     11.403
REMARK INTER + INTRA:         -11.362
REMARK INTER:                 -10.324
REMARK INTRA:                  -1.038
REMARK UNBOUND:                -0.960
REMARK SMILES CCCCCCCCCCCCCCCCCC(=O)[O-]
REMARK SMILES IDX 10 1 11 2 12 3 13 4 14 5 15 6 16 7 17 8 18 9 19 10 20 11
REMARK SMILES IDX 9 12 8 13 7 14 6 15 5 16 4 17 3 18 2 19 1 20
REMARK H PARENT
REMARK Flexibility Score: inf
ROOT
ATOM      1  C   UNL     1      26.438   0.193  30.590  1.00  0.00     0.000 C 
ENDROOT
BRANCH   1   2
ATOM      2  C   UNL     1      26.990   0.718  29.253  1.00  0.00     0.000 C 
BRANCH   2   3
ATOM      3  C   UNL     1      28.002   1.874  29.380  1.00  0.00     0.000 C 
BRANCH   3   4
ATOM      4  C   UNL     1      28.380   2.260  30.825  1.00  0.00     0.000 C 
BRANCH   4   5
ATOM      5  C   UNL     1      28.038   3.706  31.227  1.00  0.00     0.000 C 
BRANCH   5   6
ATOM      6  C   UNL     1      27.650   4.584  30.026  1.00  0.00     0.000 C 
BRANCH   6   7
ATOM      7  C   UNL     1      27.324   6.034  30.429  1.00  0.00     0.006 C 
BRANCH   7   8
ATOM      8  C   UNL     1      28.445   7.043  30.132  1.00  0.00     0.053 C 
BRANCH   8   9
ATOM      9  C   UNL     1      27.948   8.456  30.151  1.00  0.00     0.041 C 
ATOM     10  O   UNL     1      27.070   8.808  30.983  1.00  0.00    -0.550 OA
ATOM     11  O   UNL     1      28.479   9.392  29.273  1.00  0.00    -0.550 OA
ENDBRANCH   8   9
ENDBRANCH   7   8
ENDBRANCH   6   7
ENDBRANCH   5   6
ENDBRANCH   4   5
ENDBRANCH   3   4
ENDBRANCH   2   3
ENDBRANCH   1   2
BRANCH   1  12
ATOM     12  C   UNL     1      26.746  -1.297  30.815  1.00  0.00     0.000 C 
BRANCH  12  13
ATOM     13  C   UNL     1      28.038  -1.516  31.619  1.00  0.00    -0.000 C 
BRANCH  13  14
ATOM     14  C   UNL     1      29.231  -1.894  30.723  1.00  0.00    -0.000 C 
BRANCH  14  15
ATOM     15  C   UNL     1      28.978  -3.169  29.900  1.00  0.00    -0.000 C 
BRANCH  15  16
ATOM     16  C   UNL     1      30.123  -4.200  29.993  1.00  0.00    -0.000 C 
BRANCH  16  17
ATOM     17  C   UNL     1      29.615  -5.600  30.376  1.00  0.00    -0.000 C 
BRANCH  17  18
ATOM     18  C   UNL     1      29.046  -6.380  29.177  1.00  0.00    -0.000 C 
BRANCH  18  19
ATOM     19  C   UNL     1      28.654  -7.836  29.483  1.00  0.00    -0.003 C 
ATOM     20  C   UNL     1      29.039  -8.805  28.367  1.00  0.00     0.004 C 
ENDBRANCH  18  19
ENDBRANCH  17  18
ENDBRANCH  16  17
ENDBRANCH  15  16
ENDBRANCH  14  15
ENDBRANCH  13  14
ENDBRANCH  12  13
ENDBRANCH   1  12
TORSDOF 16
ENDMDL
MODEL 6
REMARK VINA RESULT:    -5.366      5.737     11.680
REMARK INTER + INTRA:         -11.345
REMARK INTER:                 -10.508
REMARK INTRA:                  -0.837
REMARK UNBOUND:                -0.960
REMARK SMILES CCCCCCCCCCCCCCCCCC(=O)[O-]
REMARK SMILES IDX 10 1 11 2 12 3 13 4 14 5 15 6 16 7 17 8 18 9 19 10 20 11
REMARK SMILES IDX 9 12 8 13 7 14 6 15 5 16 4 17 3 18 2 19 1 20
REMARK H PARENT
REMARK Flexibility Score: inf
ROOT
ATOM      1  C   UNL     1      29.089  -0.684  31.855  1.00  0.00     0.000 C 
ENDROOT
BRANCH   1   2
ATOM      2  C   UNL     1      29.363   0.754  31.380  1.00  0.00     0.000 C 
BRANCH   2   3
ATOM      3  C   UNL     1      28.102   1.583  31.067  1.00  0.00     0.000 C 
BRANCH   3   4
ATOM      4  C   UNL     1      27.947   2.013  29.594  1.00  0.00     0.000 C 
BRANCH   4   5
ATOM      5  C   UNL     1      27.710   3.518  29.371  1.00  0.00     0.000 C 
BRANCH   5   6
ATOM      6  C   UNL     1      27.922   4.350  30.647  1.00  0.00     0.000 C 
BRANCH   6   7
ATOM      7  C   UNL     1      27.341   5.771  30.533  1.00  0.00     0.006 C 
BRANCH   7   8
ATOM      8  C   UNL     1      28.359   6.839  30.100  1.00  0.00     0.053 C 
BRANCH   8   9
ATOM      9  C   UNL     1      27.805   8.225  30.220  1.00  0.00     0.041 C 
ATOM     10  O   UNL     1      26.785   8.441  30.927  1.00  0.00    -0.550 OA
ATOM     11  O   UNL     1      28.433   9.285  29.578  1.00  0.00    -0.550 OA
ENDBRANCH   8   9
ENDBRANCH   7   8
ENDBRANCH   6   7
ENDBRANCH   5   6
ENDBRANCH   4   5
ENDBRANCH   3   4
ENDBRANCH   2   3
ENDBRANCH   1   2
BRANCH   1  12
ATOM     12  C   UNL     1      27.708  -1.200  31.420  1.00  0.00     0.000 C 
BRANCH  12  13
ATOM     13  C   UNL     1      27.773  -2.044  30.136  1.00  0.00    -0.000 C 
BRANCH  13  14
ATOM     14  C   UNL     1      27.908  -3.548  30.427  1.00  0.00    -0.000 C 
BRANCH  14  15
ATOM     15  C   UNL     1      29.292  -4.106  30.051  1.00  0.00    -0.000 C 
BRANCH  15  16
ATOM     16  C   UNL     1      29.491  -5.583  30.453  1.00  0.00    -0.000 C 
BRANCH  16  17
ATOM     17  C   UNL     1      28.226  -6.426  30.213  1.00  0.00    -0.000 C 
BRANCH  17  18
ATOM     18  C   UNL     1      28.535  -7.917  29.991  1.00  0.00    -0.000 C 
BRANCH  18  19
ATOM     19  C   UNL     1      29.239  -8.612  31.170  1.00  0.00    -0.003 C 
ATOM     20  C   UNL     1      30.098  -9.798  30.738  1.00  0.00     0.004 C 
ENDBRANCH  18  19
ENDBRANCH  17  18
ENDBRANCH  16  17
ENDBRANCH  15  16
ENDBRANCH  14  15
ENDBRANCH  13  14
ENDBRANCH  12  13
ENDBRANCH   1  12
TORSDOF 16
ENDMDL
MODEL 7
REMARK VINA RESULT:    -5.248      5.737     10.633
REMARK INTER + INTRA:         -11.116
REMARK INTER:                  -9.341
REMARK INTRA:                  -1.774
REMARK UNBOUND:                -0.960
REMARK SMILES CCCCCCCCCCCCCCCCCC(=O)[O-]
REMARK SMILES IDX 10 1 11 2 12 3 13 4 14 5 15 6 16 7 17 8 18 9 19 10 20 11
REMARK SMILES IDX 9 12 8 13 7 14 6 15 5 16 4 17 3 18 2 19 1 20
REMARK H PARENT
REMARK Flexibility Score: inf
ROOT
ATOM      1  C   UNL     1      27.260   1.049  28.955  1.00  0.00     0.000 C 
ENDROOT
BRANCH   1   2
ATOM      2  C   UNL     1      28.750   0.848  29.282  1.00  0.00     0.000 C 
BRANCH   2   3
ATOM      3  C   UNL     1      29.191   1.393  30.655  1.00  0.00     0.000 C 
BRANCH   3   4
ATOM      4  C   UNL     1      28.097   2.139  31.447  1.00  0.00     0.000 C 
BRANCH   4   5
ATOM      5  C   UNL     1      28.275   3.667  31.529  1.00  0.00     0.000 C 
BRANCH   5   6
ATOM      6  C   UNL     1      27.875   4.384  30.229  1.00  0.00     0.000 C 
BRANCH   6   7
ATOM      7  C   UNL     1      27.284   5.783  30.479  1.00  0.00     0.006 C 
BRANCH   7   8
ATOM      8  C   UNL     1      28.242   6.943  30.162  1.00  0.00     0.053 C 
BRANCH   8   9
ATOM      9  C   UNL     1      27.607   8.278  30.402  1.00  0.00     0.041 C 
ATOM     10  O   UNL     1      28.119   9.321  29.915  1.00  0.00    -0.550 OA
ATOM     11  O   UNL     1      26.431   8.367  31.137  1.00  0.00    -0.550 OA
ENDBRANCH   8   9
ENDBRANCH   7   8
ENDBRANCH   6   7
ENDBRANCH   5   6
ENDBRANCH   4   5
ENDBRANCH   3   4
ENDBRANCH   2   3
ENDBRANCH   1   2
BRANCH   1  12
ATOM     12  C   UNL     1      26.496  -0.279  28.826  1.00  0.00     0.000 C 
BRANCH  12  13
ATOM     13  C   UNL     1      26.163  -0.901  30.191  1.00  0.00    -0.000 C 
BRANCH  13  14
ATOM     14  C   UNL     1      26.851  -2.261  30.402  1.00  0.00    -0.000 C 
BRANCH  14  15
ATOM     15  C   UNL     1      27.997  -2.197  31.426  1.00  0.00    -0.000 C 
BRANCH  15  16
ATOM     16  C   UNL     1      29.400  -2.180  30.782  1.00  0.00    -0.000 C 
BRANCH  16  17
ATOM     17  C   UNL     1      29.516  -3.178  29.616  1.00  0.00    -0.000 C 
BRANCH  17  18
ATOM     18  C   UNL     1      30.088  -4.540  30.049  1.00  0.00    -0.000 C 
BRANCH  18  19
ATOM     19  C   UNL     1      29.089  -5.709  29.983  1.00  0.00    -0.003 C 
ATOM     20  C   UNL     1      28.478  -6.049  31.340  1.00  0.00     0.004 C 
ENDBRANCH  18  19
ENDBRANCH  17  18
ENDBRANCH  16  17
ENDBRANCH  15  16
ENDBRANCH  14  15
ENDBRANCH  13  14
ENDBRANCH  12  13
ENDBRANCH   1  12
TORSDOF 16
ENDMDL
MODEL 8
REMARK VINA RESULT:    -5.236      5.753     11.639
REMARK INTER + INTRA:         -11.093
REMARK INTER:                 -10.427
REMARK INTRA:                  -0.666
REMARK UNBOUND:                -0.960
REMARK SMILES CCCCCCCCCCCCCCCCCC(=O)[O-]
REMARK SMILES IDX 10 1 11 2 12 3 13 4 14 5 15 6 16 7 17 8 18 9 19 10 20 11
REMARK SMILES IDX 9 12 8 13 7 14 6 15 5 16 4 17 3 18 2 19 1 20
REMARK H PARENT
REMARK Flexibility Score: inf
ROOT
ATOM      1  C   UNL     1      28.810   0.490  29.241  1.00  0.00     0.000 C 
ENDROOT
BRANCH   1   2
ATOM      2  C   UNL     1      27.915   1.657  29.694  1.00  0.00     0.000 C 
BRANCH   2   3
ATOM      3  C   UNL     1      28.267   2.245  31.075  1.00  0.00     0.000 C 
BRANCH   3   4
ATOM      4  C   UNL     1      28.351   3.784  31.131  1.00  0.00     0.000 C 
BRANCH   4   5
ATOM      5  C   UNL     1      27.469   4.526  30.110  1.00  0.00     0.000 C 
BRANCH   5   6
ATOM      6  C   UNL     1      27.219   5.994  30.494  1.00  0.00     0.000 C 
BRANCH   6   7
ATOM      7  C   UNL     1      28.358   6.927  30.045  1.00  0.00     0.006 C 
BRANCH   7   8
ATOM      8  C   UNL     1      28.190   8.391  30.486  1.00  0.00     0.053 C 
BRANCH   8   9
ATOM      9  C   UNL     1      26.749   8.766  30.650  1.00  0.00     0.041 C 
ATOM     10  O   UNL     1      26.091   9.197  29.667  1.00  0.00    -0.550 OA
ATOM     11  O   UNL     1      26.125   8.609  31.881  1.00  0.00    -0.550 OA
ENDBRANCH   8   9
ENDBRANCH   7   8
ENDBRANCH   6   7
ENDBRANCH   5   6
ENDBRANCH   4   5
ENDBRANCH   3   4
ENDBRANCH   2   3
ENDBRANCH   1   2
BRANCH   1  12
ATOM     12  C   UNL     1      29.564  -0.168  30.408  1.00  0.00     0.000 C 
BRANCH  12  13
ATOM     13  C   UNL     1      29.415  -1.697  30.418  1.00  0.00    -0.000 C 
BRANCH  13  14
ATOM     14  C   UNL     1      28.168  -2.162  31.190  1.00  0.00    -0.000 C 
BRANCH  14  15
ATOM     15  C   UNL     1      27.280  -3.115  30.371  1.00  0.00    -0.000 C 
BRANCH  15  16
ATOM     16  C   UNL     1      27.160  -4.526  30.985  1.00  0.00    -0.000 C 
BRANCH  16  17
ATOM     17  C   UNL     1      27.058  -5.621  29.909  1.00  0.00    -0.000 C 
BRANCH  17  18
ATOM     18  C   UNL     1      28.402  -6.319  29.636  1.00  0.00    -0.000 C 
BRANCH  18  19
ATOM     19  C   UNL     1      28.400  -7.838  29.883  1.00  0.00    -0.003 C 
ATOM     20  C   UNL     1      29.068  -8.230  31.199  1.00  0.00     0.004 C 
ENDBRANCH  18  19
ENDBRANCH  17  18
ENDBRANCH  16  17
ENDBRANCH  15  16
ENDBRANCH  14  15
ENDBRANCH  13  14
ENDBRANCH  12  13
ENDBRANCH   1  12
TORSDOF 16
ENDMDL
MODEL 9
REMARK VINA RESULT:    -5.209      1.454      2.340
REMARK INTER + INTRA:         -11.041
REMARK INTER:                 -10.284
REMARK INTRA:                  -0.756
REMARK UNBOUND:                -0.960
REMARK SMILES CCCCCCCCCCCCCCCCCC(=O)[O-]
REMARK SMILES IDX 10 1 11 2 12 3 13 4 14 5 15 6 16 7 17 8 18 9 19 10 20 11
REMARK SMILES IDX 9 12 8 13 7 14 6 15 5 16 4 17 3 18 2 19 1 20
REMARK H PARENT
REMARK Flexibility Score: inf
ROOT
ATOM      1  C   UNL     1      27.784  -1.829  31.460  1.00  0.00     0.000 C 
ENDROOT
BRANCH   1   2
ATOM      2  C   UNL     1      28.044  -2.920  30.407  1.00  0.00     0.000 C 
BRANCH   2   3
ATOM      3  C   UNL     1      29.530  -3.146  30.063  1.00  0.00     0.000 C 
BRANCH   3   4
ATOM      4  C   UNL     1      29.917  -4.607  29.753  1.00  0.00     0.000 C 
BRANCH   4   5
ATOM      5  C   UNL     1      29.228  -5.667  30.631  1.00  0.00     0.000 C 
BRANCH   5   6
ATOM      6  C   UNL     1      29.150  -7.045  29.952  1.00  0.00     0.000 C 
BRANCH   6   7
ATOM      7  C   UNL     1      29.298  -8.208  30.949  1.00  0.00     0.006 C 
BRANCH   7   8
ATOM      8  C   UNL     1      29.785  -9.524  30.321  1.00  0.00     0.053 C 
BRANCH   8   9
ATOM      9  C   UNL     1      29.207  -9.744  28.956  1.00  0.00     0.041 C 
ATOM     10  O   UNL     1      28.011 -10.117  28.827  1.00  0.00    -0.550 OA
ATOM     11  O   UNL     1      29.979  -9.504  27.827  1.00  0.00    -0.550 OA
ENDBRANCH   8   9
ENDBRANCH   7   8
ENDBRANCH   6   7
ENDBRANCH   5   6
ENDBRANCH   4   5
ENDBRANCH   3   4
ENDBRANCH   2   3
ENDBRANCH   1   2
BRANCH   1  12
ATOM     12  C   UNL     1      28.975  -0.870  31.630  1.00  0.00     0.000 C 
BRANCH  12  13
ATOM     13  C   UNL     1      28.576   0.602  31.442  1.00  0.00    -0.000 C 
BRANCH  13  14
ATOM     14  C   UNL     1      28.762   1.082  29.992  1.00  0.00    -0.000 C 
BRANCH  14  15
ATOM     15  C   UNL     1      27.459   1.607  29.365  1.00  0.00    -0.000 C 
BRANCH  15  16
ATOM     16  C   UNL     1      27.472   3.127  29.098  1.00  0.00    -0.000 C 
BRANCH  16  17
ATOM     17  C   UNL     1      27.887   3.932  30.342  1.00  0.00    -0.000 C 
BRANCH  17  18
ATOM     18  C   UNL     1      27.307   5.358  30.354  1.00  0.00    -0.000 C 
BRANCH  18  19
ATOM     19  C   UNL     1      28.343   6.476  30.145  1.00  0.00    -0.003 C 
ATOM     20  C   UNL     1      27.743   7.876  30.267  1.00  0.00     0.004 C 
ENDBRANCH  18  19
ENDBRANCH  17  18
ENDBRANCH  16  17
ENDBRANCH  15  16
ENDBRANCH  14  15
ENDBRANCH  13  14
ENDBRANCH  12  13
ENDBRANCH   1  12
TORSDOF 16
ENDMDL
