MODEL 1
REMARK VINA RESULT:    -4.778      0.000      0.000
REMARK INTER + INTRA:          -6.226
REMARK INTER:                  -5.895
REMARK INTRA:                  -0.331
REMARK UNBOUND:                -0.331
REMARK SMILES COC(=O)c1ccccc1C(=O)OC
REMARK SMILES IDX 5 1 6 2 7 3 8 4 9 5 10 6 3 7 4 8 2 9 1 10 11 11 12 12 13 13
REMARK SMILES IDX 14 14
REMARK H PARENT
REMARK Flexibility Score: inf
ROOT
ATOM      1  C   UNL     1     180.137 190.366 200.078  1.00  0.00     0.074 A 
ATOM      2  C   UNL     1     180.263 189.991 198.728  1.00  0.00     0.016 A 
ATOM      3  C   UNL     1     179.210 190.184 197.833  1.00  0.00     0.001 A 
ATOM      4  C   UNL     1     178.015 190.749 198.271  1.00  0.00     0.001 A 
ATOM      5  C   UNL     1     177.876 191.147 199.601  1.00  0.00     0.016 A 
ATOM      6  C   UNL     1     178.934 190.983 200.516  1.00  0.00     0.074 A 
ENDROOT
BRANCH   1   7
ATOM      7  C   UNL     1     181.242 190.032 201.005  1.00  0.00     0.338 C 
ATOM      8  O   UNL     1     182.118 190.900 201.275  1.00  0.00    -0.246 OA
BRANCH   7   9
ATOM      9  O   UNL     1     181.343 188.744 201.540  1.00  0.00    -0.465 OA
ATOM     10  C   UNL     1     181.655 188.500 202.906  1.00  0.00     0.282 C 
ENDBRANCH   7   9
ENDBRANCH   1   7
BRANCH   6  11
ATOM     11  C   UNL     1     178.770 191.530 201.883  1.00  0.00     0.338 C 
ATOM     12  O   UNL     1     178.442 190.762 202.829  1.00  0.00    -0.246 OA
BRANCH  11  13
ATOM     13  O   UNL     1     178.931 192.899 202.113  1.00  0.00    -0.465 OA
ATOM     14  C   UNL     1     180.202 193.497 202.333  1.00  0.00     0.282 C 
ENDBRANCH  11  13
ENDBRANCH   6  11
TORSDOF 4
ENDMDL
MODEL 2
REMARK VINA RESULT:    -4.476     10.694     12.448
REMARK INTER + INTRA:          -5.854
REMARK INTER:                  -5.504
REMARK INTRA:                  -0.350
REMARK UNBOUND:                -0.331
REMARK SMILES COC(=O)c1ccccc1C(=O)OC
REMARK SMILES IDX 5 1 6 2 7 3 8 4 9 5 10 6 3 7 4 8 2 9 1 10 11 11 12 12 13 13
REMARK SMILES IDX 14 14
REMARK H PARENT
REMARK Flexibility Score: inf
ROOT
ATOM      1  C   UNL     1     184.541 188.772 188.737  1.00  0.00     0.074 A 
ATOM      2  C   UNL     1     184.916 189.251 187.468  1.00  0.00     0.016 A 
ATOM      3  C   UNL     1     184.867 190.615 187.178  1.00  0.00     0.001 A 
ATOM      4  C   UNL     1     184.440 191.520 188.146  1.00  0.00     0.001 A 
ATOM      5  C   UNL     1     184.083 191.068 189.417  1.00  0.00     0.016 A 
ATOM      6  C   UNL     1     184.147 189.700 189.739  1.00  0.00     0.074 A 
ENDROOT
BRANCH   1   7
ATOM      7  C   UNL     1     184.503 187.307 188.950  1.00  0.00     0.338 C 
ATOM      8  O   UNL     1     185.541 186.702 189.337  1.00  0.00    -0.246 OA
BRANCH   7   9
ATOM      9  O   UNL     1     183.335 186.589 188.676  1.00  0.00    -0.465 OA
ATOM     10  C   UNL     1     182.568 185.951 189.690  1.00  0.00     0.282 C 
ENDBRANCH   7   9
ENDBRANCH   1   7
BRANCH   6  11
ATOM     11  C   UNL     1     183.869 189.293 191.136  1.00  0.00     0.338 C 
ATOM     12  O   UNL     1     182.753 188.779 191.428  1.00  0.00    -0.246 OA
BRANCH  11  13
ATOM     13  O   UNL     1     184.819 189.525 192.134  1.00  0.00    -0.465 OA
ATOM     14  C   UNL     1     185.963 188.699 192.313  1.00  0.00     0.282 C 
ENDBRANCH  11  13
ENDBRANCH   6  11
TORSDOF 4
ENDMDL
MODEL 3
REMARK VINA RESULT:    -4.474     10.684     12.697
REMARK INTER + INTRA:          -5.852
REMARK INTER:                  -5.510
REMARK INTRA:                  -0.341
REMARK UNBOUND:                -0.331
REMARK SMILES COC(=O)c1ccccc1C(=O)OC
REMARK SMILES IDX 5 1 6 2 7 3 8 4 9 5 10 6 3 7 4 8 2 9 1 10 11 11 12 12 13 13
REMARK SMILES IDX 14 14
REMARK H PARENT
REMARK Flexibility Score: inf
ROOT
ATOM      1  C   UNL     1     184.164 189.728 189.765  1.00  0.00     0.074 A 
ATOM      2  C   UNL     1     184.110 191.102 189.471  1.00  0.00     0.016 A 
ATOM      3  C   UNL     1     184.461 191.575 188.206  1.00  0.00     0.001 A 
ATOM      4  C   UNL     1     184.874 190.685 187.217  1.00  0.00     0.001 A 
ATOM      5  C   UNL     1     184.915 189.316 187.482  1.00  0.00     0.016 A 
ATOM      6  C   UNL     1     184.543 188.815 188.743  1.00  0.00     0.074 A 
ENDROOT
BRANCH   1   7
ATOM      7  C   UNL     1     183.891 189.297 191.155  1.00  0.00     0.338 C 
ATOM      8  O   UNL     1     182.778 188.778 191.445  1.00  0.00    -0.246 OA
BRANCH   7   9
ATOM      9  O   UNL     1     184.846 189.511 192.154  1.00  0.00    -0.465 OA
ATOM     10  C   UNL     1     185.953 188.641 192.359  1.00  0.00     0.282 C 
ENDBRANCH   7   9
ENDBRANCH   1   7
BRANCH   6  11
ATOM     11  C   UNL     1     184.495 187.347 188.929  1.00  0.00     0.338 C 
ATOM     12  O   UNL     1     185.539 186.724 189.269  1.00  0.00    -0.246 OA
BRANCH  11  13
ATOM     13  O   UNL     1     183.309 186.649 188.681  1.00  0.00    -0.465 OA
ATOM     14  C   UNL     1     182.595 185.961 189.700  1.00  0.00     0.282 C 
ENDBRANCH  11  13
ENDBRANCH   6  11
TORSDOF 4
ENDMDL
MODEL 4
REMARK VINA RESULT:    -4.362     12.998     14.907
REMARK INTER + INTRA:          -5.713
REMARK INTER:                  -5.431
REMARK INTRA:                  -0.282
REMARK UNBOUND:                -0.331
REMARK SMILES COC(=O)c1ccccc1C(=O)OC
REMARK SMILES IDX 5 1 6 2 7 3 8 4 9 5 10 6 3 7 4 8 2 9 1 10 11 11 12 12 13 13
REMARK SMILES IDX 14 14
REMARK H PARENT
REMARK Flexibility Score: inf
ROOT
ATOM      1  C   UNL     1     185.807 190.486 187.229  1.00  0.00     0.074 A 
ATOM      2  C   UNL     1     186.133 191.855 187.215  1.00  0.00     0.016 A 
ATOM      3  C   UNL     1     185.710 192.699 188.243  1.00  0.00     0.001 A 
ATOM      4  C   UNL     1     184.956 192.191 189.298  1.00  0.00     0.001 A 
ATOM      5  C   UNL     1     184.640 190.833 189.342  1.00  0.00     0.016 A 
ATOM      6  C   UNL     1     185.075 189.959 188.328  1.00  0.00     0.074 A 
ENDROOT
BRANCH   1   7
ATOM      7  C   UNL     1     186.183 189.664 186.057  1.00  0.00     0.338 C 
ATOM      8  O   UNL     1     185.317 189.385 185.182  1.00  0.00    -0.246 OA
BRANCH   7   9
ATOM      9  O   UNL     1     187.482 189.157 185.943  1.00  0.00    -0.465 OA
ATOM     10  C   UNL     1     188.079 188.845 184.691  1.00  0.00     0.282 C 
ENDBRANCH   7   9
ENDBRANCH   1   7
BRANCH   6  11
ATOM     11  C   UNL     1     184.810 188.511 188.487  1.00  0.00     0.338 C 
ATOM     12  O   UNL     1     185.706 187.759 188.962  1.00  0.00    -0.246 OA
BRANCH  11  13
ATOM     13  O   UNL     1     183.590 187.973 188.067  1.00  0.00    -0.465 OA
ATOM     14  C   UNL     1     182.978 186.862 188.710  1.00  0.00     0.282 C 
ENDBRANCH  11  13
ENDBRANCH   6  11
TORSDOF 4
ENDMDL
MODEL 5
REMARK VINA RESULT:    -4.342     11.691     13.572
REMARK INTER + INTRA:          -5.689
REMARK INTER:                  -5.359
REMARK INTRA:                  -0.329
REMARK UNBOUND:                -0.331
REMARK SMILES COC(=O)c1ccccc1C(=O)OC
REMARK SMILES IDX 5 1 6 2 7 3 8 4 9 5 10 6 3 7 4 8 2 9 1 10 11 11 12 12 13 13
REMARK SMILES IDX 14 14
REMARK H PARENT
REMARK Flexibility Score: inf
ROOT
ATOM      1  C   UNL     1     185.263 191.442 188.372  1.00  0.00     0.074 A 
ATOM      2  C   UNL     1     185.754 192.719 188.044  1.00  0.00     0.016 A 
ATOM      3  C   UNL     1     186.147 193.611 189.043  1.00  0.00     0.001 A 
ATOM      4  C   UNL     1     186.054 193.243 190.383  1.00  0.00     0.001 A 
ATOM      5  C   UNL     1     185.589 191.974 190.729  1.00  0.00     0.016 A 
ATOM      6  C   UNL     1     185.209 191.051 189.737  1.00  0.00     0.074 A 
ENDROOT
BRANCH   1   7
ATOM      7  C   UNL     1     184.754 190.585 187.278  1.00  0.00     0.338 C 
ATOM      8  O   UNL     1     183.554 190.696 186.900  1.00  0.00    -0.246 OA
BRANCH   7   9
ATOM      9  O   UNL     1     185.585 189.621 186.698  1.00  0.00    -0.465 OA
ATOM     10  C   UNL     1     186.494 189.920 185.647  1.00  0.00     0.282 C 
ENDBRANCH   7   9
ENDBRANCH   1   7
BRANCH   6  11
ATOM     11  C   UNL     1     184.835 189.681 190.159  1.00  0.00     0.338 C 
ATOM     12  O   UNL     1     185.723 188.788 190.244  1.00  0.00    -0.246 OA
BRANCH  11  13
ATOM     13  O   UNL     1     183.496 189.368 190.412  1.00  0.00    -0.465 OA
ATOM     14  C   UNL     1     183.100 188.194 191.109  1.00  0.00     0.282 C 
ENDBRANCH  11  13
ENDBRANCH   6  11
TORSDOF 4
ENDMDL
MODEL 6
REMARK VINA RESULT:    -4.319     11.672     13.556
REMARK INTER + INTRA:          -5.660
REMARK INTER:                  -5.337
REMARK INTRA:                  -0.323
REMARK UNBOUND:                -0.331
REMARK SMILES COC(=O)c1ccccc1C(=O)OC
REMARK SMILES IDX 5 1 6 2 7 3 8 4 9 5 10 6 3 7 4 8 2 9 1 10 11 11 12 12 13 13
REMARK SMILES IDX 14 14
REMARK H PARENT
REMARK Flexibility Score: inf
ROOT
ATOM      1  C   UNL     1     185.204 191.023 189.765  1.00  0.00     0.074 A 
ATOM      2  C   UNL     1     185.581 191.937 190.766  1.00  0.00     0.016 A 
ATOM      3  C   UNL     1     186.052 193.207 190.432  1.00  0.00     0.001 A 
ATOM      4  C   UNL     1     186.157 193.584 189.095  1.00  0.00     0.001 A 
ATOM      5  C   UNL     1     185.769 192.700 188.087  1.00  0.00     0.016 A 
ATOM      6  C   UNL     1     185.270 191.423 188.402  1.00  0.00     0.074 A 
ENDROOT
BRANCH   1   7
ATOM      7  C   UNL     1     184.823 189.653 190.174  1.00  0.00     0.338 C 
ATOM      8  O   UNL     1     185.689 188.735 190.180  1.00  0.00    -0.246 OA
BRANCH   7   9
ATOM      9  O   UNL     1     183.495 189.365 190.507  1.00  0.00    -0.465 OA
ATOM     10  C   UNL     1     183.092 188.115 191.053  1.00  0.00     0.282 C 
ENDBRANCH   7   9
ENDBRANCH   1   7
BRANCH   6  11
ATOM     11  C   UNL     1     184.766 190.574 187.298  1.00  0.00     0.338 C 
ATOM     12  O   UNL     1     183.570 190.696 186.911  1.00  0.00    -0.246 OA
BRANCH  11  13
ATOM     13  O   UNL     1     185.597 189.608 186.723  1.00  0.00    -0.465 OA
ATOM     14  C   UNL     1     186.543 189.916 185.707  1.00  0.00     0.282 C 
ENDBRANCH  11  13
ENDBRANCH   6  11
TORSDOF 4
ENDMDL
MODEL 7
REMARK VINA RESULT:    -4.300     10.857     12.736
REMARK INTER + INTRA:          -5.637
REMARK INTER:                  -5.308
REMARK INTRA:                  -0.329
REMARK UNBOUND:                -0.331
REMARK SMILES COC(=O)c1ccccc1C(=O)OC
REMARK SMILES IDX 5 1 6 2 7 3 8 4 9 5 10 6 3 7 4 8 2 9 1 10 11 11 12 12 13 13
REMARK SMILES IDX 14 14
REMARK H PARENT
REMARK Flexibility Score: inf
ROOT
ATOM      1  C   UNL     1     184.004 188.057 189.073  1.00  0.00     0.074 A 
ATOM      2  C   UNL     1     183.345 186.848 188.784  1.00  0.00     0.016 A 
ATOM      3  C   UNL     1     182.421 186.307 189.678  1.00  0.00     0.001 A 
ATOM      4  C   UNL     1     182.142 186.962 190.875  1.00  0.00     0.001 A 
ATOM      5  C   UNL     1     182.768 188.173 191.173  1.00  0.00     0.016 A 
ATOM      6  C   UNL     1     183.686 188.748 190.275  1.00  0.00     0.074 A 
ENDROOT
BRANCH   1   7
ATOM      7  C   UNL     1     185.057 188.522 188.143  1.00  0.00     0.338 C 
ATOM      8  O   UNL     1     186.272 188.318 188.417  1.00  0.00    -0.246 OA
BRANCH   7   9
ATOM      9  O   UNL     1     184.709 189.229 186.987  1.00  0.00    -0.465 OA
ATOM     10  C   UNL     1     185.667 189.896 186.176  1.00  0.00     0.282 C 
ENDBRANCH   7   9
ENDBRANCH   1   7
BRANCH   6  11
ATOM     11  C   UNL     1     184.230 190.089 190.589  1.00  0.00     0.338 C 
ATOM     12  O   UNL     1     184.953 190.247 191.612  1.00  0.00    -0.246 OA
BRANCH  11  13
ATOM     13  O   UNL     1     183.903 191.184 189.784  1.00  0.00    -0.465 OA
ATOM     14  C   UNL     1     184.885 192.029 189.199  1.00  0.00     0.282 C 
ENDBRANCH  11  13
ENDBRANCH   6  11
TORSDOF 4
ENDMDL
MODEL 8
REMARK VINA RESULT:    -4.285     10.869     12.999
REMARK INTER + INTRA:          -5.617
REMARK INTER:                  -5.281
REMARK INTRA:                  -0.336
REMARK UNBOUND:                -0.331
REMARK SMILES COC(=O)c1ccccc1C(=O)OC
REMARK SMILES IDX 5 1 6 2 7 3 8 4 9 5 10 6 3 7 4 8 2 9 1 10 11 11 12 12 13 13
REMARK SMILES IDX 14 14
REMARK H PARENT
REMARK Flexibility Score: inf
ROOT
ATOM      1  C   UNL     1     183.716 188.782 190.270  1.00  0.00     0.074 A 
ATOM      2  C   UNL     1     182.797 188.227 191.180  1.00  0.00     0.016 A 
ATOM      3  C   UNL     1     182.175 187.007 190.912  1.00  0.00     0.001 A 
ATOM      4  C   UNL     1     182.457 186.324 189.731  1.00  0.00     0.001 A 
ATOM      5  C   UNL     1     183.381 186.847 188.825  1.00  0.00     0.016 A 
ATOM      6  C   UNL     1     184.037 188.064 189.086  1.00  0.00     0.074 A 
ENDROOT
BRANCH   1   7
ATOM      7  C   UNL     1     184.256 190.131 190.554  1.00  0.00     0.338 C 
ATOM      8  O   UNL     1     184.962 190.321 191.583  1.00  0.00    -0.246 OA
BRANCH   7   9
ATOM      9  O   UNL     1     183.943 191.202 189.710  1.00  0.00    -0.465 OA
ATOM     10  C   UNL     1     184.929 192.085 189.191  1.00  0.00     0.282 C 
ENDBRANCH   7   9
ENDBRANCH   1   7
BRANCH   6  11
ATOM     11  C   UNL     1     185.091 188.510 188.146  1.00  0.00     0.338 C 
ATOM     12  O   UNL     1     186.304 188.288 188.414  1.00  0.00    -0.246 OA
BRANCH  11  13
ATOM     13  O   UNL     1     184.744 189.217 186.991  1.00  0.00    -0.465 OA
ATOM     14  C   UNL     1     185.701 189.901 186.192  1.00  0.00     0.282 C 
ENDBRANCH  11  13
ENDBRANCH   6  11
TORSDOF 4
ENDMDL
MODEL 9
REMARK VINA RESULT:    -4.209     11.703     13.125
REMARK INTER + INTRA:          -5.525
REMARK INTER:                  -5.127
REMARK INTRA:                  -0.398
REMARK UNBOUND:                -0.331
REMARK SMILES COC(=O)c1ccccc1C(=O)OC
REMARK SMILES IDX 5 1 6 2 7 3 8 4 9 5 10 6 3 7 4 8 2 9 1 10 11 11 12 12 13 13
REMARK SMILES IDX 14 14
REMARK H PARENT
REMARK Flexibility Score: inf
ROOT
ATOM      1  C   UNL     1     186.982 194.193 191.332  1.00  0.00     0.074 A 
ATOM      2  C   UNL     1     186.464 192.908 191.577  1.00  0.00     0.016 A 
ATOM      3  C   UNL     1     185.758 192.224 190.587  1.00  0.00     0.001 A 
ATOM      4  C   UNL     1     185.556 192.810 189.340  1.00  0.00     0.001 A 
ATOM      5  C   UNL     1     186.079 194.075 189.070  1.00  0.00     0.016 A 
ATOM      6  C   UNL     1     186.814 194.775 190.046  1.00  0.00     0.074 A 
ENDROOT
BRANCH   1   7
ATOM      7  C   UNL     1     187.620 194.917 192.454  1.00  0.00     0.338 C 
ATOM      8  O   UNL     1     188.835 194.710 192.726  1.00  0.00    -0.246 OA
BRANCH   7   9
ATOM      9  O   UNL     1     186.866 195.792 193.244  1.00  0.00    -0.465 OA
ATOM     10  C   UNL     1     186.183 195.373 194.419  1.00  0.00     0.282 C 
ENDBRANCH   7   9
ENDBRANCH   1   7
BRANCH   6  11
ATOM     11  C   UNL     1     187.443 196.059 189.664  1.00  0.00     0.338 C 
ATOM     12  O   UNL     1     188.558 196.059 189.073  1.00  0.00    -0.246 OA
BRANCH  11  13
ATOM     13  O   UNL     1     186.827 197.268 190.002  1.00  0.00    -0.465 OA
ATOM     14  C   UNL     1     187.488 198.288 190.740  1.00  0.00     0.282 C 
ENDBRANCH  11  13
ENDBRANCH   6  11
TORSDOF 4
ENDMDL
