MODEL 1
REMARK VINA RESULT:    -4.097      0.000      0.000
REMARK INTER + INTRA:          -6.322
REMARK INTER:                  -5.654
REMARK INTRA:                  -0.668
REMARK UNBOUND:                -0.668
REMARK SMILES OC[C@@H](O)[C@H](O)[C@@H](O)CO
REMARK SMILES IDX 5 1 7 2 9 3 10 4 8 6 3 8 2 9 1 10 4 12 6 14
REMARK H PARENT 10 5 8 7 1 11 4 13 6 15
REMARK Flexibility Score: inf
ROOT
ATOM      1  C   UNL     1      15.314   1.999 -47.349  1.00  0.00     0.176 C 
ENDROOT
BRANCH   1   2
ATOM      2  C   UNL     1      16.070   0.838 -46.646  1.00  0.00     0.171 C 
BRANCH   2   3
ATOM      3  C   UNL     1      17.136   1.318 -45.646  1.00  0.00     0.190 C 
BRANCH   3   4
ATOM      4  O   UNL     1      18.339   1.604 -46.305  1.00  0.00    -0.394 OA
ATOM      5  H   UNL     1      18.138   2.340 -46.939  1.00  0.00     0.210 HD
ENDBRANCH   3   4
ENDBRANCH   2   3
BRANCH   2   6
ATOM      6  O   UNL     1      16.688   0.041 -47.626  1.00  0.00    -0.388 OA
ATOM      7  H   UNL     1      17.546   0.483 -47.861  1.00  0.00     0.211 HD
ENDBRANCH   2   6
ENDBRANCH   1   2
BRANCH   1   8
ATOM      8  C   UNL     1      14.066   1.521 -48.130  1.00  0.00     0.171 C 
BRANCH   8   9
ATOM      9  C   UNL     1      13.297   2.696 -48.759  1.00  0.00     0.190 C 
BRANCH   9  10
ATOM     10  O   UNL     1      13.476   3.866 -48.008  1.00  0.00    -0.394 OA
ATOM     11  H   UNL     1      14.247   3.693 -47.409  1.00  0.00     0.210 HD
ENDBRANCH   9  10
ENDBRANCH   8   9
BRANCH   8  12
ATOM     12  O   UNL     1      14.443   0.604 -49.127  1.00  0.00    -0.388 OA
ATOM     13  H   UNL     1      14.899   1.125 -49.838  1.00  0.00     0.211 HD
ENDBRANCH   8  12
ENDBRANCH   1   8
BRANCH   1  14
ATOM     14  O   UNL     1      16.195   2.642 -48.238  1.00  0.00    -0.388 OA
ATOM     15  H   UNL     1      15.853   3.564 -48.375  1.00  0.00     0.211 HD
ENDBRANCH   1  14
TORSDOF 9
ENDMDL
MODEL 2
REMARK VINA RESULT:    -4.077     15.323     16.127
REMARK INTER + INTRA:          -6.295
REMARK INTER:                  -5.411
REMARK INTRA:                  -0.883
REMARK UNBOUND:                -0.668
REMARK SMILES OC[C@@H](O)[C@H](O)[C@@H](O)CO
REMARK SMILES IDX 5 1 7 2 9 3 10 4 8 6 3 8 2 9 1 10 4 12 6 14
REMARK H PARENT 10 5 8 7 1 11 4 13 6 15
REMARK Flexibility Score: inf
ROOT
ATOM      1  C   UNL     1      15.677  -5.854 -32.779  1.00  0.00     0.176 C 
ENDROOT
BRANCH   1   2
ATOM      2  C   UNL     1      16.643  -4.727 -33.237  1.00  0.00     0.171 C 
BRANCH   2   3
ATOM      3  C   UNL     1      17.554  -4.205 -32.112  1.00  0.00     0.190 C 
BRANCH   3   4
ATOM      4  O   UNL     1      17.261  -4.848 -30.902  1.00  0.00    -0.394 OA
ATOM      5  H   UNL     1      16.605  -4.268 -30.434  1.00  0.00     0.210 HD
ENDBRANCH   3   4
ENDBRANCH   2   3
BRANCH   2   6
ATOM      6  O   UNL     1      15.885  -3.658 -33.745  1.00  0.00    -0.388 OA
ATOM      7  H   UNL     1      15.503  -3.176 -32.964  1.00  0.00     0.211 HD
ENDBRANCH   2   6
ENDBRANCH   1   2
BRANCH   1   8
ATOM      8  C   UNL     1      14.871  -6.470 -33.948  1.00  0.00     0.171 C 
BRANCH   8   9
ATOM      9  C   UNL     1      13.359  -6.235 -33.789  1.00  0.00     0.190 C 
BRANCH   9  10
ATOM     10  O   UNL     1      13.036  -4.893 -34.031  1.00  0.00    -0.394 OA
ATOM     11  H   UNL     1      12.113  -4.767 -33.691  1.00  0.00     0.210 HD
ENDBRANCH   9  10
ENDBRANCH   8   9
BRANCH   8  12
ATOM     12  O   UNL     1      15.315  -5.938 -35.172  1.00  0.00    -0.388 OA
ATOM     13  H   UNL     1      15.567  -6.708 -35.745  1.00  0.00     0.211 HD
ENDBRANCH   8  12
ENDBRANCH   1   8
BRANCH   1  14
ATOM     14  O   UNL     1      14.782  -5.325 -31.830  1.00  0.00    -0.388 OA
ATOM     15  H   UNL     1      15.301  -4.713 -31.246  1.00  0.00     0.211 HD
ENDBRANCH   1  14
TORSDOF 9
ENDMDL
MODEL 3
REMARK VINA RESULT:    -4.067      1.585      2.806
REMARK INTER + INTRA:          -6.281
REMARK INTER:                  -5.574
REMARK INTRA:                  -0.706
REMARK UNBOUND:                -0.668
REMARK SMILES OC[C@@H](O)[C@H](O)[C@@H](O)CO
REMARK SMILES IDX 5 1 7 2 9 3 10 4 8 6 3 8 2 9 1 10 4 12 6 14
REMARK H PARENT 10 5 8 7 1 11 4 13 6 15
REMARK Flexibility Score: inf
ROOT
ATOM      1  C   UNL     1      16.094   0.697 -48.459  1.00  0.00     0.176 C 
ENDROOT
BRANCH   1   2
ATOM      2  C   UNL     1      16.377   1.969 -47.614  1.00  0.00     0.171 C 
BRANCH   2   3
ATOM      3  C   UNL     1      16.975   1.665 -46.229  1.00  0.00     0.190 C 
BRANCH   3   4
ATOM      4  O   UNL     1      18.371   1.568 -46.305  1.00  0.00    -0.394 OA
ATOM      5  H   UNL     1      18.708   1.715 -45.383  1.00  0.00     0.210 HD
ENDBRANCH   3   4
ENDBRANCH   2   3
BRANCH   2   6
ATOM      6  O   UNL     1      15.176   2.680 -47.448  1.00  0.00    -0.388 OA
ATOM      7  H   UNL     1      15.405   3.646 -47.472  1.00  0.00     0.211 HD
ENDBRANCH   2   6
ENDBRANCH   1   2
BRANCH   1   8
ATOM      8  C   UNL     1      14.582   0.400 -48.613  1.00  0.00     0.171 C 
BRANCH   8   9
ATOM      9  C   UNL     1      14.317  -0.692 -49.665  1.00  0.00     0.190 C 
BRANCH   9  10
ATOM     10  O   UNL     1      15.520  -1.245 -50.123  1.00  0.00    -0.394 OA
ATOM     11  H   UNL     1      16.243  -0.679 -49.748  1.00  0.00     0.210 HD
ENDBRANCH   9  10
ENDBRANCH   8   9
BRANCH   8  12
ATOM     12  O   UNL     1      14.037   0.018 -47.375  1.00  0.00    -0.388 OA
ATOM     13  H   UNL     1      14.286  -0.932 -47.233  1.00  0.00     0.211 HD
ENDBRANCH   8  12
ENDBRANCH   1   8
BRANCH   1  14
ATOM     14  O   UNL     1      16.719  -0.404 -47.845  1.00  0.00    -0.388 OA
ATOM     15  H   UNL     1      16.150  -1.199 -48.018  1.00  0.00     0.211 HD
ENDBRANCH   1  14
TORSDOF 9
ENDMDL
MODEL 4
REMARK VINA RESULT:    -4.036      1.388      3.946
REMARK INTER + INTRA:          -6.238
REMARK INTER:                  -5.568
REMARK INTRA:                  -0.670
REMARK UNBOUND:                -0.668
REMARK SMILES OC[C@@H](O)[C@H](O)[C@@H](O)CO
REMARK SMILES IDX 5 1 7 2 9 3 10 4 8 6 3 8 2 9 1 10 4 12 6 14
REMARK H PARENT 10 5 8 7 1 11 4 13 6 15
REMARK Flexibility Score: inf
ROOT
ATOM      1  C   UNL     1      15.744   0.421 -47.112  1.00  0.00     0.176 C 
ENDROOT
BRANCH   1   2
ATOM      2  C   UNL     1      14.385   0.356 -47.861  1.00  0.00     0.171 C 
BRANCH   2   3
ATOM      3  C   UNL     1      14.203  -0.927 -48.692  1.00  0.00     0.190 C 
BRANCH   3   4
ATOM      4  O   UNL     1      14.768  -0.774 -49.966  1.00  0.00    -0.394 OA
ATOM      5  H   UNL     1      15.369   0.013 -49.908  1.00  0.00     0.210 HD
ENDBRANCH   3   4
ENDBRANCH   2   3
BRANCH   2   6
ATOM      6  O   UNL     1      14.282   1.471 -48.711  1.00  0.00    -0.388 OA
ATOM      7  H   UNL     1      13.744   2.154 -48.231  1.00  0.00     0.211 HD
ENDBRANCH   2   6
ENDBRANCH   1   2
BRANCH   1   8
ATOM      8  C   UNL     1      16.145   1.862 -46.714  1.00  0.00     0.171 C 
BRANCH   8   9
ATOM      9  C   UNL     1      17.226   1.874 -45.618  1.00  0.00     0.190 C 
BRANCH   9  10
ATOM     10  O   UNL     1      18.465   1.472 -46.137  1.00  0.00    -0.394 OA
ATOM     11  H   UNL     1      18.476   0.482 -46.088  1.00  0.00     0.210 HD
ENDBRANCH   9  10
ENDBRANCH   8   9
BRANCH   8  12
ATOM     12  O   UNL     1      16.598   2.566 -47.843  1.00  0.00    -0.388 OA
ATOM     13  H   UNL     1      15.882   3.209 -48.086  1.00  0.00     0.211 HD
ENDBRANCH   8  12
ENDBRANCH   1   8
BRANCH   1  14
ATOM     14  O   UNL     1      16.744  -0.124 -47.939  1.00  0.00    -0.388 OA
ATOM     15  H   UNL     1      17.441   0.573 -48.055  1.00  0.00     0.211 HD
ENDBRANCH   1  14
TORSDOF 9
ENDMDL
MODEL 5
REMARK VINA RESULT:    -4.014     15.065     15.668
REMARK INTER + INTRA:          -6.208
REMARK INTER:                  -5.523
REMARK INTRA:                  -0.685
REMARK UNBOUND:                -0.668
REMARK SMILES OC[C@@H](O)[C@H](O)[C@@H](O)CO
REMARK SMILES IDX 5 1 7 2 9 3 10 4 8 6 3 8 2 9 1 10 4 12 6 14
REMARK H PARENT 10 5 8 7 1 11 4 13 6 15
REMARK Flexibility Score: inf
ROOT
ATOM      1  C   UNL     1      13.136  -6.355 -33.542  1.00  0.00     0.176 C 
ENDROOT
BRANCH   1   2
ATOM      2  C   UNL     1      14.400  -6.331 -34.444  1.00  0.00     0.171 C 
BRANCH   2   3
ATOM      3  C   UNL     1      15.355  -7.511 -34.192  1.00  0.00     0.190 C 
BRANCH   3   4
ATOM      4  O   UNL     1      16.420  -7.487 -35.103  1.00  0.00    -0.394 OA
ATOM      5  H   UNL     1      16.260  -6.706 -35.693  1.00  0.00     0.210 HD
ENDBRANCH   3   4
ENDBRANCH   2   3
BRANCH   2   6
ATOM      6  O   UNL     1      15.091  -5.127 -34.225  1.00  0.00    -0.388 OA
ATOM      7  H   UNL     1      14.769  -4.479 -34.905  1.00  0.00     0.211 HD
ENDBRANCH   2   6
ENDBRANCH   1   2
BRANCH   1   8
ATOM      8  C   UNL     1      11.935  -5.603 -34.166  1.00  0.00     0.171 C 
BRANCH   8   9
ATOM      9  C   UNL     1      11.603  -4.313 -33.397  1.00  0.00     0.190 C 
BRANCH   9  10
ATOM     10  O   UNL     1      12.542  -3.311 -33.677  1.00  0.00    -0.394 OA
ATOM     11  H   UNL     1      12.278  -2.923 -34.550  1.00  0.00     0.210 HD
ENDBRANCH   9  10
ENDBRANCH   8   9
BRANCH   8  12
ATOM     12  O   UNL     1      12.201  -5.305 -35.513  1.00  0.00    -0.388 OA
ATOM     13  H   UNL     1      11.685  -4.487 -35.734  1.00  0.00     0.211 HD
ENDBRANCH   8  12
ENDBRANCH   1   8
BRANCH   1  14
ATOM     14  O   UNL     1      13.453  -5.768 -32.302  1.00  0.00    -0.388 OA
ATOM     15  H   UNL     1      14.374  -6.055 -32.069  1.00  0.00     0.211 HD
ENDBRANCH   1  14
TORSDOF 9
ENDMDL
MODEL 6
REMARK VINA RESULT:    -4.006      1.213      3.968
REMARK INTER + INTRA:          -6.197
REMARK INTER:                  -5.506
REMARK INTRA:                  -0.691
REMARK UNBOUND:                -0.668
REMARK SMILES OC[C@@H](O)[C@H](O)[C@@H](O)CO
REMARK SMILES IDX 5 1 7 2 9 3 10 4 8 6 3 8 2 9 1 10 4 12 6 14
REMARK H PARENT 10 5 8 7 1 11 4 13 6 15
REMARK Flexibility Score: inf
ROOT
ATOM      1  C   UNL     1      15.335   1.982 -47.324  1.00  0.00     0.176 C 
ENDROOT
BRANCH   1   2
ATOM      2  C   UNL     1      14.517   1.723 -48.618  1.00  0.00     0.171 C 
BRANCH   2   3
ATOM      3  C   UNL     1      13.496   2.831 -48.931  1.00  0.00     0.190 C 
BRANCH   3   4
ATOM      4  O   UNL     1      13.427   3.750 -47.875  1.00  0.00    -0.394 OA
ATOM      5  H   UNL     1      12.869   3.322 -47.174  1.00  0.00     0.210 HD
ENDBRANCH   3   4
ENDBRANCH   2   3
BRANCH   2   6
ATOM      6  O   UNL     1      13.837   0.499 -48.487  1.00  0.00    -0.388 OA
ATOM      7  H   UNL     1      12.941   0.619 -48.898  1.00  0.00     0.211 HD
ENDBRANCH   2   6
ENDBRANCH   1   2
BRANCH   1   8
ATOM      8  C   UNL     1      16.750   1.356 -47.369  1.00  0.00     0.171 C 
BRANCH   8   9
ATOM      9  C   UNL     1      17.484   1.499 -46.023  1.00  0.00     0.190 C 
BRANCH   9  10
ATOM     10  O   UNL     1      17.265   0.375 -45.215  1.00  0.00    -0.394 OA
ATOM     11  H   UNL     1      16.754   0.697 -44.429  1.00  0.00     0.210 HD
ENDBRANCH   9  10
ENDBRANCH   8   9
BRANCH   8  12
ATOM     12  O   UNL     1      16.666  -0.000 -47.729  1.00  0.00    -0.388 OA
ATOM     13  H   UNL     1      17.558  -0.261 -48.077  1.00  0.00     0.211 HD
ENDBRANCH   8  12
ENDBRANCH   1   8
BRANCH   1  14
ATOM     14  O   UNL     1      14.631   1.451 -46.228  1.00  0.00    -0.388 OA
ATOM     15  H   UNL     1      13.690   1.322 -46.518  1.00  0.00     0.211 HD
ENDBRANCH   1  14
TORSDOF 9
ENDMDL
MODEL 7
REMARK VINA RESULT:    -3.981     16.003     17.343
REMARK INTER + INTRA:          -6.163
REMARK INTER:                  -5.203
REMARK INTRA:                  -0.960
REMARK UNBOUND:                -0.668
REMARK SMILES OC[C@@H](O)[C@H](O)[C@@H](O)CO
REMARK SMILES IDX 5 1 7 2 9 3 10 4 8 6 3 8 2 9 1 10 4 12 6 14
REMARK H PARENT 10 5 8 7 1 11 4 13 6 15
REMARK Flexibility Score: inf
ROOT
ATOM      1  C   UNL     1      13.807  -5.959 -32.878  1.00  0.00     0.176 C 
ENDROOT
BRANCH   1   2
ATOM      2  C   UNL     1      13.060  -6.533 -31.643  1.00  0.00     0.171 C 
BRANCH   2   3
ATOM      3  C   UNL     1      12.424  -5.451 -30.753  1.00  0.00     0.190 C 
BRANCH   3   4
ATOM      4  O   UNL     1      13.411  -4.748 -30.049  1.00  0.00    -0.394 OA
ATOM      5  H   UNL     1      12.946  -4.303 -29.294  1.00  0.00     0.210 HD
ENDBRANCH   3   4
ENDBRANCH   2   3
BRANCH   2   6
ATOM      6  O   UNL     1      13.966  -7.283 -30.874  1.00  0.00    -0.388 OA
ATOM      7  H   UNL     1      13.513  -7.497 -30.016  1.00  0.00     0.211 HD
ENDBRANCH   2   6
ENDBRANCH   1   2
BRANCH   1   8
ATOM      8  C   UNL     1      15.345  -6.108 -32.776  1.00  0.00     0.171 C 
BRANCH   8   9
ATOM      9  C   UNL     1      16.056  -5.582 -34.035  1.00  0.00     0.190 C 
BRANCH   9  10
ATOM     10  O   UNL     1      15.223  -5.686 -35.158  1.00  0.00    -0.394 OA
ATOM     11  H   UNL     1      15.628  -6.382 -35.737  1.00  0.00     0.210 HD
ENDBRANCH   9  10
ENDBRANCH   8   9
BRANCH   8  12
ATOM     12  O   UNL     1      15.820  -5.432 -31.638  1.00  0.00    -0.388 OA
ATOM     13  H   UNL     1      15.970  -6.119 -30.938  1.00  0.00     0.211 HD
ENDBRANCH   8  12
ENDBRANCH   1   8
BRANCH   1  14
ATOM     14  O   UNL     1      13.484  -4.596 -33.009  1.00  0.00    -0.388 OA
ATOM     15  H   UNL     1      14.227  -4.164 -33.506  1.00  0.00     0.211 HD
ENDBRANCH   1  14
TORSDOF 9
ENDMDL
MODEL 8
REMARK VINA RESULT:    -3.969     15.028     15.989
REMARK INTER + INTRA:          -6.145
REMARK INTER:                  -5.210
REMARK INTRA:                  -0.935
REMARK UNBOUND:                -0.668
REMARK SMILES OC[C@@H](O)[C@H](O)[C@@H](O)CO
REMARK SMILES IDX 5 1 7 2 9 3 10 4 8 6 3 8 2 9 1 10 4 12 6 14
REMARK H PARENT 10 5 8 7 1 11 4 13 6 15
REMARK Flexibility Score: inf
ROOT
ATOM      1  C   UNL     1      12.301  -5.740 -33.904  1.00  0.00     0.176 C 
ENDROOT
BRANCH   1   2
ATOM      2  C   UNL     1      11.365  -4.836 -33.055  1.00  0.00     0.171 C 
BRANCH   2   3
ATOM      3  C   UNL     1      10.993  -3.515 -33.751  1.00  0.00     0.190 C 
BRANCH   3   4
ATOM      4  O   UNL     1      12.110  -2.674 -33.844  1.00  0.00    -0.394 OA
ATOM      5  H   UNL     1      12.511  -2.648 -32.936  1.00  0.00     0.210 HD
ENDBRANCH   3   4
ENDBRANCH   2   3
BRANCH   2   6
ATOM      6  O   UNL     1      11.999  -4.547 -31.835  1.00  0.00    -0.388 OA
ATOM      7  H   UNL     1      11.351  -4.033 -31.285  1.00  0.00     0.211 HD
ENDBRANCH   2   6
ENDBRANCH   1   2
BRANCH   1   8
ATOM      8  C   UNL     1      13.746  -5.800 -33.351  1.00  0.00     0.171 C 
BRANCH   8   9
ATOM      9  C   UNL     1      14.651  -6.702 -34.209  1.00  0.00     0.190 C 
BRANCH   9  10
ATOM     10  O   UNL     1      15.226  -5.975 -35.260  1.00  0.00    -0.394 OA
ATOM     11  H   UNL     1      14.954  -6.436 -36.094  1.00  0.00     0.210 HD
ENDBRANCH   9  10
ENDBRANCH   8   9
BRANCH   8  12
ATOM     12  O   UNL     1      14.288  -4.506 -33.278  1.00  0.00    -0.388 OA
ATOM     13  H   UNL     1      15.266  -4.595 -33.423  1.00  0.00     0.211 HD
ENDBRANCH   8  12
ENDBRANCH   1   8
BRANCH   1  14
ATOM     14  O   UNL     1      12.332  -5.249 -35.222  1.00  0.00    -0.388 OA
ATOM     15  H   UNL     1      11.748  -5.837 -35.769  1.00  0.00     0.211 HD
ENDBRANCH   1  14
TORSDOF 9
ENDMDL
MODEL 9
REMARK VINA RESULT:    -3.887     15.471     16.762
REMARK INTER + INTRA:          -6.032
REMARK INTER:                  -5.036
REMARK INTRA:                  -0.996
REMARK UNBOUND:                -0.668
REMARK SMILES OC[C@@H](O)[C@H](O)[C@@H](O)CO
REMARK SMILES IDX 5 1 7 2 9 3 10 4 8 6 3 8 2 9 1 10 4 12 6 14
REMARK H PARENT 10 5 8 7 1 11 4 13 6 15
REMARK Flexibility Score: inf
ROOT
ATOM      1  C   UNL     1      14.699  -6.667 -32.822  1.00  0.00     0.176 C 
ENDROOT
BRANCH   1   2
ATOM      2  C   UNL     1      15.455  -6.350 -34.141  1.00  0.00     0.171 C 
BRANCH   2   3
ATOM      3  C   UNL     1      16.469  -5.200 -34.006  1.00  0.00     0.190 C 
BRANCH   3   4
ATOM      4  O   UNL     1      15.808  -3.980 -33.811  1.00  0.00    -0.394 OA
ATOM      5  H   UNL     1      15.374  -3.760 -34.676  1.00  0.00     0.210 HD
ENDBRANCH   3   4
ENDBRANCH   2   3
BRANCH   2   6
ATOM      6  O   UNL     1      14.515  -6.017 -35.132  1.00  0.00    -0.388 OA
ATOM      7  H   UNL     1      15.016  -5.593 -35.878  1.00  0.00     0.211 HD
ENDBRANCH   2   6
ENDBRANCH   1   2
BRANCH   1   8
ATOM      8  C   UNL     1      13.222  -6.206 -32.846  1.00  0.00     0.171 C 
BRANCH   8   9
ATOM      9  C   UNL     1      12.427  -6.762 -31.651  1.00  0.00     0.190 C 
BRANCH   9  10
ATOM     10  O   UNL     1      13.178  -7.720 -30.957  1.00  0.00    -0.394 OA
ATOM     11  H   UNL     1      13.234  -8.510 -31.554  1.00  0.00     0.210 HD
ENDBRANCH   9  10
ENDBRANCH   8   9
BRANCH   8  12
ATOM     12  O   UNL     1      13.155  -4.802 -32.856  1.00  0.00    -0.388 OA
ATOM     13  H   UNL     1      13.438  -4.495 -31.956  1.00  0.00     0.211 HD
ENDBRANCH   8  12
ENDBRANCH   1   8
BRANCH   1  14
ATOM     14  O   UNL     1      15.363  -6.032 -31.755  1.00  0.00    -0.388 OA
ATOM     15  H   UNL     1      15.036  -5.095 -31.723  1.00  0.00     0.211 HD
ENDBRANCH   1  14
TORSDOF 9
ENDMDL
