MODEL 1
REMARK VINA RESULT:    -7.167      0.000      0.000
REMARK INTER + INTRA:          -8.612
REMARK INTER:                  -8.425
REMARK INTRA:                  -0.188
REMARK UNBOUND:                -0.188
REMARK SMILES O=c1c(O)c(-c2ccc(O)cc2)oc2cc(O)cc(O)c12
REMARK SMILES IDX 5 1 3 2 2 3 1 4 21 5 19 6 18 7 16 8 15 9 14 10 13 11 6 12
REMARK SMILES IDX 7 13 8 14 9 15 12 16 11 17 10 18 4 20 20 22 17 24
REMARK H PARENT 10 19 4 21 20 23 17 25
REMARK Flexibility Score: inf
ROOT
ATOM      1  C   UNL     1      23.424  30.243  18.148  1.00  0.00     0.180 A 
ATOM      2  C   UNL     1      22.602  30.743  17.124  1.00  0.00     0.208 A 
ATOM      3  C   UNL     1      21.783  31.852  17.390  1.00  0.00     0.238 A 
ATOM      4  O   UNL     1      21.008  32.262  16.486  1.00  0.00    -0.285 OA
ATOM      5  C   UNL     1      21.809  32.457  18.669  1.00  0.00     0.111 A 
ATOM      6  C   UNL     1      21.051  33.610  19.037  1.00  0.00     0.134 A 
ATOM      7  C   UNL     1      21.055  34.043  20.368  1.00  0.00     0.093 A 
ATOM      8  C   UNL     1      21.839  33.408  21.331  1.00  0.00     0.123 A 
ATOM      9  C   UNL     1      22.629  32.317  20.969  1.00  0.00     0.094 A 
ATOM     10  C   UNL     1      22.618  31.837  19.657  1.00  0.00     0.146 A 
ATOM     11  O   UNL     1      23.377  30.791  19.356  1.00  0.00    -0.452 OA
ENDROOT
BRANCH   1  12
ATOM     12  C   UNL     1      24.333  29.093  17.938  1.00  0.00     0.021 A 
ATOM     13  C   UNL     1      24.065  27.833  18.505  1.00  0.00     0.016 A 
ATOM     14  C   UNL     1      24.925  26.756  18.273  1.00  0.00     0.047 A 
ATOM     15  C   UNL     1      26.054  26.918  17.464  1.00  0.00     0.115 A 
ATOM     16  C   UNL     1      25.457  29.242  17.109  1.00  0.00     0.016 A 
ATOM     17  C   UNL     1      26.317  28.163  16.880  1.00  0.00     0.047 A 
BRANCH  15  18
ATOM     18  O   UNL     1      26.904  25.836  17.243  1.00  0.00    -0.508 OA
ATOM     19  H   UNL     1      27.234  25.257  18.006  1.00  0.00     0.293 HD
ENDBRANCH  15  18
ENDBRANCH   1  12
BRANCH   2  20
ATOM     20  O   UNL     1      22.574  30.117  15.875  1.00  0.00    -0.502 OA
ATOM     21  H   UNL     1      22.297  29.151  15.756  1.00  0.00     0.293 HD
ENDBRANCH   2  20
BRANCH   6  22
ATOM     22  O   UNL     1      20.306  34.375  18.133  1.00  0.00    -0.507 OA
ATOM     23  H   UNL     1      20.592  35.269  17.765  1.00  0.00     0.293 HD
ENDBRANCH   6  22
BRANCH   8  24
ATOM     24  O   UNL     1      21.831  33.877  22.642  1.00  0.00    -0.508 OA
ATOM     25  H   UNL     1      21.393  34.757  22.887  1.00  0.00     0.293 HD
ENDBRANCH   8  24
TORSDOF 5
ENDMDL
MODEL 2
REMARK VINA RESULT:    -6.675     10.210     12.622
REMARK INTER + INTRA:          -8.033
REMARK INTER:                  -8.141
REMARK INTRA:                   0.107
REMARK UNBOUND:                -0.188
REMARK SMILES O=c1c(O)c(-c2ccc(O)cc2)oc2cc(O)cc(O)c12
REMARK SMILES IDX 5 1 3 2 2 3 1 4 21 5 19 6 18 7 16 8 15 9 14 10 13 11 6 12
REMARK SMILES IDX 7 13 8 14 9 15 12 16 11 17 10 18 4 20 20 22 17 24
REMARK H PARENT 10 19 4 21 20 23 17 25
REMARK Flexibility Score: inf
ROOT
ATOM      1  C   UNL     1      18.171  21.120  20.995  1.00  0.00     0.180 A 
ATOM      2  C   UNL     1      17.959  22.303  20.266  1.00  0.00     0.208 A 
ATOM      3  C   UNL     1      18.071  22.269  18.867  1.00  0.00     0.238 A 
ATOM      4  O   UNL     1      17.935  23.343  18.223  1.00  0.00    -0.285 OA
ATOM      5  C   UNL     1      18.375  21.051  18.213  1.00  0.00     0.111 A 
ATOM      6  C   UNL     1      18.473  20.893  16.798  1.00  0.00     0.134 A 
ATOM      7  C   UNL     1      18.909  19.672  16.268  1.00  0.00     0.093 A 
ATOM      8  C   UNL     1      19.187  18.585  17.096  1.00  0.00     0.123 A 
ATOM      9  C   UNL     1      19.037  18.711  18.477  1.00  0.00     0.094 A 
ATOM     10  C   UNL     1      18.640  19.927  19.039  1.00  0.00     0.146 A 
ATOM     11  O   UNL     1      18.519  20.008  20.358  1.00  0.00    -0.452 OA
ENDROOT
BRANCH   1  12
ATOM     12  C   UNL     1      18.046  21.070  22.470  1.00  0.00     0.021 A 
ATOM     13  C   UNL     1      19.037  20.471  23.269  1.00  0.00     0.016 A 
ATOM     14  C   UNL     1      18.909  20.456  24.661  1.00  0.00     0.047 A 
ATOM     15  C   UNL     1      17.801  21.050  25.272  1.00  0.00     0.115 A 
ATOM     16  C   UNL     1      16.946  21.682  23.092  1.00  0.00     0.016 A 
ATOM     17  C   UNL     1      16.820  21.666  24.485  1.00  0.00     0.047 A 
BRANCH  15  18
ATOM     18  O   UNL     1      17.686  21.027  26.661  1.00  0.00    -0.508 OA
ATOM     19  H   UNL     1      16.813  20.789  27.116  1.00  0.00     0.293 HD
ENDBRANCH  15  18
ENDBRANCH   1  12
BRANCH   2  20
ATOM     20  O   UNL     1      17.682  23.499  20.932  1.00  0.00    -0.502 OA
ATOM     21  H   UNL     1      16.764  23.719  21.298  1.00  0.00     0.293 HD
ENDBRANCH   2  20
BRANCH   6  22
ATOM     22  O   UNL     1      18.130  21.887  15.876  1.00  0.00    -0.507 OA
ATOM     23  H   UNL     1      18.756  22.267  15.182  1.00  0.00     0.293 HD
ENDBRANCH   6  22
BRANCH   8  24
ATOM     24  O   UNL     1      19.602  17.381  16.533  1.00  0.00    -0.508 OA
ATOM     25  H   UNL     1      20.433  17.325  15.954  1.00  0.00     0.293 HD
ENDBRANCH   8  24
TORSDOF 5
ENDMDL
MODEL 3
REMARK VINA RESULT:    -6.320     18.006     19.516
REMARK INTER + INTRA:          -7.617
REMARK INTER:                  -7.775
REMARK INTRA:                   0.159
REMARK UNBOUND:                -0.188
REMARK SMILES O=c1c(O)c(-c2ccc(O)cc2)oc2cc(O)cc(O)c12
REMARK SMILES IDX 5 1 3 2 2 3 1 4 21 5 19 6 18 7 16 8 15 9 14 10 13 11 6 12
REMARK SMILES IDX 7 13 8 14 9 15 12 16 11 17 10 18 4 20 20 22 17 24
REMARK H PARENT 10 19 4 21 20 23 17 25
REMARK Flexibility Score: inf
ROOT
ATOM      1  C   UNL     1      29.490  26.174  35.281  1.00  0.00     0.180 A 
ATOM      2  C   UNL     1      29.576  27.513  34.862  1.00  0.00     0.208 A 
ATOM      3  C   UNL     1      30.843  28.102  34.720  1.00  0.00     0.238 A 
ATOM      4  O   UNL     1      30.913  29.317  34.398  1.00  0.00    -0.285 OA
ATOM      5  C   UNL     1      32.007  27.340  34.981  1.00  0.00     0.111 A 
ATOM      6  C   UNL     1      33.343  27.823  34.830  1.00  0.00     0.134 A 
ATOM      7  C   UNL     1      34.416  27.024  35.244  1.00  0.00     0.093 A 
ATOM      8  C   UNL     1      34.209  25.737  35.739  1.00  0.00     0.123 A 
ATOM      9  C   UNL     1      32.911  25.234  35.834  1.00  0.00     0.094 A 
ATOM     10  C   UNL     1      31.816  26.020  35.466  1.00  0.00     0.146 A 
ATOM     11  O   UNL     1      30.598  25.507  35.581  1.00  0.00    -0.452 OA
ENDROOT
BRANCH   1  12
ATOM     12  C   UNL     1      28.193  25.477  35.430  1.00  0.00     0.021 A 
ATOM     13  C   UNL     1      27.082  26.112  36.016  1.00  0.00     0.016 A 
ATOM     14  C   UNL     1      25.861  25.441  36.125  1.00  0.00     0.047 A 
ATOM     15  C   UNL     1      25.727  24.137  35.639  1.00  0.00     0.115 A 
ATOM     16  C   UNL     1      28.045  24.174  34.925  1.00  0.00     0.016 A 
ATOM     17  C   UNL     1      26.822  23.506  35.036  1.00  0.00     0.047 A 
BRANCH  15  18
ATOM     18  O   UNL     1      24.503  23.480  35.755  1.00  0.00    -0.508 OA
ATOM     19  H   UNL     1      23.938  23.266  34.942  1.00  0.00     0.293 HD
ENDBRANCH  15  18
ENDBRANCH   1  12
BRANCH   2  20
ATOM     20  O   UNL     1      28.414  28.254  34.631  1.00  0.00    -0.502 OA
ATOM     21  H   UNL     1      27.548  28.075  35.123  1.00  0.00     0.293 HD
ENDBRANCH   2  20
BRANCH   6  22
ATOM     22  O   UNL     1      33.666  29.058  34.260  1.00  0.00    -0.507 OA
ATOM     23  H   UNL     1      34.354  29.193  33.535  1.00  0.00     0.293 HD
ENDBRANCH   6  22
BRANCH   8  24
ATOM     24  O   UNL     1      35.301  24.965  36.125  1.00  0.00    -0.508 OA
ATOM     25  H   UNL     1      36.174  25.390  36.417  1.00  0.00     0.293 HD
ENDBRANCH   8  24
TORSDOF 5
ENDMDL
MODEL 4
REMARK VINA RESULT:    -6.177     10.272     12.573
REMARK INTER + INTRA:          -7.448
REMARK INTER:                  -7.519
REMARK INTRA:                   0.070
REMARK UNBOUND:                -0.188
REMARK SMILES O=c1c(O)c(-c2ccc(O)cc2)oc2cc(O)cc(O)c12
REMARK SMILES IDX 5 1 3 2 2 3 1 4 21 5 19 6 18 7 16 8 15 9 14 10 13 11 6 12
REMARK SMILES IDX 7 13 8 14 9 15 12 16 11 17 10 18 4 20 20 22 17 24
REMARK H PARENT 10 19 4 21 20 23 17 25
REMARK Flexibility Score: inf
ROOT
ATOM      1  C   UNL     1      17.884  21.381  21.430  1.00  0.00     0.180 A 
ATOM      2  C   UNL     1      17.557  22.547  20.718  1.00  0.00     0.208 A 
ATOM      3  C   UNL     1      17.654  22.538  19.317  1.00  0.00     0.238 A 
ATOM      4  O   UNL     1      17.412  23.601  18.687  1.00  0.00    -0.285 OA
ATOM      5  C   UNL     1      18.060  21.360  18.646  1.00  0.00     0.111 A 
ATOM      6  C   UNL     1      18.155  21.225  17.228  1.00  0.00     0.134 A 
ATOM      7  C   UNL     1      18.694  20.056  16.679  1.00  0.00     0.093 A 
ATOM      8  C   UNL     1      19.081  18.990  17.492  1.00  0.00     0.123 A 
ATOM      9  C   UNL     1      18.937  19.088  18.876  1.00  0.00     0.094 A 
ATOM     10  C   UNL     1      18.437  20.257  19.456  1.00  0.00     0.146 A 
ATOM     11  O   UNL     1      18.325  20.312  20.777  1.00  0.00    -0.452 OA
ENDROOT
BRANCH   1  12
ATOM     12  C   UNL     1      17.783  21.304  22.906  1.00  0.00     0.021 A 
ATOM     13  C   UNL     1      16.656  21.796  23.589  1.00  0.00     0.016 A 
ATOM     14  C   UNL     1      16.572  21.692  24.981  1.00  0.00     0.047 A 
ATOM     15  C   UNL     1      17.602  21.085  25.705  1.00  0.00     0.115 A 
ATOM     16  C   UNL     1      18.805  20.678  23.638  1.00  0.00     0.016 A 
ATOM     17  C   UNL     1      18.719  20.575  25.030  1.00  0.00     0.047 A 
BRANCH  15  18
ATOM     18  O   UNL     1      17.506  20.989  27.092  1.00  0.00    -0.508 OA
ATOM     19  H   UNL     1      16.993  20.237  27.536  1.00  0.00     0.293 HD
ENDBRANCH  15  18
ENDBRANCH   1  12
BRANCH   2  20
ATOM     20  O   UNL     1      17.179  23.706  21.400  1.00  0.00    -0.502 OA
ATOM     21  H   UNL     1      17.441  23.881  22.362  1.00  0.00     0.293 HD
ENDBRANCH   2  20
BRANCH   6  22
ATOM     22  O   UNL     1      17.711  22.193  16.321  1.00  0.00    -0.507 OA
ATOM     23  H   UNL     1      16.793  22.211  15.903  1.00  0.00     0.293 HD
ENDBRANCH   6  22
BRANCH   8  24
ATOM     24  O   UNL     1      19.598  17.835  16.911  1.00  0.00    -0.508 OA
ATOM     25  H   UNL     1      19.091  16.958  16.933  1.00  0.00     0.293 HD
ENDBRANCH   8  24
TORSDOF 5
ENDMDL
MODEL 5
REMARK VINA RESULT:    -5.839     17.907     19.170
REMARK INTER + INTRA:          -7.051
REMARK INTER:                  -7.117
REMARK INTRA:                   0.066
REMARK UNBOUND:                -0.188
REMARK SMILES O=c1c(O)c(-c2ccc(O)cc2)oc2cc(O)cc(O)c12
REMARK SMILES IDX 5 1 3 2 2 3 1 4 21 5 19 6 18 7 16 8 15 9 14 10 13 11 6 12
REMARK SMILES IDX 7 13 8 14 9 15 12 16 11 17 10 18 4 20 20 22 17 24
REMARK H PARENT 10 19 4 21 20 23 17 25
REMARK Flexibility Score: inf
ROOT
ATOM      1  C   UNL     1      28.488  25.313  35.356  1.00  0.00     0.180 A 
ATOM      2  C   UNL     1      29.625  24.526  35.607  1.00  0.00     0.208 A 
ATOM      3  C   UNL     1      30.891  25.132  35.575  1.00  0.00     0.238 A 
ATOM      4  O   UNL     1      31.910  24.413  35.746  1.00  0.00    -0.285 OA
ATOM      5  C   UNL     1      31.003  26.518  35.311  1.00  0.00     0.111 A 
ATOM      6  C   UNL     1      32.233  27.244  35.295  1.00  0.00     0.134 A 
ATOM      7  C   UNL     1      32.237  28.585  34.892  1.00  0.00     0.093 A 
ATOM      8  C   UNL     1      31.052  29.245  34.569  1.00  0.00     0.123 A 
ATOM      9  C   UNL     1      29.838  28.561  34.640  1.00  0.00     0.094 A 
ATOM     10  C   UNL     1      29.804  27.212  35.002  1.00  0.00     0.146 A 
ATOM     11  O   UNL     1      28.630  26.596  35.047  1.00  0.00    -0.452 OA
ENDROOT
BRANCH   1  12
ATOM     12  C   UNL     1      27.118  24.752  35.396  1.00  0.00     0.021 A 
ATOM     13  C   UNL     1      26.089  25.382  36.121  1.00  0.00     0.016 A 
ATOM     14  C   UNL     1      24.798  24.846  36.125  1.00  0.00     0.047 A 
ATOM     15  C   UNL     1      24.513  23.687  35.397  1.00  0.00     0.115 A 
ATOM     16  C   UNL     1      26.820  23.599  34.651  1.00  0.00     0.016 A 
ATOM     17  C   UNL     1      25.527  23.065  34.657  1.00  0.00     0.047 A 
BRANCH  15  18
ATOM     18  O   UNL     1      23.222  23.164  35.411  1.00  0.00    -0.508 OA
ATOM     19  H   UNL     1      22.518  23.508  36.053  1.00  0.00     0.293 HD
ENDBRANCH  15  18
ENDBRANCH   1  12
BRANCH   2  20
ATOM     20  O   UNL     1      29.495  23.156  35.843  1.00  0.00    -0.502 OA
ATOM     21  H   UNL     1      28.604  22.677  35.797  1.00  0.00     0.293 HD
ENDBRANCH   2  20
BRANCH   6  22
ATOM     22  O   UNL     1      33.462  26.706  35.688  1.00  0.00    -0.507 OA
ATOM     23  H   UNL     1      33.591  26.076  36.465  1.00  0.00     0.293 HD
ENDBRANCH   6  22
BRANCH   8  24
ATOM     24  O   UNL     1      31.092  30.584  34.189  1.00  0.00    -0.508 OA
ATOM     25  H   UNL     1      31.565  31.281  34.754  1.00  0.00     0.293 HD
ENDBRANCH   8  24
TORSDOF 5
ENDMDL
MODEL 6
REMARK VINA RESULT:    -5.812     10.692     14.585
REMARK INTER + INTRA:          -7.019
REMARK INTER:                  -6.735
REMARK INTRA:                  -0.285
REMARK UNBOUND:                -0.188
REMARK SMILES O=c1c(O)c(-c2ccc(O)cc2)oc2cc(O)cc(O)c12
REMARK SMILES IDX 5 1 3 2 2 3 1 4 21 5 19 6 18 7 16 8 15 9 14 10 13 11 6 12
REMARK SMILES IDX 7 13 8 14 9 15 12 16 11 17 10 18 4 20 20 22 17 24
REMARK H PARENT 10 19 4 21 20 23 17 25
REMARK Flexibility Score: inf
ROOT
ATOM      1  C   UNL     1      20.679  33.688  31.086  1.00  0.00     0.180 A 
ATOM      2  C   UNL     1      20.166  32.445  31.493  1.00  0.00     0.208 A 
ATOM      3  C   UNL     1      20.371  32.025  32.817  1.00  0.00     0.238 A 
ATOM      4  O   UNL     1      19.957  30.887  33.161  1.00  0.00    -0.285 OA
ATOM      5  C   UNL     1      21.070  32.859  33.721  1.00  0.00     0.111 A 
ATOM      6  C   UNL     1      21.299  32.553  35.097  1.00  0.00     0.134 A 
ATOM      7  C   UNL     1      22.117  33.391  35.864  1.00  0.00     0.093 A 
ATOM      8  C   UNL     1      22.658  34.559  35.327  1.00  0.00     0.123 A 
ATOM      9  C   UNL     1      22.390  34.899  34.001  1.00  0.00     0.094 A 
ATOM     10  C   UNL     1      21.609  34.064  33.198  1.00  0.00     0.146 A 
ATOM     11  O   UNL     1      21.387  34.419  31.940  1.00  0.00    -0.452 OA
ENDROOT
BRANCH   1  12
ATOM     12  C   UNL     1      20.483  34.211  29.715  1.00  0.00     0.021 A 
ATOM     13  C   UNL     1      19.429  35.091  29.409  1.00  0.00     0.016 A 
ATOM     14  C   UNL     1      19.278  35.590  28.112  1.00  0.00     0.047 A 
ATOM     15  C   UNL     1      20.182  35.229  27.109  1.00  0.00     0.115 A 
ATOM     16  C   UNL     1      21.400  33.869  28.706  1.00  0.00     0.016 A 
ATOM     17  C   UNL     1      21.246  34.370  27.410  1.00  0.00     0.047 A 
BRANCH  15  18
ATOM     18  O   UNL     1      20.018  35.734  25.820  1.00  0.00    -0.508 OA
ATOM     19  H   UNL     1      19.172  35.566  25.289  1.00  0.00     0.293 HD
ENDBRANCH  15  18
ENDBRANCH   1  12
BRANCH   2  20
ATOM     20  O   UNL     1      19.499  31.626  30.579  1.00  0.00    -0.502 OA
ATOM     21  H   UNL     1      19.646  30.625  30.536  1.00  0.00     0.293 HD
ENDBRANCH   2  20
BRANCH   6  22
ATOM     22  O   UNL     1      20.731  31.459  35.758  1.00  0.00    -0.507 OA
ATOM     23  H   UNL     1      20.561  30.558  35.337  1.00  0.00     0.293 HD
ENDBRANCH   6  22
BRANCH   8  24
ATOM     24  O   UNL     1      23.452  35.378  36.125  1.00  0.00    -0.508 OA
ATOM     25  H   UNL     1      23.072  36.194  36.591  1.00  0.00     0.293 HD
ENDBRANCH   8  24
TORSDOF 5
ENDMDL
MODEL 7
REMARK VINA RESULT:    -5.742      1.799      3.584
REMARK INTER + INTRA:          -6.937
REMARK INTER:                  -7.284
REMARK INTRA:                   0.347
REMARK UNBOUND:                -0.188
REMARK SMILES O=c1c(O)c(-c2ccc(O)cc2)oc2cc(O)cc(O)c12
REMARK SMILES IDX 5 1 3 2 2 3 1 4 21 5 19 6 18 7 16 8 15 9 14 10 13 11 6 12
REMARK SMILES IDX 7 13 8 14 9 15 12 16 11 17 10 18 4 20 20 22 17 24
REMARK H PARENT 10 19 4 21 20 23 17 25
REMARK Flexibility Score: inf
ROOT
ATOM      1  C   UNL     1      22.304  31.844  18.456  1.00  0.00     0.180 A 
ATOM      2  C   UNL     1      22.272  32.269  19.795  1.00  0.00     0.208 A 
ATOM      3  C   UNL     1      21.513  33.401  20.131  1.00  0.00     0.238 A 
ATOM      4  O   UNL     1      21.532  33.809  21.322  1.00  0.00    -0.285 OA
ATOM      5  C   UNL     1      20.783  34.084  19.130  1.00  0.00     0.111 A 
ATOM      6  C   UNL     1      19.948  35.218  19.365  1.00  0.00     0.134 A 
ATOM      7  C   UNL     1      19.378  35.893  18.279  1.00  0.00     0.093 A 
ATOM      8  C   UNL     1      19.556  35.437  16.973  1.00  0.00     0.123 A 
ATOM      9  C   UNL     1      20.320  34.294  16.737  1.00  0.00     0.094 A 
ATOM     10  C   UNL     1      20.934  33.621  17.796  1.00  0.00     0.146 A 
ATOM     11  O   UNL     1      21.661  32.544  17.528  1.00  0.00    -0.452 OA
ENDROOT
BRANCH   1  12
ATOM     12  C   UNL     1      23.060  30.645  18.027  1.00  0.00     0.021 A 
ATOM     13  C   UNL     1      23.363  29.608  18.928  1.00  0.00     0.016 A 
ATOM     14  C   UNL     1      24.058  28.476  18.495  1.00  0.00     0.047 A 
ATOM     15  C   UNL     1      24.446  28.356  17.157  1.00  0.00     0.115 A 
ATOM     16  C   UNL     1      23.436  30.509  16.680  1.00  0.00     0.016 A 
ATOM     17  C   UNL     1      24.131  29.375  16.249  1.00  0.00     0.047 A 
BRANCH  15  18
ATOM     18  O   UNL     1      25.140  27.222  16.740  1.00  0.00    -0.508 OA
ATOM     19  H   UNL     1      24.921  26.760  15.865  1.00  0.00     0.293 HD
ENDBRANCH  15  18
ENDBRANCH   1  12
BRANCH   2  20
ATOM     20  O   UNL     1      23.018  31.595  20.765  1.00  0.00    -0.502 OA
ATOM     21  H   UNL     1      23.894  31.133  20.554  1.00  0.00     0.293 HD
ENDBRANCH   2  20
BRANCH   6  22
ATOM     22  O   UNL     1      19.630  35.702  20.638  1.00  0.00    -0.507 OA
ATOM     23  H   UNL     1      19.081  35.202  21.321  1.00  0.00     0.293 HD
ENDBRANCH   6  22
BRANCH   8  24
ATOM     24  O   UNL     1      18.959  36.123  15.918  1.00  0.00    -0.508 OA
ATOM     25  H   UNL     1      17.963  36.309  15.903  1.00  0.00     0.293 HD
ENDBRANCH   8  24
TORSDOF 5
ENDMDL
MODEL 8
REMARK VINA RESULT:    -5.458     11.267     14.655
REMARK INTER + INTRA:          -6.603
REMARK INTER:                  -6.350
REMARK INTRA:                  -0.253
REMARK UNBOUND:                -0.188
REMARK SMILES O=c1c(O)c(-c2ccc(O)cc2)oc2cc(O)cc(O)c12
REMARK SMILES IDX 5 1 3 2 2 3 1 4 21 5 19 6 18 7 16 8 15 9 14 10 13 11 6 12
REMARK SMILES IDX 7 13 8 14 9 15 12 16 11 17 10 18 4 20 20 22 17 24
REMARK H PARENT 10 19 4 21 20 23 17 25
REMARK Flexibility Score: inf
ROOT
ATOM      1  C   UNL     1      18.511  31.933  31.422  1.00  0.00     0.180 A 
ATOM      2  C   UNL     1      17.634  32.076  32.510  1.00  0.00     0.208 A 
ATOM      3  C   UNL     1      18.063  32.791  33.640  1.00  0.00     0.238 A 
ATOM      4  O   UNL     1      17.293  32.870  34.634  1.00  0.00    -0.285 OA
ATOM      5  C   UNL     1      19.355  33.368  33.661  1.00  0.00     0.111 A 
ATOM      6  C   UNL     1      19.878  34.148  34.736  1.00  0.00     0.134 A 
ATOM      7  C   UNL     1      21.217  34.557  34.705  1.00  0.00     0.093 A 
ATOM      8  C   UNL     1      22.032  34.274  33.609  1.00  0.00     0.123 A 
ATOM      9  C   UNL     1      21.513  33.565  32.526  1.00  0.00     0.094 A 
ATOM     10  C   UNL     1      20.192  33.109  32.544  1.00  0.00     0.146 A 
ATOM     11  O   UNL     1      19.740  32.429  31.498  1.00  0.00    -0.452 OA
ENDROOT
BRANCH   1  12
ATOM     12  C   UNL     1      18.123  31.215  30.187  1.00  0.00     0.021 A 
ATOM     13  C   UNL     1      17.762  31.910  29.018  1.00  0.00     0.016 A 
ATOM     14  C   UNL     1      17.422  31.210  27.856  1.00  0.00     0.047 A 
ATOM     15  C   UNL     1      17.451  29.813  27.841  1.00  0.00     0.115 A 
ATOM     16  C   UNL     1      18.169  29.811  30.158  1.00  0.00     0.016 A 
ATOM     17  C   UNL     1      17.829  29.114  28.995  1.00  0.00     0.047 A 
BRANCH  15  18
ATOM     18  O   UNL     1      17.109  29.128  26.677  1.00  0.00    -0.508 OA
ATOM     19  H   UNL     1      16.150  28.868  26.478  1.00  0.00     0.293 HD
ENDBRANCH  15  18
ENDBRANCH   1  12
BRANCH   2  20
ATOM     20  O   UNL     1      16.371  31.480  32.479  1.00  0.00    -0.502 OA
ATOM     21  H   UNL     1      16.212  30.561  32.086  1.00  0.00     0.293 HD
ENDBRANCH   2  20
BRANCH   6  22
ATOM     22  O   UNL     1      19.123  34.565  35.837  1.00  0.00    -0.507 OA
ATOM     23  H   UNL     1      19.294  35.408  36.364  1.00  0.00     0.293 HD
ENDBRANCH   6  22
BRANCH   8  24
ATOM     24  O   UNL     1      23.354  34.712  33.605  1.00  0.00    -0.508 OA
ATOM     25  H   UNL     1      23.903  34.746  34.455  1.00  0.00     0.293 HD
ENDBRANCH   8  24
TORSDOF 5
ENDMDL
