MODEL 1
REMARK VINA RESULT:    -7.028      0.000      0.000
REMARK INTER + INTRA:          -7.532
REMARK INTER:                  -7.438
REMARK INTRA:                  -0.094
REMARK UNBOUND:                -0.094
REMARK SMILES C=C(C)[C@H]1CC=C(C)C(=O)C1
REMARK SMILES IDX 8 1 7 2 6 3 5 4 4 5 11 6 9 7 10 8 2 9 1 10 3 11
REMARK H PARENT
REMARK Flexibility Score: inf
ROOT
ATOM      1  C   UNL     1     107.610  51.998  61.119  1.00  0.00     0.048 C 
ATOM      2  C   UNL     1     108.051  50.992  62.145  1.00  0.00    -0.012 C 
ATOM      3  C   UNL     1     107.170  50.526  63.048  1.00  0.00    -0.019 C 
ATOM      4  C   UNL     1     107.564  49.532  64.108  1.00  0.00     0.036 C 
ATOM      5  C   UNL     1     108.663  48.581  63.597  1.00  0.00     0.025 C 
ATOM      6  C   UNL     1     109.868  49.388  63.077  1.00  0.00     0.089 C 
ATOM      7  C   UNL     1     109.421  50.424  62.082  1.00  0.00     0.158 C 
ATOM      8  O   UNL     1     110.238  50.833  61.213  1.00  0.00    -0.295 OA
ENDROOT
BRANCH   5   9
ATOM      9  C   UNL     1     109.078  47.576  64.663  1.00  0.00    -0.077 C 
ATOM     10  C   UNL     1     109.184  47.930  65.955  1.00  0.00     0.008 C 
ATOM     11  C   UNL     1     109.379  46.150  64.279  1.00  0.00     0.039 C 
ENDBRANCH   5   9
TORSDOF 1
ENDMDL
MODEL 2
REMARK VINA RESULT:    -6.944      1.584      4.231
REMARK INTER + INTRA:          -7.444
REMARK INTER:                  -7.355
REMARK INTRA:                  -0.089
REMARK UNBOUND:                -0.094
REMARK SMILES C=C(C)[C@H]1CC=C(C)C(=O)C1
REMARK SMILES IDX 8 1 7 2 6 3 5 4 4 5 11 6 9 7 10 8 2 9 1 10 3 11
REMARK H PARENT
REMARK Flexibility Score: inf
ROOT
ATOM      1  C   UNL     1     109.312  46.373  64.883  1.00  0.00     0.048 C 
ATOM      2  C   UNL     1     108.892  47.637  64.187  1.00  0.00    -0.012 C 
ATOM      3  C   UNL     1     108.169  48.558  64.850  1.00  0.00    -0.019 C 
ATOM      4  C   UNL     1     107.707  49.833  64.195  1.00  0.00     0.036 C 
ATOM      5  C   UNL     1     108.723  50.316  63.142  1.00  0.00     0.025 C 
ATOM      6  C   UNL     1     109.001  49.200  62.116  1.00  0.00     0.089 C 
ATOM      7  C   UNL     1     109.379  47.923  62.814  1.00  0.00     0.158 C 
ATOM      8  O   UNL     1     110.087  47.077  62.205  1.00  0.00    -0.295 OA
ENDROOT
BRANCH   5   9
ATOM      9  C   UNL     1     108.263  51.599  62.464  1.00  0.00    -0.077 C 
ATOM     10  C   UNL     1     108.559  52.806  62.977  1.00  0.00     0.008 C 
ATOM     11  C   UNL     1     107.460  51.535  61.190  1.00  0.00     0.039 C 
ENDBRANCH   5   9
TORSDOF 1
ENDMDL
MODEL 3
REMARK VINA RESULT:    -6.624      1.990      4.678
REMARK INTER + INTRA:          -7.105
REMARK INTER:                  -7.012
REMARK INTRA:                  -0.093
REMARK UNBOUND:                -0.094
REMARK SMILES C=C(C)[C@H]1CC=C(C)C(=O)C1
REMARK SMILES IDX 8 1 7 2 6 3 5 4 4 5 11 6 9 7 10 8 2 9 1 10 3 11
REMARK H PARENT
REMARK Flexibility Score: inf
ROOT
ATOM      1  C   UNL     1     109.436  45.754  64.285  1.00  0.00     0.048 C 
ATOM      2  C   UNL     1     109.413  47.106  63.629  1.00  0.00    -0.012 C 
ATOM      3  C   UNL     1     109.548  47.205  62.295  1.00  0.00    -0.019 C 
ATOM      4  C   UNL     1     109.550  48.536  61.589  1.00  0.00     0.036 C 
ATOM      5  C   UNL     1     108.642  49.549  62.312  1.00  0.00     0.025 C 
ATOM      6  C   UNL     1     109.052  49.672  63.792  1.00  0.00     0.089 C 
ATOM      7  C   UNL     1     109.117  48.316  64.437  1.00  0.00     0.158 C 
ATOM      8  O   UNL     1     108.954  48.220  65.684  1.00  0.00    -0.295 OA
ENDROOT
BRANCH   5   9
ATOM      9  C   UNL     1     108.642  50.902  61.614  1.00  0.00    -0.077 C 
ATOM     10  C   UNL     1     109.790  51.520  61.285  1.00  0.00     0.008 C 
ATOM     11  C   UNL     1     107.338  51.578  61.277  1.00  0.00     0.039 C 
ENDBRANCH   5   9
TORSDOF 1
ENDMDL
MODEL 4
REMARK VINA RESULT:    -6.616      1.374      2.031
REMARK INTER + INTRA:          -7.097
REMARK INTER:                  -7.007
REMARK INTRA:                  -0.090
REMARK UNBOUND:                -0.094
REMARK SMILES C=C(C)[C@H]1CC=C(C)C(=O)C1
REMARK SMILES IDX 8 1 7 2 6 3 5 4 4 5 11 6 9 7 10 8 2 9 1 10 3 11
REMARK H PARENT
REMARK Flexibility Score: inf
ROOT
ATOM      1  C   UNL     1     108.374  52.166  61.148  1.00  0.00     0.048 C 
ATOM      2  C   UNL     1     108.564  50.876  61.895  1.00  0.00    -0.012 C 
ATOM      3  C   UNL     1     109.786  50.318  61.967  1.00  0.00    -0.019 C 
ATOM      4  C   UNL     1     110.029  49.018  62.687  1.00  0.00     0.036 C 
ATOM      5  C   UNL     1     109.081  48.865  63.891  1.00  0.00     0.025 C 
ATOM      6  C   UNL     1     107.615  49.017  63.441  1.00  0.00     0.089 C 
ATOM      7  C   UNL     1     107.433  50.287  62.655  1.00  0.00     0.158 C 
ATOM      8  O   UNL     1     106.296  50.829  62.620  1.00  0.00    -0.295 OA
ENDROOT
BRANCH   5   9
ATOM      9  C   UNL     1     109.309  47.549  64.623  1.00  0.00    -0.077 C 
ATOM     10  C   UNL     1     109.374  47.496  65.965  1.00  0.00     0.008 C 
ATOM     11  C   UNL     1     109.466  46.268  63.844  1.00  0.00     0.039 C 
ENDBRANCH   5   9
TORSDOF 1
ENDMDL
MODEL 5
REMARK VINA RESULT:    -6.503      1.946      4.705
REMARK INTER + INTRA:          -6.977
REMARK INTER:                  -6.883
REMARK INTRA:                  -0.093
REMARK UNBOUND:                -0.094
REMARK SMILES C=C(C)[C@H]1CC=C(C)C(=O)C1
REMARK SMILES IDX 8 1 7 2 6 3 5 4 4 5 11 6 9 7 10 8 2 9 1 10 3 11
REMARK H PARENT
REMARK Flexibility Score: inf
ROOT
ATOM      1  C   UNL     1     109.262  46.366  64.499  1.00  0.00     0.048 C 
ATOM      2  C   UNL     1     109.162  47.694  63.801  1.00  0.00    -0.012 C 
ATOM      3  C   UNL     1     109.820  47.894  62.647  1.00  0.00    -0.019 C 
ATOM      4  C   UNL     1     109.769  49.210  61.916  1.00  0.00     0.036 C 
ATOM      5  C   UNL     1     108.407  49.902  62.114  1.00  0.00     0.025 C 
ATOM      6  C   UNL     1     108.098  50.055  63.615  1.00  0.00     0.089 C 
ATOM      7  C   UNL     1     108.241  48.735  64.321  1.00  0.00     0.158 C 
ATOM      8  O   UNL     1     107.594  48.535  65.385  1.00  0.00    -0.295 OA
ENDROOT
BRANCH   5   9
ATOM      9  C   UNL     1     108.345  51.240  61.388  1.00  0.00    -0.077 C 
ATOM     10  C   UNL     1     107.170  51.806  61.064  1.00  0.00     0.008 C 
ATOM     11  C   UNL     1     109.618  51.959  61.019  1.00  0.00     0.039 C 
ENDBRANCH   5   9
TORSDOF 1
ENDMDL
MODEL 6
REMARK VINA RESULT:    -5.214     17.049     17.830
REMARK INTER + INTRA:          -5.613
REMARK INTER:                  -5.515
REMARK INTRA:                  -0.097
REMARK UNBOUND:                -0.094
REMARK SMILES C=C(C)[C@H]1CC=C(C)C(=O)C1
REMARK SMILES IDX 8 1 7 2 6 3 5 4 4 5 11 6 9 7 10 8 2 9 1 10 3 11
REMARK H PARENT
REMARK Flexibility Score: inf
ROOT
ATOM      1  C   UNL     1      99.607  33.643  61.558  1.00  0.00     0.048 C 
ATOM      2  C   UNL     1     100.959  33.352  60.967  1.00  0.00    -0.012 C 
ATOM      3  C   UNL     1     101.132  33.405  59.635  1.00  0.00    -0.019 C 
ATOM      4  C   UNL     1     102.460  33.104  58.991  1.00  0.00     0.036 C 
ATOM      5  C   UNL     1     103.628  33.530  59.901  1.00  0.00     0.025 C 
ATOM      6  C   UNL     1     103.491  32.875  61.288  1.00  0.00     0.089 C 
ATOM      7  C   UNL     1     102.123  33.130  61.860  1.00  0.00     0.158 C 
ATOM      8  O   UNL     1     101.969  33.117  63.111  1.00  0.00    -0.295 OA
ENDROOT
BRANCH   5   9
ATOM      9  C   UNL     1     104.977  33.223  59.265  1.00  0.00    -0.077 C 
ATOM     10  C   UNL     1     106.112  33.253  59.984  1.00  0.00     0.008 C 
ATOM     11  C   UNL     1     105.061  32.875  57.801  1.00  0.00     0.039 C 
ENDBRANCH   5   9
TORSDOF 1
ENDMDL
MODEL 7
REMARK VINA RESULT:    -5.052     17.135     17.808
REMARK INTER + INTRA:          -5.442
REMARK INTER:                  -5.345
REMARK INTRA:                  -0.097
REMARK UNBOUND:                -0.094
REMARK SMILES C=C(C)[C@H]1CC=C(C)C(=O)C1
REMARK SMILES IDX 8 1 7 2 6 3 5 4 4 5 11 6 9 7 10 8 2 9 1 10 3 11
REMARK H PARENT
REMARK Flexibility Score: inf
ROOT
ATOM      1  C   UNL     1      98.652  34.660  65.158  1.00  0.00     0.048 C 
ATOM      2  C   UNL     1      99.593  34.448  64.004  1.00  0.00    -0.012 C 
ATOM      3  C   UNL     1     100.596  33.560  64.114  1.00  0.00    -0.019 C 
ATOM      4  C   UNL     1     101.577  33.322  62.996  1.00  0.00     0.036 C 
ATOM      5  C   UNL     1     100.907  33.507  61.621  1.00  0.00     0.025 C 
ATOM      6  C   UNL     1     100.245  34.896  61.531  1.00  0.00     0.089 C 
ATOM      7  C   UNL     1      99.337  35.125  62.708  1.00  0.00     0.158 C 
ATOM      8  O   UNL     1      98.375  35.931  62.593  1.00  0.00    -0.295 OA
ENDROOT
BRANCH   5   9
ATOM      9  C   UNL     1     101.890  33.280  60.481  1.00  0.00    -0.077 C 
ATOM     10  C   UNL     1     101.521  33.429  59.197  1.00  0.00     0.008 C 
ATOM     11  C   UNL     1     103.313  32.879  60.779  1.00  0.00     0.039 C 
ENDBRANCH   5   9
TORSDOF 1
ENDMDL
MODEL 8
REMARK VINA RESULT:    -5.043      2.351      4.361
REMARK INTER + INTRA:          -5.432
REMARK INTER:                  -5.334
REMARK INTRA:                  -0.097
REMARK UNBOUND:                -0.094
REMARK SMILES C=C(C)[C@H]1CC=C(C)C(=O)C1
REMARK SMILES IDX 8 1 7 2 6 3 5 4 4 5 11 6 9 7 10 8 2 9 1 10 3 11
REMARK H PARENT
REMARK Flexibility Score: inf
ROOT
ATOM      1  C   UNL     1     109.252  46.792  61.062  1.00  0.00     0.048 C 
ATOM      2  C   UNL     1     109.051  48.275  61.209  1.00  0.00    -0.012 C 
ATOM      3  C   UNL     1     107.993  48.868  60.629  1.00  0.00    -0.019 C 
ATOM      4  C   UNL     1     107.755  50.352  60.729  1.00  0.00     0.036 C 
ATOM      5  C   UNL     1     108.260  50.905  62.075  1.00  0.00     0.025 C 
ATOM      6  C   UNL     1     109.741  50.536  62.283  1.00  0.00     0.089 C 
ATOM      7  C   UNL     1     109.949  49.059  62.094  1.00  0.00     0.158 C 
ATOM      8  O   UNL     1     110.921  48.497  62.668  1.00  0.00    -0.295 OA
ENDROOT
BRANCH   5   9
ATOM      9  C   UNL     1     108.034  52.407  62.185  1.00  0.00    -0.077 C 
ATOM     10  C   UNL     1     108.568  53.123  63.190  1.00  0.00     0.008 C 
ATOM     11  C   UNL     1     107.199  53.123  61.156  1.00  0.00     0.039 C 
ENDBRANCH   5   9
TORSDOF 1
ENDMDL
MODEL 9
REMARK VINA RESULT:    -5.037     17.309     17.776
REMARK INTER + INTRA:          -5.426
REMARK INTER:                  -5.330
REMARK INTRA:                  -0.096
REMARK UNBOUND:                -0.094
REMARK SMILES C=C(C)[C@H]1CC=C(C)C(=O)C1
REMARK SMILES IDX 8 1 7 2 6 3 5 4 4 5 11 6 9 7 10 8 2 9 1 10 3 11
REMARK H PARENT
REMARK Flexibility Score: inf
ROOT
ATOM      1  C   UNL     1     103.718  32.875  59.439  1.00  0.00     0.048 C 
ATOM      2  C   UNL     1     102.618  33.149  60.426  1.00  0.00    -0.012 C 
ATOM      3  C   UNL     1     102.881  33.125  61.745  1.00  0.00    -0.019 C 
ATOM      4  C   UNL     1     101.812  33.374  62.777  1.00  0.00     0.036 C 
ATOM      5  C   UNL     1     100.760  34.371  62.256  1.00  0.00     0.025 C 
ATOM      6  C   UNL     1     100.176  33.882  60.917  1.00  0.00     0.089 C 
ATOM      7  C   UNL     1     101.278  33.567  59.943  1.00  0.00     0.158 C 
ATOM      8  O   UNL     1     101.040  33.626  58.707  1.00  0.00    -0.295 OA
ENDROOT
BRANCH   5   9
ATOM      9  C   UNL     1      99.668  34.625  63.286  1.00  0.00    -0.077 C 
ATOM     10  C   UNL     1      99.706  34.054  64.502  1.00  0.00     0.008 C 
ATOM     11  C   UNL     1      98.512  35.533  62.953  1.00  0.00     0.039 C 
ENDBRANCH   5   9
TORSDOF 1
ENDMDL
