MODEL 1
REMARK VINA RESULT:    -4.811      0.000      0.000
REMARK INTER + INTRA:          -5.484
REMARK INTER:                  -5.233
REMARK INTRA:                  -0.251
REMARK UNBOUND:                -0.251
REMARK SMILES O=C([O-])c1ccccc1O
REMARK SMILES IDX 4 1 9 2 5 3 8 4 6 5 7 6 2 7 1 8 3 9 10 10
REMARK H PARENT 10 11
REMARK Flexibility Score: inf
ROOT
ATOM      1  C   UNL     1      20.111   0.475  66.613  1.00  0.00     0.039 A 
ATOM      2  C   UNL     1      20.440   1.378  65.575  1.00  0.00     0.124 A 
ATOM      3  C   UNL     1      21.099   0.146  67.565  1.00  0.00     0.014 A 
ATOM      4  C   UNL     1      21.729   1.929  65.509  1.00  0.00     0.047 A 
ATOM      5  C   UNL     1      22.378   0.702  67.486  1.00  0.00     0.001 A 
ATOM      6  C   UNL     1      22.693   1.591  66.460  1.00  0.00     0.004 A 
ENDROOT
BRANCH   1   7
ATOM      7  C   UNL     1      18.759  -0.133  66.723  1.00  0.00     0.075 C 
ATOM      8  O   UNL     1      18.221  -0.673  65.720  1.00  0.00    -0.545 OA
ATOM      9  O   UNL     1      18.063  -0.120  67.925  1.00  0.00    -0.545 OA
ENDBRANCH   1   7
BRANCH   2  10
ATOM     10  O   UNL     1      19.496   1.733  64.612  1.00  0.00    -0.507 OA
ATOM     11  H   UNL     1      19.130   1.058  63.951  1.00  0.00     0.293 HD
ENDBRANCH   2  10
TORSDOF 2
ENDMDL
MODEL 2
REMARK VINA RESULT:    -4.751     15.780     16.233
REMARK INTER + INTRA:          -5.418
REMARK INTER:                  -5.210
REMARK INTRA:                  -0.208
REMARK UNBOUND:                -0.251
REMARK SMILES O=C([O-])c1ccccc1O
REMARK SMILES IDX 4 1 9 2 5 3 8 4 6 5 7 6 2 7 1 8 3 9 10 10
REMARK H PARENT 10 11
REMARK Flexibility Score: inf
ROOT
ATOM      1  C   UNL     1      12.901  14.348  69.766  1.00  0.00     0.039 A 
ATOM      2  C   UNL     1      12.505  14.369  68.408  1.00  0.00     0.124 A 
ATOM      3  C   UNL     1      12.046  13.749  70.713  1.00  0.00     0.014 A 
ATOM      4  C   UNL     1      11.279  13.800  68.027  1.00  0.00     0.047 A 
ATOM      5  C   UNL     1      10.829  13.186  70.320  1.00  0.00     0.001 A 
ATOM      6  C   UNL     1      10.446  13.211  68.980  1.00  0.00     0.004 A 
ENDROOT
BRANCH   1   7
ATOM      7  C   UNL     1      14.189  14.939  70.214  1.00  0.00     0.075 C 
ATOM      8  O   UNL     1      14.367  16.185  70.170  1.00  0.00    -0.545 OA
ATOM      9  O   UNL     1      15.220  14.136  70.688  1.00  0.00    -0.545 OA
ENDBRANCH   1   7
BRANCH   2  10
ATOM     10  O   UNL     1      13.317  14.950  67.435  1.00  0.00    -0.507 OA
ATOM     11  H   UNL     1      14.230  14.573  67.208  1.00  0.00     0.293 HD
ENDBRANCH   2  10
TORSDOF 2
ENDMDL
MODEL 3
REMARK VINA RESULT:    -4.748     16.066     16.760
REMARK INTER + INTRA:          -5.415
REMARK INTER:                  -5.161
REMARK INTRA:                  -0.255
REMARK UNBOUND:                -0.251
REMARK SMILES O=C([O-])c1ccccc1O
REMARK SMILES IDX 4 1 9 2 5 3 8 4 6 5 7 6 2 7 1 8 3 9 10 10
REMARK H PARENT 10 11
REMARK Flexibility Score: inf
ROOT
ATOM      1  C   UNL     1      12.181  15.320  68.136  1.00  0.00     0.039 A 
ATOM      2  C   UNL     1      11.676  14.004  68.246  1.00  0.00     0.124 A 
ATOM      3  C   UNL     1      13.367  15.652  68.824  1.00  0.00     0.014 A 
ATOM      4  C   UNL     1      12.354  13.057  69.029  1.00  0.00     0.047 A 
ATOM      5  C   UNL     1      14.032  14.699  69.600  1.00  0.00     0.001 A 
ATOM      6  C   UNL     1      13.527  13.404  69.703  1.00  0.00     0.004 A 
ENDROOT
BRANCH   1   7
ATOM      7  C   UNL     1      11.496  16.355  67.319  1.00  0.00     0.075 C 
ATOM      8  O   UNL     1      12.160  17.106  66.556  1.00  0.00    -0.545 OA
ATOM      9  O   UNL     1      10.117  16.517  67.376  1.00  0.00    -0.545 OA
ENDBRANCH   1   7
BRANCH   2  10
ATOM     10  O   UNL     1      10.507  13.630  67.585  1.00  0.00    -0.507 OA
ATOM     11  H   UNL     1       9.780  13.097  68.047  1.00  0.00     0.293 HD
ENDBRANCH   2  10
TORSDOF 2
ENDMDL
MODEL 4
REMARK VINA RESULT:    -4.746     15.682     16.087
REMARK INTER + INTRA:          -5.413
REMARK INTER:                  -5.184
REMARK INTRA:                  -0.228
REMARK UNBOUND:                -0.251
REMARK SMILES O=C([O-])c1ccccc1O
REMARK SMILES IDX 4 1 9 2 5 3 8 4 6 5 7 6 2 7 1 8 3 9 10 10
REMARK H PARENT 10 11
REMARK Flexibility Score: inf
ROOT
ATOM      1  C   UNL     1      11.802  13.962  68.988  1.00  0.00     0.039 A 
ATOM      2  C   UNL     1      12.274  13.831  70.315  1.00  0.00     0.124 A 
ATOM      3  C   UNL     1      12.582  14.679  68.057  1.00  0.00     0.014 A 
ATOM      4  C   UNL     1      13.499  14.410  70.682  1.00  0.00     0.047 A 
ATOM      5  C   UNL     1      13.799  15.250  68.437  1.00  0.00     0.001 A 
ATOM      6  C   UNL     1      14.257  15.117  69.746  1.00  0.00     0.004 A 
ENDROOT
BRANCH   1   7
ATOM      7  C   UNL     1      10.511  13.366  68.555  1.00  0.00     0.075 C 
ATOM      8  O   UNL     1       9.427  13.756  69.065  1.00  0.00    -0.545 OA
ATOM      9  O   UNL     1      10.470  12.373  67.585  1.00  0.00    -0.545 OA
ENDBRANCH   1   7
BRANCH   2  10
ATOM     10  O   UNL     1      11.538  13.132  71.270  1.00  0.00    -0.507 OA
ATOM     11  H   UNL     1      10.558  13.329  71.437  1.00  0.00     0.293 HD
ENDBRANCH   2  10
TORSDOF 2
ENDMDL
MODEL 5
REMARK VINA RESULT:    -4.733     16.375     17.247
REMARK INTER + INTRA:          -5.399
REMARK INTER:                  -5.173
REMARK INTRA:                  -0.226
REMARK UNBOUND:                -0.251
REMARK SMILES O=C([O-])c1ccccc1O
REMARK SMILES IDX 4 1 9 2 5 3 8 4 6 5 7 6 2 7 1 8 3 9 10 10
REMARK H PARENT 10 11
REMARK Flexibility Score: inf
ROOT
ATOM      1  C   UNL     1      11.775  15.170  67.986  1.00  0.00     0.039 A 
ATOM      2  C   UNL     1      11.235  13.911  68.339  1.00  0.00     0.124 A 
ATOM      3  C   UNL     1      10.931  16.300  68.004  1.00  0.00     0.014 A 
ATOM      4  C   UNL     1       9.882  13.805  68.697  1.00  0.00     0.047 A 
ATOM      5  C   UNL     1       9.587  16.180  68.363  1.00  0.00     0.001 A 
ATOM      6  C   UNL     1       9.063  14.935  68.709  1.00  0.00     0.004 A 
ENDROOT
BRANCH   1   7
ATOM      7  C   UNL     1      13.201  15.328  67.600  1.00  0.00     0.075 C 
ATOM      8  O   UNL     1      14.117  15.092  68.433  1.00  0.00    -0.545 OA
ATOM      9  O   UNL     1      13.556  15.736  66.319  1.00  0.00    -0.545 OA
ENDBRANCH   1   7
BRANCH   2  10
ATOM     10  O   UNL     1      12.030  12.766  68.335  1.00  0.00    -0.507 OA
ATOM     11  H   UNL     1      12.884  12.708  68.878  1.00  0.00     0.293 HD
ENDBRANCH   2  10
TORSDOF 2
ENDMDL
MODEL 6
REMARK VINA RESULT:    -4.716     15.688     16.121
REMARK INTER + INTRA:          -5.381
REMARK INTER:                  -5.130
REMARK INTRA:                  -0.251
REMARK UNBOUND:                -0.251
REMARK SMILES O=C([O-])c1ccccc1O
REMARK SMILES IDX 4 1 9 2 5 3 8 4 6 5 7 6 2 7 1 8 3 9 10 10
REMARK H PARENT 10 11
REMARK Flexibility Score: inf
ROOT
ATOM      1  C   UNL     1      11.455  13.827  68.771  1.00  0.00     0.039 A 
ATOM      2  C   UNL     1      11.754  14.957  67.974  1.00  0.00     0.124 A 
ATOM      3  C   UNL     1      12.453  13.318  69.629  1.00  0.00     0.014 A 
ATOM      4  C   UNL     1      13.025  15.549  68.048  1.00  0.00     0.047 A 
ATOM      5  C   UNL     1      13.713  13.918  69.692  1.00  0.00     0.001 A 
ATOM      6  C   UNL     1      13.999  15.031  68.903  1.00  0.00     0.004 A 
ENDROOT
BRANCH   1   7
ATOM      7  C   UNL     1      10.124  13.168  68.726  1.00  0.00     0.075 C 
ATOM      8  O   UNL     1       9.073  13.846  68.872  1.00  0.00    -0.545 OA
ATOM      9  O   UNL     1      10.009  11.798  68.521  1.00  0.00    -0.545 OA
ENDBRANCH   1   7
BRANCH   2  10
ATOM     10  O   UNL     1      10.800  15.495  67.111  1.00  0.00    -0.507 OA
ATOM     11  H   UNL     1      11.061  15.938  66.239  1.00  0.00     0.293 HD
ENDBRANCH   2  10
TORSDOF 2
ENDMDL
MODEL 7
REMARK VINA RESULT:    -4.648     15.773     16.494
REMARK INTER + INTRA:          -5.306
REMARK INTER:                  -5.058
REMARK INTRA:                  -0.248
REMARK UNBOUND:                -0.251
REMARK SMILES O=C([O-])c1ccccc1O
REMARK SMILES IDX 4 1 9 2 5 3 8 4 6 5 7 6 2 7 1 8 3 9 10 10
REMARK H PARENT 10 11
REMARK Flexibility Score: inf
ROOT
ATOM      1  C   UNL     1      13.249  14.477  70.010  1.00  0.00     0.039 A 
ATOM      2  C   UNL     1      12.278  14.603  71.031  1.00  0.00     0.124 A 
ATOM      3  C   UNL     1      12.956  13.672  68.890  1.00  0.00     0.014 A 
ATOM      4  C   UNL     1      11.050  13.933  70.916  1.00  0.00     0.047 A 
ATOM      5  C   UNL     1      11.729  13.011  68.789  1.00  0.00     0.001 A 
ATOM      6  C   UNL     1      10.778  13.141  69.799  1.00  0.00     0.004 A 
ENDROOT
BRANCH   1   7
ATOM      7  C   UNL     1      14.562  15.169  70.090  1.00  0.00     0.075 C 
ATOM      8  O   UNL     1      14.616  16.417  70.255  1.00  0.00    -0.545 OA
ATOM      9  O   UNL     1      15.753  14.460  69.987  1.00  0.00    -0.545 OA
ENDBRANCH   1   7
BRANCH   2  10
ATOM     10  O   UNL     1      12.523  15.388  72.157  1.00  0.00    -0.507 OA
ATOM     11  H   UNL     1      13.076  15.047  72.934  1.00  0.00     0.293 HD
ENDBRANCH   2  10
TORSDOF 2
ENDMDL
MODEL 8
REMARK VINA RESULT:    -4.643     16.131     16.778
REMARK INTER + INTRA:          -5.301
REMARK INTER:                  -5.059
REMARK INTRA:                  -0.243
REMARK UNBOUND:                -0.251
REMARK SMILES O=C([O-])c1ccccc1O
REMARK SMILES IDX 4 1 9 2 5 3 8 4 6 5 7 6 2 7 1 8 3 9 10 10
REMARK H PARENT 10 11
REMARK Flexibility Score: inf
ROOT
ATOM      1  C   UNL     1      11.827  14.637  70.071  1.00  0.00     0.039 A 
ATOM      2  C   UNL     1      12.517  13.525  69.534  1.00  0.00     0.124 A 
ATOM      3  C   UNL     1      10.496  14.869  69.667  1.00  0.00     0.014 A 
ATOM      4  C   UNL     1      11.874  12.677  68.618  1.00  0.00     0.047 A 
ATOM      5  C   UNL     1       9.869  14.017  68.754  1.00  0.00     0.001 A 
ATOM      6  C   UNL     1      10.556  12.924  68.230  1.00  0.00     0.004 A 
ENDROOT
BRANCH   1   7
ATOM      7  C   UNL     1      12.468  15.560  71.043  1.00  0.00     0.075 C 
ATOM      8  O   UNL     1      13.526  16.172  70.738  1.00  0.00    -0.545 OA
ATOM      9  O   UNL     1      11.919  15.769  72.303  1.00  0.00    -0.545 OA
ENDBRANCH   1   7
BRANCH   2  10
ATOM     10  O   UNL     1      13.834  13.255  69.904  1.00  0.00    -0.507 OA
ATOM     11  H   UNL     1      14.058  12.772  70.766  1.00  0.00     0.293 HD
ENDBRANCH   2  10
TORSDOF 2
ENDMDL
MODEL 9
REMARK VINA RESULT:    -4.564     16.339     17.064
REMARK INTER + INTRA:          -5.215
REMARK INTER:                  -4.967
REMARK INTRA:                  -0.248
REMARK UNBOUND:                -0.251
REMARK SMILES O=C([O-])c1ccccc1O
REMARK SMILES IDX 4 1 9 2 5 3 8 4 6 5 7 6 2 7 1 8 3 9 10 10
REMARK H PARENT 10 11
REMARK Flexibility Score: inf
ROOT
ATOM      1  C   UNL     1      12.148  15.310  68.914  1.00  0.00     0.039 A 
ATOM      2  C   UNL     1      11.900  13.935  69.138  1.00  0.00     0.124 A 
ATOM      3  C   UNL     1      11.979  16.213  69.983  1.00  0.00     0.014 A 
ATOM      4  C   UNL     1      11.494  13.495  70.408  1.00  0.00     0.047 A 
ATOM      5  C   UNL     1      11.574  15.761  71.242  1.00  0.00     0.001 A 
ATOM      6  C   UNL     1      11.332  14.405  71.454  1.00  0.00     0.004 A 
ENDROOT
BRANCH   1   7
ATOM      7  C   UNL     1      12.579  15.820  67.586  1.00  0.00     0.075 C 
ATOM      8  O   UNL     1      13.599  15.343  67.022  1.00  0.00    -0.545 OA
ATOM      9  O   UNL     1      11.871  16.827  66.941  1.00  0.00    -0.545 OA
ENDBRANCH   1   7
BRANCH   2  10
ATOM     10  O   UNL     1      12.054  13.005  68.111  1.00  0.00    -0.507 OA
ATOM     11  H   UNL     1      11.258  12.614  67.622  1.00  0.00     0.293 HD
ENDBRANCH   2  10
TORSDOF 2
ENDMDL
