MODEL 1
REMARK VINA RESULT:    -4.390      0.000      0.000
REMARK INTER + INTRA:          -5.759
REMARK INTER:                  -5.288
REMARK INTRA:                  -0.471
REMARK UNBOUND:                -0.471
REMARK SMILES NC(=O)C[C@H]([NH3+])C(=O)[O-]
REMARK SMILES IDX 4 1 5 2 6 3 7 7 8 8 9 9 2 10 3 11 1 12
REMARK H PARENT 6 4 6 5 6 6 1 13 1 14
REMARK Flexibility Score: inf
ROOT
ATOM      1  C   UNL     1       8.167   2.537  21.121  1.00  0.00     0.171 C 
ENDROOT
BRANCH   1   2
ATOM      2  C   UNL     1       9.061   1.381  21.612  1.00  0.00     0.237 C 
BRANCH   2   3
ATOM      3  N   UNL     1       8.996   0.227  20.704  1.00  0.00    -0.350 N 
ATOM      4  H   UNL     1       8.880  -0.655  21.253  1.00  0.00     0.345 HD
ATOM      5  H   UNL     1       8.169   0.321  20.071  1.00  0.00     0.345 HD
ATOM      6  H   UNL     1       9.866   0.161  20.126  1.00  0.00     0.345 HD
ENDBRANCH   2   3
BRANCH   2   7
ATOM      7  C   UNL     1       8.650   0.973  23.003  1.00  0.00     0.100 C 
ATOM      8  O   UNL     1       9.196  -0.011  23.568  1.00  0.00    -0.544 OA
ATOM      9  O   UNL     1       7.650   1.674  23.663  1.00  0.00    -0.544 OA
ENDBRANCH   2   7
ENDBRANCH   1   2
BRANCH   1  10
ATOM     10  C   UNL     1       6.990   2.032  20.337  1.00  0.00     0.223 C 
ATOM     11  O   UNL     1       7.108   1.812  19.102  1.00  0.00    -0.275 OA
ATOM     12  N   UNL     1       5.731   1.828  20.976  1.00  0.00    -0.369 N 
ATOM     13  H   UNL     1       5.616   2.017  21.997  1.00  0.00     0.159 HD
ATOM     14  H   UNL     1       4.910   1.489  20.428  1.00  0.00     0.159 HD
ENDBRANCH   1  10
TORSDOF 4
ENDMDL
MODEL 2
REMARK VINA RESULT:    -4.351      6.281      6.821
REMARK INTER + INTRA:          -5.712
REMARK INTER:                  -5.253
REMARK INTRA:                  -0.458
REMARK UNBOUND:                -0.471
REMARK SMILES NC(=O)C[C@H]([NH3+])C(=O)[O-]
REMARK SMILES IDX 4 1 5 2 6 3 7 7 8 8 9 9 2 10 3 11 1 12
REMARK H PARENT 6 4 6 5 6 6 1 13 1 14
REMARK Flexibility Score: inf
ROOT
ATOM      1  C   UNL     1       9.593   5.633  23.976  1.00  0.00     0.171 C 
ENDROOT
BRANCH   1   2
ATOM      2  C   UNL     1      11.043   5.567  24.498  1.00  0.00     0.237 C 
BRANCH   2   3
ATOM      3  N   UNL     1      11.083   5.301  25.943  1.00  0.00    -0.350 N 
ATOM      4  H   UNL     1      11.739   5.966  26.412  1.00  0.00     0.345 HD
ATOM      5  H   UNL     1      10.132   5.444  26.356  1.00  0.00     0.345 HD
ATOM      6  H   UNL     1      11.394   4.320  26.131  1.00  0.00     0.345 HD
ENDBRANCH   2   3
BRANCH   2   7
ATOM      7  C   UNL     1      11.756   6.857  24.186  1.00  0.00     0.100 C 
ATOM      8  O   UNL     1      12.993   6.861  23.947  1.00  0.00    -0.544 OA
ATOM      9  O   UNL     1      11.053   8.054  24.178  1.00  0.00    -0.544 OA
ENDBRANCH   2   7
ENDBRANCH   1   2
BRANCH   1  10
ATOM     10  C   UNL     1       8.623   5.955  25.075  1.00  0.00     0.223 C 
ATOM     11  O   UNL     1       8.003   5.024  25.657  1.00  0.00    -0.275 OA
ATOM     12  N   UNL     1       8.376   7.310  25.446  1.00  0.00    -0.369 N 
ATOM     13  H   UNL     1       8.873   8.093  24.965  1.00  0.00     0.159 HD
ATOM     14  H   UNL     1       7.691   7.534  26.202  1.00  0.00     0.159 HD
ENDBRANCH   1  10
TORSDOF 4
ENDMDL
MODEL 3
REMARK VINA RESULT:    -4.340      1.935      2.505
REMARK INTER + INTRA:          -5.699
REMARK INTER:                  -5.431
REMARK INTRA:                  -0.268
REMARK UNBOUND:                -0.471
REMARK SMILES NC(=O)C[C@H]([NH3+])C(=O)[O-]
REMARK SMILES IDX 4 1 5 2 6 3 7 7 8 8 9 9 2 10 3 11 1 12
REMARK H PARENT 6 4 6 5 6 6 1 13 1 14
REMARK Flexibility Score: inf
ROOT
ATOM      1  C   UNL     1       7.932   2.737  20.457  1.00  0.00     0.171 C 
ENDROOT
BRANCH   1   2
ATOM      2  C   UNL     1       7.103   1.912  21.462  1.00  0.00     0.237 C 
BRANCH   2   3
ATOM      3  N   UNL     1       5.686   1.861  21.076  1.00  0.00    -0.350 N 
ATOM      4  H   UNL     1       5.574   1.302  20.200  1.00  0.00     0.345 HD
ATOM      5  H   UNL     1       5.131   1.391  21.828  1.00  0.00     0.345 HD
ATOM      6  H   UNL     1       5.308   2.824  20.921  1.00  0.00     0.345 HD
ENDBRANCH   2   3
BRANCH   2   7
ATOM      7  C   UNL     1       7.246   2.497  22.843  1.00  0.00     0.100 C 
ATOM      8  O   UNL     1       6.342   2.332  23.703  1.00  0.00    -0.544 OA
ATOM      9  O   UNL     1       8.374   3.239  23.168  1.00  0.00    -0.544 OA
ENDBRANCH   2   7
ENDBRANCH   1   2
BRANCH   1  10
ATOM     10  C   UNL     1       7.548   2.432  19.039  1.00  0.00     0.223 C 
ATOM     11  O   UNL     1       6.796   3.223  18.409  1.00  0.00    -0.275 OA
ATOM     12  N   UNL     1       8.004   1.236  18.409  1.00  0.00    -0.369 N 
ATOM     13  H   UNL     1       8.619   0.565  18.922  1.00  0.00     0.159 HD
ATOM     14  H   UNL     1       7.726   1.019  17.426  1.00  0.00     0.159 HD
ENDBRANCH   1  10
TORSDOF 4
ENDMDL
MODEL 4
REMARK VINA RESULT:    -4.340      5.765      6.591
REMARK INTER + INTRA:          -5.699
REMARK INTER:                  -5.233
REMARK INTRA:                  -0.466
REMARK UNBOUND:                -0.471
REMARK SMILES NC(=O)C[C@H]([NH3+])C(=O)[O-]
REMARK SMILES IDX 4 1 5 2 6 3 7 7 8 8 9 9 2 10 3 11 1 12
REMARK H PARENT 6 4 6 5 6 6 1 13 1 14
REMARK Flexibility Score: inf
ROOT
ATOM      1  C   UNL     1       9.682   5.625  24.123  1.00  0.00     0.171 C 
ENDROOT
BRANCH   1   2
ATOM      2  C   UNL     1       8.329   6.119  24.675  1.00  0.00     0.237 C 
BRANCH   2   3
ATOM      3  N   UNL     1       8.489   7.340  25.476  1.00  0.00    -0.350 N 
ATOM      4  H   UNL     1       8.315   8.183  24.882  1.00  0.00     0.345 HD
ATOM      5  H   UNL     1       7.790   7.348  26.254  1.00  0.00     0.345 HD
ATOM      6  H   UNL     1       9.452   7.396  25.880  1.00  0.00     0.345 HD
ENDBRANCH   2   3
BRANCH   2   7
ATOM      7  C   UNL     1       7.688   5.034  25.500  1.00  0.00     0.100 C 
ATOM      8  O   UNL     1       8.265   3.925  25.656  1.00  0.00    -0.544 OA
ATOM      9  O   UNL     1       6.445   5.248  26.079  1.00  0.00    -0.544 OA
ENDBRANCH   2   7
ENDBRANCH   1   2
BRANCH   1  10
ATOM     10  C   UNL     1      10.825   6.043  25.002  1.00  0.00     0.223 C 
ATOM     11  O   UNL     1      11.398   7.147  24.802  1.00  0.00    -0.275 OA
ATOM     12  N   UNL     1      11.285   5.185  26.044  1.00  0.00    -0.369 N 
ATOM     13  H   UNL     1      10.826   4.262  26.215  1.00  0.00     0.159 HD
ATOM     14  H   UNL     1      12.088   5.471  26.648  1.00  0.00     0.159 HD
ENDBRANCH   1  10
TORSDOF 4
ENDMDL
MODEL 5
REMARK VINA RESULT:    -4.314      1.005      4.089
REMARK INTER + INTRA:          -5.667
REMARK INTER:                  -5.203
REMARK INTRA:                  -0.464
REMARK UNBOUND:                -0.471
REMARK SMILES NC(=O)C[C@H]([NH3+])C(=O)[O-]
REMARK SMILES IDX 4 1 5 2 6 3 7 7 8 8 9 9 2 10 3 11 1 12
REMARK H PARENT 6 4 6 5 6 6 1 13 1 14
REMARK Flexibility Score: inf
ROOT
ATOM      1  C   UNL     1       8.318   2.638  21.143  1.00  0.00     0.171 C 
ENDROOT
BRANCH   1   2
ATOM      2  C   UNL     1       6.928   2.751  20.485  1.00  0.00     0.237 C 
BRANCH   2   3
ATOM      3  N   UNL     1       5.995   1.752  21.026  1.00  0.00    -0.350 N 
ATOM      4  H   UNL     1       6.457   0.816  21.067  1.00  0.00     0.345 HD
ATOM      5  H   UNL     1       5.719   2.016  22.000  1.00  0.00     0.345 HD
ATOM      6  H   UNL     1       5.136   1.687  20.432  1.00  0.00     0.345 HD
ENDBRANCH   2   3
BRANCH   2   7
ATOM      7  C   UNL     1       7.056   2.591  18.993  1.00  0.00     0.100 C 
ATOM      8  O   UNL     1       6.342   3.276  18.214  1.00  0.00    -0.544 OA
ATOM      9  O   UNL     1       7.953   1.670  18.469  1.00  0.00    -0.544 OA
ENDBRANCH   2   7
ENDBRANCH   1   2
BRANCH   1  10
ATOM     10  C   UNL     1       8.545   1.275  21.729  1.00  0.00     0.223 C 
ATOM     11  O   UNL     1       8.323   1.074  22.953  1.00  0.00    -0.275 OA
ATOM     12  N   UNL     1       9.040   0.213  20.915  1.00  0.00    -0.369 N 
ATOM     13  H   UNL     1       9.239   0.368  19.901  1.00  0.00     0.159 HD
ATOM     14  H   UNL     1       9.209  -0.732  21.326  1.00  0.00     0.159 HD
ENDBRANCH   1  10
TORSDOF 4
ENDMDL
MODEL 6
REMARK VINA RESULT:    -4.299      5.916      6.421
REMARK INTER + INTRA:          -5.649
REMARK INTER:                  -5.359
REMARK INTRA:                  -0.290
REMARK UNBOUND:                -0.471
REMARK SMILES NC(=O)C[C@H]([NH3+])C(=O)[O-]
REMARK SMILES IDX 4 1 5 2 6 3 7 7 8 8 9 9 2 10 3 11 1 12
REMARK H PARENT 6 4 6 5 6 6 1 13 1 14
REMARK Flexibility Score: inf
ROOT
ATOM      1  C   UNL     1      10.351   6.072  23.958  1.00  0.00     0.171 C 
ENDROOT
BRANCH   1   2
ATOM      2  C   UNL     1      10.082   5.313  25.273  1.00  0.00     0.237 C 
BRANCH   2   3
ATOM      3  N   UNL     1      11.320   5.104  26.036  1.00  0.00    -0.350 N 
ATOM      4  H   UNL     1      11.108   5.060  27.059  1.00  0.00     0.345 HD
ATOM      5  H   UNL     1      11.757   4.194  25.761  1.00  0.00     0.345 HD
ATOM      6  H   UNL     1      12.001   5.879  25.859  1.00  0.00     0.345 HD
ENDBRANCH   2   3
BRANCH   2   7
ATOM      7  C   UNL     1       9.425   3.991  24.973  1.00  0.00     0.100 C 
ATOM      8  O   UNL     1       9.361   3.095  25.856  1.00  0.00    -0.544 OA
ATOM      9  O   UNL     1       8.902   3.748  23.711  1.00  0.00    -0.544 OA
ENDBRANCH   2   7
ENDBRANCH   1   2
BRANCH   1  10
ATOM     10  C   UNL     1      11.372   7.156  24.143  1.00  0.00     0.223 C 
ATOM     11  O   UNL     1      12.595   6.903  23.973  1.00  0.00    -0.275 OA
ATOM     12  N   UNL     1      10.969   8.467  24.540  1.00  0.00    -0.369 N 
ATOM     13  H   UNL     1       9.960   8.689  24.695  1.00  0.00     0.159 HD
ATOM     14  H   UNL     1      11.681   9.218  24.680  1.00  0.00     0.159 HD
ENDBRANCH   1  10
TORSDOF 4
ENDMDL
MODEL 7
REMARK VINA RESULT:    -4.191      6.614      7.332
REMARK INTER + INTRA:          -5.519
REMARK INTER:                  -5.301
REMARK INTRA:                  -0.218
REMARK UNBOUND:                -0.471
REMARK SMILES NC(=O)C[C@H]([NH3+])C(=O)[O-]
REMARK SMILES IDX 4 1 5 2 6 3 7 7 8 8 9 9 2 10 3 11 1 12
REMARK H PARENT 6 4 6 5 6 6 1 13 1 14
REMARK Flexibility Score: inf
ROOT
ATOM      1  C   UNL     1      10.155   6.266  24.328  1.00  0.00     0.171 C 
ENDROOT
BRANCH   1   2
ATOM      2  C   UNL     1      11.420   7.147  24.360  1.00  0.00     0.237 C 
BRANCH   2   3
ATOM      3  N   UNL     1      11.100   8.557  24.096  1.00  0.00    -0.350 N 
ATOM      4  H   UNL     1      10.071   8.714  24.188  1.00  0.00     0.345 HD
ATOM      5  H   UNL     1      11.581   9.166  24.798  1.00  0.00     0.345 HD
ATOM      6  H   UNL     1      11.407   8.833  23.135  1.00  0.00     0.345 HD
ENDBRANCH   2   3
BRANCH   2   7
ATOM      7  C   UNL     1      12.419   6.641  23.352  1.00  0.00     0.100 C 
ATOM      8  O   UNL     1      12.356   7.011  22.150  1.00  0.00    -0.544 OA
ATOM      9  O   UNL     1      13.406   5.747  23.743  1.00  0.00    -0.544 OA
ENDBRANCH   2   7
ENDBRANCH   1   2
BRANCH   1  10
ATOM     10  C   UNL     1      10.220   5.166  25.347  1.00  0.00     0.223 C 
ATOM     11  O   UNL     1       9.223   4.415  25.524  1.00  0.00    -0.275 OA
ATOM     12  N   UNL     1      11.393   4.983  26.137  1.00  0.00    -0.369 N 
ATOM     13  H   UNL     1      12.224   5.604  26.010  1.00  0.00     0.159 HD
ATOM     14  H   UNL     1      11.434   4.224  26.854  1.00  0.00     0.159 HD
ENDBRANCH   1  10
TORSDOF 4
ENDMDL
MODEL 8
REMARK VINA RESULT:    -4.050      1.858      4.125
REMARK INTER + INTRA:          -5.349
REMARK INTER:                  -5.334
REMARK INTRA:                  -0.016
REMARK UNBOUND:                -0.471
REMARK SMILES NC(=O)C[C@H]([NH3+])C(=O)[O-]
REMARK SMILES IDX 4 1 5 2 6 3 7 7 8 8 9 9 2 10 3 11 1 12
REMARK H PARENT 6 4 6 5 6 6 1 13 1 14
REMARK Flexibility Score: inf
ROOT
ATOM      1  C   UNL     1       8.690   2.253  20.437  1.00  0.00     0.171 C 
ENDROOT
BRANCH   1   2
ATOM      2  C   UNL     1       7.582   2.173  19.367  1.00  0.00     0.237 C 
BRANCH   2   3
ATOM      3  N   UNL     1       7.957   1.268  18.272  1.00  0.00    -0.350 N 
ATOM      4  H   UNL     1       8.271   0.349  18.658  1.00  0.00     0.345 HD
ATOM      5  H   UNL     1       7.127   1.091  17.659  1.00  0.00     0.345 HD
ATOM      6  H   UNL     1       8.727   1.681  17.696  1.00  0.00     0.345 HD
ENDBRANCH   2   3
BRANCH   2   7
ATOM      7  C   UNL     1       7.292   3.550  18.830  1.00  0.00     0.100 C 
ATOM      8  O   UNL     1       8.233   4.307  18.472  1.00  0.00    -0.544 OA
ATOM      9  O   UNL     1       5.981   3.999  18.745  1.00  0.00    -0.544 OA
ENDBRANCH   2   7
ENDBRANCH   1   2
BRANCH   1  10
ATOM     10  C   UNL     1       8.567   1.149  21.446  1.00  0.00     0.223 C 
ATOM     11  O   UNL     1       8.097   1.393  22.589  1.00  0.00    -0.275 OA
ATOM     12  N   UNL     1       9.006  -0.171  21.128  1.00  0.00    -0.369 N 
ATOM     13  H   UNL     1       9.408  -0.387  20.188  1.00  0.00     0.159 HD
ATOM     14  H   UNL     1       8.931  -0.936  21.835  1.00  0.00     0.159 HD
ENDBRANCH   1  10
TORSDOF 4
ENDMDL
MODEL 9
REMARK VINA RESULT:    -4.045      2.639      3.125
REMARK INTER + INTRA:          -5.343
REMARK INTER:                  -5.252
REMARK INTRA:                  -0.091
REMARK UNBOUND:                -0.471
REMARK SMILES NC(=O)C[C@H]([NH3+])C(=O)[O-]
REMARK SMILES IDX 4 1 5 2 6 3 7 7 8 8 9 9 2 10 3 11 1 12
REMARK H PARENT 6 4 6 5 6 6 1 13 1 14
REMARK Flexibility Score: inf
ROOT
ATOM      1  C   UNL     1       6.477   2.904  19.500  1.00  0.00     0.171 C 
ENDROOT
BRANCH   1   2
ATOM      2  C   UNL     1       7.940   2.490  19.246  1.00  0.00     0.237 C 
BRANCH   2   3
ATOM      3  N   UNL     1       8.020   1.247  18.466  1.00  0.00    -0.350 N 
ATOM      4  H   UNL     1       7.117   1.080  17.966  1.00  0.00     0.345 HD
ATOM      5  H   UNL     1       8.774   1.329  17.745  1.00  0.00     0.345 HD
ATOM      6  H   UNL     1       8.226   0.431  19.087  1.00  0.00     0.345 HD
ENDBRANCH   2   3
BRANCH   2   7
ATOM      7  C   UNL     1       8.660   2.328  20.560  1.00  0.00     0.100 C 
ATOM      8  O   UNL     1       8.890   3.328  21.289  1.00  0.00    -0.544 OA
ATOM      9  O   UNL     1       9.090   1.071  20.964  1.00  0.00    -0.544 OA
ENDBRANCH   2   7
ENDBRANCH   1   2
BRANCH   1  10
ATOM     10  C   UNL     1       6.004   3.912  18.494  1.00  0.00     0.223 C 
ATOM     11  O   UNL     1       6.682   4.953  18.282  1.00  0.00    -0.275 OA
ATOM     12  N   UNL     1       4.775   3.714  17.797  1.00  0.00    -0.369 N 
ATOM     13  H   UNL     1       4.196   2.861  17.970  1.00  0.00     0.159 HD
ATOM     14  H   UNL     1       4.440   4.422  17.106  1.00  0.00     0.159 HD
ENDBRANCH   1  10
TORSDOF 4
ENDMDL
