MODEL 1
REMARK VINA RESULT:    -5.711      0.000      0.000
REMARK INTER + INTRA:          -6.699
REMARK INTER:                  -6.545
REMARK INTRA:                  -0.154
REMARK UNBOUND:                -0.154
REMARK SMILES O=C([O-])C=Cc1ccc(O)cc1
REMARK SMILES IDX 6 1 7 2 12 3 8 4 11 5 9 6 5 7 4 8 2 9 1 10 3 11 10 12
REMARK H PARENT 10 13
REMARK Flexibility Score: inf
ROOT
ATOM      1  C   UNL     1      27.373   6.830  17.867  1.00  0.00    -0.025 A 
ATOM      2  C   UNL     1      26.742   7.507  16.809  1.00  0.00     0.012 A 
ATOM      3  C   UNL     1      27.000   5.499  18.142  1.00  0.00     0.012 A 
ATOM      4  C   UNL     1      25.742   6.879  16.059  1.00  0.00     0.047 A 
ATOM      5  C   UNL     1      26.000   4.875  17.389  1.00  0.00     0.047 A 
ATOM      6  C   UNL     1      25.367   5.561  16.349  1.00  0.00     0.115 A 
ENDROOT
BRANCH   1   7
ATOM      7  C   UNL     1      28.435   7.536  18.627  1.00  0.00     0.010 C 
ATOM      8  C   UNL     1      28.929   8.733  18.279  1.00  0.00     0.025 C 
BRANCH   8   9
ATOM      9  C   UNL     1      29.992   9.398  19.051  1.00  0.00     0.064 C 
ATOM     10  O   UNL     1      30.326   8.984  20.193  1.00  0.00    -0.545 OA
ATOM     11  O   UNL     1      30.636  10.504  18.512  1.00  0.00    -0.545 OA
ENDBRANCH   8   9
ENDBRANCH   1   7
BRANCH   6  12
ATOM     12  O   UNL     1      24.373   4.926  15.609  1.00  0.00    -0.508 OA
ATOM     13  H   UNL     1      23.435   4.809  15.972  1.00  0.00     0.293 HD
ENDBRANCH   6  12
TORSDOF 3
ENDMDL
MODEL 2
REMARK VINA RESULT:    -5.330      2.552      3.107
REMARK INTER + INTRA:          -6.263
REMARK INTER:                  -6.112
REMARK INTRA:                  -0.151
REMARK UNBOUND:                -0.154
REMARK SMILES O=C([O-])C=Cc1ccc(O)cc1
REMARK SMILES IDX 6 1 7 2 12 3 8 4 11 5 9 6 5 7 4 8 2 9 1 10 3 11 10 12
REMARK H PARENT 10 13
REMARK Flexibility Score: inf
ROOT
ATOM      1  C   UNL     1      28.464   5.915  19.317  1.00  0.00    -0.025 A 
ATOM      2  C   UNL     1      28.409   7.163  18.673  1.00  0.00     0.012 A 
ATOM      3  C   UNL     1      27.575   4.900  18.910  1.00  0.00     0.012 A 
ATOM      4  C   UNL     1      27.470   7.403  17.665  1.00  0.00     0.047 A 
ATOM      5  C   UNL     1      26.638   5.144  17.901  1.00  0.00     0.047 A 
ATOM      6  C   UNL     1      26.580   6.393  17.278  1.00  0.00     0.115 A 
ENDROOT
BRANCH   1   7
ATOM      7  C   UNL     1      29.486   5.707  20.374  1.00  0.00     0.010 C 
ATOM      8  C   UNL     1      29.990   6.695  21.127  1.00  0.00     0.025 C 
BRANCH   8   9
ATOM      9  C   UNL     1      31.011   6.452  22.160  1.00  0.00     0.064 C 
ATOM     10  O   UNL     1      31.564   5.325  22.279  1.00  0.00    -0.545 OA
ATOM     11  O   UNL     1      31.370   7.482  23.019  1.00  0.00    -0.545 OA
ENDBRANCH   8   9
ENDBRANCH   1   7
BRANCH   6  12
ATOM     12  O   UNL     1      25.641   6.620  16.275  1.00  0.00    -0.508 OA
ATOM     13  H   UNL     1      25.173   7.513  16.180  1.00  0.00     0.293 HD
ENDBRANCH   6  12
TORSDOF 3
ENDMDL
MODEL 3
REMARK VINA RESULT:    -5.306      1.636      5.652
REMARK INTER + INTRA:          -6.235
REMARK INTER:                  -6.096
REMARK INTRA:                  -0.139
REMARK UNBOUND:                -0.154
REMARK SMILES O=C([O-])C=Cc1ccc(O)cc1
REMARK SMILES IDX 6 1 7 2 12 3 8 4 11 5 9 6 5 7 4 8 2 9 1 10 3 11 10 12
REMARK H PARENT 10 13
REMARK Flexibility Score: inf
ROOT
ATOM      1  C   UNL     1      27.700   6.930  18.200  1.00  0.00    -0.025 A 
ATOM      2  C   UNL     1      28.415   8.124  18.395  1.00  0.00     0.012 A 
ATOM      3  C   UNL     1      27.953   5.839  19.057  1.00  0.00     0.012 A 
ATOM      4  C   UNL     1      29.379   8.220  19.403  1.00  0.00     0.047 A 
ATOM      5  C   UNL     1      28.918   5.940  20.064  1.00  0.00     0.047 A 
ATOM      6  C   UNL     1      29.635   7.127  20.240  1.00  0.00     0.115 A 
ENDROOT
BRANCH   1   7
ATOM      7  C   UNL     1      26.680   6.881  17.123  1.00  0.00     0.010 C 
ATOM      8  C   UNL     1      26.090   5.751  16.708  1.00  0.00     0.025 C 
BRANCH   8   9
ATOM      9  C   UNL     1      25.090   5.739  15.627  1.00  0.00     0.064 C 
ATOM     10  O   UNL     1      25.290   6.355  14.545  1.00  0.00    -0.545 OA
ATOM     11  O   UNL     1      23.903   5.039  15.803  1.00  0.00    -0.545 OA
ENDBRANCH   8   9
ENDBRANCH   1   7
BRANCH   6  12
ATOM     12  O   UNL     1      30.592   7.211  21.247  1.00  0.00    -0.508 OA
ATOM     13  H   UNL     1      30.330   7.278  22.223  1.00  0.00     0.293 HD
ENDBRANCH   6  12
TORSDOF 3
ENDMDL
MODEL 4
REMARK VINA RESULT:    -5.306      1.658      5.711
REMARK INTER + INTRA:          -6.235
REMARK INTER:                  -6.082
REMARK INTRA:                  -0.153
REMARK UNBOUND:                -0.154
REMARK SMILES O=C([O-])C=Cc1ccc(O)cc1
REMARK SMILES IDX 6 1 7 2 12 3 8 4 11 5 9 6 5 7 4 8 2 9 1 10 3 11 10 12
REMARK H PARENT 10 13
REMARK Flexibility Score: inf
ROOT
ATOM      1  C   UNL     1      27.960   7.138  18.331  1.00  0.00    -0.025 A 
ATOM      2  C   UNL     1      28.183   6.003  19.130  1.00  0.00     0.012 A 
ATOM      3  C   UNL     1      28.693   8.312  18.600  1.00  0.00     0.012 A 
ATOM      4  C   UNL     1      29.095   6.046  20.189  1.00  0.00     0.047 A 
ATOM      5  C   UNL     1      29.604   8.350  19.660  1.00  0.00     0.047 A 
ATOM      6  C   UNL     1      29.807   7.221  20.458  1.00  0.00     0.115 A 
ENDROOT
BRANCH   1   7
ATOM      7  C   UNL     1      26.989   7.040  17.213  1.00  0.00     0.010 C 
ATOM      8  C   UNL     1      26.245   5.952  16.968  1.00  0.00     0.025 C 
BRANCH   8   9
ATOM      9  C   UNL     1      25.299   5.886  15.841  1.00  0.00     0.064 C 
ATOM     10  O   UNL     1      24.293   5.127  15.875  1.00  0.00    -0.545 OA
ATOM     11  O   UNL     1      25.520   6.674  14.718  1.00  0.00    -0.545 OA
ENDBRANCH   8   9
ENDBRANCH   1   7
BRANCH   6  12
ATOM     12  O   UNL     1      30.719   7.275  21.509  1.00  0.00    -0.508 OA
ATOM     13  H   UNL     1      30.443   7.582  22.434  1.00  0.00     0.293 HD
ENDBRANCH   6  12
TORSDOF 3
ENDMDL
MODEL 5
REMARK VINA RESULT:    -5.263      1.641      5.702
REMARK INTER + INTRA:          -6.186
REMARK INTER:                  -6.043
REMARK INTRA:                  -0.143
REMARK UNBOUND:                -0.154
REMARK SMILES O=C([O-])C=Cc1ccc(O)cc1
REMARK SMILES IDX 6 1 7 2 12 3 8 4 11 5 9 6 5 7 4 8 2 9 1 10 3 11 10 12
REMARK H PARENT 10 13
REMARK Flexibility Score: inf
ROOT
ATOM      1  C   UNL     1      28.519   7.524  18.642  1.00  0.00    -0.025 A 
ATOM      2  C   UNL     1      29.161   8.754  18.862  1.00  0.00     0.012 A 
ATOM      3  C   UNL     1      28.736   6.471  19.554  1.00  0.00     0.012 A 
ATOM      4  C   UNL     1      30.021   8.923  19.951  1.00  0.00     0.047 A 
ATOM      5  C   UNL     1      29.597   6.644  20.642  1.00  0.00     0.047 A 
ATOM      6  C   UNL     1      30.243   7.867  20.844  1.00  0.00     0.115 A 
ENDROOT
BRANCH   1   7
ATOM      7  C   UNL     1      27.607   7.397  17.477  1.00  0.00     0.010 C 
ATOM      8  C   UNL     1      26.611   6.503  17.405  1.00  0.00     0.025 C 
BRANCH   8   9
ATOM      9  C   UNL     1      25.734   6.399  16.227  1.00  0.00     0.064 C 
ATOM     10  O   UNL     1      25.813   7.224  15.278  1.00  0.00    -0.545 OA
ATOM     11  O   UNL     1      24.799   5.373  16.161  1.00  0.00    -0.545 OA
ENDBRANCH   8   9
ENDBRANCH   1   7
BRANCH   6  12
ATOM     12  O   UNL     1      31.098   8.024  21.932  1.00  0.00    -0.508 OA
ATOM     13  H   UNL     1      30.863   7.658  22.846  1.00  0.00     0.293 HD
ENDBRANCH   6  12
TORSDOF 3
ENDMDL
MODEL 6
REMARK VINA RESULT:    -4.660      4.112      6.665
REMARK INTER + INTRA:          -5.494
REMARK INTER:                  -5.351
REMARK INTRA:                  -0.143
REMARK UNBOUND:                -0.154
REMARK SMILES O=C([O-])C=Cc1ccc(O)cc1
REMARK SMILES IDX 6 1 7 2 12 3 8 4 11 5 9 6 5 7 4 8 2 9 1 10 3 11 10 12
REMARK H PARENT 10 13
REMARK Flexibility Score: inf
ROOT
ATOM      1  C   UNL     1      30.374   7.147  21.731  1.00  0.00    -0.025 A 
ATOM      2  C   UNL     1      30.663   5.782  21.900  1.00  0.00     0.012 A 
ATOM      3  C   UNL     1      30.559   8.022  22.821  1.00  0.00     0.012 A 
ATOM      4  C   UNL     1      31.100   5.296  23.136  1.00  0.00     0.047 A 
ATOM      5  C   UNL     1      30.997   7.530  24.055  1.00  0.00     0.047 A 
ATOM      6  C   UNL     1      31.266   6.169  24.218  1.00  0.00     0.115 A 
ENDROOT
BRANCH   1   7
ATOM      7  C   UNL     1      29.923   7.616  20.396  1.00  0.00     0.010 C 
ATOM      8  C   UNL     1      30.080   8.873  19.957  1.00  0.00     0.025 C 
BRANCH   8   9
ATOM      9  C   UNL     1      29.608   9.306  18.631  1.00  0.00     0.064 C 
ATOM     10  O   UNL     1      28.780   8.617  17.975  1.00  0.00    -0.545 OA
ATOM     11  O   UNL     1      30.086  10.493  18.091  1.00  0.00    -0.545 OA
ENDBRANCH   8   9
ENDBRANCH   1   7
BRANCH   6  12
ATOM     12  O   UNL     1      31.701   5.696  25.453  1.00  0.00    -0.508 OA
ATOM     13  H   UNL     1      31.671   4.710  25.683  1.00  0.00     0.293 HD
ENDBRANCH   6  12
TORSDOF 3
ENDMDL
MODEL 7
REMARK VINA RESULT:    -4.651      4.187      6.671
REMARK INTER + INTRA:          -5.484
REMARK INTER:                  -5.333
REMARK INTRA:                  -0.151
REMARK UNBOUND:                -0.154
REMARK SMILES O=C([O-])C=Cc1ccc(O)cc1
REMARK SMILES IDX 6 1 7 2 12 3 8 4 11 5 9 6 5 7 4 8 2 9 1 10 3 11 10 12
REMARK H PARENT 10 13
REMARK Flexibility Score: inf
ROOT
ATOM      1  C   UNL     1      30.415   7.012  21.773  1.00  0.00    -0.025 A 
ATOM      2  C   UNL     1      30.625   7.935  22.811  1.00  0.00     0.012 A 
ATOM      3  C   UNL     1      30.627   5.642  22.028  1.00  0.00     0.012 A 
ATOM      4  C   UNL     1      31.062   7.505  24.068  1.00  0.00     0.047 A 
ATOM      5  C   UNL     1      31.063   5.216  23.287  1.00  0.00     0.047 A 
ATOM      6  C   UNL     1      31.283   6.143  24.308  1.00  0.00     0.115 A 
ENDROOT
BRANCH   1   7
ATOM      7  C   UNL     1      29.943   7.517  20.459  1.00  0.00     0.010 C 
ATOM      8  C   UNL     1      30.093   8.785  20.052  1.00  0.00     0.025 C 
BRANCH   8   9
ATOM      9  C   UNL     1      29.600   9.254  18.745  1.00  0.00     0.064 C 
ATOM     10  O   UNL     1      30.067  10.293  18.205  1.00  0.00    -0.545 OA
ATOM     11  O   UNL     1      28.601   8.539  18.097  1.00  0.00    -0.545 OA
ENDBRANCH   8   9
ENDBRANCH   1   7
BRANCH   6  12
ATOM     12  O   UNL     1      31.718   5.703  25.556  1.00  0.00    -0.508 OA
ATOM     13  H   UNL     1      32.308   4.886  25.654  1.00  0.00     0.293 HD
ENDBRANCH   6  12
TORSDOF 3
ENDMDL
MODEL 8
REMARK VINA RESULT:    -4.639      3.346      4.361
REMARK INTER + INTRA:          -5.471
REMARK INTER:                  -5.332
REMARK INTRA:                  -0.139
REMARK UNBOUND:                -0.154
REMARK SMILES O=C([O-])C=Cc1ccc(O)cc1
REMARK SMILES IDX 6 1 7 2 12 3 8 4 11 5 9 6 5 7 4 8 2 9 1 10 3 11 10 12
REMARK H PARENT 10 13
REMARK Flexibility Score: inf
ROOT
ATOM      1  C   UNL     1      29.462   6.859  20.086  1.00  0.00    -0.025 A 
ATOM      2  C   UNL     1      28.627   5.780  19.749  1.00  0.00     0.012 A 
ATOM      3  C   UNL     1      29.359   8.056  19.349  1.00  0.00     0.012 A 
ATOM      4  C   UNL     1      27.728   5.883  18.682  1.00  0.00     0.047 A 
ATOM      5  C   UNL     1      28.458   8.154  18.284  1.00  0.00     0.047 A 
ATOM      6  C   UNL     1      27.643   7.071  17.946  1.00  0.00     0.115 A 
ENDROOT
BRANCH   1   7
ATOM      7  C   UNL     1      30.393   6.704  21.233  1.00  0.00     0.010 C 
ATOM      8  C   UNL     1      29.993   6.445  22.486  1.00  0.00     0.025 C 
BRANCH   8   9
ATOM      9  C   UNL     1      30.945   6.309  23.601  1.00  0.00     0.064 C 
ATOM     10  O   UNL     1      31.148   5.195  24.155  1.00  0.00    -0.545 OA
ATOM     11  O   UNL     1      31.631   7.429  24.053  1.00  0.00    -0.545 OA
ENDBRANCH   8   9
ENDBRANCH   1   7
BRANCH   6  12
ATOM     12  O   UNL     1      26.751   7.185  16.882  1.00  0.00    -0.508 OA
ATOM     13  H   UNL     1      26.900   7.853  16.136  1.00  0.00     0.293 HD
ENDBRANCH   6  12
TORSDOF 3
ENDMDL
