MODEL 1
REMARK VINA RESULT:    -4.435      0.000      0.000
REMARK INTER + INTRA:          -5.321
REMARK INTER:                  -5.213
REMARK INTRA:                  -0.109
REMARK UNBOUND:                -0.109
REMARK SMILES O=C([O-])CCC(=O)[O-]
REMARK SMILES IDX 4 1 2 2 1 3 3 4 5 5 6 6 7 7 8 8
REMARK H PARENT
REMARK Flexibility Score: inf
ROOT
ATOM      1  C   UNL     1      79.217  -1.103  25.920  1.00  0.00     0.059 C 
ENDROOT
BRANCH   1   2
ATOM      2  C   UNL     1      79.481  -2.565  26.107  1.00  0.00     0.042 C 
ATOM      3  O   UNL     1      79.266  -3.108  27.223  1.00  0.00    -0.550 OA
ATOM      4  O   UNL     1      79.924  -3.336  25.041  1.00  0.00    -0.550 OA
ENDBRANCH   1   2
BRANCH   1   5
ATOM      5  C   UNL     1      77.748  -0.831  25.580  1.00  0.00     0.059 C 
BRANCH   5   6
ATOM      6  C   UNL     1      77.500  -0.902  24.104  1.00  0.00     0.042 C 
ATOM      7  O   UNL     1      77.562   0.140  23.400  1.00  0.00    -0.550 OA
ATOM      8  O   UNL     1      77.241  -2.127  23.499  1.00  0.00    -0.550 OA
ENDBRANCH   5   6
ENDBRANCH   1   5
TORSDOF 3
ENDMDL
MODEL 2
REMARK VINA RESULT:    -4.418      0.076      3.604
REMARK INTER + INTRA:          -5.302
REMARK INTER:                  -5.213
REMARK INTRA:                  -0.088
REMARK UNBOUND:                -0.109
REMARK SMILES O=C([O-])CCC(=O)[O-]
REMARK SMILES IDX 4 1 2 2 1 3 3 4 5 5 6 6 7 7 8 8
REMARK H PARENT
REMARK Flexibility Score: inf
ROOT
ATOM      1  C   UNL     1      77.743  -0.735  25.588  1.00  0.00     0.059 C 
ENDROOT
BRANCH   1   2
ATOM      2  C   UNL     1      77.484  -0.835  24.116  1.00  0.00     0.042 C 
ATOM      3  O   UNL     1      77.528   0.195  23.395  1.00  0.00    -0.550 OA
ATOM      4  O   UNL     1      77.234  -2.072  23.536  1.00  0.00    -0.550 OA
ENDBRANCH   1   2
BRANCH   1   5
ATOM      5  C   UNL     1      79.207  -1.034  25.927  1.00  0.00     0.059 C 
BRANCH   5   6
ATOM      6  C   UNL     1      79.441  -2.502  26.114  1.00  0.00     0.042 C 
ATOM      7  O   UNL     1      79.201  -3.046  27.223  1.00  0.00    -0.550 OA
ATOM      8  O   UNL     1      79.888  -3.277  25.050  1.00  0.00    -0.550 OA
ENDBRANCH   5   6
ENDBRANCH   1   5
TORSDOF 3
ENDMDL
MODEL 3
REMARK VINA RESULT:    -3.804      1.888      3.490
REMARK INTER + INTRA:          -4.579
REMARK INTER:                  -4.656
REMARK INTRA:                   0.077
REMARK UNBOUND:                -0.109
REMARK SMILES O=C([O-])CCC(=O)[O-]
REMARK SMILES IDX 4 1 2 2 1 3 3 4 5 5 6 6 7 7 8 8
REMARK H PARENT
REMARK Flexibility Score: inf
ROOT
ATOM      1  C   UNL     1      77.667  -1.683  25.502  1.00  0.00     0.059 C 
ENDROOT
BRANCH   1   2
ATOM      2  C   UNL     1      77.527  -1.357  24.047  1.00  0.00     0.042 C 
ATOM      3  O   UNL     1      77.394  -2.281  23.202  1.00  0.00    -0.550 OA
ATOM      4  O   UNL     1      77.503  -0.033  23.629  1.00  0.00    -0.550 OA
ENDBRANCH   1   2
BRANCH   1   5
ATOM      5  C   UNL     1      79.101  -1.463  25.997  1.00  0.00     0.059 C 
BRANCH   5   6
ATOM      6  C   UNL     1      79.418  -0.005  26.138  1.00  0.00     0.042 C 
ATOM      7  O   UNL     1      80.166   0.565  25.302  1.00  0.00    -0.550 OA
ATOM      8  O   UNL     1      78.853   0.733  27.172  1.00  0.00    -0.550 OA
ENDBRANCH   5   6
ENDBRANCH   1   5
TORSDOF 3
ENDMDL
MODEL 4
REMARK VINA RESULT:    -3.754      2.095      3.013
REMARK INTER + INTRA:          -4.521
REMARK INTER:                  -4.668
REMARK INTRA:                   0.147
REMARK UNBOUND:                -0.109
REMARK SMILES O=C([O-])CCC(=O)[O-]
REMARK SMILES IDX 4 1 2 2 1 3 3 4 5 5 6 6 7 7 8 8
REMARK H PARENT
REMARK Flexibility Score: inf
ROOT
ATOM      1  C   UNL     1      78.932  -2.319  26.457  1.00  0.00     0.059 C 
ENDROOT
BRANCH   1   2
ATOM      2  C   UNL     1      77.503  -1.891  26.324  1.00  0.00     0.042 C 
ATOM      3  O   UNL     1      76.831  -2.236  25.317  1.00  0.00    -0.550 OA
ATOM      4  O   UNL     1      76.902  -1.146  27.330  1.00  0.00    -0.550 OA
ENDBRANCH   1   2
BRANCH   1   5
ATOM      5  C   UNL     1      79.837  -1.592  25.457  1.00  0.00     0.059 C 
BRANCH   5   6
ATOM      6  C   UNL     1      79.477  -0.143  25.339  1.00  0.00     0.042 C 
ATOM      7  O   UNL     1      78.678   0.242  24.445  1.00  0.00    -0.550 OA
ATOM      8  O   UNL     1      79.992   0.778  26.244  1.00  0.00    -0.550 OA
ENDBRANCH   5   6
ENDBRANCH   1   5
TORSDOF 3
ENDMDL
MODEL 5
REMARK VINA RESULT:    -3.719      1.893      3.475
REMARK INTER + INTRA:          -4.479
REMARK INTER:                  -4.562
REMARK INTRA:                   0.083
REMARK UNBOUND:                -0.109
REMARK SMILES O=C([O-])CCC(=O)[O-]
REMARK SMILES IDX 4 1 2 2 1 3 3 4 5 5 6 6 7 7 8 8
REMARK H PARENT
REMARK Flexibility Score: inf
ROOT
ATOM      1  C   UNL     1      77.871  -0.837  25.241  1.00  0.00     0.059 C 
ENDROOT
BRANCH   1   2
ATOM      2  C   UNL     1      77.253  -0.757  26.603  1.00  0.00     0.042 C 
ATOM      3  O   UNL     1      76.555  -1.711  27.037  1.00  0.00    -0.550 OA
ATOM      4  O   UNL     1      77.479   0.352  27.407  1.00  0.00    -0.550 OA
ENDBRANCH   1   2
BRANCH   1   5
ATOM      5  C   UNL     1      79.353  -1.218  25.314  1.00  0.00     0.059 C 
BRANCH   5   6
ATOM      6  C   UNL     1      79.535  -2.652  25.707  1.00  0.00     0.042 C 
ATOM      7  O   UNL     1      79.797  -3.521  24.834  1.00  0.00    -0.550 OA
ATOM      8  O   UNL     1      79.456  -3.024  27.044  1.00  0.00    -0.550 OA
ENDBRANCH   5   6
ENDBRANCH   1   5
TORSDOF 3
ENDMDL
MODEL 6
REMARK VINA RESULT:    -3.692      2.004      3.039
REMARK INTER + INTRA:          -4.448
REMARK INTER:                  -4.635
REMARK INTRA:                   0.187
REMARK UNBOUND:                -0.109
REMARK SMILES O=C([O-])CCC(=O)[O-]
REMARK SMILES IDX 4 1 2 2 1 3 3 4 5 5 6 6 7 7 8 8
REMARK H PARENT
REMARK Flexibility Score: inf
ROOT
ATOM      1  C   UNL     1      77.873  -0.638  24.322  1.00  0.00     0.059 C 
ENDROOT
BRANCH   1   2
ATOM      2  C   UNL     1      79.270  -0.594  24.860  1.00  0.00     0.042 C 
ATOM      3  O   UNL     1      80.031  -1.589  24.726  1.00  0.00    -0.550 OA
ATOM      4  O   UNL     1      79.745   0.557  25.474  1.00  0.00    -0.550 OA
ENDBRANCH   1   2
BRANCH   1   5
ATOM      5  C   UNL     1      76.996  -1.621  25.104  1.00  0.00     0.059 C 
BRANCH   5   6
ATOM      6  C   UNL     1      77.271  -1.557  26.575  1.00  0.00     0.042 C 
ATOM      7  O   UNL     1      76.619  -0.768  27.309  1.00  0.00    -0.550 OA
ATOM      8  O   UNL     1      78.220  -2.398  27.144  1.00  0.00    -0.550 OA
ENDBRANCH   5   6
ENDBRANCH   1   5
TORSDOF 3
ENDMDL
MODEL 7
REMARK VINA RESULT:    -3.589      1.840      2.653
REMARK INTER + INTRA:          -4.326
REMARK INTER:                  -4.446
REMARK INTRA:                   0.120
REMARK UNBOUND:                -0.109
REMARK SMILES O=C([O-])CCC(=O)[O-]
REMARK SMILES IDX 4 1 2 2 1 3 3 4 5 5 6 6 7 7 8 8
REMARK H PARENT
REMARK Flexibility Score: inf
ROOT
ATOM      1  C   UNL     1      78.667  -0.679  26.191  1.00  0.00     0.059 C 
ENDROOT
BRANCH   1   2
ATOM      2  C   UNL     1      77.360  -0.982  26.856  1.00  0.00     0.042 C 
ATOM      3  O   UNL     1      76.772  -2.072  26.628  1.00  0.00    -0.550 OA
ATOM      4  O   UNL     1      76.812  -0.080  27.758  1.00  0.00    -0.550 OA
ENDBRANCH   1   2
BRANCH   1   5
ATOM      5  C   UNL     1      78.868  -1.523  24.927  1.00  0.00     0.059 C 
BRANCH   5   6
ATOM      6  C   UNL     1      77.830  -1.220  23.891  1.00  0.00     0.042 C 
ATOM      7  O   UNL     1      77.177  -2.154  23.355  1.00  0.00    -0.550 OA
ATOM      8  O   UNL     1      77.554   0.098  23.545  1.00  0.00    -0.550 OA
ENDBRANCH   5   6
ENDBRANCH   1   5
TORSDOF 3
ENDMDL
MODEL 8
REMARK VINA RESULT:    -3.530      2.060      2.559
REMARK INTER + INTRA:          -4.258
REMARK INTER:                  -4.205
REMARK INTRA:                  -0.053
REMARK UNBOUND:                -0.109
REMARK SMILES O=C([O-])CCC(=O)[O-]
REMARK SMILES IDX 4 1 2 2 1 3 3 4 5 5 6 6 7 7 8 8
REMARK H PARENT
REMARK Flexibility Score: inf
ROOT
ATOM      1  C   UNL     1      78.890  -1.285  25.347  1.00  0.00     0.059 C 
ENDROOT
BRANCH   1   2
ATOM      2  C   UNL     1      79.422  -2.600  25.826  1.00  0.00     0.042 C 
ATOM      3  O   UNL     1      79.310  -2.924  27.038  1.00  0.00    -0.550 OA
ATOM      4  O   UNL     1      80.005  -3.485  24.929  1.00  0.00    -0.550 OA
ENDBRANCH   1   2
BRANCH   1   5
ATOM      5  C   UNL     1      77.393  -1.139  25.639  1.00  0.00     0.059 C 
BRANCH   5   6
ATOM      6  C   UNL     1      77.149  -0.404  26.921  1.00  0.00     0.042 C 
ATOM      7  O   UNL     1      76.125  -0.652  27.610  1.00  0.00    -0.550 OA
ATOM      8  O   UNL     1      78.075   0.528  27.376  1.00  0.00    -0.550 OA
ENDBRANCH   5   6
ENDBRANCH   1   5
TORSDOF 3
ENDMDL
MODEL 9
REMARK VINA RESULT:    -3.511      1.839      3.436
REMARK INTER + INTRA:          -4.235
REMARK INTER:                  -4.087
REMARK INTRA:                  -0.148
REMARK UNBOUND:                -0.109
REMARK SMILES O=C([O-])CCC(=O)[O-]
REMARK SMILES IDX 4 1 2 2 1 3 3 4 5 5 6 6 7 7 8 8
REMARK H PARENT
REMARK Flexibility Score: inf
ROOT
ATOM      1  C   UNL     1      79.118  -1.162  24.934  1.00  0.00     0.059 C 
ENDROOT
BRANCH   1   2
ATOM      2  C   UNL     1      77.951  -1.042  24.004  1.00  0.00     0.042 C 
ATOM      3  O   UNL     1      77.588   0.090  23.588  1.00  0.00    -0.550 OA
ATOM      4  O   UNL     1      77.289  -2.181  23.565  1.00  0.00    -0.550 OA
ENDBRANCH   1   2
BRANCH   1   5
ATOM      5  C   UNL     1      78.720  -1.822  26.259  1.00  0.00     0.059 C 
BRANCH   5   6
ATOM      6  C   UNL     1      77.503  -1.180  26.852  1.00  0.00     0.042 C 
ATOM      7  O   UNL     1      76.443  -1.843  26.994  1.00  0.00    -0.550 OA
ATOM      8  O   UNL     1      77.552   0.140  27.284  1.00  0.00    -0.550 OA
ENDBRANCH   5   6
ENDBRANCH   1   5
TORSDOF 3
ENDMDL
