MODEL 1
REMARK VINA RESULT:    -8.158      0.000      0.000
REMARK INTER + INTRA:         -11.631
REMARK INTER:                 -10.781
REMARK INTRA:                  -0.850
REMARK UNBOUND:                -0.850
REMARK SMILES CC[C@H](C=C[C@H](C)[C@@H]1CC[C@@H]2[C@H]3CC=C4C[C@H](O)CC[C@]4(C)[C@@H]3CC[C@@]21C)C(C)C
REMARK SMILES IDX 6 1 7 2 5 3 4 4 3 5 2 6 1 7 28 8 29 9 30 10 8 11 9 12 26 13
REMARK SMILES IDX 10 14 11 15 25 16 27 17 12 18 24 19 23 20 13 21 21 22 14 23
REMARK SMILES IDX 15 24 20 25 22 26 16 27 19 28 17 29 18 30
REMARK H PARENT 18 31
REMARK Flexibility Score: inf
ROOT
ATOM      1  C   UNL     1     119.568 126.636 128.348  1.00  0.00     0.012 C 
ATOM      2  C   UNL     1     119.659 126.793 126.823  1.00  0.00     0.012 C 
ENDROOT
BRANCH   1   3
ATOM      3  C   UNL     1     120.166 127.859 129.016  1.00  0.00    -0.028 C 
ATOM      4  C   UNL     1     120.576 128.939 128.327  1.00  0.00    -0.027 C 
BRANCH   4   5
ATOM      5  C   UNL     1     121.195 130.133 129.027  1.00  0.00     0.014 C 
BRANCH   5   6
ATOM      6  C   UNL     1     122.021 131.025 128.052  1.00  0.00     0.004 C 
ATOM      7  C   UNL     1     122.338 132.447 128.541  1.00  0.00     0.004 C 
ENDBRANCH   5   6
BRANCH   5   8
ATOM      8  C   UNL     1     120.148 130.887 129.908  1.00  0.00    -0.011 C 
ATOM      9  C   UNL     1     119.739 130.143 131.188  1.00  0.00     0.008 C 
ATOM     10  C   UNL     1     118.900 131.289 129.108  1.00  0.00     0.008 C 
ENDBRANCH   5   8
ENDBRANCH   4   5
ENDBRANCH   1   3
BRANCH   1  11
ATOM     11  C   UNL     1     118.113 126.373 128.872  1.00  0.00     0.002 C 
ATOM     12  C   UNL     1     117.911 126.943 130.284  1.00  0.00     0.005 C 
ATOM     13  C   UNL     1     117.579 124.902 128.954  1.00  0.00    -0.026 C 
ATOM     14  C   UNL     1     116.833 126.096 130.955  1.00  0.00     0.005 C 
ATOM     15  C   UNL     1     116.371 125.068 129.916  1.00  0.00    -0.001 C 
ATOM     16  C   UNL     1     118.658 123.908 129.532  1.00  0.00     0.007 C 
ATOM     17  C   UNL     1     117.064 124.431 127.563  1.00  0.00     0.012 C 
ATOM     18  C   UNL     1     115.801 123.762 130.571  1.00  0.00     0.000 C 
ATOM     19  C   UNL     1     118.161 122.916 130.599  1.00  0.00     0.005 C 
ATOM     20  C   UNL     1     116.695 122.520 130.374  1.00  0.00     0.003 C 
ATOM     21  C   UNL     1     114.402 123.416 130.047  1.00  0.00     0.031 C 
ATOM     22  C   UNL     1     116.189 121.296 131.236  1.00  0.00    -0.008 C 
ATOM     23  C   UNL     1     113.860 122.205 130.753  1.00  0.00    -0.027 C 
ATOM     24  C   UNL     1     114.648 121.239 131.280  1.00  0.00    -0.065 C 
ATOM     25  C   UNL     1     116.698 121.379 132.710  1.00  0.00     0.014 C 
ATOM     26  C   UNL     1     116.716 119.994 130.573  1.00  0.00     0.016 C 
ATOM     27  C   UNL     1     114.014 120.188 132.165  1.00  0.00     0.063 C 
ATOM     28  C   UNL     1     116.061 120.329 133.647  1.00  0.00     0.033 C 
ATOM     29  C   UNL     1     114.524 120.360 133.605  1.00  0.00     0.118 C 
BRANCH  29  30
ATOM     30  O   UNL     1     114.066 121.573 134.143  1.00  0.00    -0.393 OA
ATOM     31  H   UNL     1     113.073 121.540 134.127  1.00  0.00     0.210 HD
ENDBRANCH  29  30
ENDBRANCH   1  11
TORSDOF 6
ENDMDL
MODEL 2
REMARK VINA RESULT:    -7.854      1.435      2.098
REMARK INTER + INTRA:         -11.230
REMARK INTER:                 -10.650
REMARK INTRA:                  -0.580
REMARK UNBOUND:                -0.850
REMARK SMILES CC[C@H](C=C[C@H](C)[C@@H]1CC[C@@H]2[C@H]3CC=C4C[C@H](O)CC[C@]4(C)[C@@H]3CC[C@@]21C)C(C)C
REMARK SMILES IDX 6 1 7 2 5 3 4 4 3 5 2 6 1 7 28 8 29 9 30 10 8 11 9 12 26 13
REMARK SMILES IDX 10 14 11 15 25 16 27 17 12 18 24 19 23 20 13 21 21 22 14 23
REMARK SMILES IDX 15 24 20 25 22 26 16 27 19 28 17 29 18 30
REMARK H PARENT 18 31
REMARK Flexibility Score: inf
ROOT
ATOM      1  C   UNL     1     119.645 128.633 129.313  1.00  0.00     0.012 C 
ATOM      2  C   UNL     1     120.376 128.278 128.010  1.00  0.00     0.012 C 
ENDROOT
BRANCH   1   3
ATOM      3  C   UNL     1     119.571 130.141 129.454  1.00  0.00    -0.028 C 
ATOM      4  C   UNL     1     120.146 130.984 128.578  1.00  0.00    -0.027 C 
BRANCH   4   5
ATOM      5  C   UNL     1     120.073 132.487 128.766  1.00  0.00     0.014 C 
BRANCH   5   6
ATOM      6  C   UNL     1     121.487 133.138 128.857  1.00  0.00     0.004 C 
ATOM      7  C   UNL     1     122.632 132.362 128.187  1.00  0.00     0.004 C 
ENDBRANCH   5   6
BRANCH   5   8
ATOM      8  C   UNL     1     119.091 133.145 127.745  1.00  0.00    -0.011 C 
ATOM      9  C   UNL     1     119.695 134.299 126.932  1.00  0.00     0.008 C 
ATOM     10  C   UNL     1     117.781 133.595 128.411  1.00  0.00     0.008 C 
ENDBRANCH   5   8
ENDBRANCH   4   5
ENDBRANCH   1   3
BRANCH   1  11
ATOM     11  C   UNL     1     118.219 127.992 129.435  1.00  0.00     0.002 C 
ATOM     12  C   UNL     1     117.613 128.225 130.828  1.00  0.00     0.005 C 
ATOM     13  C   UNL     1     118.039 126.457 129.172  1.00  0.00    -0.026 C 
ATOM     14  C   UNL     1     116.654 127.069 131.094  1.00  0.00     0.005 C 
ATOM     15  C   UNL     1     116.660 126.193 129.835  1.00  0.00    -0.001 C 
ATOM     16  C   UNL     1     119.185 125.601 129.835  1.00  0.00     0.007 C 
ATOM     17  C   UNL     1     117.934 126.176 127.645  1.00  0.00     0.012 C 
ATOM     18  C   UNL     1     116.294 124.699 130.138  1.00  0.00     0.000 C 
ATOM     19  C   UNL     1     118.733 124.342 130.597  1.00  0.00     0.005 C 
ATOM     20  C   UNL     1     117.475 123.718 129.977  1.00  0.00     0.003 C 
ATOM     21  C   UNL     1     115.147 124.194 129.254  1.00  0.00     0.031 C 
ATOM     22  C   UNL     1     117.109 122.274 130.506  1.00  0.00    -0.008 C 
ATOM     23  C   UNL     1     114.775 122.786 129.626  1.00  0.00    -0.027 C 
ATOM     24  C   UNL     1     115.648 121.909 130.176  1.00  0.00    -0.065 C 
ATOM     25  C   UNL     1     117.283 122.166 132.054  1.00  0.00     0.014 C 
ATOM     26  C   UNL     1     118.047 121.256 129.801  1.00  0.00     0.016 C 
ATOM     27  C   UNL     1     115.115 120.602 130.722  1.00  0.00     0.063 C 
ATOM     28  C   UNL     1     116.737 120.850 132.649  1.00  0.00     0.033 C 
ATOM     29  C   UNL     1     115.276 120.586 132.250  1.00  0.00     0.118 C 
BRANCH  29  30
ATOM     30  O   UNL     1     114.449 121.557 132.838  1.00  0.00    -0.393 OA
ATOM     31  H   UNL     1     114.820 122.443 132.588  1.00  0.00     0.210 HD
ENDBRANCH  29  30
ENDBRANCH   1  11
TORSDOF 6
ENDMDL
MODEL 3
REMARK VINA RESULT:    -7.442      3.348      5.556
REMARK INTER + INTRA:         -10.685
REMARK INTER:                  -9.800
REMARK INTRA:                  -0.885
REMARK UNBOUND:                -0.850
REMARK SMILES CC[C@H](C=C[C@H](C)[C@@H]1CC[C@@H]2[C@H]3CC=C4C[C@H](O)CC[C@]4(C)[C@@H]3CC[C@@]21C)C(C)C
REMARK SMILES IDX 6 1 7 2 5 3 4 4 3 5 2 6 1 7 28 8 29 9 30 10 8 11 9 12 26 13
REMARK SMILES IDX 10 14 11 15 25 16 27 17 12 18 24 19 23 20 13 21 21 22 14 23
REMARK SMILES IDX 15 24 20 25 22 26 16 27 19 28 17 29 18 30
REMARK H PARENT 18 31
REMARK Flexibility Score: inf
ROOT
ATOM      1  C   UNL     1     114.625 122.357 127.319  1.00  0.00     0.012 C 
ATOM      2  C   UNL     1     113.216 122.492 126.722  1.00  0.00     0.012 C 
ENDROOT
BRANCH   1   3
ATOM      3  C   UNL     1     115.497 123.489 126.812  1.00  0.00    -0.028 C 
ATOM      4  C   UNL     1     116.829 123.522 126.995  1.00  0.00    -0.027 C 
BRANCH   4   5
ATOM      5  C   UNL     1     117.666 124.684 126.498  1.00  0.00     0.014 C 
BRANCH   5   6
ATOM      6  C   UNL     1     117.562 125.928 127.432  1.00  0.00     0.004 C 
ATOM      7  C   UNL     1     117.828 125.675 128.924  1.00  0.00     0.004 C 
ENDBRANCH   5   6
BRANCH   5   8
ATOM      8  C   UNL     1     119.116 124.231 126.135  1.00  0.00    -0.011 C 
ATOM      9  C   UNL     1     119.520 122.865 126.706  1.00  0.00     0.008 C 
ATOM     10  C   UNL     1     120.164 125.291 126.508  1.00  0.00     0.008 C 
ENDBRANCH   5   8
ENDBRANCH   4   5
ENDBRANCH   1   3
BRANCH   1  11
ATOM     11  C   UNL     1     114.645 122.299 128.886  1.00  0.00     0.002 C 
ATOM     12  C   UNL     1     115.092 123.638 129.494  1.00  0.00     0.005 C 
ATOM     13  C   UNL     1     115.526 121.221 129.606  1.00  0.00    -0.026 C 
ATOM     14  C   UNL     1     115.736 123.322 130.841  1.00  0.00     0.005 C 
ATOM     15  C   UNL     1     115.617 121.807 131.041  1.00  0.00    -0.001 C 
ATOM     16  C   UNL     1     116.947 121.071 128.940  1.00  0.00     0.007 C 
ATOM     17  C   UNL     1     114.780 119.856 129.658  1.00  0.00     0.012 C 
ATOM     18  C   UNL     1     116.739 121.231 131.972  1.00  0.00     0.000 C 
ATOM     19  C   UNL     1     118.144 121.012 129.907  1.00  0.00     0.005 C 
ATOM     20  C   UNL     1     117.771 120.348 131.240  1.00  0.00     0.003 C 
ATOM     21  C   UNL     1     116.163 120.409 133.131  1.00  0.00     0.031 C 
ATOM     22  C   UNL     1     118.992 119.981 132.174  1.00  0.00    -0.008 C 
ATOM     23  C   UNL     1     117.263 119.939 134.042  1.00  0.00    -0.027 C 
ATOM     24  C   UNL     1     118.533 119.730 133.624  1.00  0.00    -0.065 C 
ATOM     25  C   UNL     1     120.055 121.124 132.208  1.00  0.00     0.014 C 
ATOM     26  C   UNL     1     119.639 118.680 131.625  1.00  0.00     0.016 C 
ATOM     27  C   UNL     1     119.606 119.483 134.663  1.00  0.00     0.063 C 
ATOM     28  C   UNL     1     121.160 120.913 133.266  1.00  0.00     0.033 C 
ATOM     29  C   UNL     1     120.587 120.666 134.672  1.00  0.00     0.118 C 
BRANCH  29  30
ATOM     30  O   UNL     1     119.944 121.830 135.125  1.00  0.00    -0.393 OA
ATOM     31  H   UNL     1     120.475 122.175 135.890  1.00  0.00     0.210 HD
ENDBRANCH  29  30
ENDBRANCH   1  11
TORSDOF 6
ENDMDL
MODEL 4
REMARK VINA RESULT:    -7.289      2.156      3.719
REMARK INTER + INTRA:         -10.482
REMARK INTER:                  -9.897
REMARK INTRA:                  -0.585
REMARK UNBOUND:                -0.850
REMARK SMILES CC[C@H](C=C[C@H](C)[C@@H]1CC[C@@H]2[C@H]3CC=C4C[C@H](O)CC[C@]4(C)[C@@H]3CC[C@@]21C)C(C)C
REMARK SMILES IDX 6 1 7 2 5 3 4 4 3 5 2 6 1 7 28 8 29 9 30 10 8 11 9 12 26 13
REMARK SMILES IDX 10 14 11 15 25 16 27 17 12 18 24 19 23 20 13 21 21 22 14 23
REMARK SMILES IDX 15 24 20 25 22 26 16 27 19 28 17 29 18 30
REMARK H PARENT 18 31
REMARK Flexibility Score: inf
ROOT
ATOM      1  C   UNL     1     118.648 129.146 129.162  1.00  0.00     0.012 C 
ATOM      2  C   UNL     1     117.794 129.734 130.295  1.00  0.00     0.012 C 
ENDROOT
BRANCH   1   3
ATOM      3  C   UNL     1     119.848 130.042 128.920  1.00  0.00    -0.028 C 
ATOM      4  C   UNL     1     119.831 131.365 129.161  1.00  0.00    -0.027 C 
BRANCH   4   5
ATOM      5  C   UNL     1     121.041 132.235 128.881  1.00  0.00     0.014 C 
BRANCH   5   6
ATOM      6  C   UNL     1     122.241 131.412 128.323  1.00  0.00     0.004 C 
ATOM      7  C   UNL     1     123.476 132.222 127.900  1.00  0.00     0.004 C 
ENDBRANCH   5   6
BRANCH   5   8
ATOM      8  C   UNL     1     120.655 133.507 128.061  1.00  0.00    -0.011 C 
ATOM      9  C   UNL     1     120.915 134.835 128.785  1.00  0.00     0.008 C 
ATOM     10  C   UNL     1     119.204 133.453 127.558  1.00  0.00     0.008 C 
ENDBRANCH   5   8
ENDBRANCH   4   5
ENDBRANCH   1   3
BRANCH   1  11
ATOM     11  C   UNL     1     119.102 127.666 129.413  1.00  0.00     0.002 C 
ATOM     12  C   UNL     1     119.771 127.063 128.169  1.00  0.00     0.005 C 
ATOM     13  C   UNL     1     118.042 126.600 129.854  1.00  0.00    -0.026 C 
ATOM     14  C   UNL     1     119.542 125.555 128.228  1.00  0.00     0.005 C 
ATOM     15  C   UNL     1     118.787 125.276 129.533  1.00  0.00    -0.001 C 
ATOM     16  C   UNL     1     116.695 126.729 129.044  1.00  0.00     0.007 C 
ATOM     17  C   UNL     1     117.789 126.686 131.388  1.00  0.00     0.012 C 
ATOM     18  C   UNL     1     117.918 123.973 129.461  1.00  0.00     0.000 C 
ATOM     19  C   UNL     1     116.092 125.412 128.522  1.00  0.00     0.005 C 
ATOM     20  C   UNL     1     116.396 124.232 129.456  1.00  0.00     0.003 C 
ATOM     21  C   UNL     1     118.221 123.011 130.616  1.00  0.00     0.031 C 
ATOM     22  C   UNL     1     115.581 122.912 129.159  1.00  0.00    -0.008 C 
ATOM     23  C   UNL     1     117.426 121.744 130.469  1.00  0.00    -0.027 C 
ATOM     24  C   UNL     1     116.234 121.686 129.830  1.00  0.00    -0.065 C 
ATOM     25  C   UNL     1     115.496 122.618 127.627  1.00  0.00     0.014 C 
ATOM     26  C   UNL     1     114.152 123.092 129.738  1.00  0.00     0.016 C 
ATOM     27  C   UNL     1     115.633 120.328 129.540  1.00  0.00     0.063 C 
ATOM     28  C   UNL     1     114.899 121.234 127.293  1.00  0.00     0.033 C 
ATOM     29  C   UNL     1     115.623 120.090 128.021  1.00  0.00     0.118 C 
BRANCH  29  30
ATOM     30  O   UNL     1     116.937 119.985 127.536  1.00  0.00    -0.393 OA
ATOM     31  H   UNL     1     117.438 119.415 128.177  1.00  0.00     0.210 HD
ENDBRANCH  29  30
ENDBRANCH   1  11
TORSDOF 6
ENDMDL
MODEL 5
REMARK VINA RESULT:    -7.227      3.841      7.727
REMARK INTER + INTRA:         -10.401
REMARK INTER:                  -9.066
REMARK INTRA:                  -1.335
REMARK UNBOUND:                -0.850
REMARK SMILES CC[C@H](C=C[C@H](C)[C@@H]1CC[C@@H]2[C@H]3CC=C4C[C@H](O)CC[C@]4(C)[C@@H]3CC[C@@]21C)C(C)C
REMARK SMILES IDX 6 1 7 2 5 3 4 4 3 5 2 6 1 7 28 8 29 9 30 10 8 11 9 12 26 13
REMARK SMILES IDX 10 14 11 15 25 16 27 17 12 18 24 19 23 20 13 21 21 22 14 23
REMARK SMILES IDX 15 24 20 25 22 26 16 27 19 28 17 29 18 30
REMARK H PARENT 18 31
REMARK Flexibility Score: inf
ROOT
ATOM      1  C   UNL     1     116.912 125.349 130.329  1.00  0.00     0.012 C 
ATOM      2  C   UNL     1     116.606 126.843 130.510  1.00  0.00     0.012 C 
ENDROOT
BRANCH   1   3
ATOM      3  C   UNL     1     115.683 124.537 130.690  1.00  0.00    -0.028 C 
ATOM      4  C   UNL     1     115.746 123.248 131.069  1.00  0.00    -0.027 C 
BRANCH   4   5
ATOM      5  C   UNL     1     114.494 122.459 131.396  1.00  0.00     0.014 C 
BRANCH   5   6
ATOM      6  C   UNL     1     113.762 121.957 130.114  1.00  0.00     0.004 C 
ATOM      7  C   UNL     1     114.647 121.293 129.048  1.00  0.00     0.004 C 
ENDBRANCH   5   6
BRANCH   5   8
ATOM      8  C   UNL     1     114.768 121.374 132.485  1.00  0.00    -0.011 C 
ATOM      9  C   UNL     1     116.218 120.870 132.533  1.00  0.00     0.008 C 
ATOM     10  C   UNL     1     113.799 120.186 132.376  1.00  0.00     0.008 C 
ENDBRANCH   5   8
ENDBRANCH   4   5
ENDBRANCH   1   3
BRANCH   1  11
ATOM     11  C   UNL     1     117.423 124.976 128.894  1.00  0.00     0.002 C 
ATOM     12  C   UNL     1     116.284 124.444 128.011  1.00  0.00     0.005 C 
ATOM     13  C   UNL     1     118.575 123.926 128.735  1.00  0.00    -0.026 C 
ATOM     14  C   UNL     1     116.916 123.505 126.987  1.00  0.00     0.005 C 
ATOM     15  C   UNL     1     118.428 123.533 127.240  1.00  0.00    -0.001 C 
ATOM     16  C   UNL     1     118.387 122.686 129.691  1.00  0.00     0.007 C 
ATOM     17  C   UNL     1     119.961 124.601 128.952  1.00  0.00     0.012 C 
ATOM     18  C   UNL     1     119.141 122.214 126.780  1.00  0.00     0.000 C 
ATOM     19  C   UNL     1     118.612 121.302 129.055  1.00  0.00     0.005 C 
ATOM     20  C   UNL     1     119.669 121.347 127.943  1.00  0.00     0.003 C 
ATOM     21  C   UNL     1     120.317 122.492 125.837  1.00  0.00     0.031 C 
ATOM     22  C   UNL     1     120.174 119.938 127.437  1.00  0.00    -0.008 C 
ATOM     23  C   UNL     1     120.925 121.203 125.358  1.00  0.00    -0.027 C 
ATOM     24  C   UNL     1     120.880 120.053 126.071  1.00  0.00    -0.065 C 
ATOM     25  C   UNL     1     118.994 118.928 127.273  1.00  0.00     0.014 C 
ATOM     26  C   UNL     1     121.190 119.393 128.477  1.00  0.00     0.016 C 
ATOM     27  C   UNL     1     121.316 118.768 125.400  1.00  0.00     0.063 C 
ATOM     28  C   UNL     1     119.399 117.609 126.579  1.00  0.00     0.033 C 
ATOM     29  C   UNL     1     120.099 117.844 125.231  1.00  0.00     0.118 C 
BRANCH  29  30
ATOM     30  O   UNL     1     119.186 118.403 124.322  1.00  0.00    -0.393 OA
ATOM     31  H   UNL     1     119.257 117.879 123.481  1.00  0.00     0.210 HD
ENDBRANCH  29  30
ENDBRANCH   1  11
TORSDOF 6
ENDMDL
MODEL 6
REMARK VINA RESULT:    -7.081      2.631      8.308
REMARK INTER + INTRA:         -10.208
REMARK INTER:                  -9.017
REMARK INTRA:                  -1.191
REMARK UNBOUND:                -0.850
REMARK SMILES CC[C@H](C=C[C@H](C)[C@@H]1CC[C@@H]2[C@H]3CC=C4C[C@H](O)CC[C@]4(C)[C@@H]3CC[C@@]21C)C(C)C
REMARK SMILES IDX 6 1 7 2 5 3 4 4 3 5 2 6 1 7 28 8 29 9 30 10 8 11 9 12 26 13
REMARK SMILES IDX 10 14 11 15 25 16 27 17 12 18 24 19 23 20 13 21 21 22 14 23
REMARK SMILES IDX 15 24 20 25 22 26 16 27 19 28 17 29 18 30
REMARK H PARENT 18 31
REMARK Flexibility Score: inf
ROOT
ATOM      1  C   UNL     1     118.887 120.195 130.323  1.00  0.00     0.012 C 
ATOM      2  C   UNL     1     119.703 118.955 129.930  1.00  0.00     0.012 C 
ENDROOT
BRANCH   1   3
ATOM      3  C   UNL     1     118.227 119.958 131.668  1.00  0.00    -0.028 C 
ATOM      4  C   UNL     1     116.944 120.277 131.917  1.00  0.00    -0.027 C 
BRANCH   4   5
ATOM      5  C   UNL     1     116.326 120.051 133.283  1.00  0.00     0.014 C 
BRANCH   5   6
ATOM      6  C   UNL     1     117.021 120.897 134.392  1.00  0.00     0.004 C 
ATOM      7  C   UNL     1     118.196 120.223 135.118  1.00  0.00     0.004 C 
ENDBRANCH   5   6
BRANCH   5   8
ATOM      8  C   UNL     1     114.769 120.154 133.231  1.00  0.00    -0.011 C 
ATOM      9  C   UNL     1     114.190 120.367 131.825  1.00  0.00     0.008 C 
ATOM     10  C   UNL     1     114.227 121.223 134.193  1.00  0.00     0.008 C 
ENDBRANCH   5   8
ENDBRANCH   4   5
ENDBRANCH   1   3
BRANCH   1  11
ATOM     11  C   UNL     1     119.720 121.523 130.339  1.00  0.00     0.002 C 
ATOM     12  C   UNL     1     120.072 121.951 131.772  1.00  0.00     0.005 C 
ATOM     13  C   UNL     1     119.128 122.812 129.672  1.00  0.00    -0.026 C 
ATOM     14  C   UNL     1     120.222 123.469 131.760  1.00  0.00     0.005 C 
ATOM     15  C   UNL     1     120.010 123.920 130.309  1.00  0.00    -0.001 C 
ATOM     16  C   UNL     1     117.601 123.010 130.009  1.00  0.00     0.007 C 
ATOM     17  C   UNL     1     119.369 122.789 128.134  1.00  0.00     0.012 C 
ATOM     18  C   UNL     1     119.484 125.393 130.206  1.00  0.00     0.000 C 
ATOM     19  C   UNL     1     117.177 124.433 130.417  1.00  0.00     0.005 C 
ATOM     20  C   UNL     1     118.024 125.505 129.717  1.00  0.00     0.003 C 
ATOM     21  C   UNL     1     120.351 126.254 129.280  1.00  0.00     0.031 C 
ATOM     22  C   UNL     1     117.478 126.982 129.844  1.00  0.00    -0.008 C 
ATOM     23  C   UNL     1     119.860 127.675 129.268  1.00  0.00    -0.027 C 
ATOM     24  C   UNL     1     118.572 128.016 129.505  1.00  0.00    -0.065 C 
ATOM     25  C   UNL     1     116.975 127.288 131.291  1.00  0.00     0.014 C 
ATOM     26  C   UNL     1     116.309 127.148 128.836  1.00  0.00     0.016 C 
ATOM     27  C   UNL     1     118.233 129.478 129.697  1.00  0.00     0.063 C 
ATOM     28  C   UNL     1     116.632 128.776 131.527  1.00  0.00     0.033 C 
ATOM     29  C   UNL     1     117.791 129.713 131.150  1.00  0.00     0.118 C 
BRANCH  29  30
ATOM     30  O   UNL     1     118.867 129.501 132.027  1.00  0.00    -0.393 OA
ATOM     31  H   UNL     1     119.515 128.916 131.554  1.00  0.00     0.210 HD
ENDBRANCH  29  30
ENDBRANCH   1  11
TORSDOF 6
ENDMDL
MODEL 7
REMARK VINA RESULT:    -7.030      2.626      8.237
REMARK INTER + INTRA:         -10.141
REMARK INTER:                  -9.318
REMARK INTRA:                  -0.823
REMARK UNBOUND:                -0.850
REMARK SMILES CC[C@H](C=C[C@H](C)[C@@H]1CC[C@@H]2[C@H]3CC=C4C[C@H](O)CC[C@]4(C)[C@@H]3CC[C@@]21C)C(C)C
REMARK SMILES IDX 6 1 7 2 5 3 4 4 3 5 2 6 1 7 28 8 29 9 30 10 8 11 9 12 26 13
REMARK SMILES IDX 10 14 11 15 25 16 27 17 12 18 24 19 23 20 13 21 21 22 14 23
REMARK SMILES IDX 15 24 20 25 22 26 16 27 19 28 17 29 18 30
REMARK H PARENT 18 31
REMARK Flexibility Score: inf
ROOT
ATOM      1  C   UNL     1     118.797 120.067 129.520  1.00  0.00     0.012 C 
ATOM      2  C   UNL     1     119.430 118.795 130.101  1.00  0.00     0.012 C 
ENDROOT
BRANCH   1   3
ATOM      3  C   UNL     1     117.376 120.202 130.034  1.00  0.00    -0.028 C 
ATOM      4  C   UNL     1     116.310 119.732 129.362  1.00  0.00    -0.027 C 
BRANCH   4   5
ATOM      5  C   UNL     1     114.901 119.909 129.893  1.00  0.00     0.014 C 
BRANCH   5   6
ATOM      6  C   UNL     1     114.885 120.500 131.336  1.00  0.00     0.004 C 
ATOM      7  C   UNL     1     113.685 120.109 132.212  1.00  0.00     0.004 C 
ENDBRANCH   5   6
BRANCH   5   8
ATOM      8  C   UNL     1     113.985 120.633 128.857  1.00  0.00    -0.011 C 
ATOM      9  C   UNL     1     114.340 120.357 127.389  1.00  0.00     0.008 C 
ATOM     10  C   UNL     1     113.911 122.147 129.107  1.00  0.00     0.008 C 
ENDBRANCH   5   8
ENDBRANCH   4   5
ENDBRANCH   1   3
BRANCH   1  11
ATOM     11  C   UNL     1     119.618 121.372 129.809  1.00  0.00     0.002 C 
ATOM     12  C   UNL     1     119.779 121.615 131.317  1.00  0.00     0.005 C 
ATOM     13  C   UNL     1     119.114 122.741 129.235  1.00  0.00    -0.026 C 
ATOM     14  C   UNL     1     119.925 123.121 131.512  1.00  0.00     0.005 C 
ATOM     15  C   UNL     1     119.903 123.750 130.114  1.00  0.00    -0.001 C 
ATOM     16  C   UNL     1     117.556 122.916 129.394  1.00  0.00     0.007 C 
ATOM     17  C   UNL     1     119.553 122.904 127.751  1.00  0.00     0.012 C 
ATOM     18  C   UNL     1     119.391 125.231 130.126  1.00  0.00     0.000 C 
ATOM     19  C   UNL     1     117.078 124.284 129.915  1.00  0.00     0.005 C 
ATOM     20  C   UNL     1     118.007 125.423 129.470  1.00  0.00     0.003 C 
ATOM     21  C   UNL     1     120.369 126.188 129.434  1.00  0.00     0.031 C 
ATOM     22  C   UNL     1     117.445 126.880 129.707  1.00  0.00    -0.008 C 
ATOM     23  C   UNL     1     119.880 127.606 129.534  1.00  0.00    -0.027 C 
ATOM     24  C   UNL     1     118.571 127.933 129.643  1.00  0.00    -0.065 C 
ATOM     25  C   UNL     1     116.757 127.013 131.102  1.00  0.00     0.014 C 
ATOM     26  C   UNL     1     116.417 127.185 128.584  1.00  0.00     0.016 C 
ATOM     27  C   UNL     1     118.206 129.365 129.969  1.00  0.00     0.063 C 
ATOM     28  C   UNL     1     116.382 128.464 131.475  1.00  0.00     0.033 C 
ATOM     29  C   UNL     1     117.578 129.425 131.370  1.00  0.00     0.118 C 
BRANCH  29  30
ATOM     30  O   UNL     1     118.531 129.092 132.346  1.00  0.00    -0.393 OA
ATOM     31  H   UNL     1     118.035 128.919 133.189  1.00  0.00     0.210 HD
ENDBRANCH  29  30
ENDBRANCH   1  11
TORSDOF 6
ENDMDL
MODEL 8
REMARK VINA RESULT:    -7.017      3.785      6.798
REMARK INTER + INTRA:         -10.123
REMARK INTER:                  -8.636
REMARK INTRA:                  -1.487
REMARK UNBOUND:                -0.850
REMARK SMILES CC[C@H](C=C[C@H](C)[C@@H]1CC[C@@H]2[C@H]3CC=C4C[C@H](O)CC[C@]4(C)[C@@H]3CC[C@@]21C)C(C)C
REMARK SMILES IDX 6 1 7 2 5 3 4 4 3 5 2 6 1 7 28 8 29 9 30 10 8 11 9 12 26 13
REMARK SMILES IDX 10 14 11 15 25 16 27 17 12 18 24 19 23 20 13 21 21 22 14 23
REMARK SMILES IDX 15 24 20 25 22 26 16 27 19 28 17 29 18 30
REMARK H PARENT 18 31
REMARK Flexibility Score: inf
ROOT
ATOM      1  C   UNL     1     117.735 124.709 128.023  1.00  0.00     0.012 C 
ATOM      2  C   UNL     1     118.150 125.676 126.904  1.00  0.00     0.012 C 
ENDROOT
BRANCH   1   3
ATOM      3  C   UNL     1     116.496 123.947 127.595  1.00  0.00    -0.028 C 
ATOM      4  C   UNL     1     115.403 123.838 128.371  1.00  0.00    -0.027 C 
BRANCH   4   5
ATOM      5  C   UNL     1     114.192 123.044 127.921  1.00  0.00     0.014 C 
BRANCH   5   6
ATOM      6  C   UNL     1     114.406 122.381 126.527  1.00  0.00     0.004 C 
ATOM      7  C   UNL     1     113.132 122.030 125.743  1.00  0.00     0.004 C 
ENDBRANCH   5   6
BRANCH   5   8
ATOM      8  C   UNL     1     113.678 122.094 129.049  1.00  0.00    -0.011 C 
ATOM      9  C   UNL     1     113.698 122.707 130.457  1.00  0.00     0.008 C 
ATOM     10  C   UNL     1     114.413 120.745 129.049  1.00  0.00     0.008 C 
ENDBRANCH   5   8
ENDBRANCH   4   5
ENDBRANCH   1   3
BRANCH   1  11
ATOM     11  C   UNL     1     118.871 123.721 128.461  1.00  0.00     0.002 C 
ATOM     12  C   UNL     1     118.690 122.335 127.822  1.00  0.00     0.005 C 
ATOM     13  C   UNL     1     119.097 123.432 129.984  1.00  0.00    -0.026 C 
ATOM     14  C   UNL     1     119.330 121.323 128.767  1.00  0.00     0.005 C 
ATOM     15  C   UNL     1     119.931 122.124 129.929  1.00  0.00    -0.001 C 
ATOM     16  C   UNL     1     117.739 123.231 130.760  1.00  0.00     0.007 C 
ATOM     17  C   UNL     1     119.955 124.559 130.630  1.00  0.00     0.012 C 
ATOM     18  C   UNL     1     120.029 121.288 131.252  1.00  0.00     0.000 C 
ATOM     19  C   UNL     1     117.685 122.038 131.732  1.00  0.00     0.005 C 
ATOM     20  C   UNL     1     119.056 121.748 132.358  1.00  0.00     0.003 C 
ATOM     21  C   UNL     1     121.444 121.303 131.841  1.00  0.00     0.031 C 
ATOM     22  C   UNL     1     119.040 120.741 133.575  1.00  0.00    -0.008 C 
ATOM     23  C   UNL     1     121.515 120.430 133.064  1.00  0.00    -0.027 C 
ATOM     24  C   UNL     1     120.449 120.180 133.859  1.00  0.00    -0.065 C 
ATOM     25  C   UNL     1     118.096 119.526 133.306  1.00  0.00     0.014 C 
ATOM     26  C   UNL     1     118.553 121.516 134.830  1.00  0.00     0.016 C 
ATOM     27  C   UNL     1     120.573 119.111 134.922  1.00  0.00     0.063 C 
ATOM     28  C   UNL     1     118.206 118.408 134.366  1.00  0.00     0.033 C 
ATOM     29  C   UNL     1     119.654 117.931 134.569  1.00  0.00     0.118 C 
BRANCH  29  30
ATOM     30  O   UNL     1     120.104 117.295 133.401  1.00  0.00    -0.393 OA
ATOM     31  H   UNL     1     120.382 118.010 132.770  1.00  0.00     0.210 HD
ENDBRANCH  29  30
ENDBRANCH   1  11
TORSDOF 6
ENDMDL
MODEL 9
REMARK VINA RESULT:    -6.794      3.096      5.384
REMARK INTER + INTRA:          -9.828
REMARK INTER:                  -9.268
REMARK INTRA:                  -0.560
REMARK UNBOUND:                -0.850
REMARK SMILES CC[C@H](C=C[C@H](C)[C@@H]1CC[C@@H]2[C@H]3CC=C4C[C@H](O)CC[C@]4(C)[C@@H]3CC[C@@]21C)C(C)C
REMARK SMILES IDX 6 1 7 2 5 3 4 4 3 5 2 6 1 7 28 8 29 9 30 10 8 11 9 12 26 13
REMARK SMILES IDX 10 14 11 15 25 16 27 17 12 18 24 19 23 20 13 21 21 22 14 23
REMARK SMILES IDX 15 24 20 25 22 26 16 27 19 28 17 29 18 30
REMARK H PARENT 18 31
REMARK Flexibility Score: inf
ROOT
ATOM      1  C   UNL     1     114.835 123.085 127.575  1.00  0.00     0.012 C 
ATOM      2  C   UNL     1     113.335 123.138 127.899  1.00  0.00     0.012 C 
ENDROOT
BRANCH   1   3
ATOM      3  C   UNL     1     115.543 124.226 128.280  1.00  0.00    -0.028 C 
ATOM      4  C   UNL     1     116.254 125.160 127.624  1.00  0.00    -0.027 C 
BRANCH   4   5
ATOM      5  C   UNL     1     116.971 126.271 128.365  1.00  0.00     0.014 C 
BRANCH   5   6
ATOM      6  C   UNL     1     116.669 126.250 129.894  1.00  0.00     0.004 C 
ATOM      7  C   UNL     1     116.624 127.618 130.592  1.00  0.00     0.004 C 
ENDBRANCH   5   6
BRANCH   5   8
ATOM      8  C   UNL     1     118.482 126.337 127.976  1.00  0.00    -0.011 C 
ATOM      9  C   UNL     1     118.837 125.605 126.674  1.00  0.00     0.008 C 
ATOM     10  C   UNL     1     119.395 125.861 129.116  1.00  0.00     0.008 C 
ENDBRANCH   5   8
ENDBRANCH   4   5
ENDBRANCH   1   3
BRANCH   1  11
ATOM     11  C   UNL     1     115.510 121.712 127.922  1.00  0.00     0.002 C 
ATOM     12  C   UNL     1     114.514 120.744 128.578  1.00  0.00     0.005 C 
ATOM     13  C   UNL     1     116.767 121.688 128.858  1.00  0.00    -0.026 C 
ATOM     14  C   UNL     1     115.325 119.808 129.470  1.00  0.00     0.005 C 
ATOM     15  C   UNL     1     116.797 120.196 129.291  1.00  0.00    -0.001 C 
ATOM     16  C   UNL     1     116.609 122.655 130.093  1.00  0.00     0.007 C 
ATOM     17  C   UNL     1     118.055 122.011 128.048  1.00  0.00     0.012 C 
ATOM     18  C   UNL     1     117.672 119.839 130.542  1.00  0.00     0.000 C 
ATOM     19  C   UNL     1     117.022 122.080 131.460  1.00  0.00     0.005 C 
ATOM     20  C   UNL     1     118.169 121.068 131.332  1.00  0.00     0.003 C 
ATOM     21  C   UNL     1     118.899 118.999 130.168  1.00  0.00     0.031 C 
ATOM     22  C   UNL     1     118.851 120.648 132.695  1.00  0.00    -0.008 C 
ATOM     23  C   UNL     1     119.668 118.612 131.401  1.00  0.00    -0.027 C 
ATOM     24  C   UNL     1     119.667 119.349 132.537  1.00  0.00    -0.065 C 
ATOM     25  C   UNL     1     117.793 120.405 133.818  1.00  0.00     0.014 C 
ATOM     26  C   UNL     1     119.813 121.790 133.120  1.00  0.00     0.016 C 
ATOM     27  C   UNL     1     120.283 118.756 133.785  1.00  0.00     0.063 C 
ATOM     28  C   UNL     1     118.384 119.787 135.104  1.00  0.00     0.033 C 
ATOM     29  C   UNL     1     119.181 118.501 134.825  1.00  0.00     0.118 C 
BRANCH  29  30
ATOM     30  O   UNL     1     118.307 117.499 134.375  1.00  0.00    -0.393 OA
ATOM     31  H   UNL     1     118.718 117.101 133.563  1.00  0.00     0.210 HD
ENDBRANCH  29  30
ENDBRANCH   1  11
TORSDOF 6
ENDMDL
