MODEL 1
REMARK VINA RESULT:    -3.551      0.000      0.000
REMARK INTER + INTRA:          -4.202
REMARK INTER:                  -4.174
REMARK INTRA:                  -0.028
REMARK UNBOUND:                -0.028
REMARK SMILES O=C([O-])CCC(=O)[O-]
REMARK SMILES IDX 4 1 2 2 1 3 3 4 5 5 6 6 7 7 8 8
REMARK H PARENT
REMARK Flexibility Score: inf
ROOT
ATOM      1  C   UNL     1       9.298 -12.567  28.768  1.00  0.00     0.059 C 
ENDROOT
BRANCH   1   2
ATOM      2  C   UNL     1       8.820 -12.672  27.351  1.00  0.00     0.042 C 
ATOM      3  O   UNL     1       7.944 -13.519  27.041  1.00  0.00    -0.550 OA
ATOM      4  O   UNL     1       9.374 -11.862  26.368  1.00  0.00    -0.550 OA
ENDBRANCH   1   2
BRANCH   1   5
ATOM      5  C   UNL     1       8.130 -12.423  29.749  1.00  0.00     0.059 C 
BRANCH   5   6
ATOM      6  C   UNL     1       8.554 -11.744  31.016  1.00  0.00     0.042 C 
ATOM      7  O   UNL     1       7.875 -10.792  31.484  1.00  0.00    -0.550 OA
ATOM      8  O   UNL     1       9.678 -12.190  31.700  1.00  0.00    -0.550 OA
ENDBRANCH   5   6
ENDBRANCH   1   5
TORSDOF 3
ENDMDL
MODEL 2
REMARK VINA RESULT:    -3.549      2.110      4.783
REMARK INTER + INTRA:          -4.199
REMARK INTER:                  -4.083
REMARK INTRA:                  -0.116
REMARK UNBOUND:                -0.028
REMARK SMILES O=C([O-])CCC(=O)[O-]
REMARK SMILES IDX 4 1 2 2 1 3 3 4 5 5 6 6 7 7 8 8
REMARK H PARENT
REMARK Flexibility Score: inf
ROOT
ATOM      1  C   UNL     1       8.691 -12.950  27.198  1.00  0.00     0.059 C 
ENDROOT
BRANCH   1   2
ATOM      2  C   UNL     1       9.102 -12.541  28.580  1.00  0.00     0.042 C 
ATOM      3  O   UNL     1      10.214 -12.904  29.042  1.00  0.00    -0.550 OA
ATOM      4  O   UNL     1       8.237 -11.794  29.370  1.00  0.00    -0.550 OA
ENDBRANCH   1   2
BRANCH   1   5
ATOM      5  C   UNL     1       9.018 -11.865  26.167  1.00  0.00     0.059 C 
BRANCH   5   6
ATOM      6  C   UNL     1      10.133 -12.285  25.258  1.00  0.00     0.042 C 
ATOM      7  O   UNL     1      11.280 -12.515  25.724  1.00  0.00    -0.550 OA
ATOM      8  O   UNL     1       9.894 -12.462  23.900  1.00  0.00    -0.550 OA
ENDBRANCH   5   6
ENDBRANCH   1   5
TORSDOF 3
ENDMDL
MODEL 3
REMARK VINA RESULT:    -3.520      2.196      3.129
REMARK INTER + INTRA:          -4.165
REMARK INTER:                  -4.051
REMARK INTRA:                  -0.114
REMARK UNBOUND:                -0.028
REMARK SMILES O=C([O-])CCC(=O)[O-]
REMARK SMILES IDX 4 1 2 2 1 3 3 4 5 5 6 6 7 7 8 8
REMARK H PARENT
REMARK Flexibility Score: inf
ROOT
ATOM      1  C   UNL     1       9.019 -11.809  26.022  1.00  0.00     0.059 C 
ENDROOT
BRANCH   1   2
ATOM      2  C   UNL     1      10.102 -12.152  25.044  1.00  0.00     0.042 C 
ATOM      3  O   UNL     1       9.870 -12.123  23.808  1.00  0.00    -0.550 OA
ATOM      4  O   UNL     1      11.354 -12.543  25.502  1.00  0.00    -0.550 OA
ENDBRANCH   1   2
BRANCH   1   5
ATOM      5  C   UNL     1       8.768 -12.953  27.011  1.00  0.00     0.059 C 
BRANCH   5   6
ATOM      6  C   UNL     1       9.176 -12.576  28.403  1.00  0.00     0.042 C 
ATOM      7  O   UNL     1      10.320 -12.879  28.834  1.00  0.00    -0.550 OA
ATOM      8  O   UNL     1       8.305 -11.856  29.212  1.00  0.00    -0.550 OA
ENDBRANCH   5   6
ENDBRANCH   1   5
TORSDOF 3
ENDMDL
MODEL 4
REMARK VINA RESULT:    -3.498      2.537      4.877
REMARK INTER + INTRA:          -4.139
REMARK INTER:                  -4.031
REMARK INTRA:                  -0.108
REMARK UNBOUND:                -0.028
REMARK SMILES O=C([O-])CCC(=O)[O-]
REMARK SMILES IDX 4 1 2 2 1 3 3 4 5 5 6 6 7 7 8 8
REMARK H PARENT
REMARK Flexibility Score: inf
ROOT
ATOM      1  C   UNL     1       8.507 -12.998  26.378  1.00  0.00     0.059 C 
ENDROOT
BRANCH   1   2
ATOM      2  C   UNL     1       8.779 -13.021  27.852  1.00  0.00     0.042 C 
ATOM      3  O   UNL     1       7.875 -13.368  28.656  1.00  0.00    -0.550 OA
ATOM      4  O   UNL     1      10.017 -12.620  28.338  1.00  0.00    -0.550 OA
ENDBRANCH   1   2
BRANCH   1   5
ATOM      5  C   UNL     1       8.995 -11.695  25.735  1.00  0.00     0.059 C 
BRANCH   5   6
ATOM      6  C   UNL     1      10.026 -11.954  24.679  1.00  0.00     0.042 C 
ATOM      7  O   UNL     1       9.713 -11.906  23.460  1.00  0.00    -0.550 OA
ATOM      8  O   UNL     1      11.343 -12.210  25.042  1.00  0.00    -0.550 OA
ENDBRANCH   5   6
ENDBRANCH   1   5
TORSDOF 3
ENDMDL
MODEL 5
REMARK VINA RESULT:    -3.482      2.848      5.253
REMARK INTER + INTRA:          -4.120
REMARK INTER:                  -3.984
REMARK INTRA:                  -0.136
REMARK UNBOUND:                -0.028
REMARK SMILES O=C([O-])CCC(=O)[O-]
REMARK SMILES IDX 4 1 2 2 1 3 3 4 5 5 6 6 7 7 8 8
REMARK H PARENT
REMARK Flexibility Score: inf
ROOT
ATOM      1  C   UNL     1       9.109 -11.679  25.875  1.00  0.00     0.059 C 
ENDROOT
BRANCH   1   2
ATOM      2  C   UNL     1       9.002 -12.597  27.055  1.00  0.00     0.042 C 
ATOM      3  O   UNL     1       9.878 -12.571  27.958  1.00  0.00    -0.550 OA
ATOM      4  O   UNL     1       7.955 -13.507  27.135  1.00  0.00    -0.550 OA
ENDBRANCH   1   2
BRANCH   1   5
ATOM      5  C   UNL     1       9.505 -12.438  24.604  1.00  0.00     0.059 C 
BRANCH   5   6
ATOM      6  C   UNL     1      10.983 -12.673  24.539  1.00  0.00     0.042 C 
ATOM      7  O   UNL     1      11.783 -11.816  24.999  1.00  0.00    -0.550 OA
ATOM      8  O   UNL     1      11.476 -13.858  24.005  1.00  0.00    -0.550 OA
ENDBRANCH   5   6
ENDBRANCH   1   5
TORSDOF 3
ENDMDL
MODEL 6
REMARK VINA RESULT:    -3.433      3.186      4.543
REMARK INTER + INTRA:          -4.063
REMARK INTER:                  -3.882
REMARK INTRA:                  -0.182
REMARK UNBOUND:                -0.028
REMARK SMILES O=C([O-])CCC(=O)[O-]
REMARK SMILES IDX 4 1 2 2 1 3 3 4 5 5 6 6 7 7 8 8
REMARK H PARENT
REMARK Flexibility Score: inf
ROOT
ATOM      1  C   UNL     1       9.736 -11.833  24.100  1.00  0.00     0.059 C 
ENDROOT
BRANCH   1   2
ATOM      2  C   UNL     1      11.067 -12.482  24.333  1.00  0.00     0.042 C 
ATOM      3  O   UNL     1      11.249 -13.685  24.011  1.00  0.00    -0.550 OA
ATOM      4  O   UNL     1      12.090 -11.769  24.944  1.00  0.00    -0.550 OA
ENDBRANCH   1   2
BRANCH   1   5
ATOM      5  C   UNL     1       9.155 -11.253  25.394  1.00  0.00     0.059 C 
BRANCH   5   6
ATOM      6  C   UNL     1       8.897 -12.323  26.411  1.00  0.00     0.042 C 
ATOM      7  O   UNL     1       9.530 -12.330  27.500  1.00  0.00    -0.550 OA
ATOM      8  O   UNL     1       7.929 -13.291  26.171  1.00  0.00    -0.550 OA
ENDBRANCH   5   6
ENDBRANCH   1   5
TORSDOF 3
ENDMDL
MODEL 7
REMARK VINA RESULT:    -3.282      3.182      6.015
REMARK INTER + INTRA:          -3.886
REMARK INTER:                  -3.788
REMARK INTRA:                  -0.097
REMARK UNBOUND:                -0.028
REMARK SMILES O=C([O-])CCC(=O)[O-]
REMARK SMILES IDX 4 1 2 2 1 3 3 4 5 5 6 6 7 7 8 8
REMARK H PARENT
REMARK Flexibility Score: inf
ROOT
ATOM      1  C   UNL     1       9.806 -11.450  25.378  1.00  0.00     0.059 C 
ENDROOT
BRANCH   1   2
ATOM      2  C   UNL     1       9.038 -12.319  26.327  1.00  0.00     0.042 C 
ATOM      3  O   UNL     1       8.096 -13.038  25.906  1.00  0.00    -0.550 OA
ATOM      4  O   UNL     1       9.339 -12.302  27.684  1.00  0.00    -0.550 OA
ENDBRANCH   1   2
BRANCH   1   5
ATOM      5  C   UNL     1       9.125 -11.372  24.007  1.00  0.00     0.059 C 
BRANCH   5   6
ATOM      6  C   UNL     1       9.844 -12.200  22.986  1.00  0.00     0.042 C 
ATOM      7  O   UNL     1       9.497 -12.159  21.776  1.00  0.00    -0.550 OA
ATOM      8  O   UNL     1      10.924 -12.989  23.366  1.00  0.00    -0.550 OA
ENDBRANCH   5   6
ENDBRANCH   1   5
TORSDOF 3
ENDMDL
MODEL 8
REMARK VINA RESULT:    -2.551     17.002     18.341
REMARK INTER + INTRA:          -3.026
REMARK INTER:                  -2.911
REMARK INTRA:                  -0.115
REMARK UNBOUND:                -0.028
REMARK SMILES O=C([O-])CCC(=O)[O-]
REMARK SMILES IDX 4 1 2 2 1 3 3 4 5 5 6 6 7 7 8 8
REMARK H PARENT
REMARK Flexibility Score: inf
ROOT
ATOM      1  C   UNL     1      20.635  -2.090  38.083  1.00  0.00     0.059 C 
ENDROOT
BRANCH   1   2
ATOM      2  C   UNL     1      20.330  -3.279  37.224  1.00  0.00     0.042 C 
ATOM      3  O   UNL     1      20.207  -4.419  37.742  1.00  0.00    -0.550 OA
ATOM      4  O   UNL     1      20.223  -3.133  35.846  1.00  0.00    -0.550 OA
ENDBRANCH   1   2
BRANCH   1   5
ATOM      5  C   UNL     1      22.114  -1.697  38.000  1.00  0.00     0.059 C 
BRANCH   5   6
ATOM      6  C   UNL     1      22.334  -0.581  37.025  1.00  0.00     0.042 C 
ATOM      7  O   UNL     1      21.365   0.125  36.639  1.00  0.00    -0.550 OA
ATOM      8  O   UNL     1      23.617  -0.295  36.573  1.00  0.00    -0.550 OA
ENDBRANCH   5   6
ENDBRANCH   1   5
TORSDOF 3
ENDMDL
