MODEL 1
REMARK VINA RESULT:    -3.516      0.000      0.000
REMARK INTER + INTRA:          -8.963
REMARK INTER:                  -6.598
REMARK INTRA:                  -2.365
REMARK UNBOUND:                -2.365
REMARK SMILES O=C([O-])CCCCCCCCCCCCCCC(=O)[O-]
REMARK SMILES IDX 10 1 9 2 8 3 7 4 6 5 5 6 4 7 2 8 1 9 3 10 11 11 12 12 13 13
REMARK SMILES IDX 14 14 15 15 16 16 17 17 18 18 19 19 20 20
REMARK H PARENT
REMARK Flexibility Score: inf
ROOT
ATOM      1  C   UNL     1       3.393  -6.225  -0.151  1.00  0.00     0.000 C 
ENDROOT
BRANCH   1   2
ATOM      2  C   UNL     1       4.548  -5.211  -0.114  1.00  0.00     0.000 C 
BRANCH   2   3
ATOM      3  C   UNL     1       4.057  -3.752  -0.112  1.00  0.00     0.000 C 
BRANCH   3   4
ATOM      4  C   UNL     1       4.856  -2.859   0.851  1.00  0.00     0.000 C 
BRANCH   4   5
ATOM      5  C   UNL     1       5.263  -1.520   0.212  1.00  0.00     0.000 C 
BRANCH   5   6
ATOM      6  C   UNL     1       5.279  -1.575  -1.327  1.00  0.00     0.006 C 
BRANCH   6   7
ATOM      7  C   UNL     1       6.678  -1.738  -1.943  1.00  0.00     0.053 C 
BRANCH   7   8
ATOM      8  C   UNL     1       7.091  -3.176  -2.028  1.00  0.00     0.041 C 
ATOM      9  O   UNL     1       6.796  -3.861  -3.043  1.00  0.00    -0.550 OA
ATOM     10  O   UNL     1       7.829  -3.750  -1.001  1.00  0.00    -0.550 OA
ENDBRANCH   7   8
ENDBRANCH   6   7
ENDBRANCH   5   6
ENDBRANCH   4   5
ENDBRANCH   3   4
ENDBRANCH   2   3
ENDBRANCH   1   2
BRANCH   1  11
ATOM     11  C   UNL     1       2.020  -5.562   0.044  1.00  0.00     0.000 C 
BRANCH  11  12
ATOM     12  C   UNL     1       1.059  -6.415   0.891  1.00  0.00     0.000 C 
BRANCH  12  13
ATOM     13  C   UNL     1       0.977  -5.973   2.368  1.00  0.00     0.000 C 
BRANCH  13  14
ATOM     14  C   UNL     1       1.648  -4.609   2.601  1.00  0.00     0.000 C 
BRANCH  14  15
ATOM     15  C   UNL     1       2.915  -4.714   3.464  1.00  0.00     0.000 C 
BRANCH  15  16
ATOM     16  C   UNL     1       3.212  -6.162   3.895  1.00  0.00     0.006 C 
BRANCH  16  17
ATOM     17  C   UNL     1       4.558  -6.663   3.354  1.00  0.00     0.053 C 
BRANCH  17  18
ATOM     18  C   UNL     1       5.704  -5.847   3.870  1.00  0.00     0.041 C 
ATOM     19  O   UNL     1       6.406  -5.168   3.076  1.00  0.00    -0.550 OA
ATOM     20  O   UNL     1       5.978  -5.813   5.231  1.00  0.00    -0.550 OA
ENDBRANCH  17  18
ENDBRANCH  16  17
ENDBRANCH  15  16
ENDBRANCH  14  15
ENDBRANCH  13  14
ENDBRANCH  12  13
ENDBRANCH  11  12
ENDBRANCH   1  11
TORSDOF 15
ENDMDL
MODEL 2
REMARK VINA RESULT:    -3.451      1.809      6.598
REMARK INTER + INTRA:          -8.843
REMARK INTER:                  -6.655
REMARK INTRA:                  -2.188
REMARK UNBOUND:                -2.365
REMARK SMILES O=C([O-])CCCCCCCCCCCCCCC(=O)[O-]
REMARK SMILES IDX 10 1 9 2 8 3 7 4 6 5 5 6 4 7 2 8 1 9 3 10 11 11 12 12 13 13
REMARK SMILES IDX 14 14 15 15 16 16 17 17 18 18 19 19 20 20
REMARK H PARENT
REMARK Flexibility Score: inf
ROOT
ATOM      1  C   UNL     1       6.977  -2.786   1.257  1.00  0.00     0.000 C 
ENDROOT
BRANCH   1   2
ATOM      2  C   UNL     1       5.871  -3.845   1.399  1.00  0.00     0.000 C 
BRANCH   2   3
ATOM      3  C   UNL     1       4.489  -3.320   0.972  1.00  0.00     0.000 C 
BRANCH   3   4
ATOM      4  C   UNL     1       3.784  -4.252  -0.028  1.00  0.00     0.000 C 
BRANCH   4   5
ATOM      5  C   UNL     1       2.340  -4.579   0.390  1.00  0.00     0.000 C 
BRANCH   5   6
ATOM      6  C   UNL     1       2.065  -4.270   1.873  1.00  0.00     0.006 C 
BRANCH   6   7
ATOM      7  C   UNL     1       1.374  -5.408   2.642  1.00  0.00     0.053 C 
BRANCH   7   8
ATOM      8  C   UNL     1       2.343  -6.200   3.465  1.00  0.00     0.041 C 
ATOM      9  O   UNL     1       1.925  -7.068   4.275  1.00  0.00    -0.550 OA
ATOM     10  O   UNL     1       3.710  -6.002   3.313  1.00  0.00    -0.550 OA
ENDBRANCH   7   8
ENDBRANCH   6   7
ENDBRANCH   5   6
ENDBRANCH   4   5
ENDBRANCH   3   4
ENDBRANCH   2   3
ENDBRANCH   1   2
BRANCH   1  11
ATOM     11  C   UNL     1       6.419  -1.356   1.191  1.00  0.00     0.000 C 
BRANCH  11  12
ATOM     12  C   UNL     1       7.375  -0.373   0.492  1.00  0.00     0.000 C 
BRANCH  12  13
ATOM     13  C   UNL     1       7.144  -0.261  -1.030  1.00  0.00     0.000 C 
BRANCH  13  14
ATOM     14  C   UNL     1       5.686  -0.561  -1.417  1.00  0.00     0.000 C 
BRANCH  14  15
ATOM     15  C   UNL     1       5.559  -1.786  -2.335  1.00  0.00     0.000 C 
BRANCH  15  16
ATOM     16  C   UNL     1       6.859  -2.609  -2.398  1.00  0.00     0.006 C 
BRANCH  16  17
ATOM     17  C   UNL     1       6.591  -4.119  -2.357  1.00  0.00     0.053 C 
BRANCH  17  18
ATOM     18  C   UNL     1       7.833  -4.897  -2.043  1.00  0.00     0.041 C 
ATOM     19  O   UNL     1       8.711  -4.409  -1.285  1.00  0.00    -0.550 OA
ATOM     20  O   UNL     1       8.006  -6.173  -2.564  1.00  0.00    -0.550 OA
ENDBRANCH  17  18
ENDBRANCH  16  17
ENDBRANCH  15  16
ENDBRANCH  14  15
ENDBRANCH  13  14
ENDBRANCH  12  13
ENDBRANCH  11  12
ENDBRANCH   1  11
TORSDOF 15
ENDMDL
MODEL 3
REMARK VINA RESULT:    -3.418      2.966      6.350
REMARK INTER + INTRA:          -8.780
REMARK INTER:                  -6.524
REMARK INTRA:                  -2.256
REMARK UNBOUND:                -2.365
REMARK SMILES O=C([O-])CCCCCCCCCCCCCCC(=O)[O-]
REMARK SMILES IDX 10 1 9 2 8 3 7 4 6 5 5 6 4 7 2 8 1 9 3 10 11 11 12 12 13 13
REMARK SMILES IDX 14 14 15 15 16 16 17 17 18 18 19 19 20 20
REMARK H PARENT
REMARK Flexibility Score: inf
ROOT
ATOM      1  C   UNL     1       5.015  -5.629   3.261  1.00  0.00     0.000 C 
ENDROOT
BRANCH   1   2
ATOM      2  C   UNL     1       3.573  -5.752   3.781  1.00  0.00     0.000 C 
BRANCH   2   3
ATOM      3  C   UNL     1       2.693  -4.556   3.375  1.00  0.00     0.000 C 
BRANCH   3   4
ATOM      4  C   UNL     1       1.608  -4.938   2.355  1.00  0.00     0.000 C 
BRANCH   4   5
ATOM      5  C   UNL     1       1.870  -4.335   0.964  1.00  0.00     0.000 C 
BRANCH   5   6
ATOM      6  C   UNL     1       2.067  -5.409  -0.123  1.00  0.00     0.006 C 
BRANCH   6   7
ATOM      7  C   UNL     1       1.581  -6.812   0.275  1.00  0.00     0.053 C 
BRANCH   7   8
ATOM      8  C   UNL     1       0.550  -7.341  -0.675  1.00  0.00     0.041 C 
ATOM      9  O   UNL     1      -0.212  -8.280  -0.326  1.00  0.00    -0.550 OA
ATOM     10  O   UNL     1       0.410  -6.772  -1.936  1.00  0.00    -0.550 OA
ENDBRANCH   7   8
ENDBRANCH   6   7
ENDBRANCH   5   6
ENDBRANCH   4   5
ENDBRANCH   3   4
ENDBRANCH   2   3
ENDBRANCH   1   2
BRANCH   1  11
ATOM     11  C   UNL     1       5.173  -6.162   1.828  1.00  0.00     0.000 C 
BRANCH  11  12
ATOM     12  C   UNL     1       5.664  -5.087   0.842  1.00  0.00     0.000 C 
BRANCH  12  13
ATOM     13  C   UNL     1       5.829  -3.691   1.479  1.00  0.00     0.000 C 
BRANCH  13  14
ATOM     14  C   UNL     1       5.139  -2.593   0.652  1.00  0.00     0.000 C 
BRANCH  14  15
ATOM     15  C   UNL     1       4.868  -3.027  -0.797  1.00  0.00     0.000 C 
BRANCH  15  16
ATOM     16  C   UNL     1       5.712  -2.238  -1.813  1.00  0.00     0.006 C 
BRANCH  16  17
ATOM     17  C   UNL     1       5.446  -0.728  -1.741  1.00  0.00     0.053 C 
BRANCH  17  18
ATOM     18  C   UNL     1       6.708   0.052  -1.534  1.00  0.00     0.041 C 
ATOM     19  O   UNL     1       7.576  -0.354  -0.718  1.00  0.00    -0.550 OA
ATOM     20  O   UNL     1       6.939   1.210  -2.265  1.00  0.00    -0.550 OA
ENDBRANCH  17  18
ENDBRANCH  16  17
ENDBRANCH  15  16
ENDBRANCH  14  15
ENDBRANCH  13  14
ENDBRANCH  12  13
ENDBRANCH  11  12
ENDBRANCH   1  11
TORSDOF 15
ENDMDL
MODEL 4
REMARK VINA RESULT:    -3.386      2.253      6.889
REMARK INTER + INTRA:          -8.721
REMARK INTER:                  -7.219
REMARK INTRA:                  -1.501
REMARK UNBOUND:                -2.365
REMARK SMILES O=C([O-])CCCCCCCCCCCCCCC(=O)[O-]
REMARK SMILES IDX 10 1 9 2 8 3 7 4 6 5 5 6 4 7 2 8 1 9 3 10 11 11 12 12 13 13
REMARK SMILES IDX 14 14 15 15 16 16 17 17 18 18 19 19 20 20
REMARK H PARENT
REMARK Flexibility Score: inf
ROOT
ATOM      1  C   UNL     1       1.603  -5.928   1.411  1.00  0.00     0.000 C 
ENDROOT
BRANCH   1   2
ATOM      2  C   UNL     1       1.471  -4.679   2.298  1.00  0.00     0.000 C 
BRANCH   2   3
ATOM      3  C   UNL     1       2.601  -4.566   3.335  1.00  0.00     0.000 C 
BRANCH   3   4
ATOM      4  C   UNL     1       3.272  -5.918   3.631  1.00  0.00     0.000 C 
BRANCH   4   5
ATOM      5  C   UNL     1       4.601  -5.763   4.390  1.00  0.00     0.000 C 
BRANCH   5   6
ATOM      6  C   UNL     1       4.442  -5.947   5.911  1.00  0.00     0.006 C 
BRANCH   6   7
ATOM      7  C   UNL     1       5.742  -5.771   6.712  1.00  0.00     0.053 C 
BRANCH   7   8
ATOM      8  C   UNL     1       5.507  -5.084   8.022  1.00  0.00     0.041 C 
ATOM      9  O   UNL     1       5.113  -3.888   8.049  1.00  0.00    -0.550 OA
ATOM     10  O   UNL     1       5.693  -5.775   9.214  1.00  0.00    -0.550 OA
ENDBRANCH   7   8
ENDBRANCH   6   7
ENDBRANCH   5   6
ENDBRANCH   4   5
ENDBRANCH   3   4
ENDBRANCH   2   3
ENDBRANCH   1   2
BRANCH   1  11
ATOM     11  C   UNL     1       2.080  -5.594  -0.011  1.00  0.00     0.000 C 
BRANCH  11  12
ATOM     12  C   UNL     1       3.462  -6.188  -0.334  1.00  0.00     0.000 C 
BRANCH  12  13
ATOM     13  C   UNL     1       4.634  -5.230  -0.032  1.00  0.00     0.000 C 
BRANCH  13  14
ATOM     14  C   UNL     1       4.263  -3.761  -0.298  1.00  0.00     0.000 C 
BRANCH  14  15
ATOM     15  C   UNL     1       4.650  -2.834   0.864  1.00  0.00     0.000 C 
BRANCH  15  16
ATOM     16  C   UNL     1       5.566  -1.681   0.414  1.00  0.00     0.006 C 
BRANCH  16  17
ATOM     17  C   UNL     1       5.934  -1.780  -1.072  1.00  0.00     0.053 C 
BRANCH  17  18
ATOM     18  C   UNL     1       5.948  -0.435  -1.733  1.00  0.00     0.041 C 
ATOM     19  O   UNL     1       6.913   0.351  -1.550  1.00  0.00    -0.550 OA
ATOM     20  O   UNL     1       4.909  -0.063  -2.577  1.00  0.00    -0.550 OA
ENDBRANCH  17  18
ENDBRANCH  16  17
ENDBRANCH  15  16
ENDBRANCH  14  15
ENDBRANCH  13  14
ENDBRANCH  12  13
ENDBRANCH  11  12
ENDBRANCH   1  11
TORSDOF 15
ENDMDL
MODEL 5
REMARK VINA RESULT:    -3.382      1.774      2.320
REMARK INTER + INTRA:          -8.713
REMARK INTER:                  -7.188
REMARK INTRA:                  -1.524
REMARK UNBOUND:                -2.365
REMARK SMILES O=C([O-])CCCCCCCCCCCCCCC(=O)[O-]
REMARK SMILES IDX 10 1 9 2 8 3 7 4 6 5 5 6 4 7 2 8 1 9 3 10 11 11 12 12 13 13
REMARK SMILES IDX 14 14 15 15 16 16 17 17 18 18 19 19 20 20
REMARK H PARENT
REMARK Flexibility Score: inf
ROOT
ATOM      1  C   UNL     1       4.266  -5.389  -0.242  1.00  0.00     0.000 C 
ENDROOT
BRANCH   1   2
ATOM      2  C   UNL     1       3.811  -3.940   0.003  1.00  0.00     0.000 C 
BRANCH   2   3
ATOM      3  C   UNL     1       4.952  -3.036   0.500  1.00  0.00     0.000 C 
BRANCH   3   4
ATOM      4  C   UNL     1       6.144  -2.998  -0.471  1.00  0.00     0.000 C 
BRANCH   4   5
ATOM      5  C   UNL     1       5.819  -2.249  -1.775  1.00  0.00     0.000 C 
BRANCH   5   6
ATOM      6  C   UNL     1       5.280  -0.828  -1.526  1.00  0.00     0.006 C 
BRANCH   6   7
ATOM      7  C   UNL     1       6.140   0.293  -2.132  1.00  0.00     0.053 C 
BRANCH   7   8
ATOM      8  C   UNL     1       7.437   0.463  -1.403  1.00  0.00     0.041 C 
ATOM      9  O   UNL     1       7.492   0.288  -0.157  1.00  0.00    -0.550 OA
ATOM     10  O   UNL     1       8.593   0.783  -2.105  1.00  0.00    -0.550 OA
ENDBRANCH   7   8
ENDBRANCH   6   7
ENDBRANCH   5   6
ENDBRANCH   4   5
ENDBRANCH   3   4
ENDBRANCH   2   3
ENDBRANCH   1   2
BRANCH   1  11
ATOM     11  C   UNL     1       3.096  -6.385  -0.224  1.00  0.00     0.000 C 
BRANCH  11  12
ATOM     12  C   UNL     1       1.768  -5.739   0.209  1.00  0.00     0.000 C 
BRANCH  12  13
ATOM     13  C   UNL     1       0.933  -6.620   1.162  1.00  0.00     0.000 C 
BRANCH  13  14
ATOM     14  C   UNL     1       0.875  -6.038   2.585  1.00  0.00     0.000 C 
BRANCH  14  15
ATOM     15  C   UNL     1       1.544  -4.659   2.686  1.00  0.00     0.000 C 
BRANCH  15  16
ATOM     16  C   UNL     1       2.876  -4.708   3.455  1.00  0.00     0.006 C 
BRANCH  16  17
ATOM     17  C   UNL     1       3.151  -6.095   4.051  1.00  0.00     0.053 C 
BRANCH  17  18
ATOM     18  C   UNL     1       4.400  -6.109   4.878  1.00  0.00     0.041 C 
ATOM     19  O   UNL     1       5.416  -6.735   4.480  1.00  0.00    -0.550 OA
ATOM     20  O   UNL     1       4.451  -5.405   6.074  1.00  0.00    -0.550 OA
ENDBRANCH  17  18
ENDBRANCH  16  17
ENDBRANCH  15  16
ENDBRANCH  14  15
ENDBRANCH  13  14
ENDBRANCH  12  13
ENDBRANCH  11  12
ENDBRANCH   1  11
TORSDOF 15
ENDMDL
MODEL 6
REMARK VINA RESULT:    -3.376      2.185      6.475
REMARK INTER + INTRA:          -8.701
REMARK INTER:                  -6.486
REMARK INTRA:                  -2.216
REMARK UNBOUND:                -2.365
REMARK SMILES O=C([O-])CCCCCCCCCCCCCCC(=O)[O-]
REMARK SMILES IDX 10 1 9 2 8 3 7 4 6 5 5 6 4 7 2 8 1 9 3 10 11 11 12 12 13 13
REMARK SMILES IDX 14 14 15 15 16 16 17 17 18 18 19 19 20 20
REMARK H PARENT
REMARK Flexibility Score: inf
ROOT
ATOM      1  C   UNL     1       4.791  -6.889   0.804  1.00  0.00     0.000 C 
ENDROOT
BRANCH   1   2
ATOM      2  C   UNL     1       3.892  -6.324  -0.309  1.00  0.00     0.000 C 
BRANCH   2   3
ATOM      3  C   UNL     1       2.409  -6.269   0.098  1.00  0.00     0.000 C 
BRANCH   3   4
ATOM      4  C   UNL     1       1.839  -4.841   0.067  1.00  0.00     0.000 C 
BRANCH   4   5
ATOM      5  C   UNL     1       2.016  -4.107   1.408  1.00  0.00     0.000 C 
BRANCH   5   6
ATOM      6  C   UNL     1       1.641  -4.981   2.619  1.00  0.00     0.006 C 
BRANCH   6   7
ATOM      7  C   UNL     1       2.788  -5.208   3.618  1.00  0.00     0.053 C 
BRANCH   7   8
ATOM      8  C   UNL     1       2.778  -6.598   4.178  1.00  0.00     0.041 C 
ATOM      9  O   UNL     1       1.817  -7.373   3.935  1.00  0.00    -0.550 OA
ATOM     10  O   UNL     1       3.849  -7.047   4.942  1.00  0.00    -0.550 OA
ENDBRANCH   7   8
ENDBRANCH   6   7
ENDBRANCH   5   6
ENDBRANCH   4   5
ENDBRANCH   3   4
ENDBRANCH   2   3
ENDBRANCH   1   2
BRANCH   1  11
ATOM     11  C   UNL     1       5.493  -5.785   1.611  1.00  0.00     0.000 C 
BRANCH  11  12
ATOM     12  C   UNL     1       6.086  -4.679   0.721  1.00  0.00     0.000 C 
BRANCH  12  13
ATOM     13  C   UNL     1       5.608  -3.260   1.097  1.00  0.00     0.000 C 
BRANCH  13  14
ATOM     14  C   UNL     1       4.926  -2.548  -0.085  1.00  0.00     0.000 C 
BRANCH  14  15
ATOM     15  C   UNL     1       5.471  -3.008  -1.445  1.00  0.00     0.000 C 
BRANCH  15  16
ATOM     16  C   UNL     1       5.912  -1.828  -2.330  1.00  0.00     0.006 C 
BRANCH  16  17
ATOM     17  C   UNL     1       5.617  -0.472  -1.676  1.00  0.00     0.053 C 
BRANCH  17  18
ATOM     18  C   UNL     1       6.869   0.317  -1.440  1.00  0.00     0.041 C 
ATOM     19  O   UNL     1       7.592   0.073  -0.440  1.00  0.00    -0.550 OA
ATOM     20  O   UNL     1       7.252   1.301  -2.342  1.00  0.00    -0.550 OA
ENDBRANCH  17  18
ENDBRANCH  16  17
ENDBRANCH  15  16
ENDBRANCH  14  15
ENDBRANCH  13  14
ENDBRANCH  12  13
ENDBRANCH  11  12
ENDBRANCH   1  11
TORSDOF 15
ENDMDL
MODEL 7
REMARK VINA RESULT:    -3.375      2.545      3.843
REMARK INTER + INTRA:          -8.699
REMARK INTER:                  -6.724
REMARK INTRA:                  -1.975
REMARK UNBOUND:                -2.365
REMARK SMILES O=C([O-])CCCCCCCCCCCCCCC(=O)[O-]
REMARK SMILES IDX 10 1 9 2 8 3 7 4 6 5 5 6 4 7 2 8 1 9 3 10 11 11 12 12 13 13
REMARK SMILES IDX 14 14 15 15 16 16 17 17 18 18 19 19 20 20
REMARK H PARENT
REMARK Flexibility Score: inf
ROOT
ATOM      1  C   UNL     1       6.658  -4.655   2.337  1.00  0.00     0.000 C 
ENDROOT
BRANCH   1   2
ATOM      2  C   UNL     1       6.521  -3.450   1.391  1.00  0.00     0.000 C 
BRANCH   2   3
ATOM      3  C   UNL     1       5.054  -3.103   1.082  1.00  0.00     0.000 C 
BRANCH   3   4
ATOM      4  C   UNL     1       4.725  -3.200  -0.417  1.00  0.00     0.000 C 
BRANCH   4   5
ATOM      5  C   UNL     1       5.941  -3.617  -1.261  1.00  0.00     0.000 C 
BRANCH   5   6
ATOM      6  C   UNL     1       6.293  -2.585  -2.349  1.00  0.00     0.006 C 
BRANCH   6   7
ATOM      7  C   UNL     1       7.146  -1.406  -1.854  1.00  0.00     0.053 C 
BRANCH   7   8
ATOM      8  C   UNL     1       6.421  -0.100  -1.968  1.00  0.00     0.041 C 
ATOM      9  O   UNL     1       7.065   0.982  -2.001  1.00  0.00    -0.550 OA
ATOM     10  O   UNL     1       5.035  -0.080  -2.070  1.00  0.00    -0.550 OA
ENDBRANCH   7   8
ENDBRANCH   6   7
ENDBRANCH   5   6
ENDBRANCH   4   5
ENDBRANCH   3   4
ENDBRANCH   2   3
ENDBRANCH   1   2
BRANCH   1  11
ATOM     11  C   UNL     1       6.008  -5.927   1.771  1.00  0.00     0.000 C 
BRANCH  11  12
ATOM     12  C   UNL     1       5.031  -6.589   2.758  1.00  0.00     0.000 C 
BRANCH  12  13
ATOM     13  C   UNL     1       4.794  -5.765   4.041  1.00  0.00     0.000 C 
BRANCH  13  14
ATOM     14  C   UNL     1       3.344  -5.262   4.146  1.00  0.00     0.000 C 
BRANCH  14  15
ATOM     15  C   UNL     1       2.335  -6.237   3.520  1.00  0.00     0.000 C 
BRANCH  15  16
ATOM     16  C   UNL     1       1.261  -5.514   2.686  1.00  0.00     0.006 C 
BRANCH  16  17
ATOM     17  C   UNL     1       1.876  -4.588   1.628  1.00  0.00     0.053 C 
BRANCH  17  18
ATOM     18  C   UNL     1       1.951  -5.248   0.286  1.00  0.00     0.041 C 
ATOM     19  O   UNL     1       2.825  -6.124   0.059  1.00  0.00    -0.550 OA
ATOM     20  O   UNL     1       1.035  -4.919  -0.705  1.00  0.00    -0.550 OA
ENDBRANCH  17  18
ENDBRANCH  16  17
ENDBRANCH  15  16
ENDBRANCH  14  15
ENDBRANCH  13  14
ENDBRANCH  12  13
ENDBRANCH  11  12
ENDBRANCH   1  11
TORSDOF 15
ENDMDL
MODEL 8
REMARK VINA RESULT:    -3.349      1.821      2.418
REMARK INTER + INTRA:          -8.651
REMARK INTER:                  -6.281
REMARK INTRA:                  -2.370
REMARK UNBOUND:                -2.365
REMARK SMILES O=C([O-])CCCCCCCCCCCCCCC(=O)[O-]
REMARK SMILES IDX 10 1 9 2 8 3 7 4 6 5 5 6 4 7 2 8 1 9 3 10 11 11 12 12 13 13
REMARK SMILES IDX 14 14 15 15 16 16 17 17 18 18 19 19 20 20
REMARK H PARENT
REMARK Flexibility Score: inf
ROOT
ATOM      1  C   UNL     1       5.765  -5.512   0.286  1.00  0.00     0.000 C 
ENDROOT
BRANCH   1   2
ATOM      2  C   UNL     1       5.833  -4.395   1.342  1.00  0.00     0.000 C 
BRANCH   2   3
ATOM      3  C   UNL     1       7.050  -3.472   1.151  1.00  0.00     0.000 C 
BRANCH   3   4
ATOM      4  C   UNL     1       6.705  -1.988   1.351  1.00  0.00     0.000 C 
BRANCH   4   5
ATOM      5  C   UNL     1       5.373  -1.597   0.688  1.00  0.00     0.000 C 
BRANCH   5   6
ATOM      6  C   UNL     1       5.566  -0.921  -0.682  1.00  0.00     0.006 C 
BRANCH   6   7
ATOM      7  C   UNL     1       5.297  -1.838  -1.886  1.00  0.00     0.053 C 
BRANCH   7   8
ATOM      8  C   UNL     1       6.519  -2.604  -2.294  1.00  0.00     0.041 C 
ATOM      9  O   UNL     1       6.414  -3.779  -2.731  1.00  0.00    -0.550 OA
ATOM     10  O   UNL     1       7.772  -2.005  -2.221  1.00  0.00    -0.550 OA
ENDBRANCH   7   8
ENDBRANCH   6   7
ENDBRANCH   5   6
ENDBRANCH   4   5
ENDBRANCH   3   4
ENDBRANCH   2   3
ENDBRANCH   1   2
BRANCH   1  11
ATOM     11  C   UNL     1       4.357  -5.680  -0.304  1.00  0.00     0.000 C 
BRANCH  11  12
ATOM     12  C   UNL     1       3.422  -4.505   0.034  1.00  0.00     0.000 C 
BRANCH  12  13
ATOM     13  C   UNL     1       1.943  -4.916   0.194  1.00  0.00     0.000 C 
BRANCH  13  14
ATOM     14  C   UNL     1       1.533  -5.038   1.671  1.00  0.00     0.000 C 
BRANCH  14  15
ATOM     15  C   UNL     1       2.475  -4.271   2.611  1.00  0.00     0.000 C 
BRANCH  15  16
ATOM     16  C   UNL     1       3.022  -5.158   3.744  1.00  0.00     0.006 C 
BRANCH  16  17
ATOM     17  C   UNL     1       3.518  -6.516   3.230  1.00  0.00     0.053 C 
BRANCH  17  18
ATOM     18  C   UNL     1       2.889  -7.656   3.972  1.00  0.00     0.041 C 
ATOM     19  O   UNL     1       3.523  -8.730   4.138  1.00  0.00    -0.550 OA
ATOM     20  O   UNL     1       1.615  -7.520   4.507  1.00  0.00    -0.550 OA
ENDBRANCH  17  18
ENDBRANCH  16  17
ENDBRANCH  15  16
ENDBRANCH  14  15
ENDBRANCH  13  14
ENDBRANCH  12  13
ENDBRANCH  11  12
ENDBRANCH   1  11
TORSDOF 15
ENDMDL
MODEL 9
REMARK VINA RESULT:    -3.280      1.648      2.500
REMARK INTER + INTRA:          -8.521
REMARK INTER:                  -6.882
REMARK INTRA:                  -1.638
REMARK UNBOUND:                -2.365
REMARK SMILES O=C([O-])CCCCCCCCCCCCCCC(=O)[O-]
REMARK SMILES IDX 10 1 9 2 8 3 7 4 6 5 5 6 4 7 2 8 1 9 3 10 11 11 12 12 13 13
REMARK SMILES IDX 14 14 15 15 16 16 17 17 18 18 19 19 20 20
REMARK H PARENT
REMARK Flexibility Score: inf
ROOT
ATOM      1  C   UNL     1       4.558  -3.517   0.999  1.00  0.00     0.000 C 
ENDROOT
BRANCH   1   2
ATOM      2  C   UNL     1       4.924  -2.370   0.043  1.00  0.00     0.000 C 
BRANCH   2   3
ATOM      3  C   UNL     1       5.450  -2.874  -1.312  1.00  0.00     0.000 C 
BRANCH   3   4
ATOM      4  C   UNL     1       5.667  -1.736  -2.324  1.00  0.00     0.000 C 
BRANCH   4   5
ATOM      5  C   UNL     1       5.608  -0.345  -1.668  1.00  0.00     0.000 C 
BRANCH   5   6
ATOM      6  C   UNL     1       6.917   0.449  -1.838  1.00  0.00     0.006 C 
BRANCH   6   7
ATOM      7  C   UNL     1       7.811   0.475  -0.588  1.00  0.00     0.053 C 
BRANCH   7   8
ATOM      8  C   UNL     1       8.590  -0.795  -0.427  1.00  0.00     0.041 C 
ATOM      9  O   UNL     1       8.326  -1.585   0.517  1.00  0.00    -0.550 OA
ATOM     10  O   UNL     1       9.586  -1.121  -1.340  1.00  0.00    -0.550 OA
ENDBRANCH   7   8
ENDBRANCH   6   7
ENDBRANCH   5   6
ENDBRANCH   4   5
ENDBRANCH   3   4
ENDBRANCH   2   3
ENDBRANCH   1   2
BRANCH   1  11
ATOM     11  C   UNL     1       3.737  -4.619   0.311  1.00  0.00     0.000 C 
BRANCH  11  12
ATOM     12  C   UNL     1       2.225  -4.482   0.560  1.00  0.00     0.000 C 
BRANCH  12  13
ATOM     13  C   UNL     1       1.841  -4.473   2.055  1.00  0.00     0.000 C 
BRANCH  13  14
ATOM     14  C   UNL     1       1.431  -5.868   2.555  1.00  0.00     0.000 C 
BRANCH  14  15
ATOM     15  C   UNL     1       2.309  -6.361   3.715  1.00  0.00     0.000 C 
BRANCH  15  16
ATOM     16  C   UNL     1       3.359  -5.319   4.139  1.00  0.00     0.006 C 
BRANCH  16  17
ATOM     17  C   UNL     1       4.688  -5.969   4.548  1.00  0.00     0.053 C 
BRANCH  17  18
ATOM     18  C   UNL     1       5.657  -6.021   3.407  1.00  0.00     0.041 C 
ATOM     19  O   UNL     1       6.655  -5.254   3.388  1.00  0.00    -0.550 OA
ATOM     20  O   UNL     1       5.475  -6.937   2.379  1.00  0.00    -0.550 OA
ENDBRANCH  17  18
ENDBRANCH  16  17
ENDBRANCH  15  16
ENDBRANCH  14  15
ENDBRANCH  13  14
ENDBRANCH  12  13
ENDBRANCH  11  12
ENDBRANCH   1  11
TORSDOF 15
ENDMDL
