MODEL 1
REMARK VINA RESULT:    -2.650      0.000      0.000
REMARK INTER + INTRA:          -4.580
REMARK INTER:                  -4.045
REMARK INTRA:                  -0.535
REMARK UNBOUND:                -0.535
REMARK SMILES O=C([O-])CCCCCCCCC(=O)[O-]
REMARK SMILES IDX 7 1 6 2 5 3 4 4 2 5 1 6 3 7 8 8 9 9 10 10 11 11 12 12 13 13
REMARK SMILES IDX 14 14
REMARK H PARENT
REMARK Flexibility Score: inf
ROOT
ATOM      1  C   UNL     1      27.111   8.373  -0.745  1.00  0.00     0.000 C 
ENDROOT
BRANCH   1   2
ATOM      2  C   UNL     1      27.677   9.766  -0.430  1.00  0.00     0.000 C 
BRANCH   2   3
ATOM      3  C   UNL     1      29.085   9.933  -1.022  1.00  0.00     0.006 C 
BRANCH   3   4
ATOM      4  C   UNL     1      29.107  10.919  -2.198  1.00  0.00     0.053 C 
BRANCH   4   5
ATOM      5  C   UNL     1      28.397  10.372  -3.397  1.00  0.00     0.041 C 
ATOM      6  O   UNL     1      27.488  11.040  -3.955  1.00  0.00    -0.550 OA
ATOM      7  O   UNL     1      28.765   9.139  -3.922  1.00  0.00    -0.550 OA
ENDBRANCH   4   5
ENDBRANCH   3   4
ENDBRANCH   2   3
ENDBRANCH   1   2
BRANCH   1   8
ATOM      8  C   UNL     1      28.208   7.305  -0.889  1.00  0.00     0.000 C 
BRANCH   8   9
ATOM      9  C   UNL     1      27.659   5.872  -0.766  1.00  0.00     0.000 C 
BRANCH   9  10
ATOM     10  C   UNL     1      26.166   5.780  -1.144  1.00  0.00     0.006 C 
BRANCH  10  11
ATOM     11  C   UNL     1      25.636   4.340  -1.208  1.00  0.00     0.053 C 
BRANCH  11  12
ATOM     12  C   UNL     1      24.673   4.136  -2.335  1.00  0.00     0.041 C 
ATOM     13  O   UNL     1      24.266   5.120  -3.006  1.00  0.00    -0.550 OA
ATOM     14  O   UNL     1      24.205   2.861  -2.628  1.00  0.00    -0.550 OA
ENDBRANCH  11  12
ENDBRANCH  10  11
ENDBRANCH   9  10
ENDBRANCH   8   9
ENDBRANCH   1   8
TORSDOF 9
ENDMDL
MODEL 2
REMARK VINA RESULT:    -2.138      6.189     10.812
REMARK INTER + INTRA:          -3.797
REMARK INTER:                  -3.529
REMARK INTRA:                  -0.268
REMARK UNBOUND:                -0.535
REMARK SMILES O=C([O-])CCCCCCCCC(=O)[O-]
REMARK SMILES IDX 7 1 6 2 5 3 4 4 2 5 1 6 3 7 8 8 9 9 10 10 11 11 12 12 13 13
REMARK SMILES IDX 14 14
REMARK H PARENT
REMARK Flexibility Score: inf
ROOT
ATOM      1  C   UNL     1      24.371  -1.643  -3.307  1.00  0.00     0.000 C 
ENDROOT
BRANCH   1   2
ATOM      2  C   UNL     1      25.536  -2.353  -2.601  1.00  0.00     0.000 C 
BRANCH   2   3
ATOM      3  C   UNL     1      26.132  -3.450  -3.496  1.00  0.00     0.006 C 
BRANCH   3   4
ATOM      4  C   UNL     1      26.130  -4.823  -2.810  1.00  0.00     0.053 C 
BRANCH   4   5
ATOM      5  C   UNL     1      27.444  -5.120  -2.155  1.00  0.00     0.041 C 
ATOM      6  O   UNL     1      28.343  -5.733  -2.788  1.00  0.00    -0.550 OA
ATOM      7  O   UNL     1      27.689  -4.689  -0.858  1.00  0.00    -0.550 OA
ENDBRANCH   4   5
ENDBRANCH   3   4
ENDBRANCH   2   3
ENDBRANCH   1   2
BRANCH   1   8
ATOM      8  C   UNL     1      23.435  -0.917  -2.326  1.00  0.00     0.000 C 
BRANCH   8   9
ATOM      9  C   UNL     1      22.908   0.416  -2.887  1.00  0.00     0.000 C 
BRANCH   9  10
ATOM     10  C   UNL     1      23.988   1.518  -2.895  1.00  0.00     0.006 C 
BRANCH  10  11
ATOM     11  C   UNL     1      23.449   2.910  -2.530  1.00  0.00     0.053 C 
BRANCH  11  12
ATOM     12  C   UNL     1      24.538   3.929  -2.411  1.00  0.00     0.041 C 
ATOM     13  O   UNL     1      24.395   5.070  -2.923  1.00  0.00    -0.550 OA
ATOM     14  O   UNL     1      25.721   3.611  -1.756  1.00  0.00    -0.550 OA
ENDBRANCH  11  12
ENDBRANCH  10  11
ENDBRANCH   9  10
ENDBRANCH   8   9
ENDBRANCH   1   8
TORSDOF 9
ENDMDL
MODEL 3
REMARK VINA RESULT:    -2.119      6.071      9.315
REMARK INTER + INTRA:          -3.769
REMARK INTER:                  -3.471
REMARK INTRA:                  -0.298
REMARK UNBOUND:                -0.535
REMARK SMILES O=C([O-])CCCCCCCCC(=O)[O-]
REMARK SMILES IDX 7 1 6 2 5 3 4 4 2 5 1 6 3 7 8 8 9 9 10 10 11 11 12 12 13 13
REMARK SMILES IDX 14 14
REMARK H PARENT
REMARK Flexibility Score: inf
ROOT
ATOM      1  C   UNL     1      23.136  -0.961  -2.455  1.00  0.00     0.000 C 
ENDROOT
BRANCH   1   2
ATOM      2  C   UNL     1      22.685   0.485  -2.711  1.00  0.00     0.000 C 
BRANCH   2   3
ATOM      3  C   UNL     1      23.893   1.428  -2.803  1.00  0.00     0.006 C 
BRANCH   3   4
ATOM      4  C   UNL     1      23.482   2.906  -2.752  1.00  0.00     0.053 C 
BRANCH   4   5
ATOM      5  C   UNL     1      24.614   3.785  -2.318  1.00  0.00     0.041 C 
ATOM      6  O   UNL     1      25.596   3.295  -1.701  1.00  0.00    -0.550 OA
ATOM      7  O   UNL     1      24.602   5.139  -2.628  1.00  0.00    -0.550 OA
ENDBRANCH   4   5
ENDBRANCH   3   4
ENDBRANCH   2   3
ENDBRANCH   1   2
BRANCH   1   8
ATOM      8  C   UNL     1      24.321  -1.379  -3.341  1.00  0.00     0.000 C 
BRANCH   8   9
ATOM      9  C   UNL     1      25.360  -2.225  -2.582  1.00  0.00     0.000 C 
BRANCH   9  10
ATOM     10  C   UNL     1      25.876  -3.412  -3.421  1.00  0.00     0.006 C 
BRANCH  10  11
ATOM     11  C   UNL     1      27.271  -3.901  -3.001  1.00  0.00     0.053 C 
BRANCH  11  12
ATOM     12  C   UNL     1      27.207  -5.008  -1.995  1.00  0.00     0.041 C 
ATOM     13  O   UNL     1      26.712  -6.122  -2.311  1.00  0.00    -0.550 OA
ATOM     14  O   UNL     1      27.671  -4.801  -0.702  1.00  0.00    -0.550 OA
ENDBRANCH  11  12
ENDBRANCH  10  11
ENDBRANCH   9  10
ENDBRANCH   8   9
ENDBRANCH   1   8
TORSDOF 9
ENDMDL
MODEL 4
REMARK VINA RESULT:    -1.852      1.400      2.051
REMARK INTER + INTRA:          -3.361
REMARK INTER:                  -2.972
REMARK INTRA:                  -0.389
REMARK UNBOUND:                -0.535
REMARK SMILES O=C([O-])CCCCCCCCC(=O)[O-]
REMARK SMILES IDX 7 1 6 2 5 3 4 4 2 5 1 6 3 7 8 8 9 9 10 10 11 11 12 12 13 13
REMARK SMILES IDX 14 14
REMARK H PARENT
REMARK Flexibility Score: inf
ROOT
ATOM      1  C   UNL     1      27.561   7.880  -1.739  1.00  0.00     0.000 C 
ENDROOT
BRANCH   1   2
ATOM      2  C   UNL     1      26.704   8.542  -2.829  1.00  0.00     0.000 C 
BRANCH   2   3
ATOM      3  C   UNL     1      27.587   9.246  -3.870  1.00  0.00     0.006 C 
BRANCH   3   4
ATOM      4  C   UNL     1      28.933   9.692  -3.282  1.00  0.00     0.053 C 
BRANCH   4   5
ATOM      5  C   UNL     1      28.831  11.025  -2.606  1.00  0.00     0.041 C 
ATOM      6  O   UNL     1      28.926  11.108  -1.353  1.00  0.00    -0.550 OA
ATOM      7  O   UNL     1      28.667  12.178  -3.362  1.00  0.00    -0.550 OA
ENDBRANCH   4   5
ENDBRANCH   3   4
ENDBRANCH   2   3
ENDBRANCH   1   2
BRANCH   1   8
ATOM      8  C   UNL     1      26.795   6.802  -0.955  1.00  0.00     0.000 C 
BRANCH   8   9
ATOM      9  C   UNL     1      27.656   5.560  -0.659  1.00  0.00     0.000 C 
BRANCH   9  10
ATOM     10  C   UNL     1      26.929   4.245  -1.006  1.00  0.00     0.006 C 
BRANCH  10  11
ATOM     11  C   UNL     1      25.401   4.336  -0.881  1.00  0.00     0.053 C 
BRANCH  11  12
ATOM     12  C   UNL     1      24.708   4.129  -2.191  1.00  0.00     0.041 C 
ATOM     13  O   UNL     1      24.364   2.971  -2.549  1.00  0.00    -0.550 OA
ATOM     14  O   UNL     1      24.465   5.210  -3.029  1.00  0.00    -0.550 OA
ENDBRANCH  11  12
ENDBRANCH  10  11
ENDBRANCH   9  10
ENDBRANCH   8   9
ENDBRANCH   1   8
TORSDOF 9
ENDMDL
MODEL 5
REMARK VINA RESULT:    -1.749      2.803      4.795
REMARK INTER + INTRA:          -3.205
REMARK INTER:                  -2.873
REMARK INTRA:                  -0.332
REMARK UNBOUND:                -0.535
REMARK SMILES O=C([O-])CCCCCCCCC(=O)[O-]
REMARK SMILES IDX 7 1 6 2 5 3 4 4 2 5 1 6 3 7 8 8 9 9 10 10 11 11 12 12 13 13
REMARK SMILES IDX 14 14
REMARK H PARENT
REMARK Flexibility Score: inf
ROOT
ATOM      1  C   UNL     1      25.745   3.594  -1.759  1.00  0.00     0.000 C 
ENDROOT
BRANCH   1   2
ATOM      2  C   UNL     1      26.443   4.539  -0.769  1.00  0.00     0.000 C 
BRANCH   2   3
ATOM      3  C   UNL     1      26.288   6.003  -1.206  1.00  0.00     0.006 C 
BRANCH   3   4
ATOM      4  C   UNL     1      27.499   6.859  -0.811  1.00  0.00     0.053 C 
BRANCH   4   5
ATOM      5  C   UNL     1      27.349   8.279  -1.264  1.00  0.00     0.041 C 
ATOM      6  O   UNL     1      27.259   8.547  -2.491  1.00  0.00    -0.550 OA
ATOM      7  O   UNL     1      27.274   9.303  -0.329  1.00  0.00    -0.550 OA
ENDBRANCH   4   5
ENDBRANCH   3   4
ENDBRANCH   2   3
ENDBRANCH   1   2
BRANCH   1   8
ATOM      8  C   UNL     1      24.522   4.238  -2.432  1.00  0.00     0.000 C 
BRANCH   8   9
ATOM      9  C   UNL     1      23.430   3.211  -2.784  1.00  0.00     0.000 C 
BRANCH   9  10
ATOM     10  C   UNL     1      23.944   1.758  -2.705  1.00  0.00     0.006 C 
BRANCH  10  11
ATOM     11  C   UNL     1      22.852   0.706  -2.952  1.00  0.00     0.053 C 
BRANCH  11  12
ATOM     12  C   UNL     1      23.264  -0.661  -2.503  1.00  0.00     0.041 C 
ATOM     13  O   UNL     1      22.752  -1.168  -1.471  1.00  0.00    -0.550 OA
ATOM     14  O   UNL     1      24.232  -1.363  -3.209  1.00  0.00    -0.550 OA
ENDBRANCH  11  12
ENDBRANCH  10  11
ENDBRANCH   9  10
ENDBRANCH   8   9
ENDBRANCH   1   8
TORSDOF 9
ENDMDL
MODEL 6
REMARK VINA RESULT:    -1.635      2.757      8.107
REMARK INTER + INTRA:          -3.030
REMARK INTER:                  -2.706
REMARK INTRA:                  -0.323
REMARK UNBOUND:                -0.535
REMARK SMILES O=C([O-])CCCCCCCCC(=O)[O-]
REMARK SMILES IDX 7 1 6 2 5 3 4 4 2 5 1 6 3 7 8 8 9 9 10 10 11 11 12 12 13 13
REMARK SMILES IDX 14 14
REMARK H PARENT
REMARK Flexibility Score: inf
ROOT
ATOM      1  C   UNL     1      24.606   4.221  -2.419  1.00  0.00     0.000 C 
ENDROOT
BRANCH   1   2
ATOM      2  C   UNL     1      23.496   3.192  -2.682  1.00  0.00     0.000 C 
BRANCH   2   3
ATOM      3  C   UNL     1      24.059   1.763  -2.672  1.00  0.00     0.006 C 
BRANCH   3   4
ATOM      4  C   UNL     1      22.993   0.716  -3.021  1.00  0.00     0.053 C 
BRANCH   4   5
ATOM      5  C   UNL     1      23.390  -0.655  -2.570  1.00  0.00     0.041 C 
ATOM      6  O   UNL     1      22.838  -1.176  -1.566  1.00  0.00    -0.550 OA
ATOM      7  O   UNL     1      24.344  -1.373  -3.280  1.00  0.00    -0.550 OA
ENDBRANCH   4   5
ENDBRANCH   3   4
ENDBRANCH   2   3
ENDBRANCH   1   2
BRANCH   1   8
ATOM      8  C   UNL     1      25.801   3.624  -1.657  1.00  0.00     0.000 C 
BRANCH   8   9
ATOM      9  C   UNL     1      26.468   4.640  -0.712  1.00  0.00     0.000 C 
BRANCH   9  10
ATOM     10  C   UNL     1      26.367   6.087  -1.238  1.00  0.00     0.006 C 
BRANCH  10  11
ATOM     11  C   UNL     1      27.555   6.972  -0.833  1.00  0.00     0.053 C 
BRANCH  11  12
ATOM     12  C   UNL     1      27.408   8.380  -1.319  1.00  0.00     0.041 C 
ATOM     13  O   UNL     1      27.375   9.333  -0.497  1.00  0.00    -0.550 OA
ATOM     14  O   UNL     1      27.283   8.638  -2.678  1.00  0.00    -0.550 OA
ENDBRANCH  11  12
ENDBRANCH  10  11
ENDBRANCH   9  10
ENDBRANCH   8   9
ENDBRANCH   1   8
TORSDOF 9
ENDMDL
MODEL 7
REMARK VINA RESULT:    -1.513      9.863     11.706
REMARK INTER + INTRA:          -2.844
REMARK INTER:                  -2.917
REMARK INTRA:                   0.073
REMARK UNBOUND:                -0.535
REMARK SMILES O=C([O-])CCCCCCCCC(=O)[O-]
REMARK SMILES IDX 7 1 6 2 5 3 4 4 2 5 1 6 3 7 8 8 9 9 10 10 11 11 12 12 13 13
REMARK SMILES IDX 14 14
REMARK H PARENT
REMARK Flexibility Score: inf
ROOT
ATOM      1  C   UNL     1      25.490  -3.357  -3.157  1.00  0.00     0.000 C 
ENDROOT
BRANCH   1   2
ATOM      2  C   UNL     1      25.435  -1.949  -3.769  1.00  0.00     0.000 C 
BRANCH   2   3
ATOM      3  C   UNL     1      24.102  -1.260  -3.439  1.00  0.00     0.006 C 
BRANCH   3   4
ATOM      4  C   UNL     1      23.654  -1.523  -1.995  1.00  0.00     0.053 C 
BRANCH   4   5
ATOM      5  C   UNL     1      22.358  -0.841  -1.680  1.00  0.00     0.041 C 
ATOM      6  O   UNL     1      21.896   0.031  -2.461  1.00  0.00    -0.550 OA
ATOM      7  O   UNL     1      21.644  -1.194  -0.543  1.00  0.00    -0.550 OA
ENDBRANCH   4   5
ENDBRANCH   3   4
ENDBRANCH   2   3
ENDBRANCH   1   2
BRANCH   1   8
ATOM      8  C   UNL     1      26.157  -4.383  -4.088  1.00  0.00     0.000 C 
BRANCH   8   9
ATOM      9  C   UNL     1      27.668  -4.526  -3.828  1.00  0.00     0.000 C 
BRANCH   9  10
ATOM     10  C   UNL     1      28.004  -5.781  -2.996  1.00  0.00     0.006 C 
BRANCH  10  11
ATOM     11  C   UNL     1      27.208  -5.882  -1.686  1.00  0.00     0.053 C 
BRANCH  11  12
ATOM     12  C   UNL     1      27.605  -4.833  -0.695  1.00  0.00     0.041 C 
ATOM     13  O   UNL     1      26.949  -3.761  -0.611  1.00  0.00    -0.550 OA
ATOM     14  O   UNL     1      28.714  -5.028   0.118  1.00  0.00    -0.550 OA
ENDBRANCH  11  12
ENDBRANCH  10  11
ENDBRANCH   9  10
ENDBRANCH   8   9
ENDBRANCH   1   8
TORSDOF 9
ENDMDL
MODEL 8
REMARK VINA RESULT:    -1.327     21.902     24.383
REMARK INTER + INTRA:          -2.560
REMARK INTER:                  -2.260
REMARK INTRA:                  -0.300
REMARK UNBOUND:                -0.535
REMARK SMILES O=C([O-])CCCCCCCCC(=O)[O-]
REMARK SMILES IDX 7 1 6 2 5 3 4 4 2 5 1 6 3 7 8 8 9 9 10 10 11 11 12 12 13 13
REMARK SMILES IDX 14 14
REMARK H PARENT
REMARK Flexibility Score: inf
ROOT
ATOM      1  C   UNL     1       8.875  -4.274  11.199  1.00  0.00     0.000 C 
ENDROOT
BRANCH   1   2
ATOM      2  C   UNL     1       8.939  -4.779  12.648  1.00  0.00     0.000 C 
BRANCH   2   3
ATOM      3  C   UNL     1       8.936  -3.605  13.639  1.00  0.00     0.006 C 
BRANCH   3   4
ATOM      4  C   UNL     1       9.050  -2.248  12.932  1.00  0.00     0.053 C 
BRANCH   4   5
ATOM      5  C   UNL     1       9.977  -1.319  13.654  1.00  0.00     0.041 C 
ATOM      6  O   UNL     1      11.019  -1.764  14.202  1.00  0.00    -0.550 OA
ATOM      7  O   UNL     1       9.708   0.043  13.691  1.00  0.00    -0.550 OA
ENDBRANCH   4   5
ENDBRANCH   3   4
ENDBRANCH   2   3
ENDBRANCH   1   2
BRANCH   1   8
ATOM      8  C   UNL     1       9.618  -5.193  10.216  1.00  0.00     0.000 C 
BRANCH   8   9
ATOM      9  C   UNL     1       8.878  -5.349   8.875  1.00  0.00     0.000 C 
BRANCH   9  10
ATOM     10  C   UNL     1       9.831  -5.713   7.717  1.00  0.00     0.006 C 
BRANCH  10  11
ATOM     11  C   UNL     1      10.238  -4.508   6.855  1.00  0.00     0.053 C 
BRANCH  11  12
ATOM     12  C   UNL     1      10.439  -4.877   5.419  1.00  0.00     0.041 C 
ATOM     13  O   UNL     1      11.335  -4.310   4.739  1.00  0.00    -0.550 OA
ATOM     14  O   UNL     1       9.619  -5.827   4.823  1.00  0.00    -0.550 OA
ENDBRANCH  11  12
ENDBRANCH  10  11
ENDBRANCH   9  10
ENDBRANCH   8   9
ENDBRANCH   1   8
TORSDOF 9
ENDMDL
MODEL 9
REMARK VINA RESULT:    -0.426      1.239      1.648
REMARK INTER + INTRA:          -1.185
REMARK INTER:                  -0.794
REMARK INTRA:                  -0.391
REMARK UNBOUND:                -0.535
REMARK SMILES O=C([O-])CCCCCCCCC(=O)[O-]
REMARK SMILES IDX 7 1 6 2 5 3 4 4 2 5 1 6 3 7 8 8 9 9 10 10 11 11 12 12 13 13
REMARK SMILES IDX 14 14
REMARK H PARENT
REMARK Flexibility Score: inf
ROOT
ATOM      1  C   UNL     1      28.449   6.427  -0.677  1.00  0.00     0.000 C 
ENDROOT
BRANCH   1   2
ATOM      2  C   UNL     1      29.103   7.778  -0.353  1.00  0.00     0.000 C 
BRANCH   2   3
ATOM      3  C   UNL     1      28.147   8.939  -0.667  1.00  0.00     0.006 C 
BRANCH   3   4
ATOM      4  C   UNL     1      28.867  10.121  -1.329  1.00  0.00     0.053 C 
BRANCH   4   5
ATOM      5  C   UNL     1      28.350  10.385  -2.710  1.00  0.00     0.041 C 
ATOM      6  O   UNL     1      28.276  11.565  -3.144  1.00  0.00    -0.550 OA
ATOM      7  O   UNL     1      27.984   9.326  -3.531  1.00  0.00    -0.550 OA
ENDBRANCH   4   5
ENDBRANCH   3   4
ENDBRANCH   2   3
ENDBRANCH   1   2
BRANCH   1   8
ATOM      8  C   UNL     1      29.125   5.251   0.048  1.00  0.00     0.000 C 
BRANCH   8   9
ATOM      9  C   UNL     1      28.195   4.034   0.199  1.00  0.00     0.000 C 
BRANCH   9  10
ATOM     10  C   UNL     1      27.320   3.805  -1.051  1.00  0.00     0.006 C 
BRANCH  10  11
ATOM     11  C   UNL     1      25.818   3.995  -0.793  1.00  0.00     0.053 C 
BRANCH  11  12
ATOM     12  C   UNL     1      25.117   4.633  -1.951  1.00  0.00     0.041 C 
ATOM     13  O   UNL     1      25.426   5.799  -2.313  1.00  0.00    -0.550 OA
ATOM     14  O   UNL     1      24.104   3.951  -2.614  1.00  0.00    -0.550 OA
ENDBRANCH  11  12
ENDBRANCH  10  11
ENDBRANCH   9  10
ENDBRANCH   8   9
ENDBRANCH   1   8
TORSDOF 9
ENDMDL
