MODEL 1
REMARK VINA RESULT:    -5.091      0.000      0.000
REMARK INTER + INTRA:          -5.694
REMARK INTER:                  -5.388
REMARK INTRA:                  -0.305
REMARK UNBOUND:                -0.305
REMARK SMILES CC1=CC[C@H]2[C@@H]3[C@@H](C(C)C)CC[C@@]2(C)[C@H]13
REMARK SMILES IDX 1 1 2 2 3 3 4 4 5 5 6 6 15 7 13 8 12 9 11 10 7 11 14 12 8 13
REMARK SMILES IDX 9 14 10 15
REMARK H PARENT
REMARK Flexibility Score: inf
ROOT
ATOM      1  C   UNL     1     137.964 140.211 132.084  1.00  0.00     0.039 C 
ATOM      2  C   UNL     1     138.989 139.154 131.800  1.00  0.00    -0.073 C 
ATOM      3  C   UNL     1     140.031 139.392 130.960  1.00  0.00    -0.027 C 
ATOM      4  C   UNL     1     141.014 138.253 130.659  1.00  0.00     0.031 C 
ATOM      5  C   UNL     1     140.626 136.971 131.469  1.00  0.00     0.003 C 
ATOM      6  C   UNL     1     140.328 137.408 132.922  1.00  0.00     0.004 C 
ATOM      7  C   UNL     1     138.904 137.762 132.428  1.00  0.00     0.024 C 
ATOM      8  C   UNL     1     139.114 136.669 131.346  1.00  0.00    -0.022 C 
ATOM      9  C   UNL     1     138.843 135.251 131.927  1.00  0.00     0.008 C 
ATOM     10  C   UNL     1     139.226 135.145 133.425  1.00  0.00     0.005 C 
ATOM     11  C   UNL     1     140.333 136.161 133.865  1.00  0.00    -0.005 C 
ATOM     12  C   UNL     1     138.439 136.836 129.963  1.00  0.00     0.012 C 
ENDROOT
BRANCH  11  13
ATOM     13  C   UNL     1     140.188 136.547 135.373  1.00  0.00    -0.014 C 
ATOM     14  C   UNL     1     140.682 137.980 135.660  1.00  0.00     0.007 C 
ATOM     15  C   UNL     1     140.964 135.569 136.277  1.00  0.00     0.007 C 
ENDBRANCH  11  13
TORSDOF 1
ENDMDL
MODEL 2
REMARK VINA RESULT:    -5.086      4.962      6.565
REMARK INTER + INTRA:          -5.688
REMARK INTER:                  -5.259
REMARK INTRA:                  -0.429
REMARK UNBOUND:                -0.305
REMARK SMILES CC1=CC[C@H]2[C@@H]3[C@@H](C(C)C)CC[C@@]2(C)[C@H]13
REMARK SMILES IDX 1 1 2 2 3 3 4 4 5 5 6 6 15 7 13 8 12 9 11 10 7 11 14 12 8 13
REMARK SMILES IDX 9 14 10 15
REMARK H PARENT
REMARK Flexibility Score: inf
ROOT
ATOM      1  C   UNL     1     136.386 133.998 131.911  1.00  0.00     0.039 C 
ATOM      2  C   UNL     1     135.130 134.700 131.490  1.00  0.00    -0.073 C 
ATOM      3  C   UNL     1     134.138 134.039 130.837  1.00  0.00    -0.027 C 
ATOM      4  C   UNL     1     132.903 134.824 130.378  1.00  0.00     0.031 C 
ATOM      5  C   UNL     1     133.014 136.321 130.820  1.00  0.00     0.003 C 
ATOM      6  C   UNL     1     133.468 136.340 132.299  1.00  0.00     0.004 C 
ATOM      7  C   UNL     1     134.913 136.190 131.762  1.00  0.00     0.024 C 
ATOM      8  C   UNL     1     134.405 136.903 130.480  1.00  0.00    -0.022 C 
ATOM      9  C   UNL     1     134.361 138.446 130.681  1.00  0.00     0.008 C 
ATOM     10  C   UNL     1     134.029 138.840 132.142  1.00  0.00     0.005 C 
ATOM     11  C   UNL     1     133.211 137.751 132.917  1.00  0.00    -0.005 C 
ATOM     12  C   UNL     1     135.040 136.545 129.115  1.00  0.00     0.012 C 
ENDROOT
BRANCH  11  13
ATOM     13  C   UNL     1     133.508 137.798 134.452  1.00  0.00    -0.014 C 
ATOM     14  C   UNL     1     134.856 138.476 134.768  1.00  0.00     0.007 C 
ATOM     15  C   UNL     1     133.514 136.382 135.063  1.00  0.00     0.007 C 
ENDBRANCH  11  13
TORSDOF 1
ENDMDL
MODEL 3
REMARK VINA RESULT:    -5.084      4.080      5.795
REMARK INTER + INTRA:          -5.686
REMARK INTER:                  -5.254
REMARK INTRA:                  -0.432
REMARK UNBOUND:                -0.305
REMARK SMILES CC1=CC[C@H]2[C@@H]3[C@@H](C(C)C)CC[C@@]2(C)[C@H]13
REMARK SMILES IDX 1 1 2 2 3 3 4 4 5 5 6 6 15 7 13 8 12 9 11 10 7 11 14 12 8 13
REMARK SMILES IDX 9 14 10 15
REMARK H PARENT
REMARK Flexibility Score: inf
ROOT
ATOM      1  C   UNL     1     136.321 137.581 129.593  1.00  0.00     0.039 C 
ATOM      2  C   UNL     1     135.316 136.566 130.048  1.00  0.00    -0.073 C 
ATOM      3  C   UNL     1     134.289 136.184 129.244  1.00  0.00    -0.027 C 
ATOM      4  C   UNL     1     133.257 135.187 129.786  1.00  0.00     0.031 C 
ATOM      5  C   UNL     1     133.641 134.740 131.236  1.00  0.00     0.003 C 
ATOM      6  C   UNL     1     135.151 134.408 131.238  1.00  0.00     0.004 C 
ATOM      7  C   UNL     1     135.392 135.924 131.435  1.00  0.00     0.024 C 
ATOM      8  C   UNL     1     133.999 135.957 132.120  1.00  0.00    -0.022 C 
ATOM      9  C   UNL     1     134.095 135.485 133.599  1.00  0.00     0.008 C 
ATOM     10  C   UNL     1     135.194 134.412 133.805  1.00  0.00     0.005 C 
ATOM     11  C   UNL     1     135.514 133.583 132.515  1.00  0.00    -0.005 C 
ATOM     12  C   UNL     1     133.130 137.232 132.004  1.00  0.00     0.012 C 
ENDROOT
BRANCH  11  13
ATOM     13  C   UNL     1     136.995 133.083 132.508  1.00  0.00    -0.014 C 
ATOM     14  C   UNL     1     137.936 134.030 133.280  1.00  0.00     0.007 C 
ATOM     15  C   UNL     1     137.526 132.928 131.069  1.00  0.00     0.007 C 
ENDBRANCH  11  13
TORSDOF 1
ENDMDL
MODEL 4
REMARK VINA RESULT:    -5.070      2.954      4.706
REMARK INTER + INTRA:          -5.672
REMARK INTER:                  -5.244
REMARK INTRA:                  -0.428
REMARK UNBOUND:                -0.305
REMARK SMILES CC1=CC[C@H]2[C@@H]3[C@@H](C(C)C)CC[C@@]2(C)[C@H]13
REMARK SMILES IDX 1 1 2 2 3 3 4 4 5 5 6 6 15 7 13 8 12 9 11 10 7 11 14 12 8 13
REMARK SMILES IDX 9 14 10 15
REMARK H PARENT
REMARK Flexibility Score: inf
ROOT
ATOM      1  C   UNL     1     139.676 136.395 131.887  1.00  0.00     0.039 C 
ATOM      2  C   UNL     1     138.953 135.156 131.452  1.00  0.00    -0.073 C 
ATOM      3  C   UNL     1     139.605 134.146 130.817  1.00  0.00    -0.027 C 
ATOM      4  C   UNL     1     138.801 132.930 130.342  1.00  0.00     0.031 C 
ATOM      5  C   UNL     1     137.298 133.077 130.750  1.00  0.00     0.003 C 
ATOM      6  C   UNL     1     137.256 133.535 132.226  1.00  0.00     0.004 C 
ATOM      7  C   UNL     1     137.452 134.975 131.691  1.00  0.00     0.024 C 
ATOM      8  C   UNL     1     136.757 134.482 130.393  1.00  0.00    -0.022 C 
ATOM      9  C   UNL     1     135.209 134.474 130.559  1.00  0.00     0.008 C 
ATOM     10  C   UNL     1     134.774 134.155 132.012  1.00  0.00     0.005 C 
ATOM     11  C   UNL     1     135.824 133.314 132.813  1.00  0.00    -0.005 C 
ATOM     12  C   UNL     1     137.162 135.104 129.035  1.00  0.00     0.012 C 
ENDROOT
BRANCH  11  13
ATOM     13  C   UNL     1     135.750 133.615 134.345  1.00  0.00    -0.014 C 
ATOM     14  C   UNL     1     135.092 134.978 134.643  1.00  0.00     0.007 C 
ATOM     15  C   UNL     1     137.151 133.595 134.988  1.00  0.00     0.007 C 
ENDBRANCH  11  13
TORSDOF 1
ENDMDL
MODEL 5
REMARK VINA RESULT:    -5.063      4.074      6.262
REMARK INTER + INTRA:          -5.664
REMARK INTER:                  -5.253
REMARK INTRA:                  -0.411
REMARK UNBOUND:                -0.305
REMARK SMILES CC1=CC[C@H]2[C@@H]3[C@@H](C(C)C)CC[C@@]2(C)[C@H]13
REMARK SMILES IDX 1 1 2 2 3 3 4 4 5 5 6 6 15 7 13 8 12 9 11 10 7 11 14 12 8 13
REMARK SMILES IDX 9 14 10 15
REMARK H PARENT
REMARK Flexibility Score: inf
ROOT
ATOM      1  C   UNL     1     137.952 138.087 130.203  1.00  0.00     0.039 C 
ATOM      2  C   UNL     1     136.570 138.585 130.503  1.00  0.00    -0.073 C 
ATOM      3  C   UNL     1     136.095 139.727 129.938  1.00  0.00    -0.027 C 
ATOM      4  C   UNL     1     134.697 140.220 130.330  1.00  0.00     0.031 C 
ATOM      5  C   UNL     1     134.028 139.221 131.331  1.00  0.00     0.003 C 
ATOM      6  C   UNL     1     134.247 137.792 130.784  1.00  0.00     0.004 C 
ATOM      7  C   UNL     1     135.638 137.842 131.462  1.00  0.00     0.024 C 
ATOM      8  C   UNL     1     135.001 138.836 132.470  1.00  0.00    -0.022 C 
ATOM      9  C   UNL     1     134.202 138.078 133.570  1.00  0.00     0.008 C 
ATOM     10  C   UNL     1     133.559 136.773 133.037  1.00  0.00     0.005 C 
ATOM     11  C   UNL     1     133.279 136.793 131.496  1.00  0.00    -0.005 C 
ATOM     12  C   UNL     1     135.879 139.946 133.095  1.00  0.00     0.012 C 
ENDROOT
BRANCH  11  13
ATOM     13  C   UNL     1     133.341 135.356 130.884  1.00  0.00    -0.014 C 
ATOM     14  C   UNL     1     134.393 134.468 131.580  1.00  0.00     0.007 C 
ATOM     15  C   UNL     1     133.657 135.403 129.376  1.00  0.00     0.007 C 
ENDBRANCH  11  13
TORSDOF 1
ENDMDL
MODEL 6
REMARK VINA RESULT:    -5.059      1.936      5.116
REMARK INTER + INTRA:          -5.660
REMARK INTER:                  -5.236
REMARK INTRA:                  -0.424
REMARK UNBOUND:                -0.305
REMARK SMILES CC1=CC[C@H]2[C@@H]3[C@@H](C(C)C)CC[C@@]2(C)[C@H]13
REMARK SMILES IDX 1 1 2 2 3 3 4 4 5 5 6 6 15 7 13 8 12 9 11 10 7 11 14 12 8 13
REMARK SMILES IDX 9 14 10 15
REMARK H PARENT
REMARK Flexibility Score: inf
ROOT
ATOM      1  C   UNL     1     138.183 135.807 130.114  1.00  0.00     0.039 C 
ATOM      2  C   UNL     1     138.639 137.189 130.472  1.00  0.00    -0.073 C 
ATOM      3  C   UNL     1     139.814 137.686 130.003  1.00  0.00    -0.027 C 
ATOM      4  C   UNL     1     140.258 139.084 130.452  1.00  0.00     0.031 C 
ATOM      5  C   UNL     1     139.178 139.725 131.385  1.00  0.00     0.003 C 
ATOM      6  C   UNL     1     137.797 139.498 130.727  1.00  0.00     0.004 C 
ATOM      7  C   UNL     1     137.814 138.097 131.386  1.00  0.00     0.024 C 
ATOM      8  C   UNL     1     138.720 138.729 132.477  1.00  0.00    -0.022 C 
ATOM      9  C   UNL     1     137.871 139.501 133.528  1.00  0.00     0.008 C 
ATOM     10  C   UNL     1     136.601 140.137 132.907  1.00  0.00     0.005 C 
ATOM     11  C   UNL     1     136.734 140.442 131.376  1.00  0.00    -0.005 C 
ATOM     12  C   UNL     1     139.791 137.854 133.171  1.00  0.00     0.012 C 
ENDROOT
BRANCH  11  13
ATOM     13  C   UNL     1     135.349 140.373 130.656  1.00  0.00    -0.014 C 
ATOM     14  C   UNL     1     134.402 139.343 131.305  1.00  0.00     0.007 C 
ATOM     15  C   UNL     1     135.511 140.021 129.164  1.00  0.00     0.007 C 
ENDBRANCH  11  13
TORSDOF 1
ENDMDL
MODEL 7
REMARK VINA RESULT:    -5.058      1.488      4.249
REMARK INTER + INTRA:          -5.659
REMARK INTER:                  -5.251
REMARK INTRA:                  -0.408
REMARK UNBOUND:                -0.305
REMARK SMILES CC1=CC[C@H]2[C@@H]3[C@@H](C(C)C)CC[C@@]2(C)[C@H]13
REMARK SMILES IDX 1 1 2 2 3 3 4 4 5 5 6 6 15 7 13 8 12 9 11 10 7 11 14 12 8 13
REMARK SMILES IDX 9 14 10 15
REMARK H PARENT
REMARK Flexibility Score: inf
ROOT
ATOM      1  C   UNL     1     135.838 135.628 130.471  1.00  0.00     0.039 C 
ATOM      2  C   UNL     1     137.251 135.206 130.742  1.00  0.00    -0.073 C 
ATOM      3  C   UNL     1     137.746 134.042 130.244  1.00  0.00    -0.027 C 
ATOM      4  C   UNL     1     139.180 133.634 130.604  1.00  0.00     0.031 C 
ATOM      5  C   UNL     1     139.851 134.732 131.494  1.00  0.00     0.003 C 
ATOM      6  C   UNL     1     139.550 136.105 130.851  1.00  0.00     0.004 C 
ATOM      7  C   UNL     1     138.194 136.056 131.597  1.00  0.00     0.024 C 
ATOM      8  C   UNL     1     138.916 135.168 132.646  1.00  0.00    -0.022 C 
ATOM      9  C   UNL     1     139.731 136.038 133.646  1.00  0.00     0.008 C 
ATOM     10  C   UNL     1     140.296 137.321 132.985  1.00  0.00     0.005 C 
ATOM     11  C   UNL     1     140.507 137.192 131.438  1.00  0.00    -0.005 C 
ATOM     12  C   UNL     1     138.112 134.078 133.394  1.00  0.00     0.012 C 
ENDROOT
BRANCH  11  13
ATOM     13  C   UNL     1     140.359 138.574 130.723  1.00  0.00    -0.014 C 
ATOM     14  C   UNL     1     139.296 139.469 131.391  1.00  0.00     0.007 C 
ATOM     15  C   UNL     1     139.989 138.397 129.236  1.00  0.00     0.007 C 
ENDBRANCH  11  13
TORSDOF 1
ENDMDL
MODEL 8
REMARK VINA RESULT:    -5.044      1.628      3.269
REMARK INTER + INTRA:          -5.644
REMARK INTER:                  -5.219
REMARK INTRA:                  -0.425
REMARK UNBOUND:                -0.305
REMARK SMILES CC1=CC[C@H]2[C@@H]3[C@@H](C(C)C)CC[C@@]2(C)[C@H]13
REMARK SMILES IDX 1 1 2 2 3 3 4 4 5 5 6 6 15 7 13 8 12 9 11 10 7 11 14 12 8 13
REMARK SMILES IDX 9 14 10 15
REMARK H PARENT
REMARK Flexibility Score: inf
ROOT
ATOM      1  C   UNL     1     135.409 137.651 132.556  1.00  0.00     0.039 C 
ATOM      2  C   UNL     1     136.611 138.515 132.319  1.00  0.00    -0.073 C 
ATOM      3  C   UNL     1     136.654 139.799 132.764  1.00  0.00    -0.027 C 
ATOM      4  C   UNL     1     137.886 140.653 132.438  1.00  0.00     0.031 C 
ATOM      5  C   UNL     1     138.940 139.810 131.648  1.00  0.00     0.003 C 
ATOM      6  C   UNL     1     139.081 138.446 132.363  1.00  0.00     0.004 C 
ATOM      7  C   UNL     1     137.835 137.999 131.559  1.00  0.00     0.024 C 
ATOM      8  C   UNL     1     138.277 139.031 130.487  1.00  0.00    -0.022 C 
ATOM      9  C   UNL     1     139.397 138.446 129.579  1.00  0.00     0.008 C 
ATOM     10  C   UNL     1     140.320 137.462 130.342  1.00  0.00     0.005 C 
ATOM     11  C   UNL     1     140.382 137.724 131.884  1.00  0.00    -0.005 C 
ATOM     12  C   UNL     1     137.200 139.749 129.640  1.00  0.00     0.012 C 
ENDROOT
BRANCH  11  13
ATOM     13  C   UNL     1     140.665 136.408 132.678  1.00  0.00    -0.014 C 
ATOM     14  C   UNL     1     140.078 135.164 131.979  1.00  0.00     0.007 C 
ATOM     15  C   UNL     1     140.093 136.482 134.108  1.00  0.00     0.007 C 
ENDBRANCH  11  13
TORSDOF 1
ENDMDL
MODEL 9
REMARK VINA RESULT:    -4.985      3.445      5.747
REMARK INTER + INTRA:          -5.581
REMARK INTER:                  -5.165
REMARK INTRA:                  -0.417
REMARK UNBOUND:                -0.305
REMARK SMILES CC1=CC[C@H]2[C@@H]3[C@@H](C(C)C)CC[C@@]2(C)[C@H]13
REMARK SMILES IDX 1 1 2 2 3 3 4 4 5 5 6 6 15 7 13 8 12 9 11 10 7 11 14 12 8 13
REMARK SMILES IDX 9 14 10 15
REMARK H PARENT
REMARK Flexibility Score: inf
ROOT
ATOM      1  C   UNL     1     136.231 135.416 132.182  1.00  0.00     0.039 C 
ATOM      2  C   UNL     1     135.362 136.632 132.074  1.00  0.00    -0.073 C 
ATOM      3  C   UNL     1     134.094 136.638 132.565  1.00  0.00    -0.027 C 
ATOM      4  C   UNL     1     133.232 137.891 132.371  1.00  0.00     0.031 C 
ATOM      5  C   UNL     1     134.049 139.008 131.640  1.00  0.00     0.003 C 
ATOM      6  C   UNL     1     135.437 139.090 132.316  1.00  0.00     0.004 C 
ATOM      7  C   UNL     1     135.854 137.914 131.399  1.00  0.00     0.024 C 
ATOM      8  C   UNL     1     134.785 138.442 130.403  1.00  0.00    -0.022 C 
ATOM      9  C   UNL     1     135.341 139.633 129.569  1.00  0.00     0.008 C 
ATOM     10  C   UNL     1     136.353 140.491 130.370  1.00  0.00     0.005 C 
ATOM     11  C   UNL     1     136.144 140.426 131.921  1.00  0.00    -0.005 C 
ATOM     12  C   UNL     1     134.037 137.437 129.496  1.00  0.00     0.012 C 
ENDROOT
BRANCH  11  13
ATOM     13  C   UNL     1     137.488 140.645 132.689  1.00  0.00    -0.014 C 
ATOM     14  C   UNL     1     138.700 140.079 131.921  1.00  0.00     0.007 C 
ATOM     15  C   UNL     1     137.446 139.997 134.087  1.00  0.00     0.007 C 
ENDBRANCH  11  13
TORSDOF 1
ENDMDL
