MODEL 1
REMARK VINA RESULT:    -4.393      0.000      0.000
REMARK INTER + INTRA:          -7.178
REMARK INTER:                  -6.704
REMARK INTRA:                  -0.474
REMARK UNBOUND:                -0.474
REMARK SMILES CCCCCCCCCCC(=O)[O-]
REMARK SMILES IDX 7 1 8 2 9 3 10 4 11 5 12 6 13 7 6 8 5 9 4 10 3 11 2 12 1 13
REMARK H PARENT
REMARK Flexibility Score: inf
ROOT
ATOM      1  C   UNL     1     192.795   3.414  99.636  1.00  0.00     0.000 C 
ENDROOT
BRANCH   1   2
ATOM      2  C   UNL     1     192.086   4.241  98.554  1.00  0.00     0.000 C 
BRANCH   2   3
ATOM      3  C   UNL     1     191.246   3.338  97.637  1.00  0.00     0.006 C 
BRANCH   3   4
ATOM      4  C   UNL     1     190.741   4.083  96.393  1.00  0.00     0.053 C 
BRANCH   4   5
ATOM      5  C   UNL     1     191.673   3.922  95.233  1.00  0.00     0.041 C 
ATOM      6  O   UNL     1     191.835   4.865  94.415  1.00  0.00    -0.550 OA
ATOM      7  O   UNL     1     192.338   2.718  95.034  1.00  0.00    -0.550 OA
ENDBRANCH   4   5
ENDBRANCH   3   4
ENDBRANCH   2   3
ENDBRANCH   1   2
BRANCH   1   8
ATOM      8  C   UNL     1     192.380   1.932  99.625  1.00  0.00     0.000 C 
BRANCH   8   9
ATOM      9  C   UNL     1     192.577   1.187 100.961  1.00  0.00    -0.000 C 
BRANCH   9  10
ATOM     10  C   UNL     1     193.521   1.876 101.964  1.00  0.00    -0.000 C 
BRANCH  10  11
ATOM     11  C   UNL     1     193.279   1.431 103.415  1.00  0.00    -0.000 C 
BRANCH  11  12
ATOM     12  C   UNL     1     192.429   2.439 104.206  1.00  0.00    -0.003 C 
ATOM     13  C   UNL     1     190.997   1.955 104.437  1.00  0.00     0.004 C 
ENDBRANCH  11  12
ENDBRANCH  10  11
ENDBRANCH   9  10
ENDBRANCH   8   9
ENDBRANCH   1   8
TORSDOF 9
ENDMDL
MODEL 2
REMARK VINA RESULT:    -4.358      0.971      1.484
REMARK INTER + INTRA:          -7.125
REMARK INTER:                  -6.645
REMARK INTRA:                  -0.481
REMARK UNBOUND:                -0.474
REMARK SMILES CCCCCCCCCCC(=O)[O-]
REMARK SMILES IDX 7 1 8 2 9 3 10 4 11 5 12 6 13 7 6 8 5 9 4 10 3 11 2 12 1 13
REMARK H PARENT
REMARK Flexibility Score: inf
ROOT
ATOM      1  C   UNL     1     192.008   4.268  98.572  1.00  0.00     0.000 C 
ENDROOT
BRANCH   1   2
ATOM      2  C   UNL     1     190.625   3.715  98.198  1.00  0.00     0.000 C 
BRANCH   2   3
ATOM      3  C   UNL     1     190.028   4.486  97.011  1.00  0.00     0.006 C 
BRANCH   3   4
ATOM      4  C   UNL     1     190.068   3.672  95.711  1.00  0.00     0.053 C 
BRANCH   4   5
ATOM      5  C   UNL     1     191.422   3.707  95.073  1.00  0.00     0.041 C 
ATOM      6  O   UNL     1     191.833   4.758  94.515  1.00  0.00    -0.550 OA
ATOM      7  O   UNL     1     192.218   2.568  95.065  1.00  0.00    -0.550 OA
ENDBRANCH   4   5
ENDBRANCH   3   4
ENDBRANCH   2   3
ENDBRANCH   1   2
BRANCH   1   8
ATOM      8  C   UNL     1     192.805   3.318  99.484  1.00  0.00     0.000 C 
BRANCH   8   9
ATOM      9  C   UNL     1     192.200   1.910  99.652  1.00  0.00    -0.000 C 
BRANCH   9  10
ATOM     10  C   UNL     1     192.379   1.280 101.045  1.00  0.00    -0.000 C 
BRANCH  10  11
ATOM     11  C   UNL     1     193.608   1.823 101.792  1.00  0.00    -0.000 C 
BRANCH  11  12
ATOM     12  C   UNL     1     193.236   2.505 103.119  1.00  0.00    -0.003 C 
ATOM     13  C   UNL     1     193.701   1.715 104.343  1.00  0.00     0.004 C 
ENDBRANCH  11  12
ENDBRANCH  10  11
ENDBRANCH   9  10
ENDBRANCH   8   9
ENDBRANCH   1   8
TORSDOF 9
ENDMDL
MODEL 3
REMARK VINA RESULT:    -4.259      1.539      1.749
REMARK INTER + INTRA:          -6.974
REMARK INTER:                  -6.467
REMARK INTRA:                  -0.507
REMARK UNBOUND:                -0.474
REMARK SMILES CCCCCCCCCCC(=O)[O-]
REMARK SMILES IDX 7 1 8 2 9 3 10 4 11 5 12 6 13 7 6 8 5 9 4 10 3 11 2 12 1 13
REMARK H PARENT
REMARK Flexibility Score: inf
ROOT
ATOM      1  C   UNL     1     191.950   2.613  98.627  1.00  0.00     0.000 C 
ENDROOT
BRANCH   1   2
ATOM      2  C   UNL     1     191.911   4.140  98.469  1.00  0.00     0.000 C 
BRANCH   2   3
ATOM      3  C   UNL     1     190.491   4.621  98.137  1.00  0.00     0.006 C 
BRANCH   3   4
ATOM      4  C   UNL     1     189.624   3.505  97.539  1.00  0.00     0.053 C 
BRANCH   4   5
ATOM      5  C   UNL     1     189.557   3.592  96.046  1.00  0.00     0.041 C 
ATOM      6  O   UNL     1     188.595   4.183  95.488  1.00  0.00    -0.550 OA
ATOM      7  O   UNL     1     190.539   2.991  95.268  1.00  0.00    -0.550 OA
ENDBRANCH   4   5
ENDBRANCH   3   4
ENDBRANCH   2   3
ENDBRANCH   1   2
BRANCH   1   8
ATOM      8  C   UNL     1     192.685   2.162  99.903  1.00  0.00     0.000 C 
BRANCH   8   9
ATOM      9  C   UNL     1     191.838   1.329 100.886  1.00  0.00    -0.000 C 
BRANCH   9  10
ATOM     10  C   UNL     1     192.303   1.374 102.354  1.00  0.00    -0.000 C 
BRANCH  10  11
ATOM     11  C   UNL     1     193.574   2.216 102.552  1.00  0.00    -0.000 C 
BRANCH  11  12
ATOM     12  C   UNL     1     193.938   2.391 104.035  1.00  0.00    -0.003 C 
ATOM     13  C   UNL     1     193.080   1.531 104.963  1.00  0.00     0.004 C 
ENDBRANCH  11  12
ENDBRANCH  10  11
ENDBRANCH   9  10
ENDBRANCH   8   9
ENDBRANCH   1   8
TORSDOF 9
ENDMDL
MODEL 4
REMARK VINA RESULT:    -4.244      4.190      6.895
REMARK INTER + INTRA:          -6.951
REMARK INTER:                  -6.387
REMARK INTRA:                  -0.564
REMARK UNBOUND:                -0.474
REMARK SMILES CCCCCCCCCCC(=O)[O-]
REMARK SMILES IDX 7 1 8 2 9 3 10 4 11 5 12 6 13 7 6 8 5 9 4 10 3 11 2 12 1 13
REMARK H PARENT
REMARK Flexibility Score: inf
ROOT
ATOM      1  C   UNL     1     192.832   1.008 100.922  1.00  0.00     0.000 C 
ENDROOT
BRANCH   1   2
ATOM      2  C   UNL     1     193.568   1.846 101.978  1.00  0.00     0.000 C 
BRANCH   2   3
ATOM      3  C   UNL     1     193.004   1.578 103.382  1.00  0.00     0.006 C 
BRANCH   3   4
ATOM      4  C   UNL     1     191.480   1.402 103.372  1.00  0.00     0.053 C 
BRANCH   4   5
ATOM      5  C   UNL     1     190.857   1.882 104.646  1.00  0.00     0.041 C 
ATOM      6  O   UNL     1     189.861   2.652 104.613  1.00  0.00    -0.550 OA
ATOM      7  O   UNL     1     191.396   1.507 105.870  1.00  0.00    -0.550 OA
ENDBRANCH   4   5
ENDBRANCH   3   4
ENDBRANCH   2   3
ENDBRANCH   1   2
BRANCH   1   8
ATOM      8  C   UNL     1     192.355   1.844  99.720  1.00  0.00     0.000 C 
BRANCH   8   9
ATOM      9  C   UNL     1     192.708   3.344  99.785  1.00  0.00    -0.000 C 
BRANCH   9  10
ATOM     10  C   UNL     1     192.254   4.178  98.573  1.00  0.00    -0.000 C 
BRANCH  10  11
ATOM     11  C   UNL     1     191.139   3.496  97.764  1.00  0.00    -0.000 C 
BRANCH  11  12
ATOM     12  C   UNL     1     189.737   3.978  98.169  1.00  0.00    -0.003 C 
ATOM     13  C   UNL     1     189.496   5.451  97.834  1.00  0.00     0.004 C 
ENDBRANCH  11  12
ENDBRANCH  10  11
ENDBRANCH   9  10
ENDBRANCH   8   9
ENDBRANCH   1   8
TORSDOF 9
ENDMDL
MODEL 5
REMARK VINA RESULT:    -4.230      1.509      1.867
REMARK INTER + INTRA:          -6.929
REMARK INTER:                  -6.391
REMARK INTRA:                  -0.538
REMARK UNBOUND:                -0.474
REMARK SMILES CCCCCCCCCCC(=O)[O-]
REMARK SMILES IDX 7 1 8 2 9 3 10 4 11 5 12 6 13 7 6 8 5 9 4 10 3 11 2 12 1 13
REMARK H PARENT
REMARK Flexibility Score: inf
ROOT
ATOM      1  C   UNL     1     192.768   3.469  99.651  1.00  0.00     0.000 C 
ENDROOT
BRANCH   1   2
ATOM      2  C   UNL     1     191.978   4.265  98.602  1.00  0.00     0.000 C 
BRANCH   2   3
ATOM      3  C   UNL     1     191.241   3.323  97.638  1.00  0.00     0.006 C 
BRANCH   3   4
ATOM      4  C   UNL     1     189.728   3.575  97.621  1.00  0.00     0.053 C 
BRANCH   4   5
ATOM      5  C   UNL     1     189.330   4.502  96.515  1.00  0.00     0.041 C 
ATOM      6  O   UNL     1     189.273   4.085  95.329  1.00  0.00    -0.550 OA
ATOM      7  O   UNL     1     189.056   5.836  96.789  1.00  0.00    -0.550 OA
ENDBRANCH   4   5
ENDBRANCH   3   4
ENDBRANCH   2   3
ENDBRANCH   1   2
BRANCH   1   8
ATOM      8  C   UNL     1     192.384   1.978  99.684  1.00  0.00     0.000 C 
BRANCH   8   9
ATOM      9  C   UNL     1     192.655   1.263 101.024  1.00  0.00    -0.000 C 
BRANCH   9  10
ATOM     10  C   UNL     1     193.389   2.107 102.081  1.00  0.00    -0.000 C 
BRANCH  10  11
ATOM     11  C   UNL     1     192.926   1.802 103.515  1.00  0.00    -0.000 C 
BRANCH  11  12
ATOM     12  C   UNL     1     191.529   1.162 103.559  1.00  0.00    -0.003 C 
ATOM     13  C   UNL     1     190.535   1.964 104.399  1.00  0.00     0.004 C 
ENDBRANCH  11  12
ENDBRANCH  10  11
ENDBRANCH   9  10
ENDBRANCH   8   9
ENDBRANCH   1   8
TORSDOF 9
ENDMDL
MODEL 6
REMARK VINA RESULT:    -4.150      3.440      6.752
REMARK INTER + INTRA:          -6.807
REMARK INTER:                  -5.969
REMARK INTRA:                  -0.838
REMARK UNBOUND:                -0.474
REMARK SMILES CCCCCCCCCCC(=O)[O-]
REMARK SMILES IDX 7 1 8 2 9 3 10 4 11 5 12 6 13 7 6 8 5 9 4 10 3 11 2 12 1 13
REMARK H PARENT
REMARK Flexibility Score: inf
ROOT
ATOM      1  C   UNL     1     190.620   3.779  98.312  1.00  0.00     0.000 C 
ENDROOT
BRANCH   1   2
ATOM      2  C   UNL     1     192.030   4.311  98.610  1.00  0.00     0.000 C 
BRANCH   2   3
ATOM      3  C   UNL     1     192.798   3.347  99.526  1.00  0.00     0.006 C 
BRANCH   3   4
ATOM      4  C   UNL     1     192.258   1.913  99.445  1.00  0.00     0.053 C 
BRANCH   4   5
ATOM      5  C   UNL     1     192.408   1.188 100.746  1.00  0.00     0.041 C 
ATOM      6  O   UNL     1     193.356   1.472 101.524  1.00  0.00    -0.550 OA
ATOM      7  O   UNL     1     191.520   0.174 101.084  1.00  0.00    -0.550 OA
ENDBRANCH   4   5
ENDBRANCH   3   4
ENDBRANCH   2   3
ENDBRANCH   1   2
BRANCH   1   8
ATOM      8  C   UNL     1     189.586   4.902  98.115  1.00  0.00     0.000 C 
BRANCH   8   9
ATOM      9  C   UNL     1     189.454   5.425  96.670  1.00  0.00    -0.000 C 
BRANCH   9  10
ATOM     10  C   UNL     1     188.759   4.465  95.686  1.00  0.00    -0.000 C 
BRANCH  10  11
ATOM     11  C   UNL     1     189.721   3.885  94.637  1.00  0.00    -0.000 C 
BRANCH  11  12
ATOM     12  C   UNL     1     191.133   4.486  94.737  1.00  0.00    -0.003 C 
ATOM     13  C   UNL     1     192.204   3.437  95.035  1.00  0.00     0.004 C 
ENDBRANCH  11  12
ENDBRANCH  10  11
ENDBRANCH   9  10
ENDBRANCH   8   9
ENDBRANCH   1   8
TORSDOF 9
ENDMDL
MODEL 7
REMARK VINA RESULT:    -4.145      3.579      7.059
REMARK INTER + INTRA:          -6.799
REMARK INTER:                  -6.243
REMARK INTRA:                  -0.556
REMARK UNBOUND:                -0.474
REMARK SMILES CCCCCCCCCCC(=O)[O-]
REMARK SMILES IDX 7 1 8 2 9 3 10 4 11 5 12 6 13 7 6 8 5 9 4 10 3 11 2 12 1 13
REMARK H PARENT
REMARK Flexibility Score: inf
ROOT
ATOM      1  C   UNL     1     192.770   3.221  99.472  1.00  0.00     0.000 C 
ENDROOT
BRANCH   1   2
ATOM      2  C   UNL     1     192.206   1.796  99.568  1.00  0.00     0.000 C 
BRANCH   2   3
ATOM      3  C   UNL     1     192.850   1.027 100.732  1.00  0.00     0.006 C 
BRANCH   3   4
ATOM      4  C   UNL     1     191.854   0.747 101.865  1.00  0.00     0.053 C 
BRANCH   4   5
ATOM      5  C   UNL     1     192.179   1.533 103.097  1.00  0.00     0.041 C 
ATOM      6  O   UNL     1     193.228   2.227 103.148  1.00  0.00    -0.550 OA
ATOM      7  O   UNL     1     191.340   1.473 104.203  1.00  0.00    -0.550 OA
ENDBRANCH   4   5
ENDBRANCH   3   4
ENDBRANCH   2   3
ENDBRANCH   1   2
BRANCH   1   8
ATOM      8  C   UNL     1     191.880   4.162  98.640  1.00  0.00     0.000 C 
BRANCH   8   9
ATOM      9  C   UNL     1     190.985   3.463  97.596  1.00  0.00    -0.000 C 
BRANCH   9  10
ATOM     10  C   UNL     1     190.914   4.156  96.223  1.00  0.00    -0.000 C 
BRANCH  10  11
ATOM     11  C   UNL     1     192.098   3.796  95.311  1.00  0.00    -0.000 C 
BRANCH  11  12
ATOM     12  C   UNL     1     192.199   2.285  95.047  1.00  0.00    -0.003 C 
ATOM     13  C   UNL     1     191.506   1.861  93.751  1.00  0.00     0.004 C 
ENDBRANCH  11  12
ENDBRANCH  10  11
ENDBRANCH   9  10
ENDBRANCH   8   9
ENDBRANCH   1   8
TORSDOF 9
ENDMDL
MODEL 8
REMARK VINA RESULT:    -4.139      4.701      7.608
REMARK INTER + INTRA:          -6.791
REMARK INTER:                  -6.330
REMARK INTRA:                  -0.461
REMARK UNBOUND:                -0.474
REMARK SMILES CCCCCCCCCCC(=O)[O-]
REMARK SMILES IDX 7 1 8 2 9 3 10 4 11 5 12 6 13 7 6 8 5 9 4 10 3 11 2 12 1 13
REMARK H PARENT
REMARK Flexibility Score: inf
ROOT
ATOM      1  C   UNL     1     192.407   1.255 100.911  1.00  0.00     0.000 C 
ENDROOT
BRANCH   1   2
ATOM      2  C   UNL     1     193.245   2.007 101.954  1.00  0.00     0.000 C 
BRANCH   2   3
ATOM      3  C   UNL     1     192.699   1.772 103.370  1.00  0.00     0.006 C 
BRANCH   3   4
ATOM      4  C   UNL     1     193.818   1.654 104.413  1.00  0.00     0.053 C 
BRANCH   4   5
ATOM      5  C   UNL     1     193.360   2.084 105.772  1.00  0.00     0.041 C 
ATOM      6  O   UNL     1     193.905   3.064 106.344  1.00  0.00    -0.550 OA
ATOM      7  O   UNL     1     192.354   1.381 106.423  1.00  0.00    -0.550 OA
ENDBRANCH   4   5
ENDBRANCH   3   4
ENDBRANCH   2   3
ENDBRANCH   1   2
BRANCH   1   8
ATOM      8  C   UNL     1     192.406   1.944  99.534  1.00  0.00     0.000 C 
BRANCH   8   9
ATOM      9  C   UNL     1     192.743   3.449  99.555  1.00  0.00    -0.000 C 
BRANCH   9  10
ATOM     10  C   UNL     1     191.978   4.308  98.531  1.00  0.00    -0.000 C 
BRANCH  10  11
ATOM     11  C   UNL     1     190.673   3.649  98.056  1.00  0.00    -0.000 C 
BRANCH  11  12
ATOM     12  C   UNL     1     190.409   3.877  96.559  1.00  0.00    -0.003 C 
ATOM     13  C   UNL     1     191.691   3.892  95.726  1.00  0.00     0.004 C 
ENDBRANCH  11  12
ENDBRANCH  10  11
ENDBRANCH   9  10
ENDBRANCH   8   9
ENDBRANCH   1   8
TORSDOF 9
ENDMDL
MODEL 9
REMARK VINA RESULT:    -4.046      3.889      6.824
REMARK INTER + INTRA:          -6.649
REMARK INTER:                  -5.987
REMARK INTRA:                  -0.662
REMARK UNBOUND:                -0.474
REMARK SMILES CCCCCCCCCCC(=O)[O-]
REMARK SMILES IDX 7 1 8 2 9 3 10 4 11 5 12 6 13 7 6 8 5 9 4 10 3 11 2 12 1 13
REMARK H PARENT
REMARK Flexibility Score: inf
ROOT
ATOM      1  C   UNL     1     192.310   0.001 101.242  1.00  0.00     0.000 C 
ENDROOT
BRANCH   1   2
ATOM      2  C   UNL     1     191.738  -0.450 102.593  1.00  0.00     0.000 C 
BRANCH   2   3
ATOM      3  C   UNL     1     191.733   0.708 103.602  1.00  0.00     0.006 C 
BRANCH   3   4
ATOM      4  C   UNL     1     193.021   0.757 104.437  1.00  0.00     0.053 C 
BRANCH   4   5
ATOM      5  C   UNL     1     193.677   2.101 104.368  1.00  0.00     0.041 C 
ATOM      6  O   UNL     1     193.885   2.759 105.421  1.00  0.00    -0.550 OA
ATOM      7  O   UNL     1     194.028   2.642 103.138  1.00  0.00    -0.550 OA
ENDBRANCH   4   5
ENDBRANCH   3   4
ENDBRANCH   2   3
ENDBRANCH   1   2
BRANCH   1   8
ATOM      8  C   UNL     1     191.660   1.296 100.720  1.00  0.00     0.000 C 
BRANCH   8   9
ATOM      9  C   UNL     1     192.392   1.965  99.538  1.00  0.00    -0.000 C 
BRANCH   9  10
ATOM     10  C   UNL     1     192.615   3.482  99.679  1.00  0.00    -0.000 C 
BRANCH  10  11
ATOM     11  C   UNL     1     192.092   4.277  98.471  1.00  0.00    -0.000 C 
BRANCH  11  12
ATOM     12  C   UNL     1     191.009   3.516  97.690  1.00  0.00    -0.003 C 
ATOM     13  C   UNL     1     189.592   3.958  98.055  1.00  0.00     0.004 C 
ENDBRANCH  11  12
ENDBRANCH  10  11
ENDBRANCH   9  10
ENDBRANCH   8   9
ENDBRANCH   1   8
TORSDOF 9
ENDMDL
