MODEL 1
REMARK VINA RESULT:    -4.358      0.000      0.000
REMARK INTER + INTRA:          -5.524
REMARK INTER:                  -5.122
REMARK INTRA:                  -0.402
REMARK UNBOUND:                -0.402
REMARK SMILES CCCC[C@@H]1OC(=O)C2=C1CCC=C2
REMARK SMILES IDX 3 1 2 2 1 3 4 4 5 5 10 6 6 7 9 8 11 9 7 10 14 11 12 12 8 13
REMARK SMILES IDX 13 14
REMARK H PARENT
REMARK Flexibility Score: inf
ROOT
ATOM      1  C   UNL     1     475.548  40.201 462.336  1.00  0.00     0.004 C 
ENDROOT
BRANCH   1   2
ATOM      2  C   UNL     1     475.289  39.671 463.753  1.00  0.00    -0.003 C 
ATOM      3  C   UNL     1     473.797  39.454 463.995  1.00  0.00     0.004 C 
ENDBRANCH   1   2
BRANCH   1   4
ATOM      4  C   UNL     1     476.143  39.139 461.396  1.00  0.00     0.050 C 
BRANCH   4   5
ATOM      5  C   UNL     1     477.431  38.500 461.943  1.00  0.00     0.204 C 
ATOM      6  C   UNL     1     477.321  36.993 462.001  1.00  0.00    -0.015 C 
ATOM      7  O   UNL     1     478.521  38.702 461.039  1.00  0.00    -0.454 OA
ATOM      8  C   UNL     1     478.214  36.425 461.208  1.00  0.00     0.062 C 
ATOM      9  C   UNL     1     476.282  36.178 462.721  1.00  0.00     0.040 C 
ATOM     10  C   UNL     1     478.981  37.476 460.594  1.00  0.00     0.338 C 
ATOM     11  C   UNL     1     478.311  34.971 461.032  1.00  0.00     0.011 C 
ATOM     12  C   UNL     1     476.791  34.741 462.988  1.00  0.00     0.032 C 
ATOM     13  O   UNL     1     479.926  37.325 459.776  1.00  0.00    -0.246 OA
ATOM     14  C   UNL     1     477.583  34.175 461.824  1.00  0.00    -0.026 C 
ENDBRANCH   4   5
ENDBRANCH   1   4
TORSDOF 3
ENDMDL
MODEL 2
REMARK VINA RESULT:    -4.221      4.107      6.432
REMARK INTER + INTRA:          -5.363
REMARK INTER:                  -5.133
REMARK INTRA:                  -0.230
REMARK UNBOUND:                -0.402
REMARK SMILES CCCC[C@@H]1OC(=O)C2=C1CCC=C2
REMARK SMILES IDX 3 1 2 2 1 3 4 4 5 5 10 6 6 7 9 8 11 9 7 10 14 11 12 12 8 13
REMARK SMILES IDX 13 14
REMARK H PARENT
REMARK Flexibility Score: inf
ROOT
ATOM      1  C   UNL     1     479.347  37.527 459.659  1.00  0.00     0.004 C 
ENDROOT
BRANCH   1   2
ATOM      2  C   UNL     1     478.895  36.303 460.467  1.00  0.00    -0.003 C 
ATOM      3  C   UNL     1     479.336  35.006 459.794  1.00  0.00     0.004 C 
ENDBRANCH   1   2
BRANCH   1   4
ATOM      4  C   UNL     1     480.208  38.504 460.477  1.00  0.00     0.050 C 
BRANCH   4   5
ATOM      5  C   UNL     1     481.202  39.302 459.616  1.00  0.00     0.204 C 
ATOM      6  C   UNL     1     482.623  39.121 460.098  1.00  0.00    -0.015 C 
ATOM      7  O   UNL     1     481.252  38.780 458.285  1.00  0.00    -0.454 OA
ATOM      8  C   UNL     1     483.366  38.543 459.169  1.00  0.00     0.062 C 
ATOM      9  C   UNL     1     483.166  39.399 461.473  1.00  0.00     0.040 C 
ATOM     10  C   UNL     1     482.530  38.320 458.020  1.00  0.00     0.338 C 
ATOM     11  C   UNL     1     484.780  38.207 459.376  1.00  0.00     0.011 C 
ATOM     12  C   UNL     1     484.699  39.601 461.434  1.00  0.00     0.032 C 
ATOM     13  O   UNL     1     482.885  37.792 456.934  1.00  0.00    -0.246 OA
ATOM     14  C   UNL     1     485.392  38.643 460.483  1.00  0.00    -0.026 C 
ENDBRANCH   4   5
ENDBRANCH   1   4
TORSDOF 3
ENDMDL
MODEL 3
REMARK VINA RESULT:    -4.219      2.106      4.573
REMARK INTER + INTRA:          -5.361
REMARK INTER:                  -5.165
REMARK INTRA:                  -0.196
REMARK UNBOUND:                -0.402
REMARK SMILES CCCC[C@@H]1OC(=O)C2=C1CCC=C2
REMARK SMILES IDX 3 1 2 2 1 3 4 4 5 5 10 6 6 7 9 8 11 9 7 10 14 11 12 12 8 13
REMARK SMILES IDX 13 14
REMARK H PARENT
REMARK Flexibility Score: inf
ROOT
ATOM      1  C   UNL     1     476.654  35.313 462.467  1.00  0.00     0.004 C 
ENDROOT
BRANCH   1   2
ATOM      2  C   UNL     1     476.498  33.830 462.830  1.00  0.00    -0.003 C 
ATOM      3  C   UNL     1     475.230  33.594 463.647  1.00  0.00     0.004 C 
ENDBRANCH   1   2
BRANCH   1   4
ATOM      4  C   UNL     1     477.854  35.584 461.544  1.00  0.00     0.050 C 
BRANCH   4   5
ATOM      5  C   UNL     1     478.388  37.022 461.652  1.00  0.00     0.204 C 
ATOM      6  C   UNL     1     478.820  37.556 460.305  1.00  0.00    -0.015 C 
ATOM      7  O   UNL     1     477.342  37.924 462.027  1.00  0.00    -0.454 OA
ATOM      8  C   UNL     1     478.090  38.602 459.956  1.00  0.00     0.062 C 
ATOM      9  C   UNL     1     479.831  36.958 459.365  1.00  0.00     0.040 C 
ATOM     10  C   UNL     1     477.157  38.855 461.021  1.00  0.00     0.338 C 
ATOM     11  C   UNL     1     478.262  39.302 458.677  1.00  0.00     0.011 C 
ATOM     12  C   UNL     1     480.376  38.024 458.385  1.00  0.00     0.032 C 
ATOM     13  O   UNL     1     476.297  39.774 461.052  1.00  0.00    -0.246 OA
ATOM     14  C   UNL     1     479.300  38.977 457.898  1.00  0.00    -0.026 C 
ENDBRANCH   4   5
ENDBRANCH   1   4
TORSDOF 3
ENDMDL
MODEL 4
REMARK VINA RESULT:    -4.159      4.272      6.545
REMARK INTER + INTRA:          -5.291
REMARK INTER:                  -5.014
REMARK INTRA:                  -0.277
REMARK UNBOUND:                -0.402
REMARK SMILES CCCC[C@@H]1OC(=O)C2=C1CCC=C2
REMARK SMILES IDX 3 1 2 2 1 3 4 4 5 5 10 6 6 7 9 8 11 9 7 10 14 11 12 12 8 13
REMARK SMILES IDX 13 14
REMARK H PARENT
REMARK Flexibility Score: inf
ROOT
ATOM      1  C   UNL     1     479.231  37.896 459.798  1.00  0.00     0.004 C 
ENDROOT
BRANCH   1   2
ATOM      2  C   UNL     1     478.661  36.785 460.691  1.00  0.00    -0.003 C 
ATOM      3  C   UNL     1     479.018  35.405 460.145  1.00  0.00     0.004 C 
ENDBRANCH   1   2
BRANCH   1   4
ATOM      4  C   UNL     1     480.433  37.435 458.956  1.00  0.00     0.050 C 
BRANCH   4   5
ATOM      5  C   UNL     1     481.335  38.596 458.503  1.00  0.00     0.204 C 
ATOM      6  C   UNL     1     482.558  38.724 459.381  1.00  0.00    -0.015 C 
ATOM      7  O   UNL     1     481.898  38.326 457.215  1.00  0.00    -0.454 OA
ATOM      8  C   UNL     1     483.663  38.521 458.684  1.00  0.00     0.062 C 
ATOM      9  C   UNL     1     482.598  38.912 460.874  1.00  0.00     0.040 C 
ATOM     10  C   UNL     1     483.277  38.272 457.320  1.00  0.00     0.338 C 
ATOM     11  C   UNL     1     485.001  38.544 459.287  1.00  0.00     0.011 C 
ATOM     12  C   UNL     1     483.949  39.517 461.320  1.00  0.00     0.032 C 
ATOM     13  O   UNL     1     484.055  38.038 456.359  1.00  0.00    -0.246 OA
ATOM     14  C   UNL     1     485.129  38.944 460.558  1.00  0.00    -0.026 C 
ENDBRANCH   4   5
ENDBRANCH   1   4
TORSDOF 3
ENDMDL
MODEL 5
REMARK VINA RESULT:    -4.018      2.037      3.452
REMARK INTER + INTRA:          -5.125
REMARK INTER:                  -4.524
REMARK INTRA:                  -0.601
REMARK UNBOUND:                -0.402
REMARK SMILES CCCC[C@@H]1OC(=O)C2=C1CCC=C2
REMARK SMILES IDX 3 1 2 2 1 3 4 4 5 5 10 6 6 7 9 8 11 9 7 10 14 11 12 12 8 13
REMARK SMILES IDX 13 14
REMARK H PARENT
REMARK Flexibility Score: inf
ROOT
ATOM      1  C   UNL     1     478.878  40.665 462.297  1.00  0.00     0.004 C 
ENDROOT
BRANCH   1   2
ATOM      2  C   UNL     1     479.566  40.037 463.517  1.00  0.00    -0.003 C 
ATOM      3  C   UNL     1     480.583  38.981 463.092  1.00  0.00     0.004 C 
ENDBRANCH   1   2
BRANCH   1   4
ATOM      4  C   UNL     1     479.087  39.857 461.005  1.00  0.00     0.050 C 
BRANCH   4   5
ATOM      5  C   UNL     1     477.844  39.055 460.585  1.00  0.00     0.204 C 
ATOM      6  C   UNL     1     478.012  37.580 460.870  1.00  0.00    -0.015 C 
ATOM      7  O   UNL     1     476.717  39.406 461.395  1.00  0.00    -0.454 OA
ATOM      8  C   UNL     1     477.116  37.165 461.749  1.00  0.00     0.062 C 
ATOM      9  C   UNL     1     479.104  36.672 460.376  1.00  0.00     0.040 C 
ATOM     10  C   UNL     1     476.290  38.291 462.093  1.00  0.00     0.338 C 
ATOM     11  C   UNL     1     477.068  35.783 462.244  1.00  0.00     0.011 C 
ATOM     12  C   UNL     1     478.659  35.191 460.426  1.00  0.00     0.032 C 
ATOM     13  O   UNL     1     475.324  38.284 462.901  1.00  0.00    -0.246 OA
ATOM     14  C   UNL     1     477.852  34.864 461.669  1.00  0.00    -0.026 C 
ENDBRANCH   4   5
ENDBRANCH   1   4
TORSDOF 3
ENDMDL
MODEL 6
REMARK VINA RESULT:    -3.984      3.959      6.322
REMARK INTER + INTRA:          -5.085
REMARK INTER:                  -4.861
REMARK INTRA:                  -0.224
REMARK UNBOUND:                -0.402
REMARK SMILES CCCC[C@@H]1OC(=O)C2=C1CCC=C2
REMARK SMILES IDX 3 1 2 2 1 3 4 4 5 5 10 6 6 7 9 8 11 9 7 10 14 11 12 12 8 13
REMARK SMILES IDX 13 14
REMARK H PARENT
REMARK Flexibility Score: inf
ROOT
ATOM      1  C   UNL     1     478.949  37.520 460.557  1.00  0.00     0.004 C 
ENDROOT
BRANCH   1   2
ATOM      2  C   UNL     1     478.218  36.381 461.283  1.00  0.00    -0.003 C 
ATOM      3  C   UNL     1     478.570  35.026 460.674  1.00  0.00     0.004 C 
ENDBRANCH   1   2
BRANCH   1   4
ATOM      4  C   UNL     1     479.808  37.029 459.379  1.00  0.00     0.050 C 
BRANCH   4   5
ATOM      5  C   UNL     1     480.216  38.158 458.417  1.00  0.00     0.204 C 
ATOM      6  C   UNL     1     481.715  38.351 458.392  1.00  0.00    -0.015 C 
ATOM      7  O   UNL     1     479.923  37.800 457.063  1.00  0.00    -0.454 OA
ATOM      8  C   UNL     1     482.203  38.103 457.189  1.00  0.00     0.062 C 
ATOM      9  C   UNL     1     482.619  38.643 459.559  1.00  0.00     0.040 C 
ATOM     10  C   UNL     1     481.098  37.758 456.334  1.00  0.00     0.338 C 
ATOM     11  C   UNL     1     483.637  38.172 456.882  1.00  0.00     0.011 C 
ATOM     12  C   UNL     1     483.946  39.282 459.086  1.00  0.00     0.032 C 
ATOM     13  O   UNL     1     481.169  37.460 455.114  1.00  0.00    -0.246 OA
ATOM     14  C   UNL     1     484.473  38.661 457.806  1.00  0.00    -0.026 C 
ENDBRANCH   4   5
ENDBRANCH   1   4
TORSDOF 3
ENDMDL
MODEL 7
REMARK VINA RESULT:    -3.766      5.445      7.674
REMARK INTER + INTRA:          -4.829
REMARK INTER:                  -4.186
REMARK INTRA:                  -0.643
REMARK UNBOUND:                -0.402
REMARK SMILES CCCC[C@@H]1OC(=O)C2=C1CCC=C2
REMARK SMILES IDX 3 1 2 2 1 3 4 4 5 5 10 6 6 7 9 8 11 9 7 10 14 11 12 12 8 13
REMARK SMILES IDX 13 14
REMARK H PARENT
REMARK Flexibility Score: inf
ROOT
ATOM      1  C   UNL     1     485.478  41.168 459.764  1.00  0.00     0.004 C 
ENDROOT
BRANCH   1   2
ATOM      2  C   UNL     1     484.625  42.392 460.129  1.00  0.00    -0.003 C 
ATOM      3  C   UNL     1     483.396  42.493 459.231  1.00  0.00     0.004 C 
ENDBRANCH   1   2
BRANCH   1   4
ATOM      4  C   UNL     1     485.583  40.145 460.908  1.00  0.00     0.050 C 
BRANCH   4   5
ATOM      5  C   UNL     1     484.869  38.819 460.601  1.00  0.00     0.204 C 
ATOM      6  C   UNL     1     483.376  39.012 460.459  1.00  0.00    -0.015 C 
ATOM      7  O   UNL     1     485.246  38.326 459.312  1.00  0.00    -0.454 OA
ATOM      8  C   UNL     1     482.974  38.699 459.240  1.00  0.00     0.062 C 
ATOM      9  C   UNL     1     482.431  39.607 461.467  1.00  0.00     0.040 C 
ATOM     10  C   UNL     1     484.128  38.263 458.500  1.00  0.00     0.338 C 
ATOM     11  C   UNL     1     481.578  38.829 458.804  1.00  0.00     0.011 C 
ATOM     12  C   UNL     1     480.975  39.159 461.195  1.00  0.00     0.032 C 
ATOM     13  O   UNL     1     484.140  37.880 457.300  1.00  0.00    -0.246 OA
ATOM     14  C   UNL     1     480.641  39.120 459.715  1.00  0.00    -0.026 C 
ENDBRANCH   4   5
ENDBRANCH   1   4
TORSDOF 3
ENDMDL
MODEL 8
REMARK VINA RESULT:    -3.764      5.834      7.928
REMARK INTER + INTRA:          -4.826
REMARK INTER:                  -4.486
REMARK INTRA:                  -0.340
REMARK UNBOUND:                -0.402
REMARK SMILES CCCC[C@@H]1OC(=O)C2=C1CCC=C2
REMARK SMILES IDX 3 1 2 2 1 3 4 4 5 5 10 6 6 7 9 8 11 9 7 10 14 11 12 12 8 13
REMARK SMILES IDX 13 14
REMARK H PARENT
REMARK Flexibility Score: inf
ROOT
ATOM      1  C   UNL     1     485.109  38.389 459.850  1.00  0.00     0.004 C 
ENDROOT
BRANCH   1   2
ATOM      2  C   UNL     1     485.254  39.445 460.954  1.00  0.00    -0.003 C 
ATOM      3  C   UNL     1     484.013  39.488 461.841  1.00  0.00     0.004 C 
ENDBRANCH   1   2
BRANCH   1   4
ATOM      4  C   UNL     1     484.741  38.992 458.484  1.00  0.00     0.050 C 
BRANCH   4   5
ATOM      5  C   UNL     1     483.960  38.020 457.583  1.00  0.00     0.204 C 
ATOM      6  C   UNL     1     482.475  38.300 457.621  1.00  0.00    -0.015 C 
ATOM      7  O   UNL     1     484.286  38.232 456.206  1.00  0.00    -0.454 OA
ATOM      8  C   UNL     1     482.031  38.653 456.427  1.00  0.00     0.062 C 
ATOM      9  C   UNL     1     481.581  38.334 458.831  1.00  0.00     0.040 C 
ATOM     10  C   UNL     1     483.148  38.616 455.520  1.00  0.00     0.338 C 
ATOM     11  C   UNL     1     480.633  39.024 456.175  1.00  0.00     0.011 C 
ATOM     12  C   UNL     1     480.101  38.124 458.432  1.00  0.00     0.032 C 
ATOM     13  O   UNL     1     483.115  38.888 454.292  1.00  0.00    -0.246 OA
ATOM     14  C   UNL     1     479.732  38.843 457.148  1.00  0.00    -0.026 C 
ENDBRANCH   4   5
ENDBRANCH   1   4
TORSDOF 3
ENDMDL
MODEL 9
REMARK VINA RESULT:    -3.750      2.320      4.427
REMARK INTER + INTRA:          -4.810
REMARK INTER:                  -4.613
REMARK INTRA:                  -0.196
REMARK UNBOUND:                -0.402
REMARK SMILES CCCC[C@@H]1OC(=O)C2=C1CCC=C2
REMARK SMILES IDX 3 1 2 2 1 3 4 4 5 5 10 6 6 7 9 8 11 9 7 10 14 11 12 12 8 13
REMARK SMILES IDX 13 14
REMARK H PARENT
REMARK Flexibility Score: inf
ROOT
ATOM      1  C   UNL     1     477.504  34.952 461.750  1.00  0.00     0.004 C 
ENDROOT
BRANCH   1   2
ATOM      2  C   UNL     1     477.146  33.886 462.795  1.00  0.00    -0.003 C 
ATOM      3  C   UNL     1     475.691  34.019 463.240  1.00  0.00     0.004 C 
ENDBRANCH   1   2
BRANCH   1   4
ATOM      4  C   UNL     1     477.842  36.317 462.374  1.00  0.00     0.050 C 
BRANCH   4   5
ATOM      5  C   UNL     1     477.957  37.445 461.334  1.00  0.00     0.204 C 
ATOM      6  C   UNL     1     478.950  38.499 461.768  1.00  0.00    -0.015 C 
ATOM      7  O   UNL     1     478.529  36.955 460.117  1.00  0.00    -0.454 OA
ATOM      8  C   UNL     1     479.963  38.570 460.920  1.00  0.00     0.062 C 
ATOM      9  C   UNL     1     478.938  39.299 463.042  1.00  0.00     0.040 C 
ATOM     10  C   UNL     1     479.721  37.613 459.873  1.00  0.00     0.338 C 
ATOM     11  C   UNL     1     481.099  39.480 461.111  1.00  0.00     0.011 C 
ATOM     12  C   UNL     1     479.765  40.597 462.889  1.00  0.00     0.032 C 
ATOM     13  O   UNL     1     480.466  37.392 458.883  1.00  0.00    -0.246 OA
ATOM     14  C   UNL     1     481.038  40.391 462.090  1.00  0.00    -0.026 C 
ENDBRANCH   4   5
ENDBRANCH   1   4
TORSDOF 3
ENDMDL
