MODEL 1
REMARK VINA RESULT:    -4.102      0.000      0.000
REMARK INTER + INTRA:          -4.359
REMARK INTER:                  -4.342
REMARK INTRA:                  -0.017
REMARK UNBOUND:                -0.017
REMARK SMILES O=C([O-])c1cccnc1
REMARK SMILES IDX 4 1 5 2 9 3 6 4 8 5 7 6 2 7 1 8 3 9
REMARK H PARENT
REMARK Flexibility Score: inf
ROOT
ATOM      1  C   UNL     1      16.611  -6.142   3.251  1.00  0.00     0.016 A 
ATOM      2  C   UNL     1      16.162  -5.620   2.027  1.00  0.00     0.013 A 
ATOM      3  C   UNL     1      15.654  -6.516   4.210  1.00  0.00     0.120 A 
ATOM      4  C   UNL     1      14.794  -5.482   1.784  1.00  0.00     0.021 A 
ATOM      5  N   UNL     1      14.327  -6.370   3.948  1.00  0.00    -0.264 NA
ATOM      6  C   UNL     1      13.883  -5.866   2.767  1.00  0.00     0.111 A 
ENDROOT
BRANCH   1   7
ATOM      7  C   UNL     1      18.055  -6.297   3.529  1.00  0.00     0.073 C 
ATOM      8  O   UNL     1      18.564  -7.444   3.656  1.00  0.00    -0.545 OA
ATOM      9  O   UNL     1      18.874  -5.180   3.652  1.00  0.00    -0.545 OA
ENDBRANCH   1   7
TORSDOF 1
ENDMDL
MODEL 2
REMARK VINA RESULT:    -3.799      2.929      3.911
REMARK INTER + INTRA:          -4.038
REMARK INTER:                  -4.021
REMARK INTRA:                  -0.018
REMARK UNBOUND:                -0.017
REMARK SMILES O=C([O-])c1cccnc1
REMARK SMILES IDX 4 1 5 2 9 3 6 4 8 5 7 6 2 7 1 8 3 9
REMARK H PARENT
REMARK Flexibility Score: inf
ROOT
ATOM      1  C   UNL     1      15.933  -6.408   2.508  1.00  0.00     0.016 A 
ATOM      2  C   UNL     1      16.981  -6.276   3.433  1.00  0.00     0.013 A 
ATOM      3  C   UNL     1      16.121  -7.252   1.401  1.00  0.00     0.120 A 
ATOM      4  C   UNL     1      18.176  -6.974   3.243  1.00  0.00     0.021 A 
ATOM      5  N   UNL     1      17.295  -7.920   1.238  1.00  0.00    -0.264 NA
ATOM      6  C   UNL     1      18.315  -7.799   2.127  1.00  0.00     0.111 A 
ENDROOT
BRANCH   1   7
ATOM      7  C   UNL     1      14.660  -5.678   2.692  1.00  0.00     0.073 C 
ATOM      8  O   UNL     1      14.268  -4.846   1.830  1.00  0.00    -0.545 OA
ATOM      9  O   UNL     1      13.875  -5.902   3.818  1.00  0.00    -0.545 OA
ENDBRANCH   1   7
TORSDOF 1
ENDMDL
MODEL 3
REMARK VINA RESULT:    -3.796      2.994      3.640
REMARK INTER + INTRA:          -4.034
REMARK INTER:                  -4.013
REMARK INTRA:                  -0.022
REMARK UNBOUND:                -0.017
REMARK SMILES O=C([O-])c1cccnc1
REMARK SMILES IDX 4 1 5 2 9 3 6 4 8 5 7 6 2 7 1 8 3 9
REMARK H PARENT
REMARK Flexibility Score: inf
ROOT
ATOM      1  C   UNL     1      17.168  -7.813   1.510  1.00  0.00     0.016 A 
ATOM      2  C   UNL     1      16.188  -6.809   1.445  1.00  0.00     0.013 A 
ATOM      3  C   UNL     1      18.187  -7.690   2.471  1.00  0.00     0.120 A 
ATOM      4  C   UNL     1      16.238  -5.722   2.320  1.00  0.00     0.021 A 
ATOM      5  N   UNL     1      18.213  -6.621   3.311  1.00  0.00    -0.264 NA
ATOM      6  C   UNL     1      17.270  -5.645   3.255  1.00  0.00     0.111 A 
ENDROOT
BRANCH   1   7
ATOM      7  C   UNL     1      17.133  -8.972   0.593  1.00  0.00     0.073 C 
ATOM      8  O   UNL     1      16.034  -9.433   0.184  1.00  0.00    -0.545 OA
ATOM      9  O   UNL     1      18.314  -9.571   0.168  1.00  0.00    -0.545 OA
ENDBRANCH   1   7
TORSDOF 1
ENDMDL
MODEL 4
REMARK VINA RESULT:    -3.640     13.787     14.287
REMARK INTER + INTRA:          -3.870
REMARK INTER:                  -3.848
REMARK INTRA:                  -0.022
REMARK UNBOUND:                -0.017
REMARK SMILES O=C([O-])c1cccnc1
REMARK SMILES IDX 4 1 5 2 9 3 6 4 8 5 7 6 2 7 1 8 3 9
REMARK H PARENT
REMARK Flexibility Score: inf
ROOT
ATOM      1  C   UNL     1      25.535   3.868  -0.724  1.00  0.00     0.016 A 
ATOM      2  C   UNL     1      26.189   3.795  -1.965  1.00  0.00     0.013 A 
ATOM      3  C   UNL     1      24.197   4.297  -0.698  1.00  0.00     0.120 A 
ATOM      4  C   UNL     1      25.513   4.144  -3.135  1.00  0.00     0.021 A 
ATOM      5  N   UNL     1      23.561   4.631  -1.853  1.00  0.00    -0.264 NA
ATOM      6  C   UNL     1      24.186   4.564  -3.058  1.00  0.00     0.111 A 
ENDROOT
BRANCH   1   7
ATOM      7  C   UNL     1      26.233   3.502   0.527  1.00  0.00     0.073 C 
ATOM      8  O   UNL     1      25.863   3.984   1.632  1.00  0.00    -0.545 OA
ATOM      9  O   UNL     1      27.308   2.620   0.504  1.00  0.00    -0.545 OA
ENDBRANCH   1   7
TORSDOF 1
ENDMDL
MODEL 5
REMARK VINA RESULT:    -3.541     12.884     13.812
REMARK INTER + INTRA:          -3.765
REMARK INTER:                  -3.745
REMARK INTRA:                  -0.020
REMARK UNBOUND:                -0.017
REMARK SMILES O=C([O-])c1cccnc1
REMARK SMILES IDX 4 1 5 2 9 3 6 4 8 5 7 6 2 7 1 8 3 9
REMARK H PARENT
REMARK Flexibility Score: inf
ROOT
ATOM      1  C   UNL     1      24.558   3.847   0.113  1.00  0.00     0.016 A 
ATOM      2  C   UNL     1      25.905   3.512  -0.100  1.00  0.00     0.013 A 
ATOM      3  C   UNL     1      23.814   4.347  -0.969  1.00  0.00     0.120 A 
ATOM      4  C   UNL     1      26.478   3.678  -1.363  1.00  0.00     0.021 A 
ATOM      5  N   UNL     1      24.397   4.500  -2.190  1.00  0.00    -0.264 NA
ATOM      6  C   UNL     1      25.699   4.179  -2.405  1.00  0.00     0.111 A 
ENDROOT
BRANCH   1   7
ATOM      7  C   UNL     1      23.932   3.678   1.442  1.00  0.00     0.073 C 
ATOM      8  O   UNL     1      24.531   4.055   2.485  1.00  0.00    -0.545 OA
ATOM      9  O   UNL     1      22.672   3.102   1.560  1.00  0.00    -0.545 OA
ENDBRANCH   1   7
TORSDOF 1
ENDMDL
MODEL 6
REMARK VINA RESULT:    -3.538     12.876     13.716
REMARK INTER + INTRA:          -3.762
REMARK INTER:                  -3.741
REMARK INTRA:                  -0.021
REMARK UNBOUND:                -0.017
REMARK SMILES O=C([O-])c1cccnc1
REMARK SMILES IDX 4 1 5 2 9 3 6 4 8 5 7 6 2 7 1 8 3 9
REMARK H PARENT
REMARK Flexibility Score: inf
ROOT
ATOM      1  C   UNL     1      24.565   3.772   0.216  1.00  0.00     0.016 A 
ATOM      2  C   UNL     1      23.861   4.220  -0.913  1.00  0.00     0.013 A 
ATOM      3  C   UNL     1      25.928   3.460   0.073  1.00  0.00     0.120 A 
ATOM      4  C   UNL     1      24.512   4.345  -2.142  1.00  0.00     0.021 A 
ATOM      5  N   UNL     1      26.539   3.590  -1.136  1.00  0.00    -0.264 NA
ATOM      6  C   UNL     1      25.866   4.022  -2.234  1.00  0.00     0.111 A 
ENDROOT
BRANCH   1   7
ATOM      7  C   UNL     1      23.894   3.633   1.526  1.00  0.00     0.073 C 
ATOM      8  O   UNL     1      22.710   3.209   1.598  1.00  0.00    -0.545 OA
ATOM      9  O   UNL     1      24.562   3.968   2.699  1.00  0.00    -0.545 OA
ENDBRANCH   1   7
TORSDOF 1
ENDMDL
MODEL 7
REMARK VINA RESULT:    -3.451     12.787     13.556
REMARK INTER + INTRA:          -3.670
REMARK INTER:                  -3.646
REMARK INTRA:                  -0.023
REMARK UNBOUND:                -0.017
REMARK SMILES O=C([O-])c1cccnc1
REMARK SMILES IDX 4 1 5 2 9 3 6 4 8 5 7 6 2 7 1 8 3 9
REMARK H PARENT
REMARK Flexibility Score: inf
ROOT
ATOM      1  C   UNL     1      24.797   3.881   0.256  1.00  0.00     0.016 A 
ATOM      2  C   UNL     1      23.413   3.750   0.456  1.00  0.00     0.013 A 
ATOM      3  C   UNL     1      25.615   4.114   1.375  1.00  0.00     0.120 A 
ATOM      4  C   UNL     1      22.878   3.852   1.741  1.00  0.00     0.021 A 
ATOM      5  N   UNL     1      25.067   4.209   2.617  1.00  0.00    -0.264 NA
ATOM      6  C   UNL     1      23.730   4.084   2.820  1.00  0.00     0.111 A 
ENDROOT
BRANCH   1   7
ATOM      7  C   UNL     1      25.385   3.776  -1.097  1.00  0.00     0.073 C 
ATOM      8  O   UNL     1      26.634   3.713  -1.250  1.00  0.00    -0.545 OA
ATOM      9  O   UNL     1      24.566   3.744  -2.221  1.00  0.00    -0.545 OA
ENDBRANCH   1   7
TORSDOF 1
ENDMDL
MODEL 8
REMARK VINA RESULT:    -3.429     13.118     13.693
REMARK INTER + INTRA:          -3.646
REMARK INTER:                  -3.623
REMARK INTRA:                  -0.024
REMARK UNBOUND:                -0.017
REMARK SMILES O=C([O-])c1cccnc1
REMARK SMILES IDX 4 1 5 2 9 3 6 4 8 5 7 6 2 7 1 8 3 9
REMARK H PARENT
REMARK Flexibility Score: inf
ROOT
ATOM      1  C   UNL     1      24.776   3.987   0.070  1.00  0.00     0.016 A 
ATOM      2  C   UNL     1      25.620   4.057   1.190  1.00  0.00     0.013 A 
ATOM      3  C   UNL     1      23.393   4.144   0.264  1.00  0.00     0.120 A 
ATOM      4  C   UNL     1      25.082   4.278   2.460  1.00  0.00     0.021 A 
ATOM      5  N   UNL     1      22.895   4.358   1.511  1.00  0.00    -0.264 NA
ATOM      6  C   UNL     1      23.703   4.426   2.602  1.00  0.00     0.111 A 
ENDROOT
BRANCH   1   7
ATOM      7  C   UNL     1      25.325   3.755  -1.284  1.00  0.00     0.073 C 
ATOM      8  O   UNL     1      24.562   3.708  -2.285  1.00  0.00    -0.545 OA
ATOM      9  O   UNL     1      26.692   3.586  -1.470  1.00  0.00    -0.545 OA
ENDBRANCH   1   7
TORSDOF 1
ENDMDL
MODEL 9
REMARK VINA RESULT:    -3.319     13.635     14.139
REMARK INTER + INTRA:          -3.530
REMARK INTER:                  -3.506
REMARK INTRA:                  -0.024
REMARK UNBOUND:                -0.017
REMARK SMILES O=C([O-])c1cccnc1
REMARK SMILES IDX 4 1 5 2 9 3 6 4 8 5 7 6 2 7 1 8 3 9
REMARK H PARENT
REMARK Flexibility Score: inf
ROOT
ATOM      1  C   UNL     1      24.750   4.065  -1.102  1.00  0.00     0.016 A 
ATOM      2  C   UNL     1      25.904   3.705  -0.387  1.00  0.00     0.013 A 
ATOM      3  C   UNL     1      23.608   4.449  -0.378  1.00  0.00     0.120 A 
ATOM      4  C   UNL     1      25.901   3.731   1.009  1.00  0.00     0.021 A 
ATOM      5  N   UNL     1      23.631   4.465   0.982  1.00  0.00    -0.264 NA
ATOM      6  C   UNL     1      24.742   4.118   1.682  1.00  0.00     0.111 A 
ENDROOT
BRANCH   1   7
ATOM      7  C   UNL     1      24.732   4.045  -2.580  1.00  0.00     0.073 C 
ATOM      8  O   UNL     1      23.685   4.347  -3.213  1.00  0.00    -0.545 OA
ATOM      9  O   UNL     1      25.872   3.693  -3.294  1.00  0.00    -0.545 OA
ENDBRANCH   1   7
TORSDOF 1
ENDMDL
