MODEL 1
REMARK VINA RESULT:    -3.614      0.000      0.000
REMARK INTER + INTRA:          -4.363
REMARK INTER:                  -4.353
REMARK INTRA:                  -0.010
REMARK UNBOUND:                -0.010
REMARK SMILES CCCCCO
REMARK SMILES IDX 4 1 3 2 2 3 1 4 5 5 6 6
REMARK H PARENT 6 7
REMARK Flexibility Score: inf
ROOT
ATOM      1  C   UNL     1     -31.687  53.033 -51.775  1.00  0.00     0.028 C 
ENDROOT
BRANCH   1   2
ATOM      2  C   UNL     1     -32.460  52.208 -50.733  1.00  0.00     0.002 C 
BRANCH   2   3
ATOM      3  C   UNL     1     -32.972  50.873 -51.296  1.00  0.00    -0.003 C 
ATOM      4  C   UNL     1     -34.250  51.073 -52.107  1.00  0.00     0.004 C 
ENDBRANCH   2   3
ENDBRANCH   1   2
BRANCH   1   5
ATOM      5  C   UNL     1     -31.013  54.283 -51.192  1.00  0.00     0.156 C 
BRANCH   5   6
ATOM      6  O   UNL     1     -31.953  55.123 -50.576  1.00  0.00    -0.396 OA
ATOM      7  H   UNL     1     -31.872  54.970 -49.598  1.00  0.00     0.210 HD
ENDBRANCH   5   6
ENDBRANCH   1   5
TORSDOF 4
ENDMDL
MODEL 2
REMARK VINA RESULT:    -3.531     14.163     15.707
REMARK INTER + INTRA:          -4.264
REMARK INTER:                  -4.250
REMARK INTRA:                  -0.014
REMARK UNBOUND:                -0.010
REMARK SMILES CCCCCO
REMARK SMILES IDX 4 1 3 2 2 3 1 4 5 5 6 6
REMARK H PARENT 6 7
REMARK Flexibility Score: inf
ROOT
ATOM      1  C   UNL     1     -41.579  40.478 -49.910  1.00  0.00     0.028 C 
ENDROOT
BRANCH   1   2
ATOM      2  C   UNL     1     -40.633  39.307 -50.226  1.00  0.00     0.002 C 
BRANCH   2   3
ATOM      3  C   UNL     1     -41.328  38.174 -50.997  1.00  0.00    -0.003 C 
ATOM      4  C   UNL     1     -42.387  37.493 -50.134  1.00  0.00     0.004 C 
ENDBRANCH   2   3
ENDBRANCH   1   2
BRANCH   1   5
ATOM      5  C   UNL     1     -41.265  41.753 -50.705  1.00  0.00     0.156 C 
BRANCH   5   6
ATOM      6  O   UNL     1     -41.435  42.897 -49.911  1.00  0.00    -0.396 OA
ATOM      7  H   UNL     1     -42.333  42.823 -49.494  1.00  0.00     0.210 HD
ENDBRANCH   5   6
ENDBRANCH   1   5
TORSDOF 4
ENDMDL
MODEL 3
REMARK VINA RESULT:    -3.494      0.844      1.618
REMARK INTER + INTRA:          -4.219
REMARK INTER:                  -4.202
REMARK INTRA:                  -0.017
REMARK UNBOUND:                -0.010
REMARK SMILES CCCCCO
REMARK SMILES IDX 4 1 3 2 2 3 1 4 5 5 6 6
REMARK H PARENT 6 7
REMARK Flexibility Score: inf
ROOT
ATOM      1  C   UNL     1     -32.612  51.833 -50.404  1.00  0.00     0.028 C 
ENDROOT
BRANCH   1   2
ATOM      2  C   UNL     1     -33.058  50.697 -51.340  1.00  0.00     0.002 C 
BRANCH   2   3
ATOM      3  C   UNL     1     -34.317  51.054 -52.146  1.00  0.00    -0.003 C 
ATOM      4  C   UNL     1     -35.152  49.810 -52.438  1.00  0.00     0.004 C 
ENDBRANCH   2   3
ENDBRANCH   1   2
BRANCH   1   5
ATOM      5  C   UNL     1     -32.010  53.037 -51.142  1.00  0.00     0.156 C 
BRANCH   5   6
ATOM      6  O   UNL     1     -32.148  54.212 -50.388  1.00  0.00    -0.396 OA
ATOM      7  H   UNL     1     -31.239  54.600 -50.296  1.00  0.00     0.210 HD
ENDBRANCH   5   6
ENDBRANCH   1   5
TORSDOF 4
ENDMDL
MODEL 4
REMARK VINA RESULT:    -3.359     15.445     16.555
REMARK INTER + INTRA:          -4.056
REMARK INTER:                  -3.998
REMARK INTRA:                  -0.057
REMARK UNBOUND:                -0.010
REMARK SMILES CCCCCO
REMARK SMILES IDX 4 1 3 2 2 3 1 4 5 5 6 6
REMARK H PARENT 6 7
REMARK Flexibility Score: inf
ROOT
ATOM      1  C   UNL     1     -40.343  39.564 -50.111  1.00  0.00     0.028 C 
ENDROOT
BRANCH   1   2
ATOM      2  C   UNL     1     -41.396  39.067 -51.116  1.00  0.00     0.002 C 
BRANCH   2   3
ATOM      3  C   UNL     1     -41.619  37.548 -51.037  1.00  0.00    -0.003 C 
ATOM      4  C   UNL     1     -42.689  37.203 -50.005  1.00  0.00     0.004 C 
ENDBRANCH   2   3
ENDBRANCH   1   2
BRANCH   1   5
ATOM      5  C   UNL     1     -40.938  40.357 -48.939  1.00  0.00     0.156 C 
BRANCH   5   6
ATOM      6  O   UNL     1     -40.501  39.843 -47.709  1.00  0.00    -0.396 OA
ATOM      7  H   UNL     1     -40.959  38.970 -47.587  1.00  0.00     0.210 HD
ENDBRANCH   5   6
ENDBRANCH   1   5
TORSDOF 4
ENDMDL
MODEL 5
REMARK VINA RESULT:    -3.347      2.612      3.611
REMARK INTER + INTRA:          -4.042
REMARK INTER:                  -4.033
REMARK INTRA:                  -0.009
REMARK UNBOUND:                -0.010
REMARK SMILES CCCCCO
REMARK SMILES IDX 4 1 3 2 2 3 1 4 5 5 6 6
REMARK H PARENT 6 7
REMARK Flexibility Score: inf
ROOT
ATOM      1  C   UNL     1     -33.942  51.011 -51.889  1.00  0.00     0.028 C 
ENDROOT
BRANCH   1   2
ATOM      2  C   UNL     1     -34.387  49.684 -52.528  1.00  0.00     0.002 C 
BRANCH   2   3
ATOM      3  C   UNL     1     -35.915  49.534 -52.580  1.00  0.00    -0.003 C 
ATOM      4  C   UNL     1     -36.339  48.104 -52.257  1.00  0.00     0.004 C 
ENDBRANCH   2   3
ENDBRANCH   1   2
BRANCH   1   5
ATOM      5  C   UNL     1     -32.481  51.376 -52.186  1.00  0.00     0.156 C 
BRANCH   5   6
ATOM      6  O   UNL     1     -31.620  50.844 -51.214  1.00  0.00    -0.396 OA
ATOM      7  H   UNL     1     -31.354  49.943 -51.534  1.00  0.00     0.210 HD
ENDBRANCH   5   6
ENDBRANCH   1   5
TORSDOF 4
ENDMDL
MODEL 6
REMARK VINA RESULT:    -3.326      3.052      3.799
REMARK INTER + INTRA:          -4.016
REMARK INTER:                  -3.933
REMARK INTRA:                  -0.083
REMARK UNBOUND:                -0.010
REMARK SMILES CCCCCO
REMARK SMILES IDX 4 1 3 2 2 3 1 4 5 5 6 6
REMARK H PARENT 6 7
REMARK Flexibility Score: inf
ROOT
ATOM      1  C   UNL     1     -33.460  51.112 -53.307  1.00  0.00     0.028 C 
ENDROOT
BRANCH   1   2
ATOM      2  C   UNL     1     -33.833  51.303 -51.827  1.00  0.00     0.002 C 
BRANCH   2   3
ATOM      3  C   UNL     1     -32.687  51.909 -51.001  1.00  0.00    -0.003 C 
ATOM      4  C   UNL     1     -32.509  51.164 -49.680  1.00  0.00     0.004 C 
ENDBRANCH   2   3
ENDBRANCH   1   2
BRANCH   1   5
ATOM      5  C   UNL     1     -32.052  50.537 -53.516  1.00  0.00     0.156 C 
BRANCH   5   6
ATOM      6  O   UNL     1     -32.028  49.157 -53.263  1.00  0.00    -0.396 OA
ATOM      7  H   UNL     1     -32.211  49.042 -52.294  1.00  0.00     0.210 HD
ENDBRANCH   5   6
ENDBRANCH   1   5
TORSDOF 4
ENDMDL
MODEL 7
REMARK VINA RESULT:    -3.293      2.588      3.182
REMARK INTER + INTRA:          -3.976
REMARK INTER:                  -3.877
REMARK INTRA:                  -0.099
REMARK UNBOUND:                -0.010
REMARK SMILES CCCCCO
REMARK SMILES IDX 4 1 3 2 2 3 1 4 5 5 6 6
REMARK H PARENT 6 7
REMARK Flexibility Score: inf
ROOT
ATOM      1  C   UNL     1     -32.995  51.925 -51.163  1.00  0.00     0.028 C 
ENDROOT
BRANCH   1   2
ATOM      2  C   UNL     1     -33.979  51.156 -52.062  1.00  0.00     0.002 C 
BRANCH   2   3
ATOM      3  C   UNL     1     -33.548  51.144 -53.537  1.00  0.00    -0.003 C 
ATOM      4  C   UNL     1     -32.061  51.453 -53.678  1.00  0.00     0.004 C 
ENDBRANCH   2   3
ENDBRANCH   1   2
BRANCH   1   5
ATOM      5  C   UNL     1     -32.497  51.111 -49.961  1.00  0.00     0.156 C 
BRANCH   5   6
ATOM      6  O   UNL     1     -31.647  50.073 -50.372  1.00  0.00    -0.396 OA
ATOM      7  H   UNL     1     -31.327  50.311 -51.281  1.00  0.00     0.210 HD
ENDBRANCH   5   6
ENDBRANCH   1   5
TORSDOF 4
ENDMDL
MODEL 8
REMARK VINA RESULT:    -3.235      2.729      3.991
REMARK INTER + INTRA:          -3.907
REMARK INTER:                  -3.855
REMARK INTRA:                  -0.052
REMARK UNBOUND:                -0.010
REMARK SMILES CCCCCO
REMARK SMILES IDX 4 1 3 2 2 3 1 4 5 5 6 6
REMARK H PARENT 6 7
REMARK Flexibility Score: inf
ROOT
ATOM      1  C   UNL     1     -33.441  51.018 -51.426  1.00  0.00     0.028 C 
ENDROOT
BRANCH   1   2
ATOM      2  C   UNL     1     -32.580  52.237 -51.057  1.00  0.00     0.002 C 
BRANCH   2   3
ATOM      3  C   UNL     1     -31.611  52.640 -52.179  1.00  0.00    -0.003 C 
ATOM      4  C   UNL     1     -30.963  53.991 -51.887  1.00  0.00     0.004 C 
ENDBRANCH   2   3
ENDBRANCH   1   2
BRANCH   1   5
ATOM      5  C   UNL     1     -32.989  50.313 -52.713  1.00  0.00     0.156 C 
BRANCH   5   6
ATOM      6  O   UNL     1     -32.525  49.017 -52.442  1.00  0.00    -0.396 OA
ATOM      7  H   UNL     1     -33.305  48.410 -52.537  1.00  0.00     0.210 HD
ENDBRANCH   5   6
ENDBRANCH   1   5
TORSDOF 4
ENDMDL
MODEL 9
REMARK VINA RESULT:    -3.209      4.915      6.616
REMARK INTER + INTRA:          -3.875
REMARK INTER:                  -3.841
REMARK INTRA:                  -0.035
REMARK UNBOUND:                -0.010
REMARK SMILES CCCCCO
REMARK SMILES IDX 4 1 3 2 2 3 1 4 5 5 6 6
REMARK H PARENT 6 7
REMARK Flexibility Score: inf
ROOT
ATOM      1  C   UNL     1     -36.954  47.990 -52.225  1.00  0.00     0.028 C 
ENDROOT
BRANCH   1   2
ATOM      2  C   UNL     1     -35.578  48.533 -52.642  1.00  0.00     0.002 C 
BRANCH   2   3
ATOM      3  C   UNL     1     -35.402  50.023 -52.309  1.00  0.00    -0.003 C 
ATOM      4  C   UNL     1     -34.051  50.540 -52.794  1.00  0.00     0.004 C 
ENDBRANCH   2   3
ENDBRANCH   1   2
BRANCH   1   5
ATOM      5  C   UNL     1     -38.121  48.906 -52.618  1.00  0.00     0.156 C 
BRANCH   5   6
ATOM      6  O   UNL     1     -39.153  48.846 -51.668  1.00  0.00    -0.396 OA
ATOM      7  H   UNL     1     -39.742  49.627 -51.839  1.00  0.00     0.210 HD
ENDBRANCH   5   6
ENDBRANCH   1   5
TORSDOF 4
ENDMDL
