MODEL 1
REMARK VINA RESULT:    -7.258      0.000      0.000
REMARK INTER + INTRA:         -10.982
REMARK INTER:                  -9.804
REMARK INTRA:                  -1.179
REMARK UNBOUND:                -1.179
REMARK SMILES CC[C@@H](CC[C@H](C)[C@@H]1CC[C@H]2[C@H]3CC(=O)C4=CC(=O)CC[C@]4(C)[C@@H]3CC[C@]21C)C(C)C
REMARK SMILES IDX 4 1 3 2 2 3 1 4 29 5 30 6 31 7 5 8 6 9 7 10 8 11 9 12 27 13
REMARK SMILES IDX 10 14 11 15 26 16 28 17 12 18 25 19 24 20 13 21 22 22 14 23
REMARK SMILES IDX 16 24 21 25 23 26 15 27 17 28 20 29 18 30 19 31
REMARK H PARENT
REMARK Flexibility Score: inf
ROOT
ATOM      1  C   UNL     1     -13.388   2.884  29.339  1.00  0.00     0.004 C 
ENDROOT
BRANCH   1   2
ATOM      2  C   UNL     1     -12.781   1.472  29.611  1.00  0.00    -0.009 C 
BRANCH   2   3
ATOM      3  C   UNL     1     -13.290   0.375  28.626  1.00  0.00     0.000 C 
ATOM      4  C   UNL     1     -12.243  -0.035  27.582  1.00  0.00     0.004 C 
ENDBRANCH   2   3
BRANCH   2   5
ATOM      5  C   UNL     1     -12.862   1.098  31.139  1.00  0.00    -0.014 C 
ATOM      6  C   UNL     1     -12.669  -0.402  31.431  1.00  0.00     0.007 C 
ATOM      7  C   UNL     1     -11.861   1.931  31.982  1.00  0.00     0.007 C 
ENDBRANCH   2   5
ENDBRANCH   1   2
BRANCH   1   8
ATOM      8  C   UNL     1     -13.315   3.449  27.894  1.00  0.00     0.004 C 
BRANCH   8   9
ATOM      9  C   UNL     1     -14.678   3.613  27.154  1.00  0.00    -0.011 C 
ATOM     10  C   UNL     1     -15.744   2.681  27.778  1.00  0.00     0.008 C 
BRANCH   9  11
ATOM     11  C   UNL     1     -14.610   3.341  25.601  1.00  0.00    -0.002 C 
ATOM     12  C   UNL     1     -13.184   2.993  25.112  1.00  0.00     0.005 C 
ATOM     13  C   UNL     1     -15.156   4.435  24.605  1.00  0.00    -0.026 C 
ATOM     14  C   UNL     1     -12.871   3.894  23.922  1.00  0.00     0.005 C 
ATOM     15  C   UNL     1     -13.880   5.045  23.975  1.00  0.00    -0.001 C 
ATOM     16  C   UNL     1     -16.003   3.713  23.511  1.00  0.00     0.007 C 
ATOM     17  C   UNL     1     -16.016   5.532  25.283  1.00  0.00     0.012 C 
ATOM     18  C   UNL     1     -14.106   5.802  22.628  1.00  0.00     0.004 C 
ATOM     19  C   UNL     1     -16.259   4.542  22.247  1.00  0.00     0.005 C 
ATOM     20  C   UNL     1     -14.940   5.010  21.588  1.00  0.00     0.003 C 
ATOM     21  C   UNL     1     -12.759   6.228  22.018  1.00  0.00     0.085 C 
ATOM     22  C   UNL     1     -15.112   5.765  20.180  1.00  0.00    -0.000 C 
ATOM     23  C   UNL     1     -12.988   7.134  20.858  1.00  0.00     0.159 C 
ATOM     24  C   UNL     1     -14.242   7.036  20.075  1.00  0.00     0.005 C 
ATOM     25  C   UNL     1     -16.602   6.166  19.897  1.00  0.00     0.020 C 
ATOM     26  C   UNL     1     -14.635   4.799  19.066  1.00  0.00     0.017 C 
ATOM     27  O   UNL     1     -12.101   7.984  20.563  1.00  0.00    -0.295 OA
ATOM     28  C   UNL     1     -14.561   8.041  19.234  1.00  0.00     0.055 C 
ATOM     29  C   UNL     1     -16.797   6.933  18.584  1.00  0.00     0.081 C 
ATOM     30  C   UNL     1     -15.806   8.046  18.454  1.00  0.00     0.156 C 
ATOM     31  O   UNL     1     -16.027   8.986  17.648  1.00  0.00    -0.295 OA
ENDBRANCH   9  11
ENDBRANCH   8   9
ENDBRANCH   1   8
TORSDOF 6
ENDMDL
MODEL 2
REMARK VINA RESULT:    -7.085      2.150      3.009
REMARK INTER + INTRA:         -10.749
REMARK INTER:                  -9.742
REMARK INTRA:                  -1.007
REMARK UNBOUND:                -1.179
REMARK SMILES CC[C@@H](CC[C@H](C)[C@@H]1CC[C@H]2[C@H]3CC(=O)C4=CC(=O)CC[C@]4(C)[C@@H]3CC[C@]21C)C(C)C
REMARK SMILES IDX 4 1 3 2 2 3 1 4 29 5 30 6 31 7 5 8 6 9 7 10 8 11 9 12 27 13
REMARK SMILES IDX 10 14 11 15 26 16 28 17 12 18 25 19 24 20 13 21 22 22 14 23
REMARK SMILES IDX 16 24 21 25 23 26 15 27 17 28 20 29 18 30 19 31
REMARK H PARENT
REMARK Flexibility Score: inf
ROOT
ATOM      1  C   UNL     1     -12.361   2.490  29.783  1.00  0.00     0.004 C 
ENDROOT
BRANCH   1   2
ATOM      2  C   UNL     1     -12.201   2.451  31.335  1.00  0.00    -0.009 C 
BRANCH   2   3
ATOM      3  C   UNL     1     -10.871   3.091  31.840  1.00  0.00     0.000 C 
ATOM      4  C   UNL     1     -11.076   4.446  32.530  1.00  0.00     0.004 C 
ENDBRANCH   2   3
BRANCH   2   5
ATOM      5  C   UNL     1     -12.520   1.019  31.908  1.00  0.00    -0.014 C 
ATOM      6  C   UNL     1     -12.628  -0.079  30.833  1.00  0.00     0.007 C 
ATOM      7  C   UNL     1     -11.490   0.596  32.989  1.00  0.00     0.007 C 
ENDBRANCH   2   5
ENDBRANCH   1   2
BRANCH   1   8
ATOM      8  C   UNL     1     -13.481   3.385  29.183  1.00  0.00     0.004 C 
BRANCH   8   9
ATOM      9  C   UNL     1     -14.330   2.746  28.042  1.00  0.00    -0.011 C 
ATOM     10  C   UNL     1     -14.120   1.213  28.010  1.00  0.00     0.008 C 
BRANCH   9  11
ATOM     11  C   UNL     1     -14.035   3.332  26.608  1.00  0.00    -0.002 C 
ATOM     12  C   UNL     1     -12.980   4.463  26.624  1.00  0.00     0.005 C 
ATOM     13  C   UNL     1     -15.234   3.867  25.734  1.00  0.00    -0.026 C 
ATOM     14  C   UNL     1     -13.560   5.647  25.855  1.00  0.00     0.005 C 
ATOM     15  C   UNL     1     -15.071   5.407  25.770  1.00  0.00    -0.001 C 
ATOM     16  C   UNL     1     -15.045   3.340  24.278  1.00  0.00     0.007 C 
ATOM     17  C   UNL     1     -16.631   3.448  26.258  1.00  0.00     0.012 C 
ATOM     18  C   UNL     1     -15.809   6.176  24.628  1.00  0.00     0.004 C 
ATOM     19  C   UNL     1     -15.861   4.085  23.215  1.00  0.00     0.005 C 
ATOM     20  C   UNL     1     -15.554   5.601  23.211  1.00  0.00     0.003 C 
ATOM     21  C   UNL     1     -15.452   7.672  24.668  1.00  0.00     0.085 C 
ATOM     22  C   UNL     1     -16.261   6.436  22.034  1.00  0.00    -0.000 C 
ATOM     23  C   UNL     1     -16.321   8.429  23.727  1.00  0.00     0.159 C 
ATOM     24  C   UNL     1     -16.882   7.759  22.531  1.00  0.00     0.005 C 
ATOM     25  C   UNL     1     -17.380   5.612  21.307  1.00  0.00     0.020 C 
ATOM     26  C   UNL     1     -15.168   6.813  21.001  1.00  0.00     0.017 C 
ATOM     27  O   UNL     1     -16.573   9.644  23.970  1.00  0.00    -0.295 OA
ATOM     28  C   UNL     1     -17.890   8.359  21.864  1.00  0.00     0.055 C 
ATOM     29  C   UNL     1     -18.111   6.394  20.209  1.00  0.00     0.081 C 
ATOM     30  C   UNL     1     -18.534   7.744  20.696  1.00  0.00     0.156 C 
ATOM     31  O   UNL     1     -19.435   8.373  20.084  1.00  0.00    -0.295 OA
ENDBRANCH   9  11
ENDBRANCH   8   9
ENDBRANCH   1   8
TORSDOF 6
ENDMDL
MODEL 3
REMARK VINA RESULT:    -7.078      5.984      8.921
REMARK INTER + INTRA:         -10.740
REMARK INTER:                  -8.129
REMARK INTRA:                  -2.611
REMARK UNBOUND:                -1.179
REMARK SMILES CC[C@@H](CC[C@H](C)[C@@H]1CC[C@H]2[C@H]3CC(=O)C4=CC(=O)CC[C@]4(C)[C@@H]3CC[C@]21C)C(C)C
REMARK SMILES IDX 4 1 3 2 2 3 1 4 29 5 30 6 31 7 5 8 6 9 7 10 8 11 9 12 27 13
REMARK SMILES IDX 10 14 11 15 26 16 28 17 12 18 25 19 24 20 13 21 22 22 14 23
REMARK SMILES IDX 16 24 21 25 23 26 15 27 17 28 20 29 18 30 19 31
REMARK H PARENT
REMARK Flexibility Score: inf
ROOT
ATOM      1  C   UNL     1     -10.387  10.853  31.154  1.00  0.00     0.004 C 
ENDROOT
BRANCH   1   2
ATOM      2  C   UNL     1      -9.722   9.632  31.864  1.00  0.00    -0.009 C 
BRANCH   2   3
ATOM      3  C   UNL     1      -9.144   8.575  30.874  1.00  0.00     0.000 C 
ATOM      4  C   UNL     1      -8.183   9.176  29.840  1.00  0.00     0.004 C 
ENDBRANCH   2   3
BRANCH   2   5
ATOM      5  C   UNL     1     -10.648   9.057  33.001  1.00  0.00    -0.014 C 
ATOM      6  C   UNL     1     -10.650   7.519  33.094  1.00  0.00     0.007 C 
ATOM      7  C   UNL     1     -10.296   9.666  34.383  1.00  0.00     0.007 C 
ENDBRANCH   2   5
ENDBRANCH   1   2
BRANCH   1   8
ATOM      8  C   UNL     1     -11.909  11.085  31.365  1.00  0.00     0.004 C 
BRANCH   8   9
ATOM      9  C   UNL     1     -12.786  11.089  30.076  1.00  0.00    -0.011 C 
ATOM     10  C   UNL     1     -13.780  12.274  30.106  1.00  0.00     0.008 C 
BRANCH   9  11
ATOM     11  C   UNL     1     -13.591   9.754  29.835  1.00  0.00    -0.002 C 
ATOM     12  C   UNL     1     -14.129   9.131  31.144  1.00  0.00     0.005 C 
ATOM     13  C   UNL     1     -12.906   8.575  29.042  1.00  0.00    -0.026 C 
ATOM     14  C   UNL     1     -13.717   7.662  31.161  1.00  0.00     0.005 C 
ATOM     15  C   UNL     1     -12.593   7.518  30.129  1.00  0.00    -0.001 C 
ATOM     16  C   UNL     1     -13.943   8.010  28.023  1.00  0.00     0.007 C 
ATOM     17  C   UNL     1     -11.616   8.990  28.288  1.00  0.00     0.012 C 
ATOM     18  C   UNL     1     -12.356   6.070  29.594  1.00  0.00     0.004 C 
ATOM     19  C   UNL     1     -13.609   6.619  27.472  1.00  0.00     0.005 C 
ATOM     20  C   UNL     1     -13.441   5.576  28.602  1.00  0.00     0.003 C 
ATOM     21  C   UNL     1     -12.212   5.081  30.762  1.00  0.00     0.085 C 
ATOM     22  C   UNL     1     -13.228   4.062  28.106  1.00  0.00    -0.000 C 
ATOM     23  C   UNL     1     -11.769   3.753  30.255  1.00  0.00     0.159 C 
ATOM     24  C   UNL     1     -12.102   3.337  28.873  1.00  0.00     0.005 C 
ATOM     25  C   UNL     1     -12.911   3.976  26.572  1.00  0.00     0.020 C 
ATOM     26  C   UNL     1     -14.539   3.285  28.389  1.00  0.00     0.017 C 
ATOM     27  O   UNL     1     -11.103   2.998  31.019  1.00  0.00    -0.295 OA
ATOM     28  C   UNL     1     -11.451   2.283  28.338  1.00  0.00     0.055 C 
ATOM     29  C   UNL     1     -12.654   2.550  26.073  1.00  0.00     0.081 C 
ATOM     30  C   UNL     1     -11.687   1.832  26.961  1.00  0.00     0.156 C 
ATOM     31  O   UNL     1     -11.087   0.812  26.532  1.00  0.00    -0.295 OA
ENDBRANCH   9  11
ENDBRANCH   8   9
ENDBRANCH   1   8
TORSDOF 6
ENDMDL
MODEL 4
REMARK VINA RESULT:    -6.999      8.855     13.379
REMARK INTER + INTRA:         -10.633
REMARK INTER:                  -8.207
REMARK INTRA:                  -2.426
REMARK UNBOUND:                -1.179
REMARK SMILES CC[C@@H](CC[C@H](C)[C@@H]1CC[C@H]2[C@H]3CC(=O)C4=CC(=O)CC[C@]4(C)[C@@H]3CC[C@]21C)C(C)C
REMARK SMILES IDX 4 1 3 2 2 3 1 4 29 5 30 6 31 7 5 8 6 9 7 10 8 11 9 12 27 13
REMARK SMILES IDX 10 14 11 15 26 16 28 17 12 18 25 19 24 20 13 21 22 22 14 23
REMARK SMILES IDX 16 24 21 25 23 26 15 27 17 28 20 29 18 30 19 31
REMARK H PARENT
REMARK Flexibility Score: inf
ROOT
ATOM      1  C   UNL     1     -12.580   8.126  32.149  1.00  0.00     0.004 C 
ENDROOT
BRANCH   1   2
ATOM      2  C   UNL     1     -12.155   6.719  32.674  1.00  0.00    -0.009 C 
BRANCH   2   3
ATOM      3  C   UNL     1     -11.530   6.750  34.103  1.00  0.00     0.000 C 
ATOM      4  C   UNL     1     -12.348   7.579  35.102  1.00  0.00     0.004 C 
ENDBRANCH   2   3
BRANCH   2   5
ATOM      5  C   UNL     1     -11.325   5.931  31.592  1.00  0.00    -0.014 C 
ATOM      6  C   UNL     1     -10.545   4.727  32.151  1.00  0.00     0.007 C 
ATOM      7  C   UNL     1     -12.221   5.474  30.411  1.00  0.00     0.007 C 
ENDBRANCH   2   5
ENDBRANCH   1   2
BRANCH   1   8
ATOM      8  C   UNL     1     -11.606   8.883  31.204  1.00  0.00     0.004 C 
BRANCH   8   9
ATOM      9  C   UNL     1     -10.519   9.757  31.900  1.00  0.00    -0.011 C 
ATOM     10  C   UNL     1     -10.781  11.258  31.628  1.00  0.00     0.008 C 
BRANCH   9  11
ATOM     11  C   UNL     1      -9.039   9.412  31.476  1.00  0.00    -0.002 C 
ATOM     12  C   UNL     1      -8.963   8.614  30.153  1.00  0.00     0.005 C 
ATOM     13  C   UNL     1      -8.103   8.656  32.495  1.00  0.00    -0.026 C 
ATOM     14  C   UNL     1      -8.078   7.396  30.399  1.00  0.00     0.005 C 
ATOM     15  C   UNL     1      -7.996   7.223  31.919  1.00  0.00    -0.001 C 
ATOM     16  C   UNL     1      -6.706   9.350  32.476  1.00  0.00     0.007 C 
ATOM     17  C   UNL     1      -8.646   8.628  33.947  1.00  0.00     0.012 C 
ATOM     18  C   UNL     1      -6.777   6.393  32.435  1.00  0.00     0.004 C 
ATOM     19  C   UNL     1      -5.567   8.515  33.073  1.00  0.00     0.005 C 
ATOM     20  C   UNL     1      -5.423   7.147  32.365  1.00  0.00     0.003 C 
ATOM     21  C   UNL     1      -6.680   5.054  31.684  1.00  0.00     0.085 C 
ATOM     22  C   UNL     1      -4.163   6.266  32.834  1.00  0.00    -0.000 C 
ATOM     23  C   UNL     1      -5.659   4.182  32.327  1.00  0.00     0.159 C 
ATOM     24  C   UNL     1      -4.525   4.784  33.064  1.00  0.00     0.005 C 
ATOM     25  C   UNL     1      -3.503   6.820  34.144  1.00  0.00     0.020 C 
ATOM     26  C   UNL     1      -3.114   6.301  31.693  1.00  0.00     0.017 C 
ATOM     27  O   UNL     1      -5.783   2.927  32.235  1.00  0.00    -0.295 OA
ATOM     28  C   UNL     1      -3.791   3.998  33.879  1.00  0.00     0.055 C 
ATOM     29  C   UNL     1      -2.327   5.976  34.648  1.00  0.00     0.081 C 
ATOM     30  C   UNL     1      -2.678   4.522  34.682  1.00  0.00     0.156 C 
ATOM     31  O   UNL     1      -1.997   3.733  35.386  1.00  0.00    -0.295 OA
ENDBRANCH   9  11
ENDBRANCH   8   9
ENDBRANCH   1   8
TORSDOF 6
ENDMDL
MODEL 5
REMARK VINA RESULT:    -6.994      5.804      8.850
REMARK INTER + INTRA:         -10.627
REMARK INTER:                  -8.150
REMARK INTRA:                  -2.477
REMARK UNBOUND:                -1.179
REMARK SMILES CC[C@@H](CC[C@H](C)[C@@H]1CC[C@H]2[C@H]3CC(=O)C4=CC(=O)CC[C@]4(C)[C@@H]3CC[C@]21C)C(C)C
REMARK SMILES IDX 4 1 3 2 2 3 1 4 29 5 30 6 31 7 5 8 6 9 7 10 8 11 9 12 27 13
REMARK SMILES IDX 10 14 11 15 26 16 28 17 12 18 25 19 24 20 13 21 22 22 14 23
REMARK SMILES IDX 16 24 21 25 23 26 15 27 17 28 20 29 18 30 19 31
REMARK H PARENT
REMARK Flexibility Score: inf
ROOT
ATOM      1  C   UNL     1     -11.485  10.705  31.919  1.00  0.00     0.004 C 
ENDROOT
BRANCH   1   2
ATOM      2  C   UNL     1     -11.662  11.022  30.401  1.00  0.00    -0.009 C 
BRANCH   2   3
ATOM      3  C   UNL     1     -10.697  12.130  29.879  1.00  0.00     0.000 C 
ATOM      4  C   UNL     1      -9.596  11.589  28.958  1.00  0.00     0.004 C 
ENDBRANCH   2   3
BRANCH   2   5
ATOM      5  C   UNL     1     -13.180  11.219  30.031  1.00  0.00    -0.014 C 
ATOM      6  C   UNL     1     -14.121  10.168  30.649  1.00  0.00     0.007 C 
ATOM      7  C   UNL     1     -13.673  12.645  30.395  1.00  0.00     0.007 C 
ENDBRANCH   2   5
ENDBRANCH   1   2
BRANCH   1   8
ATOM      8  C   UNL     1     -10.125  10.124  32.395  1.00  0.00     0.004 C 
BRANCH   8   9
ATOM      9  C   UNL     1     -10.149   8.648  32.897  1.00  0.00    -0.011 C 
ATOM     10  C   UNL     1      -8.965   8.389  33.859  1.00  0.00     0.008 C 
BRANCH   9  11
ATOM     11  C   UNL     1     -10.116   7.571  31.745  1.00  0.00    -0.002 C 
ATOM     12  C   UNL     1      -9.404   8.076  30.468  1.00  0.00     0.005 C 
ATOM     13  C   UNL     1     -11.469   6.922  31.260  1.00  0.00    -0.026 C 
ATOM     14  C   UNL     1     -10.328   7.804  29.285  1.00  0.00     0.005 C 
ATOM     15  C   UNL     1     -11.722   7.563  29.874  1.00  0.00    -0.001 C 
ATOM     16  C   UNL     1     -11.242   5.385  31.110  1.00  0.00     0.007 C 
ATOM     17  C   UNL     1     -12.666   7.176  32.212  1.00  0.00     0.012 C 
ATOM     18  C   UNL     1     -12.712   6.779  28.954  1.00  0.00     0.004 C 
ATOM     19  C   UNL     1     -12.296   4.661  30.264  1.00  0.00     0.005 C 
ATOM     20  C   UNL     1     -12.406   5.263  28.842  1.00  0.00     0.003 C 
ATOM     21  C   UNL     1     -12.766   7.416  27.555  1.00  0.00     0.085 C 
ATOM     22  C   UNL     1     -13.387   4.473  27.843  1.00  0.00    -0.000 C 
ATOM     23  C   UNL     1     -13.867   6.805  26.760  1.00  0.00     0.159 C 
ATOM     24  C   UNL     1     -14.305   5.419  27.039  1.00  0.00     0.005 C 
ATOM     25  C   UNL     1     -14.289   3.432  28.592  1.00  0.00     0.020 C 
ATOM     26  C   UNL     1     -12.504   3.721  26.815  1.00  0.00     0.017 C 
ATOM     27  O   UNL     1     -14.418   7.491  25.852  1.00  0.00    -0.295 OA
ATOM     28  C   UNL     1     -15.478   4.993  26.526  1.00  0.00     0.055 C 
ATOM     29  C   UNL     1     -15.273   2.695  27.676  1.00  0.00     0.081 C 
ATOM     30  C   UNL     1     -16.009   3.650  26.791  1.00  0.00     0.156 C 
ATOM     31  O   UNL     1     -17.083   3.290  26.244  1.00  0.00    -0.295 OA
ENDBRANCH   9  11
ENDBRANCH   8   9
ENDBRANCH   1   8
TORSDOF 6
ENDMDL
MODEL 6
REMARK VINA RESULT:    -6.927      2.238      3.689
REMARK INTER + INTRA:         -10.536
REMARK INTER:                  -8.831
REMARK INTRA:                  -1.705
REMARK UNBOUND:                -1.179
REMARK SMILES CC[C@@H](CC[C@H](C)[C@@H]1CC[C@H]2[C@H]3CC(=O)C4=CC(=O)CC[C@]4(C)[C@@H]3CC[C@]21C)C(C)C
REMARK SMILES IDX 4 1 3 2 2 3 1 4 29 5 30 6 31 7 5 8 6 9 7 10 8 11 9 12 27 13
REMARK SMILES IDX 10 14 11 15 26 16 28 17 12 18 25 19 24 20 13 21 22 22 14 23
REMARK SMILES IDX 16 24 21 25 23 26 15 27 17 28 20 29 18 30 19 31
REMARK H PARENT
REMARK Flexibility Score: inf
ROOT
ATOM      1  C   UNL     1     -14.317   4.337  28.545  1.00  0.00     0.004 C 
ENDROOT
BRANCH   1   2
ATOM      2  C   UNL     1     -14.636   2.890  28.056  1.00  0.00    -0.009 C 
BRANCH   2   3
ATOM      3  C   UNL     1     -16.152   2.640  27.792  1.00  0.00     0.000 C 
ATOM      4  C   UNL     1     -16.775   3.660  26.830  1.00  0.00     0.004 C 
ENDBRANCH   2   3
BRANCH   2   5
ATOM      5  C   UNL     1     -13.921   1.812  28.955  1.00  0.00    -0.014 C 
ATOM      6  C   UNL     1     -13.529   0.525  28.204  1.00  0.00     0.007 C 
ATOM      7  C   UNL     1     -12.677   2.403  29.670  1.00  0.00     0.007 C 
ENDBRANCH   2   5
ENDBRANCH   1   2
BRANCH   1   8
ATOM      8  C   UNL     1     -13.541   5.282  27.587  1.00  0.00     0.004 C 
BRANCH   8   9
ATOM      9  C   UNL     1     -13.347   4.769  26.128  1.00  0.00    -0.011 C 
ATOM     10  C   UNL     1     -11.962   4.095  25.976  1.00  0.00     0.008 C 
BRANCH   9  11
ATOM     11  C   UNL     1     -13.496   5.883  25.022  1.00  0.00    -0.002 C 
ATOM     12  C   UNL     1     -13.915   7.255  25.602  1.00  0.00     0.005 C 
ATOM     13  C   UNL     1     -14.446   5.623  23.790  1.00  0.00    -0.026 C 
ATOM     14  C   UNL     1     -15.111   7.752  24.795  1.00  0.00     0.005 C 
ATOM     15  C   UNL     1     -15.671   6.531  24.059  1.00  0.00    -0.001 C 
ATOM     16  C   UNL     1     -13.704   6.088  22.500  1.00  0.00     0.007 C 
ATOM     17  C   UNL     1     -14.880   4.143  23.632  1.00  0.00     0.012 C 
ATOM     18  C   UNL     1     -16.547   6.847  22.805  1.00  0.00     0.004 C 
ATOM     19  C   UNL     1     -14.610   6.301  21.281  1.00  0.00     0.005 C 
ATOM     20  C   UNL     1     -15.736   7.322  21.571  1.00  0.00     0.003 C 
ATOM     21  C   UNL     1     -17.636   7.876  23.153  1.00  0.00     0.085 C 
ATOM     22  C   UNL     1     -16.646   7.710  20.304  1.00  0.00    -0.000 C 
ATOM     23  C   UNL     1     -18.596   8.005  22.023  1.00  0.00     0.159 C 
ATOM     24  C   UNL     1     -18.153   7.728  20.637  1.00  0.00     0.005 C 
ATOM     25  C   UNL     1     -16.423   6.742  19.090  1.00  0.00     0.020 C 
ATOM     26  C   UNL     1     -16.263   9.148  19.872  1.00  0.00     0.017 C 
ATOM     27  O   UNL     1     -19.787   8.349  22.268  1.00  0.00    -0.295 OA
ATOM     28  C   UNL     1     -19.088   7.560  19.679  1.00  0.00     0.055 C 
ATOM     29  C   UNL     1     -17.312   7.052  17.880  1.00  0.00     0.081 C 
ATOM     30  C   UNL     1     -18.739   7.237  18.289  1.00  0.00     0.156 C 
ATOM     31  O   UNL     1     -19.650   7.141  17.428  1.00  0.00    -0.295 OA
ENDBRANCH   9  11
ENDBRANCH   8   9
ENDBRANCH   1   8
TORSDOF 6
ENDMDL
MODEL 7
REMARK VINA RESULT:    -6.913      5.444      8.622
REMARK INTER + INTRA:         -10.516
REMARK INTER:                  -8.102
REMARK INTRA:                  -2.414
REMARK UNBOUND:                -1.179
REMARK SMILES CC[C@@H](CC[C@H](C)[C@@H]1CC[C@H]2[C@H]3CC(=O)C4=CC(=O)CC[C@]4(C)[C@@H]3CC[C@]21C)C(C)C
REMARK SMILES IDX 4 1 3 2 2 3 1 4 29 5 30 6 31 7 5 8 6 9 7 10 8 11 9 12 27 13
REMARK SMILES IDX 10 14 11 15 26 16 28 17 12 18 25 19 24 20 13 21 22 22 14 23
REMARK SMILES IDX 16 24 21 25 23 26 15 27 17 28 20 29 18 30 19 31
REMARK H PARENT
REMARK Flexibility Score: inf
ROOT
ATOM      1  C   UNL     1     -14.489   1.721  28.491  1.00  0.00     0.004 C 
ENDROOT
BRANCH   1   2
ATOM      2  C   UNL     1     -13.046   1.407  28.995  1.00  0.00    -0.009 C 
BRANCH   2   3
ATOM      3  C   UNL     1     -12.328   0.291  28.176  1.00  0.00     0.000 C 
ATOM      4  C   UNL     1     -11.278   0.837  27.200  1.00  0.00     0.004 C 
ENDBRANCH   2   3
BRANCH   2   5
ATOM      5  C   UNL     1     -13.014   1.222  30.559  1.00  0.00    -0.014 C 
ATOM      6  C   UNL     1     -12.713  -0.218  31.017  1.00  0.00     0.007 C 
ATOM      7  C   UNL     1     -12.017   2.205  31.228  1.00  0.00     0.007 C 
ENDBRANCH   2   5
ENDBRANCH   1   2
BRANCH   1   8
ATOM      8  C   UNL     1     -14.661   2.251  27.040  1.00  0.00     0.004 C 
BRANCH   8   9
ATOM      9  C   UNL     1     -15.194   3.710  26.903  1.00  0.00    -0.011 C 
ATOM     10  C   UNL     1     -15.988   3.870  25.585  1.00  0.00     0.008 C 
BRANCH   9  11
ATOM     11  C   UNL     1     -14.073   4.818  26.961  1.00  0.00    -0.002 C 
ATOM     12  C   UNL     1     -12.694   4.306  26.480  1.00  0.00     0.005 C 
ATOM     13  C   UNL     1     -13.806   5.572  28.320  1.00  0.00    -0.026 C 
ATOM     14  C   UNL     1     -11.666   4.677  27.544  1.00  0.00     0.005 C 
ATOM     15  C   UNL     1     -12.459   4.993  28.817  1.00  0.00    -0.001 C 
ATOM     16  C   UNL     1     -13.656   7.093  28.009  1.00  0.00     0.007 C 
ATOM     17  C   UNL     1     -14.918   5.369  29.381  1.00  0.00     0.012 C 
ATOM     18  C   UNL     1     -11.711   5.870  29.871  1.00  0.00     0.004 C 
ATOM     19  C   UNL     1     -12.990   7.913  29.120  1.00  0.00     0.005 C 
ATOM     20  C   UNL     1     -11.588   7.365  29.478  1.00  0.00     0.003 C 
ATOM     21  C   UNL     1     -10.322   5.283  30.173  1.00  0.00     0.085 C 
ATOM     22  C   UNL     1     -10.761   8.249  30.534  1.00  0.00    -0.000 C 
ATOM     23  C   UNL     1      -9.710   5.990  31.331  1.00  0.00     0.159 C 
ATOM     24  C   UNL     1     -10.080   7.394  31.624  1.00  0.00     0.005 C 
ATOM     25  C   UNL     1     -11.656   9.325  31.242  1.00  0.00     0.020 C 
ATOM     26  C   UNL     1      -9.630   8.973  29.759  1.00  0.00     0.017 C 
ATOM     27  O   UNL     1      -8.879   5.372  32.056  1.00  0.00    -0.295 OA
ATOM     28  C   UNL     1      -9.754   7.913  32.826  1.00  0.00     0.055 C 
ATOM     29  C   UNL     1     -10.910  10.156  32.293  1.00  0.00     0.081 C 
ATOM     30  C   UNL     1     -10.123   9.281  33.217  1.00  0.00     0.156 C 
ATOM     31  O   UNL     1      -9.748   9.729  34.330  1.00  0.00    -0.295 OA
ENDBRANCH   9  11
ENDBRANCH   8   9
ENDBRANCH   1   8
TORSDOF 6
ENDMDL
MODEL 8
REMARK VINA RESULT:    -6.807     11.112     13.460
REMARK INTER + INTRA:         -10.374
REMARK INTER:                  -7.851
REMARK INTRA:                  -2.522
REMARK UNBOUND:                -1.179
REMARK SMILES CC[C@@H](CC[C@H](C)[C@@H]1CC[C@H]2[C@H]3CC(=O)C4=CC(=O)CC[C@]4(C)[C@@H]3CC[C@]21C)C(C)C
REMARK SMILES IDX 4 1 3 2 2 3 1 4 29 5 30 6 31 7 5 8 6 9 7 10 8 11 9 12 27 13
REMARK SMILES IDX 10 14 11 15 26 16 28 17 12 18 25 19 24 20 13 21 22 22 14 23
REMARK SMILES IDX 16 24 21 25 23 26 15 27 17 28 20 29 18 30 19 31
REMARK H PARENT
REMARK Flexibility Score: inf
ROOT
ATOM      1  C   UNL     1      -3.555   1.567  28.020  1.00  0.00     0.004 C 
ENDROOT
BRANCH   1   2
ATOM      2  C   UNL     1      -2.350   2.065  27.163  1.00  0.00    -0.009 C 
BRANCH   2   3
ATOM      3  C   UNL     1      -2.761   3.042  26.018  1.00  0.00     0.000 C 
ATOM      4  C   UNL     1      -4.280   3.177  25.855  1.00  0.00     0.004 C 
ENDBRANCH   2   3
BRANCH   2   5
ATOM      5  C   UNL     1      -1.423   0.868  26.728  1.00  0.00    -0.014 C 
ATOM      6  C   UNL     1      -0.619   0.242  27.883  1.00  0.00     0.007 C 
ATOM      7  C   UNL     1      -2.229  -0.235  25.991  1.00  0.00     0.007 C 
ENDBRANCH   2   5
ENDBRANCH   1   2
BRANCH   1   8
ATOM      8  C   UNL     1      -3.612   1.981  29.517  1.00  0.00     0.004 C 
BRANCH   8   9
ATOM      9  C   UNL     1      -2.461   2.908  30.015  1.00  0.00    -0.011 C 
ATOM     10  C   UNL     1      -1.966   2.448  31.407  1.00  0.00     0.008 C 
BRANCH   9  11
ATOM     11  C   UNL     1      -2.845   4.436  30.090  1.00  0.00    -0.002 C 
ATOM     12  C   UNL     1      -4.344   4.695  29.805  1.00  0.00     0.005 C 
ATOM     13  C   UNL     1      -2.049   5.473  29.208  1.00  0.00    -0.026 C 
ATOM     14  C   UNL     1      -4.431   5.789  28.745  1.00  0.00     0.005 C 
ATOM     15  C   UNL     1      -3.047   5.864  28.090  1.00  0.00    -0.001 C 
ATOM     16  C   UNL     1      -1.722   6.713  30.096  1.00  0.00     0.007 C 
ATOM     17  C   UNL     1      -0.737   4.909  28.604  1.00  0.00     0.012 C 
ATOM     18  C   UNL     1      -2.725   7.205  27.357  1.00  0.00     0.004 C 
ATOM     19  C   UNL     1      -1.332   7.975  29.317  1.00  0.00     0.005 C 
ATOM     20  C   UNL     1      -2.430   8.393  28.310  1.00  0.00     0.003 C 
ATOM     21  C   UNL     1      -3.857   7.573  26.384  1.00  0.00     0.085 C 
ATOM     22  C   UNL     1      -2.165   9.785  27.552  1.00  0.00    -0.000 C 
ATOM     23  C   UNL     1      -3.446   8.724  25.534  1.00  0.00     0.159 C 
ATOM     24  C   UNL     1      -2.458   9.705  26.039  1.00  0.00     0.005 C 
ATOM     25  C   UNL     1      -0.694  10.296  27.740  1.00  0.00     0.020 C 
ATOM     26  C   UNL     1      -3.138  10.836  28.145  1.00  0.00     0.017 C 
ATOM     27  O   UNL     1      -3.949   8.843  24.380  1.00  0.00    -0.295 OA
ATOM     28  C   UNL     1      -1.882  10.554  25.164  1.00  0.00     0.055 C 
ATOM     29  C   UNL     1      -0.390  11.598  26.990  1.00  0.00     0.081 C 
ATOM     30  C   UNL     1      -0.859  11.527  25.571  1.00  0.00     0.156 C 
ATOM     31  O   UNL     1      -0.393  12.328  24.721  1.00  0.00    -0.295 OA
ENDBRANCH   9  11
ENDBRANCH   8   9
ENDBRANCH   1   8
TORSDOF 6
ENDMDL
MODEL 9
REMARK VINA RESULT:    -6.768     10.680     12.712
REMARK INTER + INTRA:         -10.321
REMARK INTER:                  -7.765
REMARK INTRA:                  -2.556
REMARK UNBOUND:                -1.179
REMARK SMILES CC[C@@H](CC[C@H](C)[C@@H]1CC[C@H]2[C@H]3CC(=O)C4=CC(=O)CC[C@]4(C)[C@@H]3CC[C@]21C)C(C)C
REMARK SMILES IDX 4 1 3 2 2 3 1 4 29 5 30 6 31 7 5 8 6 9 7 10 8 11 9 12 27 13
REMARK SMILES IDX 10 14 11 15 26 16 28 17 12 18 25 19 24 20 13 21 22 22 14 23
REMARK SMILES IDX 16 24 21 25 23 26 15 27 17 28 20 29 18 30 19 31
REMARK H PARENT
REMARK Flexibility Score: inf
ROOT
ATOM      1  C   UNL     1      -1.672   0.120  30.377  1.00  0.00     0.004 C 
ENDROOT
BRANCH   1   2
ATOM      2  C   UNL     1      -3.032   0.874  30.514  1.00  0.00    -0.009 C 
BRANCH   2   3
ATOM      3  C   UNL     1      -2.948   2.155  31.400  1.00  0.00     0.000 C 
ATOM      4  C   UNL     1      -1.511   2.533  31.782  1.00  0.00     0.004 C 
ENDBRANCH   2   3
BRANCH   2   5
ATOM      5  C   UNL     1      -4.202  -0.118  30.870  1.00  0.00    -0.014 C 
ATOM      6  C   UNL     1      -5.043   0.311  32.087  1.00  0.00     0.007 C 
ATOM      7  C   UNL     1      -5.129  -0.363  29.650  1.00  0.00     0.007 C 
ENDBRANCH   2   5
ENDBRANCH   1   2
BRANCH   1   8
ATOM      8  C   UNL     1      -1.017   0.035  28.971  1.00  0.00     0.004 C 
BRANCH   8   9
ATOM      9  C   UNL     1      -1.873   0.574  27.784  1.00  0.00    -0.011 C 
ATOM     10  C   UNL     1      -1.784  -0.389  26.576  1.00  0.00     0.008 C 
BRANCH   9  11
ATOM     11  C   UNL     1      -1.480   2.026  27.308  1.00  0.00    -0.002 C 
ATOM     12  C   UNL     1      -0.319   2.636  28.129  1.00  0.00     0.005 C 
ATOM     13  C   UNL     1      -2.594   3.140  27.237  1.00  0.00    -0.026 C 
ATOM     14  C   UNL     1      -0.756   4.024  28.587  1.00  0.00     0.005 C 
ATOM     15  C   UNL     1      -2.280   4.067  28.436  1.00  0.00    -0.001 C 
ATOM     16  C   UNL     1      -2.417   3.917  25.895  1.00  0.00     0.007 C 
ATOM     17  C   UNL     1      -4.041   2.590  27.328  1.00  0.00     0.012 C 
ATOM     18  C   UNL     1      -2.905   5.496  28.348  1.00  0.00     0.004 C 
ATOM     19  C   UNL     1      -3.124   5.276  25.843  1.00  0.00     0.005 C 
ATOM     20  C   UNL     1      -2.668   6.208  26.991  1.00  0.00     0.003 C 
ATOM     21  C   UNL     1      -2.402   6.376  29.505  1.00  0.00     0.085 C 
ATOM     22  C   UNL     1      -3.255   7.703  26.929  1.00  0.00    -0.000 C 
ATOM     23  C   UNL     1      -3.165   7.654  29.543  1.00  0.00     0.159 C 
ATOM     24  C   UNL     1      -3.755   8.204  28.301  1.00  0.00     0.005 C 
ATOM     25  C   UNL     1      -4.429   7.840  25.898  1.00  0.00     0.020 C 
ATOM     26  C   UNL     1      -2.101   8.644  26.500  1.00  0.00     0.017 C 
ATOM     27  O   UNL     1      -3.302   8.252  30.648  1.00  0.00    -0.295 OA
ATOM     28  C   UNL     1      -4.679   9.182  28.399  1.00  0.00     0.055 C 
ATOM     29  C   UNL     1      -5.046   9.243  25.848  1.00  0.00     0.081 C 
ATOM     30  C   UNL     1      -5.348   9.752  27.222  1.00  0.00     0.156 C 
ATOM     31  O   UNL     1      -6.163  10.697  27.371  1.00  0.00    -0.295 OA
ENDBRANCH   9  11
ENDBRANCH   8   9
ENDBRANCH   1   8
TORSDOF 6
ENDMDL
