MODEL 1
REMARK VINA RESULT:    -3.183      0.000      0.000
REMARK INTER + INTRA:          -3.909
REMARK INTER:                  -3.834
REMARK INTRA:                  -0.074
REMARK UNBOUND:                -0.074
REMARK SMILES CC[C@@H](C)[C@@H]([NH3+])C(=O)[O-]
REMARK SMILES IDX 3 1 4 2 5 3 6 4 7 8 8 9 9 10 2 11 1 12
REMARK H PARENT 6 5 6 6 6 7
REMARK Flexibility Score: inf
ROOT
ATOM      1  C   UNL     1      23.577  19.010  42.193  1.00  0.00     0.050 C 
ATOM      2  C   UNL     1      22.687  20.252  42.398  1.00  0.00     0.014 C 
ENDROOT
BRANCH   1   3
ATOM      3  C   UNL     1      22.699  17.727  42.022  1.00  0.00     0.230 C 
BRANCH   3   4
ATOM      4  N   UNL     1      23.087  16.948  40.837  1.00  0.00    -0.350 N 
ATOM      5  H   UNL     1      23.929  17.367  40.384  1.00  0.00     0.345 HD
ATOM      6  H   UNL     1      22.316  16.970  40.128  1.00  0.00     0.345 HD
ATOM      7  H   UNL     1      23.278  15.953  41.095  1.00  0.00     0.345 HD
ENDBRANCH   3   4
BRANCH   3   8
ATOM      8  C   UNL     1      22.789  16.843  43.242  1.00  0.00     0.099 C 
ATOM      9  O   UNL     1      23.103  17.334  44.358  1.00  0.00    -0.544 OA
ATOM     10  O   UNL     1      22.523  15.482  43.141  1.00  0.00    -0.544 OA
ENDBRANCH   3   8
ENDBRANCH   1   3
BRANCH   1  11
ATOM     11  C   UNL     1      24.521  19.251  40.979  1.00  0.00     0.006 C 
ATOM     12  C   UNL     1      25.663  20.217  41.304  1.00  0.00     0.004 C 
ENDBRANCH   1  11
TORSDOF 4
ENDMDL
MODEL 2
REMARK VINA RESULT:    -3.125      3.140      3.833
REMARK INTER + INTRA:          -3.839
REMARK INTER:                  -3.684
REMARK INTRA:                  -0.155
REMARK UNBOUND:                -0.074
REMARK SMILES CC[C@@H](C)[C@@H]([NH3+])C(=O)[O-]
REMARK SMILES IDX 3 1 4 2 5 3 6 4 7 8 8 9 9 10 2 11 1 12
REMARK H PARENT 6 5 6 6 6 7
REMARK Flexibility Score: inf
ROOT
ATOM      1  C   UNL     1      22.925  18.628  44.128  1.00  0.00     0.050 C 
ATOM      2  C   UNL     1      21.638  18.974  44.904  1.00  0.00     0.014 C 
ENDROOT
BRANCH   1   3
ATOM      3  C   UNL     1      24.149  18.555  45.098  1.00  0.00     0.230 C 
BRANCH   3   4
ATOM      4  N   UNL     1      24.462  17.173  45.488  1.00  0.00    -0.350 N 
ATOM      5  H   UNL     1      24.384  17.059  46.523  1.00  0.00     0.345 HD
ATOM      6  H   UNL     1      25.450  16.943  45.228  1.00  0.00     0.345 HD
ATOM      7  H   UNL     1      23.823  16.499  45.006  1.00  0.00     0.345 HD
ENDBRANCH   3   4
BRANCH   3   8
ATOM      8  C   UNL     1      25.374  19.178  44.473  1.00  0.00     0.099 C 
ATOM      9  O   UNL     1      26.483  19.127  45.067  1.00  0.00    -0.544 OA
ATOM     10  O   UNL     1      25.284  19.811  43.239  1.00  0.00    -0.544 OA
ENDBRANCH   3   8
ENDBRANCH   1   3
BRANCH   1  11
ATOM     11  C   UNL     1      22.709  17.302  43.342  1.00  0.00     0.006 C 
ATOM     12  C   UNL     1      22.940  17.464  41.838  1.00  0.00     0.004 C 
ENDBRANCH   1  11
TORSDOF 4
ENDMDL
MODEL 3
REMARK VINA RESULT:    -3.087     17.578     18.384
REMARK INTER + INTRA:          -3.793
REMARK INTER:                  -3.648
REMARK INTRA:                  -0.145
REMARK UNBOUND:                -0.074
REMARK SMILES CC[C@@H](C)[C@@H]([NH3+])C(=O)[O-]
REMARK SMILES IDX 3 1 4 2 5 3 6 4 7 8 8 9 9 10 2 11 1 12
REMARK H PARENT 6 5 6 6 6 7
REMARK Flexibility Score: inf
ROOT
ATOM      1  C   UNL     1      26.055  32.718  52.539  1.00  0.00     0.050 C 
ATOM      2  C   UNL     1      25.108  31.708  53.218  1.00  0.00     0.014 C 
ENDROOT
BRANCH   1   3
ATOM      3  C   UNL     1      25.546  33.071  51.104  1.00  0.00     0.230 C 
BRANCH   3   4
ATOM      4  N   UNL     1      24.752  34.308  51.089  1.00  0.00    -0.350 N 
ATOM      5  H   UNL     1      24.195  34.373  50.208  1.00  0.00     0.345 HD
ATOM      6  H   UNL     1      25.388  35.140  51.111  1.00  0.00     0.345 HD
ATOM      7  H   UNL     1      24.116  34.349  51.917  1.00  0.00     0.345 HD
ENDBRANCH   3   4
BRANCH   3   8
ATOM      8  C   UNL     1      26.699  33.214  50.140  1.00  0.00     0.099 C 
ATOM      9  O   UNL     1      26.490  33.580  48.953  1.00  0.00    -0.544 OA
ATOM     10  O   UNL     1      27.997  32.946  50.557  1.00  0.00    -0.544 OA
ENDBRANCH   3   8
ENDBRANCH   1   3
BRANCH   1  11
ATOM     11  C   UNL     1      26.197  33.976  53.446  1.00  0.00     0.006 C 
ATOM     12  C   UNL     1      27.632  34.195  53.929  1.00  0.00     0.004 C 
ENDBRANCH   1  11
TORSDOF 4
ENDMDL
MODEL 4
REMARK VINA RESULT:    -3.072      1.778      2.253
REMARK INTER + INTRA:          -3.775
REMARK INTER:                  -3.680
REMARK INTRA:                  -0.095
REMARK UNBOUND:                -0.074
REMARK SMILES CC[C@@H](C)[C@@H]([NH3+])C(=O)[O-]
REMARK SMILES IDX 3 1 4 2 5 3 6 4 7 8 8 9 9 10 2 11 1 12
REMARK H PARENT 6 5 6 6 6 7
REMARK Flexibility Score: inf
ROOT
ATOM      1  C   UNL     1      23.084  18.015  43.785  1.00  0.00     0.050 C 
ATOM      2  C   UNL     1      21.851  18.506  44.570  1.00  0.00     0.014 C 
ENDROOT
BRANCH   1   3
ATOM      3  C   UNL     1      22.646  17.245  42.497  1.00  0.00     0.230 C 
BRANCH   3   4
ATOM      4  N   UNL     1      23.343  17.733  41.298  1.00  0.00    -0.350 N 
ATOM      5  H   UNL     1      23.387  18.777  41.301  1.00  0.00     0.345 HD
ATOM      6  H   UNL     1      22.816  17.451  40.439  1.00  0.00     0.345 HD
ATOM      7  H   UNL     1      24.309  17.336  41.245  1.00  0.00     0.345 HD
ENDBRANCH   3   4
BRANCH   3   8
ATOM      8  C   UNL     1      22.894  15.763  42.641  1.00  0.00     0.099 C 
ATOM      9  O   UNL     1      22.942  15.027  41.620  1.00  0.00    -0.544 OA
ATOM     10  O   UNL     1      23.074  15.202  43.900  1.00  0.00    -0.544 OA
ENDBRANCH   3   8
ENDBRANCH   1   3
BRANCH   1  11
ATOM     11  C   UNL     1      24.006  19.229  43.467  1.00  0.00     0.006 C 
ATOM     12  C   UNL     1      25.265  19.255  44.337  1.00  0.00     0.004 C 
ENDBRANCH   1  11
TORSDOF 4
ENDMDL
MODEL 5
REMARK VINA RESULT:    -2.999      2.380      3.739
REMARK INTER + INTRA:          -3.687
REMARK INTER:                  -3.538
REMARK INTRA:                  -0.149
REMARK UNBOUND:                -0.074
REMARK SMILES CC[C@@H](C)[C@@H]([NH3+])C(=O)[O-]
REMARK SMILES IDX 3 1 4 2 5 3 6 4 7 8 8 9 9 10 2 11 1 12
REMARK H PARENT 6 5 6 6 6 7
REMARK Flexibility Score: inf
ROOT
ATOM      1  C   UNL     1      22.832  17.586  43.330  1.00  0.00     0.050 C 
ATOM      2  C   UNL     1      22.615  16.059  43.318  1.00  0.00     0.014 C 
ENDROOT
BRANCH   1   3
ATOM      3  C   UNL     1      22.940  18.138  41.872  1.00  0.00     0.230 C 
BRANCH   3   4
ATOM      4  N   UNL     1      21.746  18.901  41.481  1.00  0.00    -0.350 N 
ATOM      5  H   UNL     1      21.814  19.199  40.482  1.00  0.00     0.345 HD
ATOM      6  H   UNL     1      21.674  19.773  42.057  1.00  0.00     0.345 HD
ATOM      7  H   UNL     1      20.881  18.332  41.625  1.00  0.00     0.345 HD
ENDBRANCH   3   4
BRANCH   3   8
ATOM      8  C   UNL     1      24.158  19.017  41.714  1.00  0.00     0.099 C 
ATOM      9  O   UNL     1      24.573  19.324  40.566  1.00  0.00    -0.544 OA
ATOM     10  O   UNL     1      24.827  19.493  42.836  1.00  0.00    -0.544 OA
ENDBRANCH   3   8
ENDBRANCH   1   3
BRANCH   1  11
ATOM     11  C   UNL     1      21.684  18.260  44.138  1.00  0.00     0.006 C 
ATOM     12  C   UNL     1      22.196  19.327  45.108  1.00  0.00     0.004 C 
ENDBRANCH   1  11
TORSDOF 4
ENDMDL
MODEL 6
REMARK VINA RESULT:    -2.965      2.652      3.498
REMARK INTER + INTRA:          -3.646
REMARK INTER:                  -3.488
REMARK INTRA:                  -0.158
REMARK UNBOUND:                -0.074
REMARK SMILES CC[C@@H](C)[C@@H]([NH3+])C(=O)[O-]
REMARK SMILES IDX 3 1 4 2 5 3 6 4 7 8 8 9 9 10 2 11 1 12
REMARK H PARENT 6 5 6 6 6 7
REMARK Flexibility Score: inf
ROOT
ATOM      1  C   UNL     1      22.477  17.256  43.221  1.00  0.00     0.050 C 
ATOM      2  C   UNL     1      22.686  15.729  43.269  1.00  0.00     0.014 C 
ENDROOT
BRANCH   1   3
ATOM      3  C   UNL     1      23.115  17.937  44.475  1.00  0.00     0.230 C 
BRANCH   3   4
ATOM      4  N   UNL     1      24.411  18.558  44.166  1.00  0.00    -0.350 N 
ATOM      5  H   UNL     1      25.013  17.897  43.627  1.00  0.00     0.345 HD
ATOM      6  H   UNL     1      24.920  18.783  45.053  1.00  0.00     0.345 HD
ATOM      7  H   UNL     1      24.277  19.442  43.623  1.00  0.00     0.345 HD
ENDBRANCH   3   4
BRANCH   3   8
ATOM      8  C   UNL     1      22.193  18.984  45.051  1.00  0.00     0.099 C 
ATOM      9  O   UNL     1      20.957  18.940  44.812  1.00  0.00    -0.544 OA
ATOM     10  O   UNL     1      22.701  20.002  45.849  1.00  0.00    -0.544 OA
ENDBRANCH   3   8
ENDBRANCH   1   3
BRANCH   1  11
ATOM     11  C   UNL     1      23.053  17.811  41.885  1.00  0.00     0.006 C 
ATOM     12  C   UNL     1      22.218  18.960  41.317  1.00  0.00     0.004 C 
ENDBRANCH   1  11
TORSDOF 4
ENDMDL
MODEL 7
REMARK VINA RESULT:    -2.943      2.594      3.788
REMARK INTER + INTRA:          -3.620
REMARK INTER:                  -3.458
REMARK INTRA:                  -0.161
REMARK UNBOUND:                -0.074
REMARK SMILES CC[C@@H](C)[C@@H]([NH3+])C(=O)[O-]
REMARK SMILES IDX 3 1 4 2 5 3 6 4 7 8 8 9 9 10 2 11 1 12
REMARK H PARENT 6 5 6 6 6 7
REMARK Flexibility Score: inf
ROOT
ATOM      1  C   UNL     1      22.286  18.186  43.474  1.00  0.00     0.050 C 
ATOM      2  C   UNL     1      21.389  18.919  44.491  1.00  0.00     0.014 C 
ENDROOT
BRANCH   1   3
ATOM      3  C   UNL     1      23.444  19.118  42.990  1.00  0.00     0.230 C 
BRANCH   3   4
ATOM      4  N   UNL     1      24.670  18.930  43.779  1.00  0.00    -0.350 N 
ATOM      5  H   UNL     1      25.118  18.016  43.546  1.00  0.00     0.345 HD
ATOM      6  H   UNL     1      24.437  18.906  44.800  1.00  0.00     0.345 HD
ATOM      7  H   UNL     1      25.343  19.712  43.607  1.00  0.00     0.345 HD
ENDBRANCH   3   4
BRANCH   3   8
ATOM      8  C   UNL     1      23.757  18.880  41.532  1.00  0.00     0.099 C 
ATOM      9  O   UNL     1      22.936  18.266  40.800  1.00  0.00    -0.544 OA
ATOM     10  O   UNL     1      24.952  19.338  40.989  1.00  0.00    -0.544 OA
ENDBRANCH   3   8
ENDBRANCH   1   3
BRANCH   1  11
ATOM     11  C   UNL     1      22.812  16.866  44.112  1.00  0.00     0.006 C 
ATOM     12  C   UNL     1      22.644  15.658  43.188  1.00  0.00     0.004 C 
ENDBRANCH   1  11
TORSDOF 4
ENDMDL
MODEL 8
REMARK VINA RESULT:    -2.814     18.997     20.045
REMARK INTER + INTRA:          -3.464
REMARK INTER:                  -3.351
REMARK INTRA:                  -0.113
REMARK UNBOUND:                -0.074
REMARK SMILES CC[C@@H](C)[C@@H]([NH3+])C(=O)[O-]
REMARK SMILES IDX 3 1 4 2 5 3 6 4 7 8 8 9 9 10 2 11 1 12
REMARK H PARENT 6 5 6 6 6 7
REMARK Flexibility Score: inf
ROOT
ATOM      1  C   UNL     1      27.691  33.079  53.064  1.00  0.00     0.050 C 
ATOM      2  C   UNL     1      28.050  32.882  51.577  1.00  0.00     0.014 C 
ENDROOT
BRANCH   1   3
ATOM      3  C   UNL     1      28.747  33.992  53.767  1.00  0.00     0.230 C 
BRANCH   3   4
ATOM      4  N   UNL     1      28.120  35.125  54.463  1.00  0.00    -0.350 N 
ATOM      5  H   UNL     1      28.841  35.688  54.968  1.00  0.00     0.345 HD
ATOM      6  H   UNL     1      27.446  34.773  55.184  1.00  0.00     0.345 HD
ATOM      7  H   UNL     1      27.602  35.732  53.788  1.00  0.00     0.345 HD
ENDBRANCH   3   4
BRANCH   3   8
ATOM      8  C   UNL     1      29.572  33.204  54.756  1.00  0.00     0.099 C 
ATOM      9  O   UNL     1      29.113  32.146  55.263  1.00  0.00    -0.544 OA
ATOM     10  O   UNL     1      30.843  33.640  55.111  1.00  0.00    -0.544 OA
ENDBRANCH   3   8
ENDBRANCH   1   3
BRANCH   1  11
ATOM     11  C   UNL     1      26.246  33.648  53.172  1.00  0.00     0.006 C 
ATOM     12  C   UNL     1      25.251  32.627  53.728  1.00  0.00     0.004 C 
ENDBRANCH   1  11
TORSDOF 4
ENDMDL
MODEL 9
REMARK VINA RESULT:    -2.798     20.077     21.007
REMARK INTER + INTRA:          -3.445
REMARK INTER:                  -3.361
REMARK INTRA:                  -0.084
REMARK UNBOUND:                -0.074
REMARK SMILES CC[C@@H](C)[C@@H]([NH3+])C(=O)[O-]
REMARK SMILES IDX 3 1 4 2 5 3 6 4 7 8 8 9 9 10 2 11 1 12
REMARK H PARENT 6 5 6 6 6 7
REMARK Flexibility Score: inf
ROOT
ATOM      1  C   UNL     1      29.497  33.410  53.634  1.00  0.00     0.050 C 
ATOM      2  C   UNL     1      29.743  33.625  52.127  1.00  0.00     0.014 C 
ENDROOT
BRANCH   1   3
ATOM      3  C   UNL     1      30.825  33.589  54.439  1.00  0.00     0.230 C 
BRANCH   3   4
ATOM      4  N   UNL     1      31.250  34.995  54.495  1.00  0.00    -0.350 N 
ATOM      5  H   UNL     1      31.019  35.483  53.601  1.00  0.00     0.345 HD
ATOM      6  H   UNL     1      32.289  35.050  54.614  1.00  0.00     0.345 HD
ATOM      7  H   UNL     1      30.795  35.487  55.298  1.00  0.00     0.345 HD
ENDBRANCH   3   4
BRANCH   3   8
ATOM      8  C   UNL     1      30.681  33.063  55.846  1.00  0.00     0.099 C 
ATOM      9  O   UNL     1      31.253  33.648  56.803  1.00  0.00    -0.544 OA
ATOM     10  O   UNL     1      29.914  31.930  56.094  1.00  0.00    -0.544 OA
ENDBRANCH   3   8
ENDBRANCH   1   3
BRANCH   1  11
ATOM     11  C   UNL     1      28.375  34.378  54.114  1.00  0.00     0.006 C 
ATOM     12  C   UNL     1      26.974  33.880  53.753  1.00  0.00     0.004 C 
ENDBRANCH   1  11
TORSDOF 4
ENDMDL
