MODEL 1
REMARK VINA RESULT:    -4.752      0.000      0.000
REMARK INTER + INTRA:          -6.244
REMARK INTER:                  -5.864
REMARK INTRA:                  -0.380
REMARK UNBOUND:                -0.380
REMARK SMILES Oc1cc(O)c2cc(O)c(-c3cc(O)c(O)c(O)c3)[o+]c2c1
REMARK SMILES IDX 10 1 20 2 21 3 22 4 2 5 3 6 4 7 6 8 7 9 8 10 11 11 12 12
REMARK SMILES IDX 13 13 19 14 15 15 17 16 14 17 16 19 18 21 9 23 1 25 5 27
REMARK H PARENT 14 18 16 20 18 22 9 24 1 26 5 28
REMARK Flexibility Score: inf
ROOT
ATOM      1  C   UNL     1     103.073 102.015  92.891  1.00  0.00     0.402 A 
ATOM      2  O   UNL     1     102.477 100.895  93.293  1.00  0.00    -0.202 OA
ATOM      3  C   UNL     1     103.059  99.702  93.251  1.00  0.00     0.368 A 
ATOM      4  C   UNL     1     102.349  98.583  93.693  1.00  0.00     0.162 A 
ATOM      5  C   UNL     1     102.937  97.315  93.656  1.00  0.00     0.128 A 
ATOM      6  C   UNL     1     104.240  97.167  93.176  1.00  0.00     0.093 A 
ATOM      7  C   UNL     1     104.973  98.272  92.726  1.00  0.00     0.136 A 
ATOM      8  C   UNL     1     104.381  99.562  92.764  1.00  0.00     0.125 A 
ATOM      9  C   UNL     1     105.045 100.728  92.347  1.00  0.00     0.078 A 
ATOM     10  C   UNL     1     104.398 101.964  92.418  1.00  0.00     0.223 A 
ENDROOT
BRANCH   1  11
ATOM     11  C   UNL     1     102.315 103.283  92.979  1.00  0.00     0.091 A 
ATOM     12  C   UNL     1     101.636 103.809  91.866  1.00  0.00     0.068 A 
ATOM     13  C   UNL     1     100.904 104.999  91.976  1.00  0.00     0.162 A 
ATOM     14  C   UNL     1     102.222 103.949  94.211  1.00  0.00     0.068 A 
ATOM     15  C   UNL     1     100.836 105.670  93.204  1.00  0.00     0.200 A 
ATOM     16  C   UNL     1     101.494 105.141  94.327  1.00  0.00     0.162 A 
BRANCH  13  17
ATOM     17  O   UNL     1     100.238 105.520  90.868  1.00  0.00    -0.504 OA
ATOM     18  H   UNL     1     100.727 105.737  90.008  1.00  0.00     0.293 HD
ENDBRANCH  13  17
BRANCH  15  19
ATOM     19  O   UNL     1     100.107 106.855  93.292  1.00  0.00    -0.502 OA
ATOM     20  H   UNL     1     100.517 107.757  93.081  1.00  0.00     0.293 HD
ENDBRANCH  15  19
BRANCH  16  21
ATOM     21  O   UNL     1     101.422 105.800  95.552  1.00  0.00    -0.504 OA
ATOM     22  H   UNL     1     100.555 106.200  95.891  1.00  0.00     0.293 HD
ENDBRANCH  16  21
ENDBRANCH   1  11
BRANCH  10  23
ATOM     23  O   UNL     1     105.073 103.129  92.051  1.00  0.00    -0.500 OA
ATOM     24  H   UNL     1     104.648 103.822  91.445  1.00  0.00     0.294 HD
ENDBRANCH  10  23
BRANCH   5  25
ATOM     25  O   UNL     1     102.236  96.195  94.096  1.00  0.00    -0.507 OA
ATOM     26  H   UNL     1     102.614  95.260  93.999  1.00  0.00     0.293 HD
ENDBRANCH   5  25
BRANCH   7  27
ATOM     27  O   UNL     1     106.268  98.038  92.257  1.00  0.00    -0.507 OA
ATOM     28  H   UNL     1     107.096  98.053  92.835  1.00  0.00     0.293 HD
ENDBRANCH   7  27
TORSDOF 7
ENDMDL
MODEL 2
REMARK VINA RESULT:    -4.692      1.324      2.836
REMARK INTER + INTRA:          -6.169
REMARK INTER:                  -5.837
REMARK INTRA:                  -0.332
REMARK UNBOUND:                -0.380
REMARK SMILES Oc1cc(O)c2cc(O)c(-c3cc(O)c(O)c(O)c3)[o+]c2c1
REMARK SMILES IDX 10 1 20 2 21 3 22 4 2 5 3 6 4 7 6 8 7 9 8 10 11 11 12 12
REMARK SMILES IDX 13 13 19 14 15 15 17 16 14 17 16 19 18 21 9 23 1 25 5 27
REMARK H PARENT 14 18 16 20 18 22 9 24 1 26 5 28
REMARK Flexibility Score: inf
ROOT
ATOM      1  C   UNL     1     101.296 101.361  93.494  1.00  0.00     0.402 A 
ATOM      2  O   UNL     1     102.537 101.058  93.124  1.00  0.00    -0.202 OA
ATOM      3  C   UNL     1     103.035  99.828  93.175  1.00  0.00     0.368 A 
ATOM      4  C   UNL     1     104.353  99.610  92.767  1.00  0.00     0.162 A 
ATOM      5  C   UNL     1     104.903  98.325  92.814  1.00  0.00     0.128 A 
ATOM      6  C   UNL     1     104.131  97.255  93.273  1.00  0.00     0.093 A 
ATOM      7  C   UNL     1     102.808  97.447  93.689  1.00  0.00     0.136 A 
ATOM      8  C   UNL     1     102.244  98.749  93.640  1.00  0.00     0.125 A 
ATOM      9  C   UNL     1     100.923  99.033  94.024  1.00  0.00     0.078 A 
ATOM     10  C   UNL     1     100.437 100.341  93.944  1.00  0.00     0.223 A 
ENDROOT
BRANCH   1  11
ATOM     11  C   UNL     1     100.860 102.773  93.398  1.00  0.00     0.091 A 
ATOM     12  C   UNL     1     100.037 103.215  92.348  1.00  0.00     0.068 A 
ATOM     13  C   UNL     1      99.616 104.551  92.288  1.00  0.00     0.162 A 
ATOM     14  C   UNL     1     101.228 103.679  94.405  1.00  0.00     0.068 A 
ATOM     15  C   UNL     1     100.007 105.455  93.284  1.00  0.00     0.200 A 
ATOM     16  C   UNL     1     100.813 105.017  94.348  1.00  0.00     0.162 A 
BRANCH  13  17
ATOM     17  O   UNL     1      98.806 104.986  91.242  1.00  0.00    -0.504 OA
ATOM     18  H   UNL     1      97.797 104.907  91.283  1.00  0.00     0.293 HD
ENDBRANCH  13  17
BRANCH  15  19
ATOM     19  O   UNL     1      99.583 106.781  93.204  1.00  0.00    -0.502 OA
ATOM     20  H   UNL     1      98.646 107.064  93.464  1.00  0.00     0.293 HD
ENDBRANCH  15  19
BRANCH  16  21
ATOM     21  O   UNL     1     101.197 105.910  95.346  1.00  0.00    -0.504 OA
ATOM     22  H   UNL     1     101.991 106.529  95.229  1.00  0.00     0.293 HD
ENDBRANCH  16  21
ENDBRANCH   1  11
BRANCH  10  23
ATOM     23  O   UNL     1      99.110 100.616  94.278  1.00  0.00    -0.500 OA
ATOM     24  H   UNL     1      98.538  99.946  94.778  1.00  0.00     0.294 HD
ENDBRANCH  10  23
BRANCH   5  25
ATOM     25  O   UNL     1     106.216  98.100  92.407  1.00  0.00    -0.507 OA
ATOM     26  H   UNL     1     106.465  97.300  91.837  1.00  0.00     0.293 HD
ENDBRANCH   5  25
BRANCH   7  27
ATOM     27  O   UNL     1     102.105  96.326  94.139  1.00  0.00    -0.507 OA
ATOM     28  H   UNL     1     101.200  96.044  93.793  1.00  0.00     0.293 HD
ENDBRANCH   7  27
TORSDOF 7
ENDMDL
MODEL 3
REMARK VINA RESULT:    -4.618      1.361      3.339
REMARK INTER + INTRA:          -6.078
REMARK INTER:                  -5.756
REMARK INTRA:                  -0.321
REMARK UNBOUND:                -0.380
REMARK SMILES Oc1cc(O)c2cc(O)c(-c3cc(O)c(O)c(O)c3)[o+]c2c1
REMARK SMILES IDX 10 1 20 2 21 3 22 4 2 5 3 6 4 7 6 8 7 9 8 10 11 11 12 12
REMARK SMILES IDX 13 13 19 14 15 15 17 16 14 17 16 19 18 21 9 23 1 25 5 27
REMARK H PARENT 14 18 16 20 18 22 9 24 1 26 5 28
REMARK Flexibility Score: inf
ROOT
ATOM      1  C   UNL     1     101.231 101.423  93.516  1.00  0.00     0.402 A 
ATOM      2  O   UNL     1     102.475 101.114  93.158  1.00  0.00    -0.202 OA
ATOM      3  C   UNL     1     102.967  99.882  93.218  1.00  0.00     0.368 A 
ATOM      4  C   UNL     1     104.288  99.657  92.822  1.00  0.00     0.162 A 
ATOM      5  C   UNL     1     104.832  98.371  92.878  1.00  0.00     0.128 A 
ATOM      6  C   UNL     1     104.052  97.305  93.332  1.00  0.00     0.093 A 
ATOM      7  C   UNL     1     102.725  97.503  93.735  1.00  0.00     0.136 A 
ATOM      8  C   UNL     1     102.168  98.808  93.678  1.00  0.00     0.125 A 
ATOM      9  C   UNL     1     100.844  99.098  94.048  1.00  0.00     0.078 A 
ATOM     10  C   UNL     1     100.364 100.408  93.960  1.00  0.00     0.223 A 
ENDROOT
BRANCH   1  11
ATOM     11  C   UNL     1     100.803 102.837  93.413  1.00  0.00     0.091 A 
ATOM     12  C   UNL     1     101.236 103.802  94.338  1.00  0.00     0.068 A 
ATOM     13  C   UNL     1     100.838 105.140  94.209  1.00  0.00     0.162 A 
ATOM     14  C   UNL     1      99.994 103.236  92.338  1.00  0.00     0.068 A 
ATOM     15  C   UNL     1     100.011 105.527  93.146  1.00  0.00     0.200 A 
ATOM     16  C   UNL     1      99.591 104.572  92.205  1.00  0.00     0.162 A 
BRANCH  13  17
ATOM     17  O   UNL     1     101.263 106.093  95.133  1.00  0.00    -0.504 OA
ATOM     18  H   UNL     1     100.823 106.186  96.040  1.00  0.00     0.293 HD
ENDBRANCH  13  17
BRANCH  15  19
ATOM     19  O   UNL     1      99.622 106.861  93.038  1.00  0.00    -0.502 OA
ATOM     20  H   UNL     1      99.100 107.332  93.767  1.00  0.00     0.293 HD
ENDBRANCH  15  19
BRANCH  16  21
ATOM     21  O   UNL     1      98.776 104.954  91.141  1.00  0.00    -0.504 OA
ATOM     22  H   UNL     1      98.757 105.908  90.800  1.00  0.00     0.293 HD
ENDBRANCH  16  21
ENDBRANCH   1  11
BRANCH  10  23
ATOM     23  O   UNL     1      99.035 100.689  94.280  1.00  0.00    -0.500 OA
ATOM     24  H   UNL     1      98.765 100.996  95.207  1.00  0.00     0.294 HD
ENDBRANCH  10  23
BRANCH   5  25
ATOM     25  O   UNL     1     106.148  98.139  92.484  1.00  0.00    -0.507 OA
ATOM     26  H   UNL     1     106.695  97.384  92.881  1.00  0.00     0.293 HD
ENDBRANCH   5  25
BRANCH   7  27
ATOM     27  O   UNL     1     102.013  96.386  94.180  1.00  0.00    -0.507 OA
ATOM     28  H   UNL     1     101.876  95.545  93.640  1.00  0.00     0.293 HD
ENDBRANCH   7  27
TORSDOF 7
ENDMDL
MODEL 4
REMARK VINA RESULT:    -4.536      3.239      8.144
REMARK INTER + INTRA:          -5.977
REMARK INTER:                  -5.818
REMARK INTRA:                  -0.158
REMARK UNBOUND:                -0.380
REMARK SMILES Oc1cc(O)c2cc(O)c(-c3cc(O)c(O)c(O)c3)[o+]c2c1
REMARK SMILES IDX 10 1 20 2 21 3 22 4 2 5 3 6 4 7 6 8 7 9 8 10 11 11 12 12
REMARK SMILES IDX 13 13 19 14 15 15 17 16 14 17 16 19 18 21 9 23 1 25 5 27
REMARK H PARENT 14 18 16 20 18 22 9 24 1 26 5 28
REMARK Flexibility Score: inf
ROOT
ATOM      1  C   UNL     1     103.299 105.193  92.977  1.00  0.00     0.402 A 
ATOM      2  O   UNL     1     103.282 106.408  92.434  1.00  0.00    -0.202 OA
ATOM      3  C   UNL     1     102.370 107.327  92.731  1.00  0.00     0.368 A 
ATOM      4  C   UNL     1     102.433 108.575  92.105  1.00  0.00     0.162 A 
ATOM      5  C   UNL     1     101.484 109.559  92.397  1.00  0.00     0.128 A 
ATOM      6  C   UNL     1     100.468 109.293  93.317  1.00  0.00     0.093 A 
ATOM      7  C   UNL     1     100.381 108.051  93.957  1.00  0.00     0.136 A 
ATOM      8  C   UNL     1     101.345 107.049  93.667  1.00  0.00     0.125 A 
ATOM      9  C   UNL     1     101.345 105.781  94.270  1.00  0.00     0.078 A 
ATOM     10  C   UNL     1     102.330 104.847  93.936  1.00  0.00     0.223 A 
ENDROOT
BRANCH   1  11
ATOM     11  C   UNL     1     104.364 104.253  92.557  1.00  0.00     0.091 A 
ATOM     12  C   UNL     1     104.056 102.980  92.047  1.00  0.00     0.068 A 
ATOM     13  C   UNL     1     105.078 102.113  91.633  1.00  0.00     0.162 A 
ATOM     14  C   UNL     1     105.706 104.659  92.615  1.00  0.00     0.068 A 
ATOM     15  C   UNL     1     106.417 102.518  91.715  1.00  0.00     0.200 A 
ATOM     16  C   UNL     1     106.732 103.796  92.204  1.00  0.00     0.162 A 
BRANCH  13  17
ATOM     17  O   UNL     1     104.769 100.850  91.135  1.00  0.00    -0.504 OA
ATOM     18  H   UNL     1     104.588 100.696  90.150  1.00  0.00     0.293 HD
ENDBRANCH  13  17
BRANCH  15  19
ATOM     19  O   UNL     1     107.419 101.640  91.304  1.00  0.00    -0.502 OA
ATOM     20  H   UNL     1     108.067 101.873  90.561  1.00  0.00     0.293 HD
ENDBRANCH  15  19
BRANCH  16  21
ATOM     21  O   UNL     1     108.061 104.206  92.280  1.00  0.00    -0.504 OA
ATOM     22  H   UNL     1     108.312 105.183  92.380  1.00  0.00     0.293 HD
ENDBRANCH  16  21
ENDBRANCH   1  11
BRANCH  10  23
ATOM     23  O   UNL     1     102.360 103.605  94.571  1.00  0.00    -0.500 OA
ATOM     24  H   UNL     1     103.028 103.398  95.304  1.00  0.00     0.294 HD
ENDBRANCH  10  23
BRANCH   5  25
ATOM     25  O   UNL     1     101.541 110.805  91.777  1.00  0.00    -0.507 OA
ATOM     26  H   UNL     1     101.041 111.604  92.147  1.00  0.00     0.293 HD
ENDBRANCH   5  25
BRANCH   7  27
ATOM     27  O   UNL     1      99.332 107.864  94.862  1.00  0.00    -0.507 OA
ATOM     28  H   UNL     1      98.425 108.299  94.781  1.00  0.00     0.293 HD
ENDBRANCH   7  27
TORSDOF 7
ENDMDL
MODEL 5
REMARK VINA RESULT:    -4.481      4.109      7.055
REMARK INTER + INTRA:          -5.908
REMARK INTER:                  -5.532
REMARK INTRA:                  -0.377
REMARK UNBOUND:                -0.380
REMARK SMILES Oc1cc(O)c2cc(O)c(-c3cc(O)c(O)c(O)c3)[o+]c2c1
REMARK SMILES IDX 10 1 20 2 21 3 22 4 2 5 3 6 4 7 6 8 7 9 8 10 11 11 12 12
REMARK SMILES IDX 13 13 19 14 15 15 17 16 14 17 16 19 18 21 9 23 1 25 5 27
REMARK H PARENT 14 18 16 20 18 22 9 24 1 26 5 28
REMARK Flexibility Score: inf
ROOT
ATOM      1  C   UNL     1     101.396 108.287  93.442  1.00  0.00     0.402 A 
ATOM      2  O   UNL     1     102.463 107.802  92.812  1.00  0.00    -0.202 OA
ATOM      3  C   UNL     1     102.830 106.527  92.874  1.00  0.00     0.368 A 
ATOM      4  C   UNL     1     103.970 106.113  92.180  1.00  0.00     0.162 A 
ATOM      5  C   UNL     1     104.380 104.777  92.231  1.00  0.00     0.128 A 
ATOM      6  C   UNL     1     103.647 103.853  92.979  1.00  0.00     0.093 A 
ATOM      7  C   UNL     1     102.501 104.242  93.683  1.00  0.00     0.136 A 
ATOM      8  C   UNL     1     102.079 105.597  93.633  1.00  0.00     0.125 A 
ATOM      9  C   UNL     1     100.937 106.074  94.296  1.00  0.00     0.078 A 
ATOM     10  C   UNL     1     100.582 107.422  94.196  1.00  0.00     0.223 A 
ENDROOT
BRANCH   1  11
ATOM     11  C   UNL     1     101.096 109.731  93.302  1.00  0.00     0.091 A 
ATOM     12  C   UNL     1     100.324 110.218  92.234  1.00  0.00     0.068 A 
ATOM     13  C   UNL     1     100.032 111.585  92.132  1.00  0.00     0.162 A 
ATOM     14  C   UNL     1     101.542 110.626  94.286  1.00  0.00     0.068 A 
ATOM     15  C   UNL     1     100.501 112.477  93.106  1.00  0.00     0.200 A 
ATOM     16  C   UNL     1     101.255 111.995  94.189  1.00  0.00     0.162 A 
BRANCH  13  17
ATOM     17  O   UNL     1      99.272 112.065  91.068  1.00  0.00    -0.504 OA
ATOM     18  H   UNL     1      98.279 111.879  90.997  1.00  0.00     0.293 HD
ENDBRANCH  13  17
BRANCH  15  19
ATOM     19  O   UNL     1     100.204 113.834  92.986  1.00  0.00    -0.502 OA
ATOM     20  H   UNL     1      99.459 114.272  93.515  1.00  0.00     0.293 HD
ENDBRANCH  15  19
BRANCH  16  21
ATOM     21  O   UNL     1     101.716 112.877  95.165  1.00  0.00    -0.504 OA
ATOM     22  H   UNL     1     102.685 112.882  95.462  1.00  0.00     0.293 HD
ENDBRANCH  16  21
ENDBRANCH   1  11
BRANCH  10  23
ATOM     23  O   UNL     1      99.420 107.887  94.813  1.00  0.00    -0.500 OA
ATOM     24  H   UNL     1      99.381 108.797  95.258  1.00  0.00     0.294 HD
ENDBRANCH  10  23
BRANCH   5  25
ATOM     25  O   UNL     1     105.515 104.357  91.541  1.00  0.00    -0.507 OA
ATOM     26  H   UNL     1     106.373 104.123  92.025  1.00  0.00     0.293 HD
ENDBRANCH   5  25
BRANCH   7  27
ATOM     27  O   UNL     1     101.827 103.258  94.411  1.00  0.00    -0.507 OA
ATOM     28  H   UNL     1     101.550 103.351  95.377  1.00  0.00     0.293 HD
ENDBRANCH   7  27
TORSDOF 7
ENDMDL
MODEL 6
REMARK VINA RESULT:    -4.462      2.193      7.475
REMARK INTER + INTRA:          -5.885
REMARK INTER:                  -5.547
REMARK INTRA:                  -0.339
REMARK UNBOUND:                -0.380
REMARK SMILES Oc1cc(O)c2cc(O)c(-c3cc(O)c(O)c(O)c3)[o+]c2c1
REMARK SMILES IDX 10 1 20 2 21 3 22 4 2 5 3 6 4 7 6 8 7 9 8 10 11 11 12 12
REMARK SMILES IDX 13 13 19 14 15 15 17 16 14 17 16 19 18 21 9 23 1 25 5 27
REMARK H PARENT 14 18 16 20 18 22 9 24 1 26 5 28
REMARK Flexibility Score: inf
ROOT
ATOM      1  C   UNL     1     101.105 102.908  93.318  1.00  0.00     0.402 A 
ATOM      2  O   UNL     1      99.966 103.423  92.862  1.00  0.00    -0.202 OA
ATOM      3  C   UNL     1      99.629 104.699  93.014  1.00  0.00     0.368 A 
ATOM      4  C   UNL     1      98.409 105.146  92.502  1.00  0.00     0.162 A 
ATOM      5  C   UNL     1      98.029 106.483  92.651  1.00  0.00     0.128 A 
ATOM      6  C   UNL     1      98.873 107.376  93.315  1.00  0.00     0.093 A 
ATOM      7  C   UNL     1     100.101 106.954  93.838  1.00  0.00     0.136 A 
ATOM      8  C   UNL     1     100.493 105.597  93.687  1.00  0.00     0.125 A 
ATOM      9  C   UNL     1     101.711 105.088  94.166  1.00  0.00     0.078 A 
ATOM     10  C   UNL     1     102.030 103.741  93.976  1.00  0.00     0.223 A 
ENDROOT
BRANCH   1  11
ATOM     11  C   UNL     1     101.362 101.467  93.094  1.00  0.00     0.091 A 
ATOM     12  C   UNL     1     100.734 100.482  93.876  1.00  0.00     0.068 A 
ATOM     13  C   UNL     1     100.972  99.122  93.633  1.00  0.00     0.162 A 
ATOM     14  C   UNL     1     102.204 101.071  92.045  1.00  0.00     0.068 A 
ATOM     15  C   UNL     1     101.833  98.735  92.597  1.00  0.00     0.200 A 
ATOM     16  C   UNL     1     102.448  99.712  91.798  1.00  0.00     0.162 A 
BRANCH  13  17
ATOM     17  O   UNL     1     100.353  98.149  94.415  1.00  0.00    -0.504 OA
ATOM     18  H   UNL     1     100.054  97.264  94.023  1.00  0.00     0.293 HD
ENDBRANCH  13  17
BRANCH  15  19
ATOM     19  O   UNL     1     102.061  97.377  92.374  1.00  0.00    -0.502 OA
ATOM     20  H   UNL     1     101.610  96.657  92.925  1.00  0.00     0.293 HD
ENDBRANCH  15  19
BRANCH  16  21
ATOM     21  O   UNL     1     103.298  99.332  90.762  1.00  0.00    -0.504 OA
ATOM     22  H   UNL     1     102.959  99.199  89.816  1.00  0.00     0.293 HD
ENDBRANCH  16  21
ENDBRANCH   1  11
BRANCH  10  23
ATOM     23  O   UNL     1     103.261 103.245  94.408  1.00  0.00    -0.500 OA
ATOM     24  H   UNL     1     103.588 103.387  95.356  1.00  0.00     0.294 HD
ENDBRANCH  10  23
BRANCH   5  25
ATOM     25  O   UNL     1      96.814 106.936  92.142  1.00  0.00    -0.507 OA
ATOM     26  H   UNL     1      96.573 106.822  91.165  1.00  0.00     0.293 HD
ENDBRANCH   5  25
BRANCH   7  27
ATOM     27  O   UNL     1     100.886 107.908  94.492  1.00  0.00    -0.507 OA
ATOM     28  H   UNL     1     100.580 108.450  95.286  1.00  0.00     0.293 HD
ENDBRANCH   7  27
TORSDOF 7
ENDMDL
MODEL 7
REMARK VINA RESULT:    -4.453      1.458      3.081
REMARK INTER + INTRA:          -5.874
REMARK INTER:                  -5.521
REMARK INTRA:                  -0.353
REMARK UNBOUND:                -0.380
REMARK SMILES Oc1cc(O)c2cc(O)c(-c3cc(O)c(O)c(O)c3)[o+]c2c1
REMARK SMILES IDX 10 1 20 2 21 3 22 4 2 5 3 6 4 7 6 8 7 9 8 10 11 11 12 12
REMARK SMILES IDX 13 13 19 14 15 15 17 16 14 17 16 19 18 21 9 23 1 25 5 27
REMARK H PARENT 14 18 16 20 18 22 9 24 1 26 5 28
REMARK Flexibility Score: inf
ROOT
ATOM      1  C   UNL     1     102.502 101.667  92.645  1.00  0.00     0.402 A 
ATOM      2  O   UNL     1     103.727 101.150  92.589  1.00  0.00    -0.202 OA
ATOM      3  C   UNL     1     103.966  99.855  92.416  1.00  0.00     0.368 A 
ATOM      4  C   UNL     1     105.289  99.407  92.374  1.00  0.00     0.162 A 
ATOM      5  C   UNL     1     105.568  98.049  92.197  1.00  0.00     0.128 A 
ATOM      6  C   UNL     1     104.520  97.135  92.064  1.00  0.00     0.093 A 
ATOM      7  C   UNL     1     103.186  97.558  92.104  1.00  0.00     0.136 A 
ATOM      8  C   UNL     1     102.897  98.937  92.280  1.00  0.00     0.125 A 
ATOM      9  C   UNL     1     101.591  99.453  92.319  1.00  0.00     0.078 A 
ATOM     10  C   UNL     1     101.386 100.825  92.492  1.00  0.00     0.223 A 
ENDROOT
BRANCH   1  11
ATOM     11  C   UNL     1     102.367 103.127  92.850  1.00  0.00     0.091 A 
ATOM     12  C   UNL     1     102.014 103.661  94.102  1.00  0.00     0.068 A 
ATOM     13  C   UNL     1     101.914 105.047  94.282  1.00  0.00     0.162 A 
ATOM     14  C   UNL     1     102.650 104.003  91.791  1.00  0.00     0.068 A 
ATOM     15  C   UNL     1     102.175 105.914  93.212  1.00  0.00     0.200 A 
ATOM     16  C   UNL     1     102.548 105.390  91.963  1.00  0.00     0.162 A 
BRANCH  13  17
ATOM     17  O   UNL     1     101.557 105.572  95.522  1.00  0.00    -0.504 OA
ATOM     18  H   UNL     1     101.524 106.571  95.687  1.00  0.00     0.293 HD
ENDBRANCH  13  17
BRANCH  15  19
ATOM     19  O   UNL     1     102.065 107.290  93.409  1.00  0.00    -0.502 OA
ATOM     20  H   UNL     1     102.241 107.957  92.667  1.00  0.00     0.293 HD
ENDBRANCH  15  19
BRANCH  16  21
ATOM     21  O   UNL     1     102.818 106.248  90.899  1.00  0.00    -0.504 OA
ATOM     22  H   UNL     1     102.249 107.067  90.719  1.00  0.00     0.293 HD
ENDBRANCH  16  21
ENDBRANCH   1  11
BRANCH  10  23
ATOM     23  O   UNL     1     100.091 101.345  92.481  1.00  0.00    -0.500 OA
ATOM     24  H   UNL     1      99.781 102.015  93.175  1.00  0.00     0.294 HD
ENDBRANCH  10  23
BRANCH   5  25
ATOM     25  O   UNL     1     106.884  97.595  92.152  1.00  0.00    -0.507 OA
ATOM     26  H   UNL     1     107.350  97.238  92.977  1.00  0.00     0.293 HD
ENDBRANCH   5  25
BRANCH   7  27
ATOM     27  O   UNL     1     102.196  96.581  91.966  1.00  0.00    -0.507 OA
ATOM     28  H   UNL     1     102.075  95.800  92.593  1.00  0.00     0.293 HD
ENDBRANCH   7  27
TORSDOF 7
ENDMDL
MODEL 8
REMARK VINA RESULT:    -4.440      4.435      7.351
REMARK INTER + INTRA:          -5.858
REMARK INTER:                  -5.659
REMARK INTRA:                  -0.199
REMARK UNBOUND:                -0.380
REMARK SMILES Oc1cc(O)c2cc(O)c(-c3cc(O)c(O)c(O)c3)[o+]c2c1
REMARK SMILES IDX 10 1 20 2 21 3 22 4 2 5 3 6 4 7 6 8 7 9 8 10 11 11 12 12
REMARK SMILES IDX 13 13 19 14 15 15 17 16 14 17 16 19 18 21 9 23 1 25 5 27
REMARK H PARENT 14 18 16 20 18 22 9 24 1 26 5 28
REMARK Flexibility Score: inf
ROOT
ATOM      1  C   UNL     1     100.838 108.103  93.118  1.00  0.00     0.402 A 
ATOM      2  O   UNL     1     101.271 106.928  93.568  1.00  0.00    -0.202 OA
ATOM      3  C   UNL     1     100.589 105.796  93.429  1.00  0.00     0.368 A 
ATOM      4  C   UNL     1     101.126 104.612  93.939  1.00  0.00     0.162 A 
ATOM      5  C   UNL     1     100.428 103.408  93.809  1.00  0.00     0.128 A 
ATOM      6  C   UNL     1      99.187 103.389  93.169  1.00  0.00     0.093 A 
ATOM      7  C   UNL     1      98.626 104.563  92.650  1.00  0.00     0.136 A 
ATOM      8  C   UNL     1      99.333 105.788  92.777  1.00  0.00     0.125 A 
ATOM      9  C   UNL     1      98.855 107.010  92.276  1.00  0.00     0.078 A 
ATOM     10  C   UNL     1      99.610 108.175  92.435  1.00  0.00     0.223 A 
ENDROOT
BRANCH   1  11
ATOM     11  C   UNL     1     101.687 109.295  93.343  1.00  0.00     0.091 A 
ATOM     12  C   UNL     1     101.213 110.407  94.061  1.00  0.00     0.068 A 
ATOM     13  C   UNL     1     102.040 111.516  94.283  1.00  0.00     0.162 A 
ATOM     14  C   UNL     1     103.012 109.297  92.879  1.00  0.00     0.068 A 
ATOM     15  C   UNL     1     103.354 111.520  93.797  1.00  0.00     0.200 A 
ATOM     16  C   UNL     1     103.843 110.405  93.096  1.00  0.00     0.162 A 
BRANCH  13  17
ATOM     17  O   UNL     1     101.563 112.619  94.989  1.00  0.00    -0.504 OA
ATOM     18  H   UNL     1     100.579 112.860  94.996  1.00  0.00     0.293 HD
ENDBRANCH  13  17
BRANCH  15  19
ATOM     19  O   UNL     1     104.160 112.635  94.023  1.00  0.00    -0.502 OA
ATOM     20  H   UNL     1     104.248 113.383  93.346  1.00  0.00     0.293 HD
ENDBRANCH  15  19
BRANCH  16  21
ATOM     21  O   UNL     1     105.152 110.400  92.618  1.00  0.00    -0.504 OA
ATOM     22  H   UNL     1     105.630 111.258  92.368  1.00  0.00     0.293 HD
ENDBRANCH  16  21
ENDBRANCH   1  11
BRANCH  10  23
ATOM     23  O   UNL     1      99.160 109.380  91.895  1.00  0.00    -0.500 OA
ATOM     24  H   UNL     1      98.179 109.542  91.699  1.00  0.00     0.294 HD
ENDBRANCH  10  23
BRANCH   5  25
ATOM     25  O   UNL     1     100.958 102.222  94.314  1.00  0.00    -0.507 OA
ATOM     26  H   UNL     1     100.381 101.551  94.806  1.00  0.00     0.293 HD
ENDBRANCH   5  25
BRANCH   7  27
ATOM     27  O   UNL     1      97.379 104.461  92.027  1.00  0.00    -0.507 OA
ATOM     28  H   UNL     1      96.963 103.593  91.722  1.00  0.00     0.293 HD
ENDBRANCH   7  27
TORSDOF 7
ENDMDL
MODEL 9
REMARK VINA RESULT:    -4.422      2.127      7.351
REMARK INTER + INTRA:          -5.836
REMARK INTER:                  -5.517
REMARK INTRA:                  -0.319
REMARK UNBOUND:                -0.380
REMARK SMILES Oc1cc(O)c2cc(O)c(-c3cc(O)c(O)c(O)c3)[o+]c2c1
REMARK SMILES IDX 10 1 20 2 21 3 22 4 2 5 3 6 4 7 6 8 7 9 8 10 11 11 12 12
REMARK SMILES IDX 13 13 19 14 15 15 17 16 14 17 16 19 18 21 9 23 1 25 5 27
REMARK H PARENT 14 18 16 20 18 22 9 24 1 26 5 28
REMARK Flexibility Score: inf
ROOT
ATOM      1  C   UNL     1     101.111 102.874  93.270  1.00  0.00     0.402 A 
ATOM      2  O   UNL     1      99.971 103.386  92.813  1.00  0.00    -0.202 OA
ATOM      3  C   UNL     1      99.623 104.657  92.980  1.00  0.00     0.368 A 
ATOM      4  C   UNL     1      98.402 105.101  92.466  1.00  0.00     0.162 A 
ATOM      5  C   UNL     1      98.010 106.433  92.631  1.00  0.00     0.128 A 
ATOM      6  C   UNL     1      98.842 107.323  93.314  1.00  0.00     0.093 A 
ATOM      7  C   UNL     1     100.070 106.903  93.840  1.00  0.00     0.136 A 
ATOM      8  C   UNL     1     100.474 105.552  93.672  1.00  0.00     0.125 A 
ATOM      9  C   UNL     1     101.693 105.046  94.153  1.00  0.00     0.078 A 
ATOM     10  C   UNL     1     102.024 103.705  93.946  1.00  0.00     0.223 A 
ENDROOT
BRANCH   1  11
ATOM     11  C   UNL     1     101.381 101.439  93.027  1.00  0.00     0.091 A 
ATOM     12  C   UNL     1     102.302 101.022  92.050  1.00  0.00     0.068 A 
ATOM     13  C   UNL     1     102.561  99.659  91.851  1.00  0.00     0.162 A 
ATOM     14  C   UNL     1     100.749 100.472  93.825  1.00  0.00     0.068 A 
ATOM     15  C   UNL     1     101.909  98.699  92.636  1.00  0.00     0.200 A 
ATOM     16  C   UNL     1     101.003  99.107  93.629  1.00  0.00     0.162 A 
BRANCH  13  17
ATOM     17  O   UNL     1     103.470  99.251  90.877  1.00  0.00    -0.504 OA
ATOM     18  H   UNL     1     103.483  98.299  90.529  1.00  0.00     0.293 HD
ENDBRANCH  13  17
BRANCH  15  19
ATOM     19  O   UNL     1     102.176  97.348  92.420  1.00  0.00    -0.502 OA
ATOM     20  H   UNL     1     101.652  96.614  92.882  1.00  0.00     0.293 HD
ENDBRANCH  15  19
BRANCH  16  21
ATOM     21  O   UNL     1     100.358  98.157  94.418  1.00  0.00    -0.504 OA
ATOM     22  H   UNL     1     100.750  97.841  95.297  1.00  0.00     0.293 HD
ENDBRANCH  16  21
ENDBRANCH   1  11
BRANCH  10  23
ATOM     23  O   UNL     1     103.256 103.213  94.379  1.00  0.00    -0.500 OA
ATOM     24  H   UNL     1     103.975 103.826  94.745  1.00  0.00     0.294 HD
ENDBRANCH  10  23
BRANCH   5  25
ATOM     25  O   UNL     1      96.795 106.883  92.121  1.00  0.00    -0.507 OA
ATOM     26  H   UNL     1      96.712 107.784  91.665  1.00  0.00     0.293 HD
ENDBRANCH   5  25
BRANCH   7  27
ATOM     27  O   UNL     1     100.842 107.854  94.513  1.00  0.00    -0.507 OA
ATOM     28  H   UNL     1     100.650 108.188  95.446  1.00  0.00     0.293 HD
ENDBRANCH   7  27
TORSDOF 7
ENDMDL
