MODEL 1
REMARK VINA RESULT:    -4.572      0.000      0.000
REMARK INTER + INTRA:          -5.388
REMARK INTER:                  -5.240
REMARK INTRA:                  -0.149
REMARK UNBOUND:                -0.149
REMARK SMILES CC=Cc1ccc(O)c(OC)c1
REMARK SMILES IDX 4 1 12 2 9 3 7 4 6 5 5 6 3 7 1 8 2 9 10 10 11 11 8 12
REMARK H PARENT 8 13
REMARK Flexibility Score: inf
ROOT
ATOM      1  C   UNL     1     -18.446  20.955  42.022  1.00  0.00    -0.022 A 
ATOM      2  C   UNL     1     -18.014  19.693  41.578  1.00  0.00     0.058 A 
ATOM      3  C   UNL     1     -17.447  18.765  42.475  1.00  0.00     0.161 A 
ATOM      4  C   UNL     1     -17.325  19.110  43.832  1.00  0.00     0.157 A 
ATOM      5  C   UNL     1     -17.767  20.356  44.279  1.00  0.00     0.051 A 
ATOM      6  C   UNL     1     -18.327  21.273  43.388  1.00  0.00     0.012 A 
ENDROOT
BRANCH   1   7
ATOM      7  C   UNL     1     -19.044  21.887  41.034  1.00  0.00     0.003 C 
ATOM      8  C   UNL     1     -20.843  22.797  39.616  1.00  0.00     0.035 C 
ATOM      9  C   UNL     1     -20.310  21.809  40.604  1.00  0.00    -0.030 C 
ENDBRANCH   1   7
BRANCH   3  10
ATOM     10  O   UNL     1     -16.999  17.503  42.054  1.00  0.00    -0.493 OA
ATOM     11  C   UNL     1     -16.673  17.167  40.709  1.00  0.00     0.278 C 
ENDBRANCH   3  10
BRANCH   4  12
ATOM     12  O   UNL     1     -16.769  18.222  44.754  1.00  0.00    -0.504 OA
ATOM     13  H   UNL     1     -15.827  18.331  45.107  1.00  0.00     0.293 HD
ENDBRANCH   4  12
TORSDOF 3
ENDMDL
MODEL 2
REMARK VINA RESULT:    -4.554      1.870      4.655
REMARK INTER + INTRA:          -5.369
REMARK INTER:                  -5.203
REMARK INTRA:                  -0.166
REMARK UNBOUND:                -0.149
REMARK SMILES CC=Cc1ccc(O)c(OC)c1
REMARK SMILES IDX 4 1 12 2 9 3 7 4 6 5 5 6 3 7 1 8 2 9 10 10 11 11 8 12
REMARK H PARENT 8 13
REMARK Flexibility Score: inf
ROOT
ATOM      1  C   UNL     1     -17.022  17.962  42.117  1.00  0.00    -0.022 A 
ATOM      2  C   UNL     1     -17.721  19.114  41.720  1.00  0.00     0.058 A 
ATOM      3  C   UNL     1     -18.119  20.081  42.665  1.00  0.00     0.161 A 
ATOM      4  C   UNL     1     -17.797  19.889  44.020  1.00  0.00     0.157 A 
ATOM      5  C   UNL     1     -17.088  18.752  44.416  1.00  0.00     0.051 A 
ATOM      6  C   UNL     1     -16.699  17.796  43.477  1.00  0.00     0.012 A 
ENDROOT
BRANCH   1   7
ATOM      7  C   UNL     1     -16.621  16.982  41.076  1.00  0.00     0.003 C 
ATOM      8  C   UNL     1     -15.656  14.875  40.237  1.00  0.00     0.035 C 
ATOM      9  C   UNL     1     -16.016  15.817  41.341  1.00  0.00    -0.030 C 
ENDBRANCH   1   7
BRANCH   3  10
ATOM     10  O   UNL     1     -18.827  21.236  42.295  1.00  0.00    -0.493 OA
ATOM     11  C   UNL     1     -19.720  21.317  41.189  1.00  0.00     0.278 C 
ENDBRANCH   3  10
BRANCH   4  12
ATOM     12  O   UNL     1     -18.171  20.820  44.989  1.00  0.00    -0.504 OA
ATOM     13  H   UNL     1     -17.991  20.675  45.975  1.00  0.00     0.293 HD
ENDBRANCH   4  12
TORSDOF 3
ENDMDL
MODEL 3
REMARK VINA RESULT:    -4.282     13.149     13.966
REMARK INTER + INTRA:          -5.056
REMARK INTER:                  -4.908
REMARK INTRA:                  -0.148
REMARK UNBOUND:                -0.149
REMARK SMILES CC=Cc1ccc(O)c(OC)c1
REMARK SMILES IDX 4 1 12 2 9 3 7 4 6 5 5 6 3 7 1 8 2 9 10 10 11 11 8 12
REMARK H PARENT 8 13
REMARK Flexibility Score: inf
ROOT
ATOM      1  C   UNL     1      -8.738  28.900  44.784  1.00  0.00    -0.022 A 
ATOM      2  C   UNL     1      -7.647  28.113  45.188  1.00  0.00     0.058 A 
ATOM      3  C   UNL     1      -6.763  28.560  46.192  1.00  0.00     0.161 A 
ATOM      4  C   UNL     1      -6.991  29.808  46.800  1.00  0.00     0.157 A 
ATOM      5  C   UNL     1      -8.084  30.585  46.412  1.00  0.00     0.051 A 
ATOM      6  C   UNL     1      -8.955  30.139  45.417  1.00  0.00     0.012 A 
ENDROOT
BRANCH   1   7
ATOM      7  C   UNL     1      -9.640  28.374  43.729  1.00  0.00     0.003 C 
ATOM      8  C   UNL     1     -11.517  27.043  42.846  1.00  0.00     0.035 C 
ATOM      9  C   UNL     1     -10.642  27.517  43.963  1.00  0.00    -0.030 C 
ENDBRANCH   1   7
BRANCH   3  10
ATOM     10  O   UNL     1      -5.661  27.796  46.606  1.00  0.00    -0.493 OA
ATOM     11  C   UNL     1      -5.418  26.448  46.216  1.00  0.00     0.278 C 
ENDBRANCH   3  10
BRANCH   4  12
ATOM     12  O   UNL     1      -6.142  30.289  47.797  1.00  0.00    -0.504 OA
ATOM     13  H   UNL     1      -6.381  31.090  48.368  1.00  0.00     0.293 HD
ENDBRANCH   4  12
TORSDOF 3
ENDMDL
MODEL 4
REMARK VINA RESULT:    -4.146     13.537     14.519
REMARK INTER + INTRA:          -4.901
REMARK INTER:                  -4.738
REMARK INTRA:                  -0.163
REMARK UNBOUND:                -0.149
REMARK SMILES CC=Cc1ccc(O)c(OC)c1
REMARK SMILES IDX 4 1 12 2 9 3 7 4 6 5 5 6 3 7 1 8 2 9 10 10 11 11 8 12
REMARK H PARENT 8 13
REMARK Flexibility Score: inf
ROOT
ATOM      1  C   UNL     1      -8.228  28.326  45.044  1.00  0.00    -0.022 A 
ATOM      2  C   UNL     1      -7.855  29.456  45.791  1.00  0.00     0.058 A 
ATOM      3  C   UNL     1      -6.663  29.466  46.544  1.00  0.00     0.161 A 
ATOM      4  C   UNL     1      -5.836  28.329  46.534  1.00  0.00     0.157 A 
ATOM      5  C   UNL     1      -6.196  27.210  45.780  1.00  0.00     0.051 A 
ATOM      6  C   UNL     1      -7.378  27.204  45.038  1.00  0.00     0.012 A 
ENDROOT
BRANCH   1   7
ATOM      7  C   UNL     1      -9.489  28.376  44.264  1.00  0.00     0.003 C 
ATOM      8  C   UNL     1     -11.367  27.430  42.979  1.00  0.00     0.035 C 
ATOM      9  C   UNL     1     -10.088  27.298  43.743  1.00  0.00    -0.030 C 
ENDBRANCH   1   7
BRANCH   3  10
ATOM     10  O   UNL     1      -6.274  30.580  47.306  1.00  0.00    -0.493 OA
ATOM     11  C   UNL     1      -6.929  31.844  47.283  1.00  0.00     0.278 C 
ENDBRANCH   3  10
BRANCH   4  12
ATOM     12  O   UNL     1      -4.648  28.295  47.264  1.00  0.00    -0.504 OA
ATOM     13  H   UNL     1      -3.846  27.754  46.966  1.00  0.00     0.293 HD
ENDBRANCH   4  12
TORSDOF 3
ENDMDL
MODEL 5
REMARK VINA RESULT:    -4.124     14.210     15.218
REMARK INTER + INTRA:          -4.876
REMARK INTER:                  -4.713
REMARK INTRA:                  -0.163
REMARK UNBOUND:                -0.149
REMARK SMILES CC=Cc1ccc(O)c(OC)c1
REMARK SMILES IDX 4 1 12 2 9 3 7 4 6 5 5 6 3 7 1 8 2 9 10 10 11 11 8 12
REMARK H PARENT 8 13
REMARK Flexibility Score: inf
ROOT
ATOM      1  C   UNL     1      -6.895  29.864  46.569  1.00  0.00    -0.022 A 
ATOM      2  C   UNL     1      -7.886  29.256  45.780  1.00  0.00     0.058 A 
ATOM      3  C   UNL     1      -7.727  27.938  45.307  1.00  0.00     0.161 A 
ATOM      4  C   UNL     1      -6.564  27.224  45.643  1.00  0.00     0.157 A 
ATOM      5  C   UNL     1      -5.584  27.820  46.440  1.00  0.00     0.051 A 
ATOM      6  C   UNL     1      -5.745  29.126  46.905  1.00  0.00     0.012 A 
ENDROOT
BRANCH   1   7
ATOM      7  C   UNL     1      -7.121  31.251  47.046  1.00  0.00     0.003 C 
ATOM      8  C   UNL     1      -6.494  33.383  48.114  1.00  0.00     0.035 C 
ATOM      9  C   UNL     1      -6.194  31.985  47.676  1.00  0.00    -0.030 C 
ENDBRANCH   1   7
BRANCH   3  10
ATOM     10  O   UNL     1      -8.699  27.312  44.509  1.00  0.00    -0.493 OA
ATOM     11  C   UNL     1      -9.877  27.947  44.022  1.00  0.00     0.278 C 
ENDBRANCH   3  10
BRANCH   4  12
ATOM     12  O   UNL     1      -6.365  25.917  45.196  1.00  0.00    -0.504 OA
ATOM     13  H   UNL     1      -5.630  25.676  44.543  1.00  0.00     0.293 HD
ENDBRANCH   4  12
TORSDOF 3
ENDMDL
MODEL 6
REMARK VINA RESULT:    -4.089     16.183     17.439
REMARK INTER + INTRA:          -4.836
REMARK INTER:                  -4.664
REMARK INTRA:                  -0.172
REMARK UNBOUND:                -0.149
REMARK SMILES CC=Cc1ccc(O)c(OC)c1
REMARK SMILES IDX 4 1 12 2 9 3 7 4 6 5 5 6 3 7 1 8 2 9 10 10 11 11 8 12
REMARK H PARENT 8 13
REMARK Flexibility Score: inf
ROOT
ATOM      1  C   UNL     1      -6.086  29.636  46.709  1.00  0.00    -0.022 A 
ATOM      2  C   UNL     1      -5.115  30.639  46.872  1.00  0.00     0.058 A 
ATOM      3  C   UNL     1      -5.484  31.997  46.950  1.00  0.00     0.161 A 
ATOM      4  C   UNL     1      -6.844  32.345  46.873  1.00  0.00     0.157 A 
ATOM      5  C   UNL     1      -7.812  31.349  46.726  1.00  0.00     0.051 A 
ATOM      6  C   UNL     1      -7.443  30.006  46.648  1.00  0.00     0.012 A 
ENDROOT
BRANCH   1   7
ATOM      7  C   UNL     1      -5.641  28.222  46.642  1.00  0.00     0.003 C 
ATOM      8  C   UNL     1      -5.905  25.807  46.224  1.00  0.00     0.035 C 
ATOM      9  C   UNL     1      -6.434  27.205  46.281  1.00  0.00    -0.030 C 
ENDBRANCH   1   7
BRANCH   3  10
ATOM     10  O   UNL     1      -4.532  33.018  47.105  1.00  0.00    -0.493 OA
ATOM     11  C   UNL     1      -4.049  33.491  48.358  1.00  0.00     0.278 C 
ENDBRANCH   3  10
BRANCH   4  12
ATOM     12  O   UNL     1      -7.253  33.676  46.946  1.00  0.00    -0.504 OA
ATOM     13  H   UNL     1      -6.964  34.367  46.265  1.00  0.00     0.293 HD
ENDBRANCH   4  12
TORSDOF 3
ENDMDL
MODEL 7
REMARK VINA RESULT:    -4.056     15.597     16.610
REMARK INTER + INTRA:          -4.798
REMARK INTER:                  -4.620
REMARK INTRA:                  -0.178
REMARK UNBOUND:                -0.149
REMARK SMILES CC=Cc1ccc(O)c(OC)c1
REMARK SMILES IDX 4 1 12 2 9 3 7 4 6 5 5 6 3 7 1 8 2 9 10 10 11 11 8 12
REMARK H PARENT 8 13
REMARK Flexibility Score: inf
ROOT
ATOM      1  C   UNL     1      -6.313  31.159  47.258  1.00  0.00    -0.022 A 
ATOM      2  C   UNL     1      -5.535  30.004  47.069  1.00  0.00     0.058 A 
ATOM      3  C   UNL     1      -6.077  28.858  46.454  1.00  0.00     0.161 A 
ATOM      4  C   UNL     1      -7.413  28.882  46.014  1.00  0.00     0.157 A 
ATOM      5  C   UNL     1      -8.184  30.033  46.186  1.00  0.00     0.051 A 
ATOM      6  C   UNL     1      -7.643  31.165  46.798  1.00  0.00     0.012 A 
ENDROOT
BRANCH   1   7
ATOM      7  C   UNL     1      -5.686  32.338  47.904  1.00  0.00     0.003 C 
ATOM      8  C   UNL     1      -5.672  34.509  49.072  1.00  0.00     0.035 C 
ATOM      9  C   UNL     1      -6.378  33.361  48.423  1.00  0.00    -0.030 C 
ENDBRANCH   1   7
BRANCH   3  10
ATOM     10  O   UNL     1      -5.323  27.689  46.263  1.00  0.00    -0.493 OA
ATOM     11  C   UNL     1      -4.461  27.454  45.153  1.00  0.00     0.278 C 
ENDBRANCH   3  10
BRANCH   4  12
ATOM     12  O   UNL     1      -7.990  27.770  45.400  1.00  0.00    -0.504 OA
ATOM     13  H   UNL     1      -8.089  27.700  44.395  1.00  0.00     0.293 HD
ENDBRANCH   4  12
TORSDOF 3
ENDMDL
MODEL 8
REMARK VINA RESULT:    -3.932      3.765      5.788
REMARK INTER + INTRA:          -4.655
REMARK INTER:                  -4.500
REMARK INTRA:                  -0.155
REMARK UNBOUND:                -0.149
REMARK SMILES CC=Cc1ccc(O)c(OC)c1
REMARK SMILES IDX 4 1 12 2 9 3 7 4 6 5 5 6 3 7 1 8 2 9 10 10 11 11 8 12
REMARK H PARENT 8 13
REMARK Flexibility Score: inf
ROOT
ATOM      1  C   UNL     1     -20.045  21.361  41.322  1.00  0.00    -0.022 A 
ATOM      2  C   UNL     1     -19.283  22.425  40.808  1.00  0.00     0.058 A 
ATOM      3  C   UNL     1     -19.888  23.654  40.476  1.00  0.00     0.161 A 
ATOM      4  C   UNL     1     -21.271  23.815  40.675  1.00  0.00     0.157 A 
ATOM      5  C   UNL     1     -22.027  22.765  41.200  1.00  0.00     0.051 A 
ATOM      6  C   UNL     1     -21.425  21.549  41.526  1.00  0.00     0.012 A 
ENDROOT
BRANCH   1   7
ATOM      7  C   UNL     1     -19.353  20.093  41.662  1.00  0.00     0.003 C 
ATOM      8  C   UNL     1     -17.400  18.635  42.023  1.00  0.00     0.035 C 
ATOM      9  C   UNL     1     -18.023  19.943  41.654  1.00  0.00    -0.030 C 
ENDBRANCH   1   7
BRANCH   3  10
ATOM     10  O   UNL     1     -19.150  24.728  39.952  1.00  0.00    -0.493 OA
ATOM     11  C   UNL     1     -18.015  24.591  39.103  1.00  0.00     0.278 C 
ENDBRANCH   3  10
BRANCH   4  12
ATOM     12  O   UNL     1     -21.910  25.014  40.360  1.00  0.00    -0.504 OA
ATOM     13  H   UNL     1     -22.556  25.465  40.996  1.00  0.00     0.293 HD
ENDBRANCH   4  12
TORSDOF 3
ENDMDL
MODEL 9
REMARK VINA RESULT:    -3.921     16.417     17.428
REMARK INTER + INTRA:          -4.642
REMARK INTER:                  -4.468
REMARK INTRA:                  -0.174
REMARK UNBOUND:                -0.149
REMARK SMILES CC=Cc1ccc(O)c(OC)c1
REMARK SMILES IDX 4 1 12 2 9 3 7 4 6 5 5 6 3 7 1 8 2 9 10 10 11 11 8 12
REMARK H PARENT 8 13
REMARK Flexibility Score: inf
ROOT
ATOM      1  C   UNL     1      -5.838  31.740  47.491  1.00  0.00    -0.022 A 
ATOM      2  C   UNL     1      -6.626  30.604  47.240  1.00  0.00     0.058 A 
ATOM      3  C   UNL     1      -6.050  29.420  46.736  1.00  0.00     0.161 A 
ATOM      4  C   UNL     1      -4.665  29.380  46.495  1.00  0.00     0.157 A 
ATOM      5  C   UNL     1      -3.877  30.502  46.758  1.00  0.00     0.051 A 
ATOM      6  C   UNL     1      -4.451  31.673  47.254  1.00  0.00     0.012 A 
ENDROOT
BRANCH   1   7
ATOM      7  C   UNL     1      -6.497  32.956  48.029  1.00  0.00     0.003 C 
ATOM      8  C   UNL     1      -6.838  34.795  49.634  1.00  0.00     0.035 C 
ATOM      9  C   UNL     1      -6.131  33.563  49.165  1.00  0.00    -0.030 C 
ENDBRANCH   1   7
BRANCH   3  10
ATOM     10  O   UNL     1      -6.817  28.275  46.469  1.00  0.00    -0.493 OA
ATOM     11  C   UNL     1      -7.703  28.135  45.363  1.00  0.00     0.278 C 
ENDBRANCH   3  10
BRANCH   4  12
ATOM     12  O   UNL     1      -4.053  28.229  45.997  1.00  0.00    -0.504 OA
ATOM     13  H   UNL     1      -3.170  27.888  46.356  1.00  0.00     0.293 HD
ENDBRANCH   4  12
TORSDOF 3
ENDMDL
