MODEL 1
REMARK VINA RESULT:    -5.207      0.000      0.000
REMARK INTER + INTRA:          -7.739
REMARK INTER:                  -7.034
REMARK INTRA:                  -0.705
REMARK UNBOUND:                -0.705
REMARK SMILES COc1ccc(-c2cc(=O)c3c(OC)c(OC)c(OC)c(OC)c3o2)cc1
REMARK SMILES IDX 7 1 8 2 9 3 10 4 11 5 24 6 25 7 21 8 18 9 15 10 12 11 6 12
REMARK SMILES IDX 3 13 4 14 27 15 5 16 26 17 2 18 1 19 22 20 23 21 13 22 14 23
REMARK SMILES IDX 19 24 20 25 16 26 17 27
REMARK H PARENT
REMARK Flexibility Score: inf
ROOT
ATOM      1  C   UNL     1      23.882   8.043 -11.976  1.00  0.00     0.138 A 
ATOM      2  C   UNL     1      22.728   8.835 -12.024  1.00  0.00     0.100 A 
ATOM      3  C   UNL     1      22.242   9.264 -13.259  1.00  0.00     0.197 A 
ATOM      4  O   UNL     1      21.202   9.977 -13.282  1.00  0.00    -0.289 OA
ATOM      5  C   UNL     1      22.918   8.900 -14.447  1.00  0.00     0.115 A 
ATOM      6  C   UNL     1      24.085   8.117 -14.311  1.00  0.00     0.188 A 
ATOM      7  O   UNL     1      24.504   7.729 -13.109  1.00  0.00    -0.452 OA
ATOM      8  C   UNL     1      24.815   7.724 -15.431  1.00  0.00     0.209 A 
ATOM      9  C   UNL     1      24.429   8.168 -16.710  1.00  0.00     0.211 A 
ATOM     10  C   UNL     1      23.221   8.890 -16.881  1.00  0.00     0.208 A 
ATOM     11  C   UNL     1      22.470   9.278 -15.738  1.00  0.00     0.179 A 
ENDROOT
BRANCH   1  12
ATOM     12  C   UNL     1      24.446   7.552 -10.694  1.00  0.00     0.018 A 
ATOM     13  C   UNL     1      25.492   6.555  -8.266  1.00  0.00     0.118 A 
ATOM     14  C   UNL     1      25.476   5.749  -9.418  1.00  0.00     0.047 A 
ATOM     15  C   UNL     1      24.979   7.854  -8.336  1.00  0.00     0.047 A 
ATOM     16  C   UNL     1      24.953   6.242 -10.618  1.00  0.00     0.016 A 
ATOM     17  C   UNL     1      24.457   8.350  -9.534  1.00  0.00     0.016 A 
BRANCH  13  18
ATOM     18  O   UNL     1      26.003   6.105  -7.039  1.00  0.00    -0.497 OA
ATOM     19  C   UNL     1      26.117   4.735  -6.670  1.00  0.00     0.278 C 
ENDBRANCH  13  18
ENDBRANCH   1  12
BRANCH   8  20
ATOM     20  O   UNL     1      25.927   6.889 -15.227  1.00  0.00    -0.490 OA
ATOM     21  C   UNL     1      25.917   5.481 -15.442  1.00  0.00     0.278 C 
ENDBRANCH   8  20
BRANCH  11  22
ATOM     22  O   UNL     1      21.280  10.033 -15.825  1.00  0.00    -0.492 OA
ATOM     23  C   UNL     1      20.021   9.611 -16.338  1.00  0.00     0.278 C 
ENDBRANCH  11  22
BRANCH   9  24
ATOM     24  O   UNL     1      25.271   7.939 -17.797  1.00  0.00    -0.490 OA
ATOM     25  C   UNL     1      26.333   8.834 -18.110  1.00  0.00     0.279 C 
ENDBRANCH   9  24
BRANCH  10  26
ATOM     26  O   UNL     1      22.740   9.247 -18.156  1.00  0.00    -0.490 OA
ATOM     27  C   UNL     1      22.999  10.455 -18.862  1.00  0.00     0.278 C 
ENDBRANCH  10  26
TORSDOF 6
ENDMDL
MODEL 2
REMARK VINA RESULT:    -5.181      2.771      4.733
REMARK INTER + INTRA:          -7.703
REMARK INTER:                  -7.070
REMARK INTRA:                  -0.634
REMARK UNBOUND:                -0.705
REMARK SMILES COc1ccc(-c2cc(=O)c3c(OC)c(OC)c(OC)c(OC)c3o2)cc1
REMARK SMILES IDX 7 1 8 2 9 3 10 4 11 5 24 6 25 7 21 8 18 9 15 10 12 11 6 12
REMARK SMILES IDX 3 13 4 14 27 15 5 16 26 17 2 18 1 19 22 20 23 21 13 22 14 23
REMARK SMILES IDX 19 24 20 25 16 26 17 27
REMARK H PARENT
REMARK Flexibility Score: inf
ROOT
ATOM      1  C   UNL     1      24.860   7.347 -14.661  1.00  0.00     0.138 A 
ATOM      2  C   UNL     1      24.895   8.292 -15.695  1.00  0.00     0.100 A 
ATOM      3  C   UNL     1      25.070   7.862 -17.010  1.00  0.00     0.197 A 
ATOM      4  O   UNL     1      25.100   8.726 -17.927  1.00  0.00    -0.289 OA
ATOM      5  C   UNL     1      25.215   6.482 -17.287  1.00  0.00     0.115 A 
ATOM      6  C   UNL     1      25.188   5.598 -16.187  1.00  0.00     0.188 A 
ATOM      7  O   UNL     1      25.013   6.058 -14.951  1.00  0.00    -0.452 OA
ATOM      8  C   UNL     1      25.334   4.223 -16.372  1.00  0.00     0.209 A 
ATOM      9  C   UNL     1      25.579   3.713 -17.661  1.00  0.00     0.211 A 
ATOM     10  C   UNL     1      25.534   4.569 -18.790  1.00  0.00     0.208 A 
ATOM     11  C   UNL     1      25.373   5.970 -18.600  1.00  0.00     0.179 A 
ENDROOT
BRANCH   1  12
ATOM     12  C   UNL     1      24.672   7.741 -13.242  1.00  0.00     0.018 A 
ATOM     13  C   UNL     1      24.293   8.427 -10.527  1.00  0.00     0.118 A 
ATOM     14  C   UNL     1      24.811   7.167 -10.878  1.00  0.00     0.047 A 
ATOM     15  C   UNL     1      23.963   9.333 -11.540  1.00  0.00     0.047 A 
ATOM     16  C   UNL     1      24.993   6.827 -12.222  1.00  0.00     0.016 A 
ATOM     17  C   UNL     1      24.145   8.997 -12.885  1.00  0.00     0.016 A 
BRANCH  13  18
ATOM     18  O   UNL     1      24.089   8.813  -9.194  1.00  0.00    -0.497 OA
ATOM     19  C   UNL     1      24.836   8.315  -8.090  1.00  0.00     0.278 C 
ENDBRANCH  13  18
ENDBRANCH   1  12
BRANCH   8  20
ATOM     20  O   UNL     1      25.230   3.396 -15.242  1.00  0.00    -0.490 OA
ATOM     21  C   UNL     1      26.334   3.015 -14.427  1.00  0.00     0.278 C 
ENDBRANCH   8  20
BRANCH  11  22
ATOM     22  O   UNL     1      25.359   6.890 -19.670  1.00  0.00    -0.492 OA
ATOM     23  C   UNL     1      26.435   7.225 -20.539  1.00  0.00     0.278 C 
ENDBRANCH  11  22
BRANCH   9  24
ATOM     24  O   UNL     1      25.920   2.369 -17.811  1.00  0.00    -0.490 OA
ATOM     25  C   UNL     1      24.929   1.381 -18.069  1.00  0.00     0.279 C 
ENDBRANCH   9  24
BRANCH  10  26
ATOM     26  O   UNL     1      25.655   4.078 -20.104  1.00  0.00    -0.490 OA
ATOM     27  C   UNL     1      24.598   3.691 -20.974  1.00  0.00     0.278 C 
ENDBRANCH  10  26
TORSDOF 6
ENDMDL
MODEL 3
REMARK VINA RESULT:    -5.125      1.424      1.720
REMARK INTER + INTRA:          -7.628
REMARK INTER:                  -6.949
REMARK INTRA:                  -0.679
REMARK UNBOUND:                -0.705
REMARK SMILES COc1ccc(-c2cc(=O)c3c(OC)c(OC)c(OC)c(OC)c3o2)cc1
REMARK SMILES IDX 7 1 8 2 9 3 10 4 11 5 24 6 25 7 21 8 18 9 15 10 12 11 6 12
REMARK SMILES IDX 3 13 4 14 27 15 5 16 26 17 2 18 1 19 22 20 23 21 13 22 14 23
REMARK SMILES IDX 19 24 20 25 16 26 17 27
REMARK H PARENT
REMARK Flexibility Score: inf
ROOT
ATOM      1  C   UNL     1      24.674   7.671 -12.557  1.00  0.00     0.138 A 
ATOM      2  C   UNL     1      23.955   8.832 -12.873  1.00  0.00     0.100 A 
ATOM      3  C   UNL     1      23.773   9.181 -14.211  1.00  0.00     0.197 A 
ATOM      4  O   UNL     1      23.125  10.230 -14.476  1.00  0.00    -0.289 OA
ATOM      5  C   UNL     1      24.316   8.367 -15.232  1.00  0.00     0.115 A 
ATOM      6  C   UNL     1      25.043   7.226 -14.829  1.00  0.00     0.188 A 
ATOM      7  O   UNL     1      25.184   6.933 -13.539  1.00  0.00    -0.452 OA
ATOM      8  C   UNL     1      25.619   6.376 -15.773  1.00  0.00     0.209 A 
ATOM      9  C   UNL     1      25.536   6.692 -17.142  1.00  0.00     0.211 A 
ATOM     10  C   UNL     1      24.749   7.788 -17.577  1.00  0.00     0.208 A 
ATOM     11  C   UNL     1      24.151   8.646 -16.612  1.00  0.00     0.179 A 
ENDROOT
BRANCH   1  12
ATOM     12  C   UNL     1      24.898   7.242 -11.154  1.00  0.00     0.018 A 
ATOM     13  C   UNL     1      25.299   6.366  -8.497  1.00  0.00     0.118 A 
ATOM     14  C   UNL     1      25.522   5.493  -9.577  1.00  0.00     0.047 A 
ATOM     15  C   UNL     1      24.871   7.672  -8.756  1.00  0.00     0.047 A 
ATOM     16  C   UNL     1      25.318   5.926 -10.890  1.00  0.00     0.016 A 
ATOM     17  C   UNL     1      24.668   8.109 -10.068  1.00  0.00     0.016 A 
BRANCH  13  18
ATOM     18  O   UNL     1      25.486   5.977  -7.162  1.00  0.00    -0.497 OA
ATOM     19  C   UNL     1      26.105   4.760  -6.759  1.00  0.00     0.278 C 
ENDBRANCH  13  18
ENDBRANCH   1  12
BRANCH   8  20
ATOM     20  O   UNL     1      26.270   5.223 -15.304  1.00  0.00    -0.490 OA
ATOM     21  C   UNL     1      25.697   3.919 -15.323  1.00  0.00     0.278 C 
ENDBRANCH   8  20
BRANCH  11  22
ATOM     22  O   UNL     1      23.388   9.779 -16.967  1.00  0.00    -0.492 OA
ATOM     23  C   UNL     1      22.079   9.804 -17.526  1.00  0.00     0.278 C 
ENDBRANCH  11  22
BRANCH   9  24
ATOM     24  O   UNL     1      26.279   5.952 -18.061  1.00  0.00    -0.490 OA
ATOM     25  C   UNL     1      27.592   6.349 -18.440  1.00  0.00     0.279 C 
ENDBRANCH   9  24
BRANCH  10  26
ATOM     26  O   UNL     1      24.544   8.064 -18.943  1.00  0.00    -0.490 OA
ATOM     27  C   UNL     1      23.664   7.385 -19.831  1.00  0.00     0.278 C 
ENDBRANCH  10  26
TORSDOF 6
ENDMDL
MODEL 4
REMARK VINA RESULT:    -5.002      2.151      2.759
REMARK INTER + INTRA:          -7.462
REMARK INTER:                  -6.829
REMARK INTRA:                  -0.632
REMARK UNBOUND:                -0.705
REMARK SMILES COc1ccc(-c2cc(=O)c3c(OC)c(OC)c(OC)c(OC)c3o2)cc1
REMARK SMILES IDX 7 1 8 2 9 3 10 4 11 5 24 6 25 7 21 8 18 9 15 10 12 11 6 12
REMARK SMILES IDX 3 13 4 14 27 15 5 16 26 17 2 18 1 19 22 20 23 21 13 22 14 23
REMARK SMILES IDX 19 24 20 25 16 26 17 27
REMARK H PARENT
REMARK Flexibility Score: inf
ROOT
ATOM      1  C   UNL     1      23.564   9.187 -10.602  1.00  0.00     0.138 A 
ATOM      2  C   UNL     1      22.205   9.509 -10.486  1.00  0.00     0.100 A 
ATOM      3  C   UNL     1      21.376   9.392 -11.601  1.00  0.00     0.197 A 
ATOM      4  O   UNL     1      20.157   9.687 -11.478  1.00  0.00    -0.289 OA
ATOM      5  C   UNL     1      21.913   8.954 -12.835  1.00  0.00     0.115 A 
ATOM      6  C   UNL     1      23.295   8.669 -12.873  1.00  0.00     0.188 A 
ATOM      7  O   UNL     1      24.042   8.792 -11.779  1.00  0.00    -0.452 OA
ATOM      8  C   UNL     1      23.903   8.243 -14.052  1.00  0.00     0.209 A 
ATOM      9  C   UNL     1      23.151   8.160 -15.239  1.00  0.00     0.211 A 
ATOM     10  C   UNL     1      21.749   8.366 -15.212  1.00  0.00     0.208 A 
ATOM     11  C   UNL     1      21.126   8.789 -14.004  1.00  0.00     0.179 A 
ENDROOT
BRANCH   1  12
ATOM     12  C   UNL     1      24.497   9.286  -9.452  1.00  0.00     0.018 A 
ATOM     13  C   UNL     1      26.310   9.519  -7.297  1.00  0.00     0.118 A 
ATOM     14  C   UNL     1      25.978  10.643  -8.074  1.00  0.00     0.047 A 
ATOM     15  C   UNL     1      25.734   8.283  -7.609  1.00  0.00     0.047 A 
ATOM     16  C   UNL     1      25.085  10.526  -9.143  1.00  0.00     0.016 A 
ATOM     17  C   UNL     1      24.840   8.162  -8.676  1.00  0.00     0.016 A 
BRANCH  13  18
ATOM     18  O   UNL     1      27.203   9.586  -6.217  1.00  0.00    -0.497 OA
ATOM     19  C   UNL     1      28.229   8.632  -5.963  1.00  0.00     0.278 C 
ENDBRANCH  13  18
ENDBRANCH   1  12
BRANCH   8  20
ATOM     20  O   UNL     1      25.268   7.912 -14.001  1.00  0.00    -0.490 OA
ATOM     21  C   UNL     1      25.762   6.590 -13.808  1.00  0.00     0.278 C 
ENDBRANCH   8  20
BRANCH  11  22
ATOM     22  O   UNL     1      19.744   9.054 -13.909  1.00  0.00    -0.492 OA
ATOM     23  C   UNL     1      19.006  10.067 -14.583  1.00  0.00     0.278 C 
ENDBRANCH  11  22
BRANCH   9  24
ATOM     24  O   UNL     1      23.803   7.927 -16.449  1.00  0.00    -0.490 OA
ATOM     25  C   UNL     1      23.905   6.616 -16.992  1.00  0.00     0.279 C 
ENDBRANCH   9  24
BRANCH  10  26
ATOM     26  O   UNL     1      20.944   8.175 -16.352  1.00  0.00    -0.490 OA
ATOM     27  C   UNL     1      20.189   7.015 -16.683  1.00  0.00     0.278 C 
ENDBRANCH  10  26
TORSDOF 6
ENDMDL
MODEL 5
REMARK VINA RESULT:    -5.001      2.572      4.539
REMARK INTER + INTRA:          -7.461
REMARK INTER:                  -7.146
REMARK INTRA:                  -0.315
REMARK UNBOUND:                -0.705
REMARK SMILES COc1ccc(-c2cc(=O)c3c(OC)c(OC)c(OC)c(OC)c3o2)cc1
REMARK SMILES IDX 7 1 8 2 9 3 10 4 11 5 24 6 25 7 21 8 18 9 15 10 12 11 6 12
REMARK SMILES IDX 3 13 4 14 27 15 5 16 26 17 2 18 1 19 22 20 23 21 13 22 14 23
REMARK SMILES IDX 19 24 20 25 16 26 17 27
REMARK H PARENT
REMARK Flexibility Score: inf
ROOT
ATOM      1  C   UNL     1      24.581   8.021 -14.426  1.00  0.00     0.138 A 
ATOM      2  C   UNL     1      24.414   8.874 -15.525  1.00  0.00     0.100 A 
ATOM      3  C   UNL     1      24.656   8.390 -16.810  1.00  0.00     0.197 A 
ATOM      4  O   UNL     1      24.501   9.172 -17.787  1.00  0.00    -0.289 OA
ATOM      5  C   UNL     1      25.071   7.050 -16.992  1.00  0.00     0.115 A 
ATOM      6  C   UNL     1      25.235   6.263 -15.832  1.00  0.00     0.188 A 
ATOM      7  O   UNL     1      24.986   6.770 -14.627  1.00  0.00    -0.452 OA
ATOM      8  C   UNL     1      25.651   4.935 -15.923  1.00  0.00     0.209 A 
ATOM      9  C   UNL     1      25.979   4.388 -17.178  1.00  0.00     0.211 A 
ATOM     10  C   UNL     1      25.750   5.132 -18.363  1.00  0.00     0.208 A 
ATOM     11  C   UNL     1      25.312   6.482 -18.269  1.00  0.00     0.179 A 
ENDROOT
BRANCH   1  12
ATOM     12  C   UNL     1      24.335   8.474 -13.034  1.00  0.00     0.018 A 
ATOM     13  C   UNL     1      23.898   9.396 -10.399  1.00  0.00     0.118 A 
ATOM     14  C   UNL     1      23.801  10.280 -11.488  1.00  0.00     0.047 A 
ATOM     15  C   UNL     1      24.218   8.056 -10.637  1.00  0.00     0.047 A 
ATOM     16  C   UNL     1      24.023   9.824 -12.791  1.00  0.00     0.016 A 
ATOM     17  C   UNL     1      24.439   7.596 -11.938  1.00  0.00     0.016 A 
BRANCH  13  18
ATOM     18  O   UNL     1      23.687   9.807  -9.074  1.00  0.00    -0.497 OA
ATOM     19  C   UNL     1      24.404   9.302  -7.953  1.00  0.00     0.278 C 
ENDBRANCH  13  18
ENDBRANCH   1  12
BRANCH   8  20
ATOM     20  O   UNL     1      25.729   4.191 -14.734  1.00  0.00    -0.490 OA
ATOM     21  C   UNL     1      26.582   4.518 -13.642  1.00  0.00     0.278 C 
ENDBRANCH   8  20
BRANCH  11  22
ATOM     22  O   UNL     1      25.102   7.298 -19.401  1.00  0.00    -0.492 OA
ATOM     23  C   UNL     1      26.075   7.756 -20.333  1.00  0.00     0.278 C 
ENDBRANCH  11  22
BRANCH   9  24
ATOM     24  O   UNL     1      26.580   3.132 -17.242  1.00  0.00    -0.490 OA
ATOM     25  C   UNL     1      25.809   1.954 -17.448  1.00  0.00     0.279 C 
ENDBRANCH   9  24
BRANCH  10  26
ATOM     26  O   UNL     1      25.951   4.577 -19.642  1.00  0.00    -0.490 OA
ATOM     27  C   UNL     1      24.976   3.946 -20.465  1.00  0.00     0.278 C 
ENDBRANCH  10  26
TORSDOF 6
ENDMDL
MODEL 6
REMARK VINA RESULT:    -4.831      2.746      4.828
REMARK INTER + INTRA:          -7.231
REMARK INTER:                  -6.629
REMARK INTRA:                  -0.601
REMARK UNBOUND:                -0.705
REMARK SMILES COc1ccc(-c2cc(=O)c3c(OC)c(OC)c(OC)c(OC)c3o2)cc1
REMARK SMILES IDX 7 1 8 2 9 3 10 4 11 5 24 6 25 7 21 8 18 9 15 10 12 11 6 12
REMARK SMILES IDX 3 13 4 14 27 15 5 16 26 17 2 18 1 19 22 20 23 21 13 22 14 23
REMARK SMILES IDX 19 24 20 25 16 26 17 27
REMARK H PARENT
REMARK Flexibility Score: inf
ROOT
ATOM      1  C   UNL     1      25.137   7.304 -13.535  1.00  0.00     0.138 A 
ATOM      2  C   UNL     1      25.644   6.008 -13.370  1.00  0.00     0.100 A 
ATOM      3  C   UNL     1      25.903   5.225 -14.495  1.00  0.00     0.197 A 
ATOM      4  O   UNL     1      26.357   4.061 -14.327  1.00  0.00    -0.289 OA
ATOM      5  C   UNL     1      25.648   5.743 -15.787  1.00  0.00     0.115 A 
ATOM      6  C   UNL     1      25.119   7.049 -15.866  1.00  0.00     0.188 A 
ATOM      7  O   UNL     1      24.895   7.757 -14.762  1.00  0.00    -0.452 OA
ATOM      8  C   UNL     1      24.831   7.629 -17.100  1.00  0.00     0.209 A 
ATOM      9  C   UNL     1      25.003   6.883 -18.282  1.00  0.00     0.211 A 
ATOM     10  C   UNL     1      25.603   5.599 -18.236  1.00  0.00     0.208 A 
ATOM     11  C   UNL     1      25.909   5.014 -16.975  1.00  0.00     0.179 A 
ENDROOT
BRANCH   1  12
ATOM     12  C   UNL     1      24.846   8.187 -12.379  1.00  0.00     0.018 A 
ATOM     13  C   UNL     1      24.242   9.828 -10.158  1.00  0.00     0.118 A 
ATOM     14  C   UNL     1      24.179   8.427 -10.048  1.00  0.00     0.047 A 
ATOM     15  C   UNL     1      24.602  10.398 -11.384  1.00  0.00     0.047 A 
ATOM     16  C   UNL     1      24.473   7.617 -11.149  1.00  0.00     0.016 A 
ATOM     17  C   UNL     1      24.898   9.591 -12.486  1.00  0.00     0.016 A 
BRANCH  13  18
ATOM     18  O   UNL     1      23.953  10.683  -9.084  1.00  0.00    -0.497 OA
ATOM     19  C   UNL     1      22.645  11.125  -8.738  1.00  0.00     0.278 C 
ENDBRANCH  13  18
ENDBRANCH   1  12
BRANCH   8  20
ATOM     20  O   UNL     1      24.371   8.956 -17.108  1.00  0.00    -0.490 OA
ATOM     21  C   UNL     1      25.203  10.088 -17.344  1.00  0.00     0.278 C 
ENDBRANCH   8  20
BRANCH  11  22
ATOM     22  O   UNL     1      26.469   3.725 -16.847  1.00  0.00    -0.492 OA
ATOM     23  C   UNL     1      25.828   2.475 -17.074  1.00  0.00     0.278 C 
ENDBRANCH  11  22
BRANCH   9  24
ATOM     24  O   UNL     1      24.528   7.394 -19.489  1.00  0.00    -0.490 OA
ATOM     25  C   UNL     1      23.148   7.319 -19.830  1.00  0.00     0.279 C 
ENDBRANCH   9  24
BRANCH  10  26
ATOM     26  O   UNL     1      25.901   4.873 -19.405  1.00  0.00    -0.490 OA
ATOM     27  C   UNL     1      25.010   4.056 -20.156  1.00  0.00     0.278 C 
ENDBRANCH  10  26
TORSDOF 6
ENDMDL
MODEL 7
REMARK VINA RESULT:    -4.682      2.503      4.644
REMARK INTER + INTRA:          -7.030
REMARK INTER:                  -6.492
REMARK INTRA:                  -0.538
REMARK UNBOUND:                -0.705
REMARK SMILES COc1ccc(-c2cc(=O)c3c(OC)c(OC)c(OC)c(OC)c3o2)cc1
REMARK SMILES IDX 7 1 8 2 9 3 10 4 11 5 24 6 25 7 21 8 18 9 15 10 12 11 6 12
REMARK SMILES IDX 3 13 4 14 27 15 5 16 26 17 2 18 1 19 22 20 23 21 13 22 14 23
REMARK SMILES IDX 19 24 20 25 16 26 17 27
REMARK H PARENT
REMARK Flexibility Score: inf
ROOT
ATOM      1  C   UNL     1      24.878   7.755 -13.246  1.00  0.00     0.138 A 
ATOM      2  C   UNL     1      25.659   6.596 -13.153  1.00  0.00     0.100 A 
ATOM      3  C   UNL     1      25.887   5.830 -14.296  1.00  0.00     0.197 A 
ATOM      4  O   UNL     1      26.592   4.790 -14.193  1.00  0.00    -0.289 OA
ATOM      5  C   UNL     1      25.327   6.227 -15.533  1.00  0.00     0.115 A 
ATOM      6  C   UNL     1      24.536   7.396 -15.537  1.00  0.00     0.188 A 
ATOM      7  O   UNL     1      24.353   8.095 -14.420  1.00  0.00    -0.452 OA
ATOM      8  C   UNL     1      23.939   7.850 -16.713  1.00  0.00     0.209 A 
ATOM      9  C   UNL     1      24.066   7.100 -17.897  1.00  0.00     0.211 A 
ATOM     10  C   UNL     1      24.916   5.966 -17.938  1.00  0.00     0.208 A 
ATOM     11  C   UNL     1      25.535   5.512 -16.740  1.00  0.00     0.179 A 
ENDROOT
BRANCH   1  12
ATOM     12  C   UNL     1      24.603   8.615 -12.067  1.00  0.00     0.018 A 
ATOM     13  C   UNL     1      24.135  10.287  -9.838  1.00  0.00     0.118 A 
ATOM     14  C   UNL     1      24.627  10.825 -11.041  1.00  0.00     0.047 A 
ATOM     15  C   UNL     1      23.886   8.914  -9.758  1.00  0.00     0.047 A 
ATOM     16  C   UNL     1      24.863   9.995 -12.142  1.00  0.00     0.016 A 
ATOM     17  C   UNL     1      24.119   8.082 -10.857  1.00  0.00     0.016 A 
BRANCH  13  18
ATOM     18  O   UNL     1      23.886  11.078  -8.706  1.00  0.00    -0.497 OA
ATOM     19  C   UNL     1      22.642  11.123  -8.016  1.00  0.00     0.278 C 
ENDBRANCH  13  18
ENDBRANCH   1  12
BRANCH   8  20
ATOM     20  O   UNL     1      23.222   9.056 -16.659  1.00  0.00    -0.490 OA
ATOM     21  C   UNL     1      21.819   9.141 -16.426  1.00  0.00     0.278 C 
ENDBRANCH   8  20
BRANCH  11  22
ATOM     22  O   UNL     1      26.361   4.368 -16.692  1.00  0.00    -0.492 OA
ATOM     23  C   UNL     1      25.957   3.005 -16.743  1.00  0.00     0.278 C 
ENDBRANCH  11  22
BRANCH   9  24
ATOM     24  O   UNL     1      23.308   7.450 -19.014  1.00  0.00    -0.490 OA
ATOM     25  C   UNL     1      23.825   8.321 -20.013  1.00  0.00     0.279 C 
ENDBRANCH   9  24
BRANCH  10  26
ATOM     26  O   UNL     1      25.164   5.262 -19.132  1.00  0.00    -0.490 OA
ATOM     27  C   UNL     1      24.309   4.313 -19.760  1.00  0.00     0.278 C 
ENDBRANCH  10  26
TORSDOF 6
ENDMDL
MODEL 8
REMARK VINA RESULT:    -4.679      2.850      7.369
REMARK INTER + INTRA:          -7.026
REMARK INTER:                  -6.423
REMARK INTRA:                  -0.603
REMARK UNBOUND:                -0.705
REMARK SMILES COc1ccc(-c2cc(=O)c3c(OC)c(OC)c(OC)c(OC)c3o2)cc1
REMARK SMILES IDX 7 1 8 2 9 3 10 4 11 5 24 6 25 7 21 8 18 9 15 10 12 11 6 12
REMARK SMILES IDX 3 13 4 14 27 15 5 16 26 17 2 18 1 19 22 20 23 21 13 22 14 23
REMARK SMILES IDX 19 24 20 25 16 26 17 27
REMARK H PARENT
REMARK Flexibility Score: inf
ROOT
ATOM      1  C   UNL     1      24.493   6.076 -16.337  1.00  0.00     0.138 A 
ATOM      2  C   UNL     1      25.377   6.046 -15.250  1.00  0.00     0.100 A 
ATOM      3  C   UNL     1      25.235   6.983 -14.226  1.00  0.00     0.197 A 
ATOM      4  O   UNL     1      26.040   6.942 -13.257  1.00  0.00    -0.289 OA
ATOM      5  C   UNL     1      24.206   7.951 -14.295  1.00  0.00     0.115 A 
ATOM      6  C   UNL     1      23.371   7.925 -15.433  1.00  0.00     0.188 A 
ATOM      7  O   UNL     1      23.545   7.007 -16.380  1.00  0.00    -0.452 OA
ATOM      8  C   UNL     1      22.340   8.851 -15.582  1.00  0.00     0.209 A 
ATOM      9  C   UNL     1      22.168   9.870 -14.626  1.00  0.00     0.211 A 
ATOM     10  C   UNL     1      22.943   9.873 -13.439  1.00  0.00     0.208 A 
ATOM     11  C   UNL     1      23.987   8.918 -13.281  1.00  0.00     0.179 A 
ENDROOT
BRANCH   1  12
ATOM     12  C   UNL     1      24.589   5.104 -17.455  1.00  0.00     0.018 A 
ATOM     13  C   UNL     1      24.709   3.272 -19.603  1.00  0.00     0.118 A 
ATOM     14  C   UNL     1      24.096   4.527 -19.770  1.00  0.00     0.047 A 
ATOM     15  C   UNL     1      25.254   2.942 -18.358  1.00  0.00     0.047 A 
ATOM     16  C   UNL     1      24.032   5.430 -18.704  1.00  0.00     0.016 A 
ATOM     17  C   UNL     1      25.194   3.843 -17.291  1.00  0.00     0.016 A 
BRANCH  13  18
ATOM     18  O   UNL     1      24.795   2.331 -20.640  1.00  0.00    -0.497 OA
ATOM     19  C   UNL     1      24.394   0.970 -20.525  1.00  0.00     0.278 C 
ENDBRANCH  13  18
ENDBRANCH   1  12
BRANCH   8  20
ATOM     20  O   UNL     1      21.505   8.725 -16.705  1.00  0.00    -0.490 OA
ATOM     21  C   UNL     1      20.344   7.900 -16.748  1.00  0.00     0.278 C 
ENDBRANCH   8  20
BRANCH  11  22
ATOM     22  O   UNL     1      24.826   8.884 -12.147  1.00  0.00    -0.492 OA
ATOM     23  C   UNL     1      24.497   8.437 -10.837  1.00  0.00     0.278 C 
ENDBRANCH  11  22
BRANCH   9  24
ATOM     24  O   UNL     1      21.270  10.904 -14.881  1.00  0.00    -0.490 OA
ATOM     25  C   UNL     1      19.902  10.805 -14.500  1.00  0.00     0.279 C 
ENDBRANCH   9  24
BRANCH  10  26
ATOM     26  O   UNL     1      22.720  10.802 -12.405  1.00  0.00    -0.490 OA
ATOM     27  C   UNL     1      21.756  10.709 -11.362  1.00  0.00     0.278 C 
ENDBRANCH  10  26
TORSDOF 6
ENDMDL
MODEL 9
REMARK VINA RESULT:    -4.664      2.445      3.876
REMARK INTER + INTRA:          -7.005
REMARK INTER:                  -6.466
REMARK INTRA:                  -0.539
REMARK UNBOUND:                -0.705
REMARK SMILES COc1ccc(-c2cc(=O)c3c(OC)c(OC)c(OC)c(OC)c3o2)cc1
REMARK SMILES IDX 7 1 8 2 9 3 10 4 11 5 24 6 25 7 21 8 18 9 15 10 12 11 6 12
REMARK SMILES IDX 3 13 4 14 27 15 5 16 26 17 2 18 1 19 22 20 23 21 13 22 14 23
REMARK SMILES IDX 19 24 20 25 16 26 17 27
REMARK H PARENT
REMARK Flexibility Score: inf
ROOT
ATOM      1  C   UNL     1      24.118   8.365 -14.279  1.00  0.00     0.138 A 
ATOM      2  C   UNL     1      23.259   8.950 -15.218  1.00  0.00     0.100 A 
ATOM      3  C   UNL     1      23.181   8.414 -16.503  1.00  0.00     0.197 A 
ATOM      4  O   UNL     1      22.403   8.955 -17.335  1.00  0.00    -0.289 OA
ATOM      5  C   UNL     1      23.971   7.291 -16.847  1.00  0.00     0.115 A 
ATOM      6  C   UNL     1      24.825   6.774 -15.849  1.00  0.00     0.188 A 
ATOM      7  O   UNL     1      24.858   7.319 -14.636  1.00  0.00    -0.452 OA
ATOM      8  C   UNL     1      25.643   5.675 -16.110  1.00  0.00     0.209 A 
ATOM      9  C   UNL     1      25.673   5.115 -17.401  1.00  0.00     0.211 A 
ATOM     10  C   UNL     1      24.770   5.566 -18.397  1.00  0.00     0.208 A 
ATOM     11  C   UNL     1      23.927   6.679 -18.125  1.00  0.00     0.179 A 
ENDROOT
BRANCH   1  12
ATOM     12  C   UNL     1      24.242   8.885 -12.895  1.00  0.00     0.018 A 
ATOM     13  C   UNL     1      24.424   9.838 -10.240  1.00  0.00     0.118 A 
ATOM     14  C   UNL     1      24.098   8.494 -10.494  1.00  0.00     0.047 A 
ATOM     15  C   UNL     1      24.651  10.698 -11.320  1.00  0.00     0.047 A 
ATOM     16  C   UNL     1      24.003   8.025 -11.808  1.00  0.00     0.016 A 
ATOM     17  C   UNL     1      24.559  10.233 -12.634  1.00  0.00     0.016 A 
BRANCH  13  18
ATOM     18  O   UNL     1      24.528  10.357  -8.941  1.00  0.00    -0.497 OA
ATOM     19  C   UNL     1      25.347   9.802  -7.917  1.00  0.00     0.278 C 
ENDBRANCH  13  18
ENDBRANCH   1  12
BRANCH   8  20
ATOM     20  O   UNL     1      26.417   5.171 -15.052  1.00  0.00    -0.490 OA
ATOM     21  C   UNL     1      26.075   4.015 -14.293  1.00  0.00     0.278 C 
ENDBRANCH   8  20
BRANCH  11  22
ATOM     22  O   UNL     1      23.033   7.211 -19.079  1.00  0.00    -0.492 OA
ATOM     23  C   UNL     1      23.354   7.958 -20.247  1.00  0.00     0.278 C 
ENDBRANCH  11  22
BRANCH   9  24
ATOM     24  O   UNL     1      26.633   4.151 -17.707  1.00  0.00    -0.490 OA
ATOM     25  C   UNL     1      26.337   2.762 -17.622  1.00  0.00     0.279 C 
ENDBRANCH   9  24
BRANCH  10  26
ATOM     26  O   UNL     1      24.687   4.951 -19.661  1.00  0.00    -0.490 OA
ATOM     27  C   UNL     1      25.589   5.105 -20.750  1.00  0.00     0.278 C 
ENDBRANCH  10  26
TORSDOF 6
ENDMDL
