MODEL 1
REMARK VINA RESULT:    -3.017      0.000      0.000
REMARK INTER + INTRA:          -8.604
REMARK INTER:                  -5.486
REMARK INTRA:                  -3.117
REMARK UNBOUND:                -3.117
REMARK SMILES CCCCCC=CCC=CCCCCCCCC(=O)[O-]
REMARK SMILES IDX 11 1 12 2 13 3 14 4 15 5 16 6 17 7 18 8 19 9 20 10 10 11
REMARK SMILES IDX 9 12 8 13 7 14 6 15 5 16 4 17 3 18 2 19 1 20
REMARK H PARENT
REMARK Flexibility Score: inf
ROOT
ATOM      1  C   UNL     1    -104.009 -27.156 -12.880  1.00  0.00     0.027 C 
ENDROOT
BRANCH   1   2
ATOM      2  C   UNL     1    -103.019 -28.154 -12.260  1.00  0.00     0.004 C 
BRANCH   2   3
ATOM      3  C   UNL     1    -101.579 -27.619 -12.258  1.00  0.00     0.000 C 
BRANCH   3   4
ATOM      4  C   UNL     1    -100.568 -28.768 -12.181  1.00  0.00     0.000 C 
BRANCH   4   5
ATOM      5  C   UNL     1     -99.434 -28.574 -13.197  1.00  0.00     0.000 C 
BRANCH   5   6
ATOM      6  C   UNL     1     -98.243 -29.512 -12.944  1.00  0.00     0.006 C 
BRANCH   6   7
ATOM      7  C   UNL     1     -98.126 -29.938 -11.474  1.00  0.00     0.053 C 
BRANCH   7   8
ATOM      8  C   UNL     1     -96.693 -30.152 -11.105  1.00  0.00     0.041 C 
ATOM      9  O   UNL     1     -95.774 -29.688 -11.830  1.00  0.00    -0.550 OA
ATOM     10  O   UNL     1     -96.369 -30.821  -9.931  1.00  0.00    -0.550 OA
ENDBRANCH   7   8
ENDBRANCH   6   7
ENDBRANCH   5   6
ENDBRANCH   4   5
ENDBRANCH   3   4
ENDBRANCH   2   3
ENDBRANCH   1   2
BRANCH   1  11
ATOM     11  C   UNL     1    -104.669 -27.703 -14.122  1.00  0.00    -0.031 C 
ATOM     12  C   UNL     1    -104.193 -27.563 -15.374  1.00  0.00    -0.027 C 
BRANCH  12  13
ATOM     13  C   UNL     1    -102.953 -26.793 -15.753  1.00  0.00     0.054 C 
BRANCH  13  14
ATOM     14  C   UNL     1    -101.799 -27.733 -15.938  1.00  0.00    -0.027 C 
ATOM     15  C   UNL     1    -101.986 -29.057 -16.044  1.00  0.00    -0.031 C 
BRANCH  15  16
ATOM     16  C   UNL     1    -100.833 -30.004 -16.232  1.00  0.00     0.027 C 
BRANCH  16  17
ATOM     17  C   UNL     1    -100.965 -31.227 -15.314  1.00  0.00     0.004 C 
BRANCH  17  18
ATOM     18  C   UNL     1    -102.243 -31.143 -14.467  1.00  0.00     0.000 C 
BRANCH  18  19
ATOM     19  C   UNL     1    -102.134 -31.932 -13.154  1.00  0.00    -0.003 C 
ATOM     20  C   UNL     1    -100.715 -32.427 -12.878  1.00  0.00     0.004 C 
ENDBRANCH  18  19
ENDBRANCH  17  18
ENDBRANCH  16  17
ENDBRANCH  15  16
ENDBRANCH  13  14
ENDBRANCH  12  13
ENDBRANCH   1  11
TORSDOF 14
ENDMDL
MODEL 2
REMARK VINA RESULT:    -2.983      1.559      4.012
REMARK INTER + INTRA:          -8.542
REMARK INTER:                  -6.016
REMARK INTRA:                  -2.526
REMARK UNBOUND:                -3.117
REMARK SMILES CCCCCC=CCC=CCCCCCCCC(=O)[O-]
REMARK SMILES IDX 11 1 12 2 13 3 14 4 15 5 16 6 17 7 18 8 19 9 20 10 10 11
REMARK SMILES IDX 9 12 8 13 7 14 6 15 5 16 4 17 3 18 2 19 1 20
REMARK H PARENT
REMARK Flexibility Score: inf
ROOT
ATOM      1  C   UNL     1    -103.113 -29.897 -12.501  1.00  0.00     0.027 C 
ENDROOT
BRANCH   1   2
ATOM      2  C   UNL     1    -103.754 -28.501 -12.508  1.00  0.00     0.004 C 
BRANCH   2   3
ATOM      3  C   UNL     1    -102.705 -27.381 -12.461  1.00  0.00     0.000 C 
BRANCH   3   4
ATOM      4  C   UNL     1    -101.318 -27.943 -12.127  1.00  0.00     0.000 C 
BRANCH   4   5
ATOM      5  C   UNL     1    -100.329 -27.689 -13.274  1.00  0.00     0.000 C 
BRANCH   5   6
ATOM      6  C   UNL     1     -99.280 -28.803 -13.411  1.00  0.00     0.006 C 
BRANCH   6   7
ATOM      7  C   UNL     1     -99.253 -29.745 -12.199  1.00  0.00     0.053 C 
BRANCH   7   8
ATOM      8  C   UNL     1     -97.876 -29.810 -11.619  1.00  0.00     0.041 C 
ATOM      9  O   UNL     1     -97.715 -29.881 -10.372  1.00  0.00    -0.550 OA
ATOM     10  O   UNL     1     -96.769 -29.845 -12.458  1.00  0.00    -0.550 OA
ENDBRANCH   7   8
ENDBRANCH   6   7
ENDBRANCH   5   6
ENDBRANCH   4   5
ENDBRANCH   3   4
ENDBRANCH   2   3
ENDBRANCH   1   2
BRANCH   1  11
ATOM     11  C   UNL     1    -103.687 -30.794 -13.571  1.00  0.00    -0.031 C 
ATOM     12  C   UNL     1    -103.315 -30.785 -14.865  1.00  0.00    -0.027 C 
BRANCH  12  13
ATOM     13  C   UNL     1    -102.305 -29.846 -15.474  1.00  0.00     0.054 C 
BRANCH  13  14
ATOM     14  C   UNL     1    -103.004 -28.684 -16.118  1.00  0.00    -0.027 C 
ATOM     15  C   UNL     1    -102.458 -27.459 -16.131  1.00  0.00    -0.031 C 
BRANCH  15  16
ATOM     16  C   UNL     1    -103.152 -26.292 -16.776  1.00  0.00     0.027 C 
BRANCH  16  17
ATOM     17  C   UNL     1    -104.674 -26.488 -16.783  1.00  0.00     0.004 C 
BRANCH  17  18
ATOM     18  C   UNL     1    -105.386 -25.287 -16.144  1.00  0.00     0.000 C 
BRANCH  18  19
ATOM     19  C   UNL     1    -104.424 -24.374 -15.370  1.00  0.00    -0.003 C 
ATOM     20  C   UNL     1    -104.646 -24.427 -13.859  1.00  0.00     0.004 C 
ENDBRANCH  18  19
ENDBRANCH  17  18
ENDBRANCH  16  17
ENDBRANCH  15  16
ENDBRANCH  13  14
ENDBRANCH  12  13
ENDBRANCH   1  11
TORSDOF 14
ENDMDL
MODEL 3
REMARK VINA RESULT:    -2.952      2.064      4.444
REMARK INTER + INTRA:          -8.485
REMARK INTER:                  -6.173
REMARK INTRA:                  -2.313
REMARK UNBOUND:                -3.117
REMARK SMILES CCCCCC=CCC=CCCCCCCCC(=O)[O-]
REMARK SMILES IDX 11 1 12 2 13 3 14 4 15 5 16 6 17 7 18 8 19 9 20 10 10 11
REMARK SMILES IDX 9 12 8 13 7 14 6 15 5 16 4 17 3 18 2 19 1 20
REMARK H PARENT
REMARK Flexibility Score: inf
ROOT
ATOM      1  C   UNL     1    -103.467 -26.106 -16.835  1.00  0.00     0.027 C 
ENDROOT
BRANCH   1   2
ATOM      2  C   UNL     1    -102.597 -26.831 -15.798  1.00  0.00     0.004 C 
BRANCH   2   3
ATOM      3  C   UNL     1    -101.888 -28.057 -16.392  1.00  0.00     0.000 C 
BRANCH   3   4
ATOM      4  C   UNL     1    -102.789 -29.296 -16.326  1.00  0.00     0.000 C 
BRANCH   4   5
ATOM      5  C   UNL     1    -101.964 -30.564 -16.063  1.00  0.00     0.000 C 
BRANCH   5   6
ATOM      6  C   UNL     1    -100.479 -30.264 -15.808  1.00  0.00     0.006 C 
BRANCH   6   7
ATOM      7  C   UNL     1     -99.945 -30.946 -14.541  1.00  0.00     0.053 C 
BRANCH   7   8
ATOM      8  C   UNL     1     -98.472 -30.724 -14.409  1.00  0.00     0.041 C 
ATOM      9  O   UNL     1     -98.026 -29.907 -13.561  1.00  0.00    -0.550 OA
ATOM     10  O   UNL     1     -97.585 -31.457 -15.189  1.00  0.00    -0.550 OA
ENDBRANCH   7   8
ENDBRANCH   6   7
ENDBRANCH   5   6
ENDBRANCH   4   5
ENDBRANCH   3   4
ENDBRANCH   2   3
ENDBRANCH   1   2
BRANCH   1  11
ATOM     11  C   UNL     1    -104.928 -26.104 -16.454  1.00  0.00    -0.031 C 
ATOM     12  C   UNL     1    -105.527 -25.163 -15.700  1.00  0.00    -0.027 C 
BRANCH  12  13
ATOM     13  C   UNL     1    -104.832 -23.984 -15.065  1.00  0.00     0.054 C 
BRANCH  13  14
ATOM     14  C   UNL     1    -104.733 -24.182 -13.581  1.00  0.00    -0.027 C 
ATOM     15  C   UNL     1    -104.308 -25.342 -13.057  1.00  0.00    -0.031 C 
BRANCH  15  16
ATOM     16  C   UNL     1    -104.203 -25.545 -11.571  1.00  0.00     0.027 C 
BRANCH  16  17
ATOM     17  C   UNL     1    -103.463 -26.849 -11.242  1.00  0.00     0.004 C 
BRANCH  17  18
ATOM     18  C   UNL     1    -103.518 -27.826 -12.425  1.00  0.00     0.000 C 
BRANCH  18  19
ATOM     19  C   UNL     1    -102.267 -28.712 -12.517  1.00  0.00    -0.003 C 
ATOM     20  C   UNL     1    -100.984 -27.905 -12.705  1.00  0.00     0.004 C 
ENDBRANCH  18  19
ENDBRANCH  17  18
ENDBRANCH  16  17
ENDBRANCH  15  16
ENDBRANCH  13  14
ENDBRANCH  12  13
ENDBRANCH   1  11
TORSDOF 14
ENDMDL
MODEL 4
REMARK VINA RESULT:    -2.929      2.495      5.305
REMARK INTER + INTRA:          -8.444
REMARK INTER:                  -6.341
REMARK INTRA:                  -2.103
REMARK UNBOUND:                -3.117
REMARK SMILES CCCCCC=CCC=CCCCCCCCC(=O)[O-]
REMARK SMILES IDX 11 1 12 2 13 3 14 4 15 5 16 6 17 7 18 8 19 9 20 10 10 11
REMARK SMILES IDX 9 12 8 13 7 14 6 15 5 16 4 17 3 18 2 19 1 20
REMARK H PARENT
REMARK Flexibility Score: inf
ROOT
ATOM      1  C   UNL     1    -102.719 -29.572 -16.237  1.00  0.00     0.027 C 
ENDROOT
BRANCH   1   2
ATOM      2  C   UNL     1    -103.716 -29.705 -15.076  1.00  0.00     0.004 C 
BRANCH   2   3
ATOM      3  C   UNL     1    -103.010 -29.807 -13.715  1.00  0.00     0.000 C 
BRANCH   3   4
ATOM      4  C   UNL     1    -103.384 -28.624 -12.814  1.00  0.00     0.000 C 
BRANCH   4   5
ATOM      5  C   UNL     1    -102.165 -27.731 -12.541  1.00  0.00     0.000 C 
BRANCH   5   6
ATOM      6  C   UNL     1    -100.896 -28.539 -12.229  1.00  0.00     0.006 C 
BRANCH   6   7
ATOM      7  C   UNL     1     -99.746 -28.236 -13.199  1.00  0.00     0.053 C 
BRANCH   7   8
ATOM      8  C   UNL     1     -98.761 -29.360 -13.210  1.00  0.00     0.041 C 
ATOM      9  O   UNL     1     -98.690 -30.133 -14.201  1.00  0.00    -0.550 OA
ATOM     10  O   UNL     1     -97.883 -29.526 -12.145  1.00  0.00    -0.550 OA
ENDBRANCH   7   8
ENDBRANCH   6   7
ENDBRANCH   5   6
ENDBRANCH   4   5
ENDBRANCH   3   4
ENDBRANCH   2   3
ENDBRANCH   1   2
BRANCH   1  11
ATOM     11  C   UNL     1    -101.907 -28.303 -16.151  1.00  0.00    -0.031 C 
ATOM     12  C   UNL     1    -102.373 -27.070 -16.422  1.00  0.00    -0.027 C 
BRANCH  12  13
ATOM     13  C   UNL     1    -103.765 -26.752 -16.907  1.00  0.00     0.054 C 
BRANCH  13  14
ATOM     14  C   UNL     1    -104.379 -25.685 -16.048  1.00  0.00    -0.027 C 
ATOM     15  C   UNL     1    -103.991 -25.501 -14.778  1.00  0.00    -0.031 C 
BRANCH  15  16
ATOM     16  C   UNL     1    -104.601 -24.433 -13.913  1.00  0.00     0.027 C 
BRANCH  16  17
ATOM     17  C   UNL     1    -104.950 -24.978 -12.522  1.00  0.00     0.004 C 
BRANCH  17  18
ATOM     18  C   UNL     1    -104.592 -23.962 -11.427  1.00  0.00     0.000 C 
BRANCH  18  19
ATOM     19  C   UNL     1    -104.849 -22.511 -11.862  1.00  0.00    -0.003 C 
ATOM     20  C   UNL     1    -103.940 -21.511 -11.148  1.00  0.00     0.004 C 
ENDBRANCH  18  19
ENDBRANCH  17  18
ENDBRANCH  16  17
ENDBRANCH  15  16
ENDBRANCH  13  14
ENDBRANCH  12  13
ENDBRANCH   1  11
TORSDOF 14
ENDMDL
MODEL 5
REMARK VINA RESULT:    -2.925      1.999      3.381
REMARK INTER + INTRA:          -8.436
REMARK INTER:                  -6.262
REMARK INTRA:                  -2.174
REMARK UNBOUND:                -3.117
REMARK SMILES CCCCCC=CCC=CCCCCCCCC(=O)[O-]
REMARK SMILES IDX 11 1 12 2 13 3 14 4 15 5 16 6 17 7 18 8 19 9 20 10 10 11
REMARK SMILES IDX 9 12 8 13 7 14 6 15 5 16 4 17 3 18 2 19 1 20
REMARK H PARENT
REMARK Flexibility Score: inf
ROOT
ATOM      1  C   UNL     1    -104.978 -25.825 -11.831  1.00  0.00     0.027 C 
ENDROOT
BRANCH   1   2
ATOM      2  C   UNL     1    -103.858 -26.769 -12.296  1.00  0.00     0.004 C 
BRANCH   2   3
ATOM      3  C   UNL     1    -102.763 -26.936 -11.232  1.00  0.00     0.000 C 
BRANCH   3   4
ATOM      4  C   UNL     1    -101.524 -27.618 -11.825  1.00  0.00     0.000 C 
BRANCH   4   5
ATOM      5  C   UNL     1    -101.317 -29.012 -11.214  1.00  0.00     0.000 C 
BRANCH   5   6
ATOM      6  C   UNL     1    -100.463 -29.928 -12.104  1.00  0.00     0.006 C 
BRANCH   6   7
ATOM      7  C   UNL     1     -99.761 -29.168 -13.238  1.00  0.00     0.053 C 
BRANCH   7   8
ATOM      8  C   UNL     1     -98.426 -29.776 -13.526  1.00  0.00     0.041 C 
ATOM      9  O   UNL     1     -97.434 -29.502 -12.800  1.00  0.00    -0.550 OA
ATOM     10  O   UNL     1     -98.285 -30.686 -14.567  1.00  0.00    -0.550 OA
ENDBRANCH   7   8
ENDBRANCH   6   7
ENDBRANCH   5   6
ENDBRANCH   4   5
ENDBRANCH   3   4
ENDBRANCH   2   3
ENDBRANCH   1   2
BRANCH   1  11
ATOM     11  C   UNL     1    -104.585 -24.373 -11.945  1.00  0.00    -0.031 C 
ATOM     12  C   UNL     1    -104.759 -23.610 -13.040  1.00  0.00    -0.027 C 
BRANCH  12  13
ATOM     13  C   UNL     1    -105.325 -24.089 -14.354  1.00  0.00     0.054 C 
BRANCH  13  14
ATOM     14  C   UNL     1    -104.229 -24.648 -15.213  1.00  0.00    -0.027 C 
ATOM     15  C   UNL     1    -104.273 -25.909 -15.669  1.00  0.00    -0.031 C 
BRANCH  15  16
ATOM     16  C   UNL     1    -103.179 -26.474 -16.533  1.00  0.00     0.027 C 
BRANCH  16  17
ATOM     17  C   UNL     1    -102.178 -27.285 -15.700  1.00  0.00     0.004 C 
BRANCH  17  18
ATOM     18  C   UNL     1    -101.849 -28.620 -16.383  1.00  0.00     0.000 C 
BRANCH  18  19
ATOM     19  C   UNL     1    -102.827 -29.739 -15.995  1.00  0.00    -0.003 C 
ATOM     20  C   UNL     1    -103.278 -29.651 -14.538  1.00  0.00     0.004 C 
ENDBRANCH  18  19
ENDBRANCH  17  18
ENDBRANCH  16  17
ENDBRANCH  15  16
ENDBRANCH  13  14
ENDBRANCH  12  13
ENDBRANCH   1  11
TORSDOF 14
ENDMDL
MODEL 6
REMARK VINA RESULT:    -2.907      2.291      4.024
REMARK INTER + INTRA:          -8.403
REMARK INTER:                  -5.282
REMARK INTRA:                  -3.122
REMARK UNBOUND:                -3.117
REMARK SMILES CCCCCC=CCC=CCCCCCCCC(=O)[O-]
REMARK SMILES IDX 11 1 12 2 13 3 14 4 15 5 16 6 17 7 18 8 19 9 20 10 10 11
REMARK SMILES IDX 9 12 8 13 7 14 6 15 5 16 4 17 3 18 2 19 1 20
REMARK H PARENT
REMARK Flexibility Score: inf
ROOT
ATOM      1  C   UNL     1    -105.188 -28.684 -15.423  1.00  0.00     0.027 C 
ENDROOT
BRANCH   1   2
ATOM      2  C   UNL     1    -104.834 -29.648 -14.280  1.00  0.00     0.004 C 
BRANCH   2   3
ATOM      3  C   UNL     1    -103.647 -30.557 -14.635  1.00  0.00     0.000 C 
BRANCH   3   4
ATOM      4  C   UNL     1    -103.612 -30.849 -16.140  1.00  0.00     0.000 C 
BRANCH   4   5
ATOM      5  C   UNL     1    -102.167 -30.982 -16.643  1.00  0.00     0.000 C 
BRANCH   5   6
ATOM      6  C   UNL     1    -101.156 -31.161 -15.500  1.00  0.00     0.006 C 
BRANCH   6   7
ATOM      7  C   UNL     1     -99.734 -30.740 -15.896  1.00  0.00     0.053 C 
BRANCH   7   8
ATOM      8  C   UNL     1     -98.746 -31.218 -14.880  1.00  0.00     0.041 C 
ATOM      9  O   UNL     1     -97.569 -31.503 -15.225  1.00  0.00    -0.550 OA
ATOM     10  O   UNL     1     -99.109 -31.302 -13.542  1.00  0.00    -0.550 OA
ENDBRANCH   7   8
ENDBRANCH   6   7
ENDBRANCH   5   6
ENDBRANCH   4   5
ENDBRANCH   3   4
ENDBRANCH   2   3
ENDBRANCH   1   2
BRANCH   1  11
ATOM     11  C   UNL     1    -104.945 -27.242 -15.049  1.00  0.00    -0.031 C 
ATOM     12  C   UNL     1    -103.945 -26.479 -15.529  1.00  0.00    -0.027 C 
BRANCH  12  13
ATOM     13  C   UNL     1    -102.870 -26.948 -16.478  1.00  0.00     0.054 C 
BRANCH  13  14
ATOM     14  C   UNL     1    -101.731 -27.550 -15.709  1.00  0.00    -0.027 C 
ATOM     15  C   UNL     1    -101.599 -27.356 -14.388  1.00  0.00    -0.031 C 
BRANCH  15  16
ATOM     16  C   UNL     1    -100.462 -27.959 -13.612  1.00  0.00     0.027 C 
BRANCH  16  17
ATOM     17  C   UNL     1    -100.925 -28.433 -12.227  1.00  0.00     0.004 C 
BRANCH  17  18
ATOM     18  C   UNL     1    -102.426 -28.172 -12.032  1.00  0.00     0.000 C 
BRANCH  18  19
ATOM     19  C   UNL     1    -102.702 -26.964 -11.124  1.00  0.00    -0.003 C 
ATOM     20  C   UNL     1    -104.012 -26.255 -11.467  1.00  0.00     0.004 C 
ENDBRANCH  18  19
ENDBRANCH  17  18
ENDBRANCH  16  17
ENDBRANCH  15  16
ENDBRANCH  13  14
ENDBRANCH  12  13
ENDBRANCH   1  11
TORSDOF 14
ENDMDL
MODEL 7
REMARK VINA RESULT:    -2.904      4.296      6.905
REMARK INTER + INTRA:          -8.398
REMARK INTER:                  -5.710
REMARK INTRA:                  -2.688
REMARK UNBOUND:                -3.117
REMARK SMILES CCCCCC=CCC=CCCCCCCCC(=O)[O-]
REMARK SMILES IDX 11 1 12 2 13 3 14 4 15 5 16 6 17 7 18 8 19 9 20 10 10 11
REMARK SMILES IDX 9 12 8 13 7 14 6 15 5 16 4 17 3 18 2 19 1 20
REMARK H PARENT
REMARK Flexibility Score: inf
ROOT
ATOM      1  C   UNL     1    -100.642 -29.960 -15.986  1.00  0.00     0.027 C 
ENDROOT
BRANCH   1   2
ATOM      2  C   UNL     1    -101.999 -29.359 -16.384  1.00  0.00     0.004 C 
BRANCH   2   3
ATOM      3  C   UNL     1    -102.009 -27.827 -16.276  1.00  0.00     0.000 C 
BRANCH   3   4
ATOM      4  C   UNL     1    -103.310 -27.246 -16.842  1.00  0.00     0.000 C 
BRANCH   4   5
ATOM      5  C   UNL     1    -103.487 -25.779 -16.426  1.00  0.00     0.000 C 
BRANCH   5   6
ATOM      6  C   UNL     1    -103.857 -25.623 -14.942  1.00  0.00     0.006 C 
BRANCH   6   7
ATOM      7  C   UNL     1    -104.878 -24.503 -14.700  1.00  0.00     0.053 C 
BRANCH   7   8
ATOM      8  C   UNL     1    -106.106 -24.728 -15.523  1.00  0.00     0.041 C 
ATOM      9  O   UNL     1    -106.457 -23.880 -16.385  1.00  0.00    -0.550 OA
ATOM     10  O   UNL     1    -106.838 -25.899 -15.374  1.00  0.00    -0.550 OA
ENDBRANCH   7   8
ENDBRANCH   6   7
ENDBRANCH   5   6
ENDBRANCH   4   5
ENDBRANCH   3   4
ENDBRANCH   2   3
ENDBRANCH   1   2
BRANCH   1  11
ATOM     11  C   UNL     1    -100.678 -30.594 -14.617  1.00  0.00    -0.031 C 
ATOM     12  C   UNL     1    -100.299 -29.988 -13.476  1.00  0.00    -0.027 C 
BRANCH  12  13
ATOM     13  C   UNL     1     -99.726 -28.596 -13.379  1.00  0.00     0.054 C 
BRANCH  13  14
ATOM     14  C   UNL     1    -100.768 -27.643 -12.871  1.00  0.00    -0.027 C 
ATOM     15  C   UNL     1    -101.564 -27.964 -11.840  1.00  0.00    -0.031 C 
BRANCH  15  16
ATOM     16  C   UNL     1    -102.608 -27.012 -11.325  1.00  0.00     0.027 C 
BRANCH  16  17
ATOM     17  C   UNL     1    -104.007 -27.405 -11.818  1.00  0.00     0.004 C 
BRANCH  17  18
ATOM     18  C   UNL     1    -104.055 -28.888 -12.213  1.00  0.00     0.000 C 
BRANCH  18  19
ATOM     19  C   UNL     1    -104.557 -29.102 -13.648  1.00  0.00    -0.003 C 
ATOM     20  C   UNL     1    -104.478 -30.562 -14.090  1.00  0.00     0.004 C 
ENDBRANCH  18  19
ENDBRANCH  17  18
ENDBRANCH  16  17
ENDBRANCH  15  16
ENDBRANCH  13  14
ENDBRANCH  12  13
ENDBRANCH   1  11
TORSDOF 14
ENDMDL
MODEL 8
REMARK VINA RESULT:    -2.879      3.434      6.235
REMARK INTER + INTRA:          -8.352
REMARK INTER:                  -5.342
REMARK INTRA:                  -3.010
REMARK UNBOUND:                -3.117
REMARK SMILES CCCCCC=CCC=CCCCCCCCC(=O)[O-]
REMARK SMILES IDX 11 1 12 2 13 3 14 4 15 5 16 6 17 7 18 8 19 9 20 10 10 11
REMARK SMILES IDX 9 12 8 13 7 14 6 15 5 16 4 17 3 18 2 19 1 20
REMARK H PARENT
REMARK Flexibility Score: inf
ROOT
ATOM      1  C   UNL     1     -99.248 -30.617 -14.912  1.00  0.00     0.027 C 
ENDROOT
BRANCH   1   2
ATOM      2  C   UNL     1    -100.544 -31.434 -14.801  1.00  0.00     0.004 C 
BRANCH   2   3
ATOM      3  C   UNL     1    -101.591 -31.004 -15.839  1.00  0.00     0.000 C 
BRANCH   3   4
ATOM      4  C   UNL     1    -101.293 -29.595 -16.366  1.00  0.00     0.000 C 
BRANCH   4   5
ATOM      5  C   UNL     1    -102.566 -28.736 -16.394  1.00  0.00     0.000 C 
BRANCH   5   6
ATOM      6  C   UNL     1    -102.296 -27.264 -16.047  1.00  0.00     0.006 C 
BRANCH   6   7
ATOM      7  C   UNL     1    -103.402 -26.324 -16.547  1.00  0.00     0.053 C 
BRANCH   7   8
ATOM      8  C   UNL     1    -103.893 -25.456 -15.433  1.00  0.00     0.041 C 
ATOM      9  O   UNL     1    -104.278 -24.281 -15.667  1.00  0.00    -0.550 OA
ATOM     10  O   UNL     1    -103.975 -25.961 -14.141  1.00  0.00    -0.550 OA
ENDBRANCH   7   8
ENDBRANCH   6   7
ENDBRANCH   5   6
ENDBRANCH   4   5
ENDBRANCH   3   4
ENDBRANCH   2   3
ENDBRANCH   1   2
BRANCH   1  11
ATOM     11  C   UNL     1     -98.675 -30.270 -13.559  1.00  0.00    -0.031 C 
ATOM     12  C   UNL     1     -98.932 -29.135 -12.882  1.00  0.00    -0.027 C 
BRANCH  12  13
ATOM     13  C   UNL     1     -99.789 -27.999 -13.379  1.00  0.00     0.054 C 
BRANCH  13  14
ATOM     14  C   UNL     1    -101.067 -27.935 -12.595  1.00  0.00    -0.027 C 
ATOM     15  C   UNL     1    -102.027 -28.860 -12.745  1.00  0.00    -0.031 C 
BRANCH  15  16
ATOM     16  C   UNL     1    -103.307 -28.803 -11.960  1.00  0.00     0.027 C 
BRANCH  16  17
ATOM     17  C   UNL     1    -104.183 -30.032 -12.238  1.00  0.00     0.004 C 
BRANCH  17  18
ATOM     18  C   UNL     1    -104.715 -30.013 -13.679  1.00  0.00     0.000 C 
BRANCH  18  19
ATOM     19  C   UNL     1    -105.916 -29.073 -13.852  1.00  0.00    -0.003 C 
ATOM     20  C   UNL     1    -106.084 -28.587 -15.291  1.00  0.00     0.004 C 
ENDBRANCH  18  19
ENDBRANCH  17  18
ENDBRANCH  16  17
ENDBRANCH  15  16
ENDBRANCH  13  14
ENDBRANCH  12  13
ENDBRANCH   1  11
TORSDOF 14
ENDMDL
MODEL 9
REMARK VINA RESULT:    -2.831      3.880      5.897
REMARK INTER + INTRA:          -8.265
REMARK INTER:                  -5.554
REMARK INTRA:                  -2.711
REMARK UNBOUND:                -3.117
REMARK SMILES CCCCCC=CCC=CCCCCCCCC(=O)[O-]
REMARK SMILES IDX 11 1 12 2 13 3 14 4 15 5 16 6 17 7 18 8 19 9 20 10 10 11
REMARK SMILES IDX 9 12 8 13 7 14 6 15 5 16 4 17 3 18 2 19 1 20
REMARK H PARENT
REMARK Flexibility Score: inf
ROOT
ATOM      1  C   UNL     1    -104.617 -26.472 -16.880  1.00  0.00     0.027 C 
ENDROOT
BRANCH   1   2
ATOM      2  C   UNL     1    -105.267 -25.271 -16.177  1.00  0.00     0.004 C 
BRANCH   2   3
ATOM      3  C   UNL     1    -104.309 -24.588 -15.190  1.00  0.00     0.000 C 
BRANCH   3   4
ATOM      4  C   UNL     1    -104.732 -24.858 -13.741  1.00  0.00     0.000 C 
BRANCH   4   5
ATOM      5  C   UNL     1    -104.017 -26.096 -13.180  1.00  0.00     0.000 C 
BRANCH   5   6
ATOM      6  C   UNL     1    -104.994 -27.141 -12.619  1.00  0.00     0.006 C 
BRANCH   6   7
ATOM      7  C   UNL     1    -104.958 -28.464 -13.397  1.00  0.00     0.053 C 
BRANCH   7   8
ATOM      8  C   UNL     1    -106.134 -28.563 -14.315  1.00  0.00     0.041 C 
ATOM      9  O   UNL     1    -106.236 -29.531 -15.113  1.00  0.00    -0.550 OA
ATOM     10  O   UNL     1    -107.145 -27.611 -14.256  1.00  0.00    -0.550 OA
ENDBRANCH   7   8
ENDBRANCH   6   7
ENDBRANCH   5   6
ENDBRANCH   4   5
ENDBRANCH   3   4
ENDBRANCH   2   3
ENDBRANCH   1   2
BRANCH   1  11
ATOM     11  C   UNL     1    -103.116 -26.483 -16.721  1.00  0.00    -0.031 C 
ATOM     12  C   UNL     1    -102.371 -27.583 -16.505  1.00  0.00    -0.027 C 
BRANCH  12  13
ATOM     13  C   UNL     1    -102.912 -28.981 -16.332  1.00  0.00     0.054 C 
BRANCH  13  14
ATOM     14  C   UNL     1    -101.930 -29.824 -15.572  1.00  0.00    -0.027 C 
ATOM     15  C   UNL     1    -100.621 -29.802 -15.861  1.00  0.00    -0.031 C 
BRANCH  15  16
ATOM     16  C   UNL     1     -99.632 -30.642 -15.102  1.00  0.00     0.027 C 
BRANCH  16  17
ATOM     17  C   UNL     1     -99.652 -30.304 -13.605  1.00  0.00     0.004 C 
BRANCH  17  18
ATOM     18  C   UNL     1     -98.989 -28.944 -13.340  1.00  0.00     0.000 C 
BRANCH  18  19
ATOM     19  C   UNL     1    -100.010 -27.836 -13.047  1.00  0.00    -0.003 C 
ATOM     20  C   UNL     1    -101.211 -28.335 -12.244  1.00  0.00     0.004 C 
ENDBRANCH  18  19
ENDBRANCH  17  18
ENDBRANCH  16  17
ENDBRANCH  15  16
ENDBRANCH  13  14
ENDBRANCH  12  13
ENDBRANCH   1  11
TORSDOF 14
ENDMDL
