MODEL 1
REMARK VINA RESULT:   134.308      0.000      0.000
REMARK INTER + INTRA:         138.233
REMARK INTER:                 138.233
REMARK INTRA:                   0.000
REMARK UNBOUND:                 0.000
REMARK SMILES C[C@H]1CC[C@@]2(OC1)O[C@@H]1C[C@H]3[C@@H]4CC=C5C[C@@H](O)CC[C@@]5(C)[C@@H]4CC[C@@]3(C)[C@@H]1[C@@H]2C
REMARK SMILES IDX 1 1 2 2 3 3 4 4 5 5 29 6 28 7 9 8 8 9 10 10 11 11 26 12
REMARK SMILES IDX 25 13 24 14 23 15 12 16 13 17 14 18 15 19 21 20 20 21 19 22
REMARK SMILES IDX 17 23 16 24 22 25 27 26 30 27 6 28 7 29 18 30
REMARK H PARENT 18 31
REMARK Flexibility Score: inf
ROOT
ATOM      1  C   UNL     1     -36.631  32.940 -17.398  1.00  0.00     0.010 C 
ATOM      2  C   UNL     1     -36.345  31.561 -18.014  1.00  0.00     0.012 C 
ATOM      3  C   UNL     1     -35.870  31.669 -19.470  1.00  0.00     0.011 C 
ATOM      4  C   UNL     1     -34.423  32.163 -19.551  1.00  0.00     0.066 C 
ATOM      5  C   UNL     1     -33.499  31.381 -18.583  1.00  0.00     0.171 C 
ATOM      6  C   UNL     1     -32.099  32.007 -18.571  1.00  0.00     0.052 C 
ATOM      7  C   UNL     1     -31.151  30.819 -18.398  1.00  0.00     0.033 C 
ATOM      8  C   UNL     1     -31.968  29.744 -19.114  1.00  0.00     0.126 C 
ATOM      9  O   UNL     1     -33.348  30.052 -19.049  1.00  0.00    -0.346 OA
ATOM     10  C   UNL     1     -31.706  28.436 -18.400  1.00  0.00     0.037 C 
ATOM     11  C   UNL     1     -31.483  28.821 -16.945  1.00  0.00     0.002 C 
ATOM     12  C   UNL     1     -30.723  30.184 -17.001  1.00  0.00    -0.024 C 
ATOM     13  C   UNL     1     -29.178  29.962 -17.027  1.00  0.00     0.008 C 
ATOM     14  C   UNL     1     -28.663  28.924 -16.021  1.00  0.00     0.005 C 
ATOM     15  C   UNL     1     -29.302  27.541 -16.306  1.00  0.00     0.003 C 
ATOM     16  C   UNL     1     -30.838  27.643 -16.139  1.00  0.00     0.000 C 
ATOM     17  C   UNL     1     -31.220  27.684 -14.651  1.00  0.00     0.031 C 
ATOM     18  C   UNL     1     -30.655  26.509 -13.919  1.00  0.00    -0.027 C 
ATOM     19  C   UNL     1     -29.498  25.909 -14.261  1.00  0.00    -0.065 C 
ATOM     20  C   UNL     1     -28.694  26.294 -15.517  1.00  0.00    -0.008 C 
ATOM     21  C   UNL     1     -28.727  25.058 -16.473  1.00  0.00     0.014 C 
ATOM     22  C   UNL     1     -28.373  23.715 -15.798  1.00  0.00     0.033 C 
ATOM     23  C   UNL     1     -29.223  23.444 -14.543  1.00  0.00     0.118 C 
ATOM     24  C   UNL     1     -29.125  24.618 -13.558  1.00  0.00     0.063 C 
ATOM     25  C   UNL     1     -27.216  26.558 -15.113  1.00  0.00     0.016 C 
ATOM     26  C   UNL     1     -31.066  31.056 -15.772  1.00  0.00     0.012 C 
ATOM     27  C   UNL     1     -31.911  33.265 -17.706  1.00  0.00     0.014 C 
ATOM     28  O   UNL     1     -34.025  31.383 -17.261  1.00  0.00    -0.349 OA
ATOM     29  C   UNL     1     -35.306  30.781 -17.192  1.00  0.00     0.167 C 
ENDROOT
BRANCH  23  30
ATOM     30  O   UNL     1     -30.566  23.237 -14.896  1.00  0.00    -0.393 OA
ATOM     31  H   UNL     1     -30.750  22.269 -14.772  1.00  0.00     0.210 HD
ENDBRANCH  23  30
TORSDOF 1
ENDMDL
MODEL 2
REMARK VINA RESULT:   134.454      4.239      7.691
REMARK INTER + INTRA:         138.384
REMARK INTER:                 138.384
REMARK INTRA:                   0.000
REMARK UNBOUND:                 0.000
REMARK SMILES C[C@H]1CC[C@@]2(OC1)O[C@@H]1C[C@H]3[C@@H]4CC=C5C[C@@H](O)CC[C@@]5(C)[C@@H]4CC[C@@]3(C)[C@@H]1[C@@H]2C
REMARK SMILES IDX 1 1 2 2 3 3 4 4 5 5 29 6 28 7 9 8 8 9 10 10 11 11 26 12
REMARK SMILES IDX 25 13 24 14 23 15 12 16 13 17 14 18 15 19 21 20 20 21 19 22
REMARK SMILES IDX 17 23 16 24 22 25 27 26 30 27 6 28 7 29 18 30
REMARK H PARENT 18 31
REMARK Flexibility Score: inf
ROOT
ATOM      1  C   UNL     1     -28.289  26.267 -14.113  1.00  0.00     0.010 C 
ATOM      2  C   UNL     1     -29.505  25.792 -14.925  1.00  0.00     0.012 C 
ATOM      3  C   UNL     1     -30.802  26.479 -14.473  1.00  0.00     0.011 C 
ATOM      4  C   UNL     1     -30.865  27.930 -14.957  1.00  0.00     0.066 C 
ATOM      5  C   UNL     1     -30.516  28.043 -16.464  1.00  0.00     0.171 C 
ATOM      6  C   UNL     1     -30.431  29.519 -16.874  1.00  0.00     0.052 C 
ATOM      7  C   UNL     1     -30.968  29.549 -18.305  1.00  0.00     0.033 C 
ATOM      8  C   UNL     1     -31.965  28.393 -18.220  1.00  0.00     0.126 C 
ATOM      9  O   UNL     1     -31.558  27.466 -17.231  1.00  0.00    -0.346 OA
ATOM     10  C   UNL     1     -31.980  27.717 -19.574  1.00  0.00     0.037 C 
ATOM     11  C   UNL     1     -30.563  27.873 -20.106  1.00  0.00     0.002 C 
ATOM     12  C   UNL     1     -30.102  29.282 -19.615  1.00  0.00    -0.024 C 
ATOM     13  C   UNL     1     -30.460  30.384 -20.662  1.00  0.00     0.008 C 
ATOM     14  C   UNL     1     -30.135  30.016 -22.115  1.00  0.00     0.005 C 
ATOM     15  C   UNL     1     -30.921  28.750 -22.536  1.00  0.00     0.003 C 
ATOM     16  C   UNL     1     -30.496  27.562 -21.639  1.00  0.00     0.000 C 
ATOM     17  C   UNL     1     -29.117  27.031 -22.061  1.00  0.00     0.031 C 
ATOM     18  C   UNL     1     -29.101  26.670 -23.512  1.00  0.00    -0.027 C 
ATOM     19  C   UNL     1     -29.851  27.296 -24.440  1.00  0.00    -0.065 C 
ATOM     20  C   UNL     1     -30.895  28.371 -24.086  1.00  0.00    -0.008 C 
ATOM     21  C   UNL     1     -32.295  27.784 -24.462  1.00  0.00     0.014 C 
ATOM     22  C   UNL     1     -32.374  27.168 -25.875  1.00  0.00     0.033 C 
ATOM     23  C   UNL     1     -31.271  26.122 -26.125  1.00  0.00     0.118 C 
ATOM     24  C   UNL     1     -29.885  26.719 -25.843  1.00  0.00     0.063 C 
ATOM     25  C   UNL     1     -30.645  29.631 -24.962  1.00  0.00     0.016 C 
ATOM     26  C   UNL     1     -28.573  29.311 -19.387  1.00  0.00     0.012 C 
ATOM     27  C   UNL     1     -29.125  30.257 -16.533  1.00  0.00     0.014 C 
ATOM     28  O   UNL     1     -29.279  27.404 -16.751  1.00  0.00    -0.349 OA
ATOM     29  C   UNL     1     -29.301  26.023 -16.431  1.00  0.00     0.167 C 
ENDROOT
BRANCH  23  30
ATOM     30  O   UNL     1     -31.472  24.994 -25.313  1.00  0.00    -0.393 OA
ATOM     31  H   UNL     1     -31.592  25.326 -24.385  1.00  0.00     0.210 HD
ENDBRANCH  23  30
TORSDOF 1
ENDMDL
MODEL 3
REMARK VINA RESULT:   137.108      9.318     13.609
REMARK INTER + INTRA:         141.115
REMARK INTER:                 141.115
REMARK INTRA:                   0.000
REMARK UNBOUND:                 0.000
REMARK SMILES C[C@H]1CC[C@@]2(OC1)O[C@@H]1C[C@H]3[C@@H]4CC=C5C[C@@H](O)CC[C@@]5(C)[C@@H]4CC[C@@]3(C)[C@@H]1[C@@H]2C
REMARK SMILES IDX 1 1 2 2 3 3 4 4 5 5 29 6 28 7 9 8 8 9 10 10 11 11 26 12
REMARK SMILES IDX 25 13 24 14 23 15 12 16 13 17 14 18 15 19 21 20 20 21 19 22
REMARK SMILES IDX 17 23 16 24 22 25 27 26 30 27 6 28 7 29 18 30
REMARK H PARENT 18 31
REMARK Flexibility Score: inf
ROOT
ATOM      1  C   UNL     1     -37.781  21.968 -17.487  1.00  0.00     0.010 C 
ATOM      2  C   UNL     1     -38.439  22.196 -18.856  1.00  0.00     0.012 C 
ATOM      3  C   UNL     1     -39.665  21.294 -19.063  1.00  0.00     0.011 C 
ATOM      4  C   UNL     1     -40.864  21.783 -18.245  1.00  0.00     0.066 C 
ATOM      5  C   UNL     1     -41.093  23.306 -18.425  1.00  0.00     0.171 C 
ATOM      6  C   UNL     1     -42.193  23.788 -17.471  1.00  0.00     0.052 C 
ATOM      7  C   UNL     1     -42.924  24.881 -18.253  1.00  0.00     0.033 C 
ATOM      8  C   UNL     1     -42.728  24.343 -19.671  1.00  0.00     0.126 C 
ATOM      9  O   UNL     1     -41.553  23.558 -19.741  1.00  0.00    -0.346 OA
ATOM     10  C   UNL     1     -42.594  25.541 -20.587  1.00  0.00     0.037 C 
ATOM     11  C   UNL     1     -41.912  26.606 -19.742  1.00  0.00     0.002 C 
ATOM     12  C   UNL     1     -42.494  26.414 -18.305  1.00  0.00    -0.024 C 
ATOM     13  C   UNL     1     -43.776  27.280 -18.100  1.00  0.00     0.008 C 
ATOM     14  C   UNL     1     -43.664  28.722 -18.615  1.00  0.00     0.005 C 
ATOM     15  C   UNL     1     -43.380  28.726 -20.137  1.00  0.00     0.003 C 
ATOM     16  C   UNL     1     -42.029  28.019 -20.407  1.00  0.00     0.000 C 
ATOM     17  C   UNL     1     -40.854  28.934 -20.031  1.00  0.00     0.031 C 
ATOM     18  C   UNL     1     -40.948  30.249 -20.738  1.00  0.00    -0.027 C 
ATOM     19  C   UNL     1     -42.117  30.824 -21.078  1.00  0.00    -0.065 C 
ATOM     20  C   UNL     1     -43.480  30.134 -20.882  1.00  0.00    -0.008 C 
ATOM     21  C   UNL     1     -44.070  29.884 -22.308  1.00  0.00     0.014 C 
ATOM     22  C   UNL     1     -44.035  31.112 -23.242  1.00  0.00     0.033 C 
ATOM     23  C   UNL     1     -42.629  31.733 -23.346  1.00  0.00     0.118 C 
ATOM     24  C   UNL     1     -42.078  32.064 -21.952  1.00  0.00     0.063 C 
ATOM     25  C   UNL     1     -44.434  31.098 -20.123  1.00  0.00     0.016 C 
ATOM     26  C   UNL     1     -41.458  26.823 -17.233  1.00  0.00     0.012 C 
ATOM     27  C   UNL     1     -41.780  24.040 -16.011  1.00  0.00     0.014 C 
ATOM     28  O   UNL     1     -39.899  24.036 -18.172  1.00  0.00    -0.349 OA
ATOM     29  C   UNL     1     -38.847  23.666 -19.047  1.00  0.00     0.167 C 
ENDROOT
BRANCH  23  30
ATOM     30  O   UNL     1     -41.752  30.854 -24.002  1.00  0.00    -0.393 OA
ATOM     31  H   UNL     1     -40.955  31.385 -24.263  1.00  0.00     0.210 HD
ENDBRANCH  23  30
TORSDOF 1
ENDMDL
