MODEL 1
REMARK VINA RESULT:    -3.918      0.000      0.000
REMARK INTER + INTRA:          -7.286
REMARK INTER:                  -5.979
REMARK INTRA:                  -1.307
REMARK UNBOUND:                -1.307
REMARK SMILES CCCCCCCCCC=CC(=O)[O-]
REMARK SMILES IDX 7 1 8 2 9 3 10 4 11 5 12 6 13 7 14 8 6 9 5 10 4 11 3 12 2 13
REMARK SMILES IDX 1 14
REMARK H PARENT
REMARK Flexibility Score: inf
ROOT
ATOM      1  C   UNL     1      36.889  33.381  35.679  1.00  0.00     0.000 C 
ENDROOT
BRANCH   1   2
ATOM      2  C   UNL     1      36.176  34.705  36.023  1.00  0.00     0.004 C 
BRANCH   2   3
ATOM      3  C   UNL     1      34.977  35.034  35.118  1.00  0.00     0.027 C 
BRANCH   3   4
ATOM      4  C   UNL     1      35.342  35.952  33.986  1.00  0.00    -0.025 C 
ATOM      5  C   UNL     1      36.268  36.907  34.132  1.00  0.00     0.020 C 
BRANCH   5   6
ATOM      6  C   UNL     1      36.645  37.813  33.036  1.00  0.00     0.064 C 
ATOM      7  O   UNL     1      36.179  37.661  31.874  1.00  0.00    -0.545 OA
ATOM      8  O   UNL     1      37.528  38.856  33.284  1.00  0.00    -0.545 OA
ENDBRANCH   5   6
ENDBRANCH   3   4
ENDBRANCH   2   3
ENDBRANCH   1   2
BRANCH   1   9
ATOM      9  C   UNL     1      38.339  33.530  35.177  1.00  0.00     0.000 C 
BRANCH   9  10
ATOM     10  C   UNL     1      38.502  33.606  33.648  1.00  0.00     0.000 C 
BRANCH  10  11
ATOM     11  C   UNL     1      38.500  32.222  32.978  1.00  0.00    -0.000 C 
BRANCH  11  12
ATOM     12  C   UNL     1      37.291  32.007  32.049  1.00  0.00    -0.000 C 
BRANCH  12  13
ATOM     13  C   UNL     1      36.471  33.274  31.744  1.00  0.00    -0.003 C 
ATOM     14  C   UNL     1      34.968  33.012  31.669  1.00  0.00     0.004 C 
ENDBRANCH  12  13
ENDBRANCH  11  12
ENDBRANCH  10  11
ENDBRANCH   9  10
ENDBRANCH   1   9
TORSDOF 9
ENDMDL
MODEL 2
REMARK VINA RESULT:    -3.895      2.554      4.796
REMARK INTER + INTRA:          -7.250
REMARK INTER:                  -6.060
REMARK INTRA:                  -1.191
REMARK UNBOUND:                -1.307
REMARK SMILES CCCCCCCCCC=CC(=O)[O-]
REMARK SMILES IDX 7 1 8 2 9 3 10 4 11 5 12 6 13 7 14 8 6 9 5 10 4 11 3 12 2 13
REMARK SMILES IDX 1 14
REMARK H PARENT
REMARK Flexibility Score: inf
ROOT
ATOM      1  C   UNL     1      36.137  35.324  35.593  1.00  0.00     0.000 C 
ENDROOT
BRANCH   1   2
ATOM      2  C   UNL     1      36.566  33.942  36.127  1.00  0.00     0.004 C 
BRANCH   2   3
ATOM      3  C   UNL     1      38.001  33.534  35.749  1.00  0.00     0.027 C 
BRANCH   3   4
ATOM      4  C   UNL     1      38.215  33.484  34.263  1.00  0.00    -0.025 C 
ATOM      5  C   UNL     1      37.695  32.504  33.514  1.00  0.00     0.020 C 
BRANCH   5   6
ATOM      6  C   UNL     1      37.887  32.439  32.057  1.00  0.00     0.064 C 
ATOM      7  O   UNL     1      38.978  32.784  31.527  1.00  0.00    -0.545 OA
ATOM      8  O   UNL     1      36.850  31.990  31.251  1.00  0.00    -0.545 OA
ENDBRANCH   5   6
ENDBRANCH   3   4
ENDBRANCH   2   3
ENDBRANCH   1   2
BRANCH   1   9
ATOM      9  C   UNL     1      35.020  35.297  34.531  1.00  0.00     0.000 C 
BRANCH   9  10
ATOM     10  C   UNL     1      34.994  36.502  33.573  1.00  0.00     0.000 C 
BRANCH  10  11
ATOM     11  C   UNL     1      35.807  37.698  34.096  1.00  0.00    -0.000 C 
BRANCH  11  12
ATOM     12  C   UNL     1      36.976  38.079  33.169  1.00  0.00    -0.000 C 
BRANCH  12  13
ATOM     13  C   UNL     1      38.172  37.108  33.195  1.00  0.00    -0.003 C 
ATOM     14  C   UNL     1      38.338  36.328  31.892  1.00  0.00     0.004 C 
ENDBRANCH  12  13
ENDBRANCH  11  12
ENDBRANCH  10  11
ENDBRANCH   9  10
ENDBRANCH   1   9
TORSDOF 9
ENDMDL
MODEL 3
REMARK VINA RESULT:    -3.890      1.338      2.114
REMARK INTER + INTRA:          -7.243
REMARK INTER:                  -5.962
REMARK INTRA:                  -1.280
REMARK UNBOUND:                -1.307
REMARK SMILES CCCCCCCCCC=CC(=O)[O-]
REMARK SMILES IDX 7 1 8 2 9 3 10 4 11 5 12 6 13 7 14 8 6 9 5 10 4 11 3 12 2 13
REMARK SMILES IDX 1 14
REMARK H PARENT
REMARK Flexibility Score: inf
ROOT
ATOM      1  C   UNL     1      36.138  35.305  35.441  1.00  0.00     0.000 C 
ENDROOT
BRANCH   1   2
ATOM      2  C   UNL     1      35.018  35.358  34.383  1.00  0.00     0.004 C 
BRANCH   2   3
ATOM      3  C   UNL     1      35.052  36.608  33.486  1.00  0.00     0.027 C 
BRANCH   3   4
ATOM      4  C   UNL     1      36.233  37.492  33.772  1.00  0.00    -0.025 C 
ATOM      5  C   UNL     1      37.064  37.884  32.799  1.00  0.00     0.020 C 
BRANCH   5   6
ATOM      6  C   UNL     1      38.223  38.754  33.055  1.00  0.00     0.064 C 
ATOM      7  O   UNL     1      39.364  38.469  32.603  1.00  0.00    -0.545 OA
ATOM      8  O   UNL     1      38.057  39.909  33.808  1.00  0.00    -0.545 OA
ENDBRANCH   5   6
ENDBRANCH   3   4
ENDBRANCH   2   3
ENDBRANCH   1   2
BRANCH   1   9
ATOM      9  C   UNL     1      36.465  33.897  35.978  1.00  0.00     0.000 C 
BRANCH   9  10
ATOM     10  C   UNL     1      37.942  33.477  35.869  1.00  0.00     0.000 C 
BRANCH  10  11
ATOM     11  C   UNL     1      38.485  33.573  34.433  1.00  0.00    -0.000 C 
BRANCH  11  12
ATOM     12  C   UNL     1      37.963  32.450  33.519  1.00  0.00    -0.000 C 
BRANCH  12  13
ATOM     13  C   UNL     1      37.167  32.927  32.291  1.00  0.00    -0.003 C 
ATOM     14  C   UNL     1      37.565  34.326  31.824  1.00  0.00     0.004 C 
ENDBRANCH  12  13
ENDBRANCH  11  12
ENDBRANCH  10  11
ENDBRANCH   9  10
ENDBRANCH   1   9
TORSDOF 9
ENDMDL
MODEL 4
REMARK VINA RESULT:    -3.872      1.627      2.641
REMARK INTER + INTRA:          -7.217
REMARK INTER:                  -5.781
REMARK INTRA:                  -1.435
REMARK UNBOUND:                -1.307
REMARK SMILES CCCCCCCCCC=CC(=O)[O-]
REMARK SMILES IDX 7 1 8 2 9 3 10 4 11 5 12 6 13 7 14 8 6 9 5 10 4 11 3 12 2 13
REMARK SMILES IDX 1 14
REMARK H PARENT
REMARK Flexibility Score: inf
ROOT
ATOM      1  C   UNL     1      38.285  33.592  34.896  1.00  0.00     0.000 C 
ENDROOT
BRANCH   1   2
ATOM      2  C   UNL     1      37.417  33.492  36.167  1.00  0.00     0.004 C 
BRANCH   2   3
ATOM      3  C   UNL     1      36.103  34.290  36.101  1.00  0.00     0.027 C 
BRANCH   3   4
ATOM      4  C   UNL     1      36.238  35.560  35.309  1.00  0.00    -0.025 C 
ATOM      5  C   UNL     1      35.322  35.918  34.401  1.00  0.00     0.020 C 
BRANCH   5   6
ATOM      6  C   UNL     1      35.431  37.159  33.619  1.00  0.00     0.064 C 
ATOM      7  O   UNL     1      35.289  37.155  32.367  1.00  0.00    -0.545 OA
ATOM      8  O   UNL     1      35.694  38.357  34.271  1.00  0.00    -0.545 OA
ENDBRANCH   5   6
ENDBRANCH   3   4
ENDBRANCH   2   3
ENDBRANCH   1   2
BRANCH   1   9
ATOM      9  C   UNL     1      37.967  32.551  33.803  1.00  0.00     0.000 C 
BRANCH   9  10
ATOM     10  C   UNL     1      38.273  32.997  32.361  1.00  0.00     0.000 C 
BRANCH  10  11
ATOM     11  C   UNL     1      37.664  34.367  32.018  1.00  0.00    -0.000 C 
BRANCH  11  12
ATOM     12  C   UNL     1      38.661  35.306  31.315  1.00  0.00    -0.000 C 
BRANCH  12  13
ATOM     13  C   UNL     1      38.753  36.723  31.913  1.00  0.00    -0.003 C 
ATOM     14  C   UNL     1      39.210  36.730  33.371  1.00  0.00     0.004 C 
ENDBRANCH  12  13
ENDBRANCH  11  12
ENDBRANCH  10  11
ENDBRANCH   9  10
ENDBRANCH   1   9
TORSDOF 9
ENDMDL
MODEL 5
REMARK VINA RESULT:    -3.838      1.816      3.744
REMARK INTER + INTRA:          -7.164
REMARK INTER:                  -5.757
REMARK INTRA:                  -1.407
REMARK UNBOUND:                -1.307
REMARK SMILES CCCCCCCCCC=CC(=O)[O-]
REMARK SMILES IDX 7 1 8 2 9 3 10 4 11 5 12 6 13 7 14 8 6 9 5 10 4 11 3 12 2 13
REMARK SMILES IDX 1 14
REMARK H PARENT
REMARK Flexibility Score: inf
ROOT
ATOM      1  C   UNL     1      37.590  32.815  34.361  1.00  0.00     0.000 C 
ENDROOT
BRANCH   1   2
ATOM      2  C   UNL     1      38.734  33.321  33.459  1.00  0.00     0.004 C 
BRANCH   2   3
ATOM      3  C   UNL     1      38.267  34.117  32.229  1.00  0.00     0.027 C 
BRANCH   3   4
ATOM      4  C   UNL     1      38.737  35.544  32.252  1.00  0.00    -0.025 C 
ATOM      5  C   UNL     1      39.158  36.124  33.382  1.00  0.00     0.020 C 
BRANCH   5   6
ATOM      6  C   UNL     1      39.628  37.517  33.426  1.00  0.00     0.064 C 
ATOM      7  O   UNL     1      38.887  38.467  33.053  1.00  0.00    -0.545 OA
ATOM      8  O   UNL     1      40.908  37.792  33.886  1.00  0.00    -0.545 OA
ENDBRANCH   5   6
ENDBRANCH   3   4
ENDBRANCH   2   3
ENDBRANCH   1   2
BRANCH   1   9
ATOM      9  C   UNL     1      37.554  33.424  35.777  1.00  0.00     0.000 C 
BRANCH   9  10
ATOM     10  C   UNL     1      36.269  34.195  36.130  1.00  0.00     0.000 C 
BRANCH  10  11
ATOM     11  C   UNL     1      36.162  35.544  35.399  1.00  0.00    -0.000 C 
BRANCH  11  12
ATOM     12  C   UNL     1      35.126  35.529  34.261  1.00  0.00    -0.000 C 
BRANCH  12  13
ATOM     13  C   UNL     1      35.244  36.690  33.256  1.00  0.00    -0.003 C 
ATOM     14  C   UNL     1      35.462  38.044  33.928  1.00  0.00     0.004 C 
ENDBRANCH  12  13
ENDBRANCH  11  12
ENDBRANCH  10  11
ENDBRANCH   9  10
ENDBRANCH   1   9
TORSDOF 9
ENDMDL
MODEL 6
REMARK VINA RESULT:    -3.829      1.606      2.686
REMARK INTER + INTRA:          -7.150
REMARK INTER:                  -6.234
REMARK INTRA:                  -0.916
REMARK UNBOUND:                -1.307
REMARK SMILES CCCCCCCCCC=CC(=O)[O-]
REMARK SMILES IDX 7 1 8 2 9 3 10 4 11 5 12 6 13 7 14 8 6 9 5 10 4 11 3 12 2 13
REMARK SMILES IDX 1 14
REMARK H PARENT
REMARK Flexibility Score: inf
ROOT
ATOM      1  C   UNL     1      35.016  35.211  35.039  1.00  0.00     0.000 C 
ENDROOT
BRANCH   1   2
ATOM      2  C   UNL     1      35.197  35.772  33.615  1.00  0.00     0.004 C 
BRANCH   2   3
ATOM      3  C   UNL     1      35.042  37.299  33.510  1.00  0.00     0.027 C 
BRANCH   3   4
ATOM      4  C   UNL     1      36.358  38.021  33.586  1.00  0.00    -0.025 C 
ATOM      5  C   UNL     1      37.490  37.458  33.147  1.00  0.00     0.020 C 
BRANCH   5   6
ATOM      6  C   UNL     1      38.787  38.148  33.207  1.00  0.00     0.064 C 
ATOM      7  O   UNL     1      38.889  39.372  32.922  1.00  0.00    -0.545 OA
ATOM      8  O   UNL     1      39.921  37.440  33.584  1.00  0.00    -0.545 OA
ENDBRANCH   5   6
ENDBRANCH   3   4
ENDBRANCH   2   3
ENDBRANCH   1   2
BRANCH   1   9
ATOM      9  C   UNL     1      36.325  34.965  35.817  1.00  0.00     0.000 C 
BRANCH   9  10
ATOM     10  C   UNL     1      36.909  33.545  35.690  1.00  0.00     0.000 C 
BRANCH  10  11
ATOM     11  C   UNL     1      38.302  33.530  35.039  1.00  0.00    -0.000 C 
BRANCH  11  12
ATOM     12  C   UNL     1      38.251  33.695  33.509  1.00  0.00    -0.000 C 
BRANCH  12  13
ATOM     13  C   UNL     1      38.805  32.504  32.706  1.00  0.00    -0.003 C 
ATOM     14  C   UNL     1      37.997  31.222  32.900  1.00  0.00     0.004 C 
ENDBRANCH  12  13
ENDBRANCH  11  12
ENDBRANCH  10  11
ENDBRANCH   9  10
ENDBRANCH   1   9
TORSDOF 9
ENDMDL
MODEL 7
REMARK VINA RESULT:    -3.744      1.064      3.079
REMARK INTER + INTRA:          -7.021
REMARK INTER:                  -5.846
REMARK INTRA:                  -1.175
REMARK UNBOUND:                -1.307
REMARK SMILES CCCCCCCCCC=CC(=O)[O-]
REMARK SMILES IDX 7 1 8 2 9 3 10 4 11 5 12 6 13 7 14 8 6 9 5 10 4 11 3 12 2 13
REMARK SMILES IDX 1 14
REMARK H PARENT
REMARK Flexibility Score: inf
ROOT
ATOM      1  C   UNL     1      36.916  32.695  31.374  1.00  0.00     0.000 C 
ENDROOT
BRANCH   1   2
ATOM      2  C   UNL     1      35.548  33.236  31.835  1.00  0.00     0.004 C 
BRANCH   2   3
ATOM      3  C   UNL     1      35.296  34.711  31.476  1.00  0.00     0.027 C 
BRANCH   3   4
ATOM      4  C   UNL     1      35.892  35.659  32.478  1.00  0.00    -0.025 C 
ATOM      5  C   UNL     1      35.600  36.965  32.464  1.00  0.00     0.020 C 
BRANCH   5   6
ATOM      6  C   UNL     1      36.167  37.909  33.438  1.00  0.00     0.064 C 
ATOM      7  O   UNL     1      35.524  38.250  34.468  1.00  0.00    -0.545 OA
ATOM      8  O   UNL     1      37.434  38.435  33.223  1.00  0.00    -0.545 OA
ENDBRANCH   5   6
ENDBRANCH   3   4
ENDBRANCH   2   3
ENDBRANCH   1   2
BRANCH   1   9
ATOM      9  C   UNL     1      37.548  31.637  32.302  1.00  0.00     0.000 C 
BRANCH   9  10
ATOM     10  C   UNL     1      38.810  32.093  33.057  1.00  0.00     0.000 C 
BRANCH  10  11
ATOM     11  C   UNL     1      38.699  33.531  33.591  1.00  0.00    -0.000 C 
BRANCH  11  12
ATOM     12  C   UNL     1      38.315  33.590  35.081  1.00  0.00    -0.000 C 
BRANCH  12  13
ATOM     13  C   UNL     1      36.816  33.392  35.376  1.00  0.00    -0.003 C 
ATOM     14  C   UNL     1      36.160  34.624  35.996  1.00  0.00     0.004 C 
ENDBRANCH  12  13
ENDBRANCH  11  12
ENDBRANCH  10  11
ENDBRANCH   9  10
ENDBRANCH   1   9
TORSDOF 9
ENDMDL
MODEL 8
REMARK VINA RESULT:    -3.728      9.722     10.904
REMARK INTER + INTRA:          -6.997
REMARK INTER:                  -5.276
REMARK INTRA:                  -1.721
REMARK UNBOUND:                -1.307
REMARK SMILES CCCCCCCCCC=CC(=O)[O-]
REMARK SMILES IDX 7 1 8 2 9 3 10 4 11 5 12 6 13 7 14 8 6 9 5 10 4 11 3 12 2 13
REMARK SMILES IDX 1 14
REMARK H PARENT
REMARK Flexibility Score: inf
ROOT
ATOM      1  C   UNL     1      29.740  25.996  37.584  1.00  0.00     0.000 C 
ENDROOT
BRANCH   1   2
ATOM      2  C   UNL     1      29.403  27.418  38.073  1.00  0.00     0.004 C 
BRANCH   2   3
ATOM      3  C   UNL     1      30.017  28.544  37.222  1.00  0.00     0.027 C 
BRANCH   3   4
ATOM      4  C   UNL     1      28.985  29.508  36.709  1.00  0.00    -0.025 C 
ATOM      5  C   UNL     1      29.075  30.044  35.486  1.00  0.00     0.020 C 
BRANCH   5   6
ATOM      6  C   UNL     1      28.073  30.986  34.963  1.00  0.00     0.064 C 
ATOM      7  O   UNL     1      28.400  32.143  34.585  1.00  0.00    -0.545 OA
ATOM      8  O   UNL     1      26.743  30.594  34.882  1.00  0.00    -0.545 OA
ENDBRANCH   5   6
ENDBRANCH   3   4
ENDBRANCH   2   3
ENDBRANCH   1   2
BRANCH   1   9
ATOM      9  C   UNL     1      30.498  25.927  36.242  1.00  0.00     0.000 C 
BRANCH   9  10
ATOM     10  C   UNL     1      29.666  25.440  35.041  1.00  0.00     0.000 C 
BRANCH  10  11
ATOM     11  C   UNL     1      29.376  26.556  34.024  1.00  0.00    -0.000 C 
BRANCH  11  12
ATOM     12  C   UNL     1      27.909  27.022  34.048  1.00  0.00    -0.000 C 
BRANCH  12  13
ATOM     13  C   UNL     1      26.971  26.178  34.931  1.00  0.00    -0.003 C 
ATOM     14  C   UNL     1      26.298  26.988  36.037  1.00  0.00     0.004 C 
ENDBRANCH  12  13
ENDBRANCH  11  12
ENDBRANCH  10  11
ENDBRANCH   9  10
ENDBRANCH   1   9
TORSDOF 9
ENDMDL
MODEL 9
REMARK VINA RESULT:    -3.722     10.022     11.255
REMARK INTER + INTRA:          -6.987
REMARK INTER:                  -5.436
REMARK INTRA:                  -1.551
REMARK UNBOUND:                -1.307
REMARK SMILES CCCCCCCCCC=CC(=O)[O-]
REMARK SMILES IDX 7 1 8 2 9 3 10 4 11 5 12 6 13 7 14 8 6 9 5 10 4 11 3 12 2 13
REMARK SMILES IDX 1 14
REMARK H PARENT
REMARK Flexibility Score: inf
ROOT
ATOM      1  C   UNL     1      29.993  26.155  37.099  1.00  0.00     0.000 C 
ENDROOT
BRANCH   1   2
ATOM      2  C   UNL     1      30.710  27.159  36.174  1.00  0.00     0.004 C 
BRANCH   2   3
ATOM      3  C   UNL     1      30.428  28.636  36.501  1.00  0.00     0.027 C 
BRANCH   3   4
ATOM      4  C   UNL     1      29.482  29.274  35.523  1.00  0.00    -0.025 C 
ATOM      5  C   UNL     1      28.604  30.208  35.907  1.00  0.00     0.020 C 
BRANCH   5   6
ATOM      6  C   UNL     1      27.673  30.849  34.966  1.00  0.00     0.064 C 
ATOM      7  O   UNL     1      26.687  30.221  34.495  1.00  0.00    -0.545 OA
ATOM      8  O   UNL     1      27.883  32.169  34.589  1.00  0.00    -0.545 OA
ENDBRANCH   5   6
ENDBRANCH   3   4
ENDBRANCH   2   3
ENDBRANCH   1   2
BRANCH   1   9
ATOM      9  C   UNL     1      29.331  26.773  38.347  1.00  0.00     0.000 C 
BRANCH   9  10
ATOM     10  C   UNL     1      27.839  27.122  38.196  1.00  0.00     0.000 C 
BRANCH  10  11
ATOM     11  C   UNL     1      27.149  26.323  37.077  1.00  0.00    -0.000 C 
BRANCH  11  12
ATOM     12  C   UNL     1      26.379  27.218  36.089  1.00  0.00    -0.000 C 
BRANCH  12  13
ATOM     13  C   UNL     1      26.341  26.705  34.638  1.00  0.00    -0.003 C 
ATOM     14  C   UNL     1      27.725  26.369  34.084  1.00  0.00     0.004 C 
ENDBRANCH  12  13
ENDBRANCH  11  12
ENDBRANCH  10  11
ENDBRANCH   9  10
ENDBRANCH   1   9
TORSDOF 9
ENDMDL
