MODEL 1
REMARK VINA RESULT:    -2.982      0.000      0.000
REMARK INTER + INTRA:          -2.501
REMARK INTER:                  -3.156
REMARK INTRA:                   0.656
REMARK UNBOUND:                 0.656
REMARK SMILES CC1=CC[C@]23[C@H]([C@@H](C(C)C)CC[C@H]2C)[C@@H]13
REMARK SMILES IDX 14 1 13 2 12 3 11 4 7 5 6 6 5 7 15 8 2 9 3 10 4 11 1 12 8 13
REMARK SMILES IDX 9 14 10 15
REMARK H PARENT
REMARK Flexibility Score: inf
ROOT
ATOM      1  C   UNL     1       3.293   5.311  12.864  1.00  0.00     0.008 C 
ATOM      2  C   UNL     1       4.511   5.681  12.003  1.00  0.00    -0.007 C 
ATOM      3  C   UNL     1       5.764   4.875  12.384  1.00  0.00     0.004 C 
ATOM      4  C   UNL     1       6.495   5.471  13.584  1.00  0.00     0.004 C 
ATOM      5  C   UNL     1       7.077   6.869  13.261  1.00  0.00    -0.004 C 
ATOM      6  C   UNL     1       6.071   7.791  12.517  1.00  0.00     0.007 C 
ATOM      7  C   UNL     1       4.769   7.208  11.947  1.00  0.00    -0.013 C 
ATOM      8  C   UNL     1       4.753   8.011  13.255  1.00  0.00     0.025 C 
ATOM      9  C   UNL     1       4.017   9.259  12.908  1.00  0.00    -0.073 C 
ATOM     10  C   UNL     1       3.606   9.281  11.646  1.00  0.00    -0.027 C 
ATOM     11  C   UNL     1       4.013   8.052  10.907  1.00  0.00     0.035 C 
ATOM     12  C   UNL     1       3.780  10.377  13.874  1.00  0.00     0.039 C 
ENDROOT
BRANCH   5  13
ATOM     13  C   UNL     1       7.646   7.568  14.537  1.00  0.00    -0.014 C 
ATOM     14  C   UNL     1       9.002   8.245  14.267  1.00  0.00     0.007 C 
ATOM     15  C   UNL     1       6.669   8.617  15.100  1.00  0.00     0.007 C 
ENDBRANCH   5  13
TORSDOF 1
ENDMDL
