MODEL 1
REMARK VINA RESULT:    -1.176      0.000      0.000
REMARK INTER + INTRA:          -1.279
REMARK INTER:                  -1.279
REMARK INTRA:                   0.000
REMARK UNBOUND:                 0.000
REMARK SMILES [NH3+]CC(=O)[O-]
REMARK SMILES IDX 2 1 1 2 3 6 4 7 5 8
REMARK H PARENT 1 3 1 4 1 5
REMARK Flexibility Score: inf
ROOT
ATOM      1  C   UNL     1     152.494 136.561  93.898  1.00  0.00     0.312 C 
ENDROOT
BRANCH   1   2
ATOM      2  N   UNL     1     152.445 135.333  94.689  1.00  0.00    -0.353 N 
ATOM      3  H   UNL     1     153.361 135.181  95.171  1.00  0.00     0.344 HD
ATOM      4  H   UNL     1     151.693 135.419  95.409  1.00  0.00     0.344 HD
ATOM      5  H   UNL     1     152.231 134.516  94.071  1.00  0.00     0.344 HD
ENDBRANCH   1   2
BRANCH   1   6
ATOM      6  C   UNL     1     153.429 137.553  94.518  1.00  0.00     0.096 C 
ATOM      7  O   UNL     1     153.787 138.574  93.875  1.00  0.00    -0.544 OA
ATOM      8  O   UNL     1     153.865 137.374  95.825  1.00  0.00    -0.544 OA
ENDBRANCH   1   6
TORSDOF 2
ENDMDL
MODEL 2
REMARK VINA RESULT:    -1.076      2.525      2.919
REMARK INTER + INTRA:          -1.170
REMARK INTER:                  -1.170
REMARK INTRA:                   0.000
REMARK UNBOUND:                 0.000
REMARK SMILES [NH3+]CC(=O)[O-]
REMARK SMILES IDX 2 1 1 2 3 6 4 7 5 8
REMARK H PARENT 1 3 1 4 1 5
REMARK Flexibility Score: inf
ROOT
ATOM      1  C   UNL     1     152.978 137.095  93.977  1.00  0.00     0.312 C 
ENDROOT
BRANCH   1   2
ATOM      2  N   UNL     1     153.801 137.163  95.182  1.00  0.00    -0.353 N 
ATOM      3  H   UNL     1     153.659 138.081  95.662  1.00  0.00     0.344 HD
ATOM      4  H   UNL     1     153.520 136.394  95.832  1.00  0.00     0.344 HD
ATOM      5  H   UNL     1     154.811 137.045  94.935  1.00  0.00     0.344 HD
ENDBRANCH   1   2
BRANCH   1   6
ATOM      6  C   UNL     1     151.857 136.118  94.156  1.00  0.00     0.096 C 
ATOM      7  O   UNL     1     152.086 134.965  94.605  1.00  0.00    -0.544 OA
ATOM      8  O   UNL     1     150.551 136.501  93.875  1.00  0.00    -0.544 OA
ENDBRANCH   1   6
TORSDOF 2
ENDMDL
MODEL 3
REMARK VINA RESULT:    -1.072      1.943      2.463
REMARK INTER + INTRA:          -1.166
REMARK INTER:                  -1.166
REMARK INTRA:                   0.000
REMARK UNBOUND:                 0.000
REMARK SMILES [NH3+]CC(=O)[O-]
REMARK SMILES IDX 2 1 1 2 3 6 4 7 5 8
REMARK H PARENT 1 3 1 4 1 5
REMARK Flexibility Score: inf
ROOT
ATOM      1  C   UNL     1     153.678 137.527  96.466  1.00  0.00     0.312 C 
ENDROOT
BRANCH   1   2
ATOM      2  N   UNL     1     154.569 136.451  96.895  1.00  0.00    -0.353 N 
ATOM      3  H   UNL     1     154.816 136.571  97.904  1.00  0.00     0.344 HD
ATOM      4  H   UNL     1     154.082 135.535  96.771  1.00  0.00     0.344 HD
ATOM      5  H   UNL     1     155.439 136.453  96.315  1.00  0.00     0.344 HD
ENDBRANCH   1   2
BRANCH   1   6
ATOM      6  C   UNL     1     153.321 137.374  95.020  1.00  0.00     0.096 C 
ATOM      7  O   UNL     1     152.546 136.454  94.652  1.00  0.00    -0.544 OA
ATOM      8  O   UNL     1     153.805 138.282  94.085  1.00  0.00    -0.544 OA
ENDBRANCH   1   6
TORSDOF 2
ENDMDL
MODEL 4
REMARK VINA RESULT:    -1.012      2.279      2.533
REMARK INTER + INTRA:          -1.101
REMARK INTER:                  -1.101
REMARK INTRA:                   0.000
REMARK UNBOUND:                 0.000
REMARK SMILES [NH3+]CC(=O)[O-]
REMARK SMILES IDX 2 1 1 2 3 6 4 7 5 8
REMARK H PARENT 1 3 1 4 1 5
REMARK Flexibility Score: inf
ROOT
ATOM      1  C   UNL     1     153.563 137.622  95.305  1.00  0.00     0.312 C 
ENDROOT
BRANCH   1   2
ATOM      2  N   UNL     1     153.122 136.709  94.253  1.00  0.00    -0.353 N 
ATOM      3  H   UNL     1     153.260 137.150  93.314  1.00  0.00     0.344 HD
ATOM      4  H   UNL     1     153.688 135.832  94.301  1.00  0.00     0.344 HD
ATOM      5  H   UNL     1     152.112 136.468  94.385  1.00  0.00     0.344 HD
ENDBRANCH   1   2
BRANCH   1   6
ATOM      6  C   UNL     1     153.547 136.939  96.638  1.00  0.00     0.096 C 
ATOM      7  O   UNL     1     154.610 136.816  97.299  1.00  0.00    -0.544 OA
ATOM      8  O   UNL     1     152.347 136.485  97.172  1.00  0.00    -0.544 OA
ENDBRANCH   1   6
TORSDOF 2
ENDMDL
MODEL 5
REMARK VINA RESULT:    -0.975      3.500      3.823
REMARK INTER + INTRA:          -1.061
REMARK INTER:                  -1.061
REMARK INTRA:                   0.000
REMARK UNBOUND:                 0.000
REMARK SMILES [NH3+]CC(=O)[O-]
REMARK SMILES IDX 2 1 1 2 3 6 4 7 5 8
REMARK H PARENT 1 3 1 4 1 5
REMARK Flexibility Score: inf
ROOT
ATOM      1  C   UNL     1     153.828 137.532  97.098  1.00  0.00     0.312 C 
ENDROOT
BRANCH   1   2
ATOM      2  N   UNL     1     154.000 137.125  95.705  1.00  0.00    -0.353 N 
ATOM      3  H   UNL     1     153.180 136.555  95.394  1.00  0.00     0.344 HD
ATOM      4  H   UNL     1     154.066 137.978  95.105  1.00  0.00     0.344 HD
ATOM      5  H   UNL     1     154.879 136.568  95.599  1.00  0.00     0.344 HD
ENDBRANCH   1   2
BRANCH   1   6
ATOM      6  C   UNL     1     154.345 136.475  98.025  1.00  0.00     0.096 C 
ATOM      7  O   UNL     1     154.117 135.260  97.791  1.00  0.00    -0.544 OA
ATOM      8  O   UNL     1     155.123 136.832  99.120  1.00  0.00    -0.544 OA
ENDBRANCH   1   6
TORSDOF 2
ENDMDL
MODEL 6
REMARK VINA RESULT:    -0.971      3.599      4.090
REMARK INTER + INTRA:          -1.056
REMARK INTER:                  -1.056
REMARK INTRA:                   0.000
REMARK UNBOUND:                 0.000
REMARK SMILES [NH3+]CC(=O)[O-]
REMARK SMILES IDX 2 1 1 2 3 6 4 7 5 8
REMARK H PARENT 1 3 1 4 1 5
REMARK Flexibility Score: inf
ROOT
ATOM      1  C   UNL     1     154.324 136.819  97.311  1.00  0.00     0.312 C 
ENDROOT
BRANCH   1   2
ATOM      2  N   UNL     1     153.982 137.005  95.903  1.00  0.00    -0.353 N 
ATOM      3  H   UNL     1     153.683 136.095  95.483  1.00  0.00     0.344 HD
ATOM      4  H   UNL     1     153.195 137.688  95.829  1.00  0.00     0.344 HD
ATOM      5  H   UNL     1     154.806 137.382  95.380  1.00  0.00     0.344 HD
ENDBRANCH   1   2
BRANCH   1   6
ATOM      6  C   UNL     1     153.661 135.594  97.859  1.00  0.00     0.096 C 
ATOM      7  O   UNL     1     153.872 135.236  99.047  1.00  0.00    -0.544 OA
ATOM      8  O   UNL     1     152.768 134.876  97.072  1.00  0.00    -0.544 OA
ENDBRANCH   1   6
TORSDOF 2
ENDMDL
MODEL 7
REMARK VINA RESULT:    -0.956     23.100     23.282
REMARK INTER + INTRA:          -1.039
REMARK INTER:                  -1.039
REMARK INTRA:                   0.000
REMARK UNBOUND:                 0.000
REMARK SMILES [NH3+]CC(=O)[O-]
REMARK SMILES IDX 2 1 1 2 3 6 4 7 5 8
REMARK H PARENT 1 3 1 4 1 5
REMARK Flexibility Score: inf
ROOT
ATOM      1  C   UNL     1     137.361 152.937  94.795  1.00  0.00     0.312 C 
ENDROOT
BRANCH   1   2
ATOM      2  N   UNL     1     135.964 152.640  95.102  1.00  0.00    -0.353 N 
ATOM      3  H   UNL     1     135.792 152.745  96.129  1.00  0.00     0.344 HD
ATOM      4  H   UNL     1     135.350 153.310  94.586  1.00  0.00     0.344 HD
ATOM      5  H   UNL     1     135.729 151.665  94.802  1.00  0.00     0.344 HD
ENDBRANCH   1   2
BRANCH   1   6
ATOM      6  C   UNL     1     137.618 154.410  94.875  1.00  0.00     0.096 C 
ATOM      7  O   UNL     1     138.121 155.019  93.895  1.00  0.00    -0.544 OA
ATOM      8  O   UNL     1     137.255 155.117  96.014  1.00  0.00    -0.544 OA
ENDBRANCH   1   6
TORSDOF 2
ENDMDL
MODEL 8
REMARK VINA RESULT:    -0.918     22.620     22.790
REMARK INTER + INTRA:          -0.998
REMARK INTER:                  -0.998
REMARK INTRA:                   0.000
REMARK UNBOUND:                 0.000
REMARK SMILES [NH3+]CC(=O)[O-]
REMARK SMILES IDX 2 1 1 2 3 6 4 7 5 8
REMARK H PARENT 1 3 1 4 1 5
REMARK Flexibility Score: inf
ROOT
ATOM      1  C   UNL     1     135.322 151.587  95.597  1.00  0.00     0.312 C 
ENDROOT
BRANCH   1   2
ATOM      2  N   UNL     1     135.255 152.856  96.319  1.00  0.00    -0.353 N 
ATOM      3  H   UNL     1     136.151 153.383  96.201  1.00  0.00     0.344 HD
ATOM      4  H   UNL     1     134.472 153.429  95.933  1.00  0.00     0.344 HD
ATOM      5  H   UNL     1     135.078 152.682  97.335  1.00  0.00     0.344 HD
ENDBRANCH   1   2
BRANCH   1   6
ATOM      6  C   UNL     1     136.219 151.705  94.403  1.00  0.00     0.096 C 
ATOM      7  O   UNL     1     136.427 152.828  93.875  1.00  0.00    -0.544 OA
ATOM      8  O   UNL     1     136.865 150.580  93.906  1.00  0.00    -0.544 OA
ENDBRANCH   1   6
TORSDOF 2
ENDMDL
MODEL 9
REMARK VINA RESULT:    -0.897      2.520      2.804
REMARK INTER + INTRA:          -0.976
REMARK INTER:                  -0.976
REMARK INTRA:                   0.000
REMARK UNBOUND:                 0.000
REMARK SMILES [NH3+]CC(=O)[O-]
REMARK SMILES IDX 2 1 1 2 3 6 4 7 5 8
REMARK H PARENT 1 3 1 4 1 5
REMARK Flexibility Score: inf
ROOT
ATOM      1  C   UNL     1     153.213 136.243  97.634  1.00  0.00     0.312 C 
ENDROOT
BRANCH   1   2
ATOM      2  N   UNL     1     154.048 135.071  97.380  1.00  0.00    -0.353 N 
ATOM      3  H   UNL     1     153.448 134.249  97.140  1.00  0.00     0.344 HD
ATOM      4  H   UNL     1     154.683 135.272  96.575  1.00  0.00     0.344 HD
ATOM      5  H   UNL     1     154.628 134.853  98.223  1.00  0.00     0.344 HD
ENDBRANCH   1   2
BRANCH   1   6
ATOM      6  C   UNL     1     153.736 137.436  96.893  1.00  0.00     0.096 C 
ATOM      7  O   UNL     1     153.850 137.404  95.640  1.00  0.00    -0.544 OA
ATOM      8  O   UNL     1     154.048 138.600  97.584  1.00  0.00    -0.544 OA
ENDBRANCH   1   6
TORSDOF 2
ENDMDL
