MODEL 1
REMARK VINA RESULT:    -2.265      0.000      0.000
REMARK INTER + INTRA:          -2.265
REMARK INTER:                  -2.265
REMARK INTRA:                   0.000
REMARK UNBOUND:                 0.000
REMARK SMILES CC(=O)[O-]
REMARK SMILES IDX 1 1 2 2 3 3 4 4
REMARK H PARENT
REMARK Flexibility Score: inf
ROOT
ATOM      1  C   UNL     1      28.952  14.852 -10.004  1.00  0.00     0.063 C 
ATOM      2  C   UNL     1      28.900  13.401 -10.341  1.00  0.00     0.038 C 
ATOM      3  O   UNL     1      29.418  12.981 -11.409  1.00  0.00    -0.550 OA
ATOM      4  O   UNL     1      28.328  12.500  -9.452  1.00  0.00    -0.550 OA
ENDROOT
TORSDOF 0
ENDMDL
MODEL 2
REMARK VINA RESULT:    -2.245     13.255     13.409
REMARK INTER + INTRA:          -2.245
REMARK INTER:                  -2.245
REMARK INTRA:                   0.000
REMARK UNBOUND:                 0.000
REMARK SMILES CC(=O)[O-]
REMARK SMILES IDX 1 1 2 2 3 3 4 4
REMARK H PARENT
REMARK Flexibility Score: inf
ROOT
ATOM      1  C   UNL     1      19.252  21.938  -7.629  1.00  0.00     0.063 C 
ATOM      2  C   UNL     1      18.391  20.973  -6.888  1.00  0.00     0.038 C 
ATOM      3  O   UNL     1      17.683  20.143  -7.519  1.00  0.00    -0.550 OA
ATOM      4  O   UNL     1      18.406  20.949  -5.500  1.00  0.00    -0.550 OA
ENDROOT
TORSDOF 0
ENDMDL
MODEL 3
REMARK VINA RESULT:    -2.213     12.665     12.913
REMARK INTER + INTRA:          -2.213
REMARK INTER:                  -2.213
REMARK INTRA:                   0.000
REMARK UNBOUND:                 0.000
REMARK SMILES CC(=O)[O-]
REMARK SMILES IDX 1 1 2 2 3 3 4 4
REMARK H PARENT
REMARK Flexibility Score: inf
ROOT
ATOM      1  C   UNL     1      18.563  21.395  -7.191  1.00  0.00     0.063 C 
ATOM      2  C   UNL     1      19.806  21.994  -7.755  1.00  0.00     0.038 C 
ATOM      3  O   UNL     1      20.745  22.340  -6.989  1.00  0.00    -0.550 OA
ATOM      4  O   UNL     1      19.956  22.123  -9.129  1.00  0.00    -0.550 OA
ENDROOT
TORSDOF 0
ENDMDL
MODEL 4
REMARK VINA RESULT:    -2.189      1.778      2.104
REMARK INTER + INTRA:          -2.189
REMARK INTER:                  -2.189
REMARK INTRA:                   0.000
REMARK UNBOUND:                 0.000
REMARK SMILES CC(=O)[O-]
REMARK SMILES IDX 1 1 2 2 3 3 4 4
REMARK H PARENT
REMARK Flexibility Score: inf
ROOT
ATOM      1  C   UNL     1      28.266  14.742  -8.721  1.00  0.00     0.063 C 
ATOM      2  C   UNL     1      28.925  14.821 -10.056  1.00  0.00     0.038 C 
ATOM      3  O   UNL     1      29.103  15.940 -10.607  1.00  0.00    -0.550 OA
ATOM      4  O   UNL     1      29.393  13.668 -10.671  1.00  0.00    -0.550 OA
ENDROOT
TORSDOF 0
ENDMDL
MODEL 5
REMARK VINA RESULT:    -2.184     13.357     13.814
REMARK INTER + INTRA:          -2.184
REMARK INTER:                  -2.184
REMARK INTRA:                   0.000
REMARK UNBOUND:                 0.000
REMARK SMILES CC(=O)[O-]
REMARK SMILES IDX 1 1 2 2 3 3 4 4
REMARK H PARENT
REMARK Flexibility Score: inf
ROOT
ATOM      1  C   UNL     1      17.798  19.608  -7.298  1.00  0.00     0.063 C 
ATOM      2  C   UNL     1      18.086  20.927  -6.665  1.00  0.00     0.038 C 
ATOM      3  O   UNL     1      17.658  21.179  -5.508  1.00  0.00    -0.550 OA
ATOM      4  O   UNL     1      18.872  21.860  -7.328  1.00  0.00    -0.550 OA
ENDROOT
TORSDOF 0
ENDMDL
MODEL 6
REMARK VINA RESULT:    -2.160      1.992      2.241
REMARK INTER + INTRA:          -2.160
REMARK INTER:                  -2.160
REMARK INTRA:                   0.000
REMARK UNBOUND:                 0.000
REMARK SMILES CC(=O)[O-]
REMARK SMILES IDX 1 1 2 2 3 3 4 4
REMARK H PARENT
REMARK Flexibility Score: inf
ROOT
ATOM      1  C   UNL     1      29.098  13.532 -10.646  1.00  0.00     0.063 C 
ATOM      2  C   UNL     1      28.884  14.837  -9.958  1.00  0.00     0.038 C 
ATOM      3  O   UNL     1      29.044  15.917 -10.587  1.00  0.00    -0.550 OA
ATOM      4  O   UNL     1      28.456  14.866  -8.638  1.00  0.00    -0.550 OA
ENDROOT
TORSDOF 0
ENDMDL
MODEL 7
REMARK VINA RESULT:    -2.159     10.897     11.400
REMARK INTER + INTRA:          -2.159
REMARK INTER:                  -2.159
REMARK INTRA:                   0.000
REMARK UNBOUND:                 0.000
REMARK SMILES CC(=O)[O-]
REMARK SMILES IDX 1 1 2 2 3 3 4 4
REMARK H PARENT
REMARK Flexibility Score: inf
ROOT
ATOM      1  C   UNL     1      19.786  18.150  -4.268  1.00  0.00     0.063 C 
ATOM      2  C   UNL     1      20.603  18.988  -5.191  1.00  0.00     0.038 C 
ATOM      3  O   UNL     1      21.465  18.451  -5.936  1.00  0.00    -0.550 OA
ATOM      4  O   UNL     1      20.378  20.356  -5.272  1.00  0.00    -0.550 OA
ENDROOT
TORSDOF 0
ENDMDL
MODEL 8
REMARK VINA RESULT:    -2.116     11.401     11.770
REMARK INTER + INTRA:          -2.116
REMARK INTER:                  -2.116
REMARK INTRA:                   0.000
REMARK UNBOUND:                 0.000
REMARK SMILES CC(=O)[O-]
REMARK SMILES IDX 1 1 2 2 3 3 4 4
REMARK H PARENT
REMARK Flexibility Score: inf
ROOT
ATOM      1  C   UNL     1      22.313  21.950  -5.411  1.00  0.00     0.063 C 
ATOM      2  C   UNL     1      21.215  21.284  -6.168  1.00  0.00     0.038 C 
ATOM      3  O   UNL     1      20.472  21.958  -6.929  1.00  0.00    -0.550 OA
ATOM      4  O   UNL     1      21.044  19.909  -6.080  1.00  0.00    -0.550 OA
ENDROOT
TORSDOF 0
ENDMDL
MODEL 9
REMARK VINA RESULT:    -2.064     11.040     11.520
REMARK INTER + INTRA:          -2.064
REMARK INTER:                  -2.064
REMARK INTRA:                   0.000
REMARK UNBOUND:                 0.000
REMARK SMILES CC(=O)[O-]
REMARK SMILES IDX 1 1 2 2 3 3 4 4
REMARK H PARENT
REMARK Flexibility Score: inf
ROOT
ATOM      1  C   UNL     1      21.441  18.653  -6.062  1.00  0.00     0.063 C 
ATOM      2  C   UNL     1      20.325  19.007  -5.141  1.00  0.00     0.038 C 
ATOM      3  O   UNL     1      19.603  20.012  -5.378  1.00  0.00    -0.550 OA
ATOM      4  O   UNL     1      20.043  18.199  -4.047  1.00  0.00    -0.550 OA
ENDROOT
TORSDOF 0
ENDMDL
