MODEL 1
REMARK VINA RESULT:    -1.812      0.000      0.000
REMARK INTER + INTRA:          -1.812
REMARK INTER:                  -1.812
REMARK INTRA:                   0.000
REMARK UNBOUND:                 0.000
REMARK SMILES CC(=O)[O-]
REMARK SMILES IDX 1 1 2 2 3 3 4 4
REMARK H PARENT
REMARK Flexibility Score: inf
ROOT
ATOM      1  C   UNL     1      60.927  30.581  61.524  1.00  0.00     0.063 C 
ATOM      2  C   UNL     1      62.102  29.667  61.430  1.00  0.00     0.038 C 
ATOM      3  O   UNL     1      61.934  28.420  61.446  1.00  0.00    -0.550 OA
ATOM      4  O   UNL     1      63.388  30.190  61.378  1.00  0.00    -0.550 OA
ENDROOT
TORSDOF 0
ENDMDL
MODEL 2
REMARK VINA RESULT:    -1.810      0.093      1.621
REMARK INTER + INTRA:          -1.810
REMARK INTER:                  -1.810
REMARK INTRA:                   0.000
REMARK UNBOUND:                 0.000
REMARK SMILES CC(=O)[O-]
REMARK SMILES IDX 1 1 2 2 3 3 4 4
REMARK H PARENT
REMARK Flexibility Score: inf
ROOT
ATOM      1  C   UNL     1      60.909  30.592  61.516  1.00  0.00     0.063 C 
ATOM      2  C   UNL     1      62.091  29.684  61.455  1.00  0.00     0.038 C 
ATOM      3  O   UNL     1      63.252  30.164  61.382  1.00  0.00    -0.550 OA
ATOM      4  O   UNL     1      61.910  28.307  61.423  1.00  0.00    -0.550 OA
ENDROOT
TORSDOF 0
ENDMDL
MODEL 3
REMARK VINA RESULT:    -1.750     12.560     12.711
REMARK INTER + INTRA:          -1.750
REMARK INTER:                  -1.750
REMARK INTRA:                   0.000
REMARK UNBOUND:                 0.000
REMARK SMILES CC(=O)[O-]
REMARK SMILES IDX 1 1 2 2 3 3 4 4
REMARK H PARENT
REMARK Flexibility Score: inf
ROOT
ATOM      1  C   UNL     1      59.582  29.226  49.026  1.00  0.00     0.063 C 
ATOM      2  C   UNL     1      60.434  28.003  49.084  1.00  0.00     0.038 C 
ATOM      3  O   UNL     1      61.687  28.105  49.047  1.00  0.00    -0.550 OA
ATOM      4  O   UNL     1      59.845  26.746  49.124  1.00  0.00    -0.550 OA
ENDROOT
TORSDOF 0
ENDMDL
MODEL 4
REMARK VINA RESULT:    -1.720     14.018     14.394
REMARK INTER + INTRA:          -1.720
REMARK INTER:                  -1.720
REMARK INTRA:                   0.000
REMARK UNBOUND:                 0.000
REMARK SMILES CC(=O)[O-]
REMARK SMILES IDX 1 1 2 2 3 3 4 4
REMARK H PARENT
REMARK Flexibility Score: inf
ROOT
ATOM      1  C   UNL     1      54.471  27.631  49.733  1.00  0.00     0.063 C 
ATOM      2  C   UNL     1      55.092  26.299  49.475  1.00  0.00     0.038 C 
ATOM      3  O   UNL     1      56.321  26.125  49.682  1.00  0.00    -0.550 OA
ATOM      4  O   UNL     1      54.328  25.264  48.952  1.00  0.00    -0.550 OA
ENDROOT
TORSDOF 0
ENDMDL
MODEL 5
REMARK VINA RESULT:    -1.688      1.374      1.757
REMARK INTER + INTRA:          -1.688
REMARK INTER:                  -1.688
REMARK INTRA:                   0.000
REMARK UNBOUND:                 0.000
REMARK SMILES CC(=O)[O-]
REMARK SMILES IDX 1 1 2 2 3 3 4 4
REMARK H PARENT
REMARK Flexibility Score: inf
ROOT
ATOM      1  C   UNL     1      63.407  30.285  61.154  1.00  0.00     0.063 C 
ATOM      2  C   UNL     1      62.078  29.693  61.484  1.00  0.00     0.038 C 
ATOM      3  O   UNL     1      61.916  28.446  61.446  1.00  0.00    -0.550 OA
ATOM      4  O   UNL     1      61.002  30.520  61.781  1.00  0.00    -0.550 OA
ENDROOT
TORSDOF 0
ENDMDL
MODEL 6
REMARK VINA RESULT:    -1.687      4.763      5.345
REMARK INTER + INTRA:          -1.687
REMARK INTER:                  -1.687
REMARK INTRA:                   0.000
REMARK UNBOUND:                 0.000
REMARK SMILES CC(=O)[O-]
REMARK SMILES IDX 1 1 2 2 3 3 4 4
REMARK H PARENT
REMARK Flexibility Score: inf
ROOT
ATOM      1  C   UNL     1      62.730  35.046  60.633  1.00  0.00     0.063 C 
ATOM      2  C   UNL     1      64.048  34.428  60.960  1.00  0.00     0.038 C 
ATOM      3  O   UNL     1      64.893  35.066  61.639  1.00  0.00    -0.550 OA
ATOM      4  O   UNL     1      64.367  33.168  60.469  1.00  0.00    -0.550 OA
ENDROOT
TORSDOF 0
ENDMDL
MODEL 7
REMARK VINA RESULT:    -1.649     16.180     16.510
REMARK INTER + INTRA:          -1.649
REMARK INTER:                  -1.649
REMARK INTRA:                   0.000
REMARK UNBOUND:                 0.000
REMARK SMILES CC(=O)[O-]
REMARK SMILES IDX 1 1 2 2 3 3 4 4
REMARK H PARENT
REMARK Flexibility Score: inf
ROOT
ATOM      1  C   UNL     1      56.945  18.797  51.943  1.00  0.00     0.063 C 
ATOM      2  C   UNL     1      56.646  18.709  50.485  1.00  0.00     0.038 C 
ATOM      3  O   UNL     1      57.444  18.120  49.710  1.00  0.00    -0.550 OA
ATOM      4  O   UNL     1      55.512  19.325  49.969  1.00  0.00    -0.550 OA
ENDROOT
TORSDOF 0
ENDMDL
MODEL 8
REMARK VINA RESULT:    -1.610      1.315      1.682
REMARK INTER + INTRA:          -1.610
REMARK INTER:                  -1.610
REMARK INTRA:                   0.000
REMARK UNBOUND:                 0.000
REMARK SMILES CC(=O)[O-]
REMARK SMILES IDX 1 1 2 2 3 3 4 4
REMARK H PARENT
REMARK Flexibility Score: inf
ROOT
ATOM      1  C   UNL     1      61.923  28.195  61.143  1.00  0.00     0.063 C 
ATOM      2  C   UNL     1      62.161  29.634  61.453  1.00  0.00     0.038 C 
ATOM      3  O   UNL     1      61.201  30.376  61.785  1.00  0.00    -0.550 OA
ATOM      4  O   UNL     1      63.435  30.173  61.324  1.00  0.00    -0.550 OA
ENDROOT
TORSDOF 0
ENDMDL
MODEL 9
REMARK VINA RESULT:    -1.601     16.610     17.108
REMARK INTER + INTRA:          -1.601
REMARK INTER:                  -1.601
REMARK INTRA:                   0.000
REMARK UNBOUND:                 0.000
REMARK SMILES CC(=O)[O-]
REMARK SMILES IDX 1 1 2 2 3 3 4 4
REMARK H PARENT
REMARK Flexibility Score: inf
ROOT
ATOM      1  C   UNL     1      57.140  18.377  50.247  1.00  0.00     0.063 C 
ATOM      2  C   UNL     1      58.430  18.132  49.539  1.00  0.00     0.038 C 
ATOM      3  O   UNL     1      59.251  19.072  49.380  1.00  0.00    -0.550 OA
ATOM      4  O   UNL     1      58.705  16.879  49.006  1.00  0.00    -0.550 OA
ENDROOT
TORSDOF 0
ENDMDL
