MODEL 1
REMARK VINA RESULT:    -3.685      0.000      0.000
REMARK INTER + INTRA:          -9.313
REMARK INTER:                  -6.702
REMARK INTRA:                  -2.611
REMARK UNBOUND:                -2.611
REMARK SMILES CCCCCCCCCCCCCC[C@@H](C)C(=O)[O-]
REMARK SMILES IDX 9 1 10 2 11 3 12 4 13 5 14 6 15 7 16 8 17 9 18 10 19 11 8 12
REMARK SMILES IDX 7 13 6 14 5 15 4 16 3 17 2 18 1 19
REMARK H PARENT
REMARK Flexibility Score: inf
ROOT
ATOM      1  C   UNL     1       6.116  -5.832  -5.230  1.00  0.00     0.000 C 
ENDROOT
BRANCH   1   2
ATOM      2  C   UNL     1       6.145  -4.492  -5.983  1.00  0.00     0.000 C 
BRANCH   2   3
ATOM      3  C   UNL     1       4.738  -3.977  -6.330  1.00  0.00     0.000 C 
BRANCH   3   4
ATOM      4  C   UNL     1       4.745  -2.964  -7.487  1.00  0.00     0.000 C 
BRANCH   4   5
ATOM      5  C   UNL     1       4.460  -3.618  -8.851  1.00  0.00     0.001 C 
BRANCH   5   6
ATOM      6  C   UNL     1       3.580  -4.879  -8.730  1.00  0.00     0.009 C 
BRANCH   6   7
ATOM      7  C   UNL     1       4.256  -6.172  -9.240  1.00  0.00     0.032 C 
ATOM      8  C   UNL     1       5.769  -5.968  -9.370  1.00  0.00     0.014 C 
BRANCH   7   9
ATOM      9  C   UNL     1       3.980  -7.335  -8.324  1.00  0.00     0.044 C 
ATOM     10  O   UNL     1       3.405  -7.147  -7.219  1.00  0.00    -0.550 OA
ATOM     11  O   UNL     1       4.359  -8.621  -8.689  1.00  0.00    -0.550 OA
ENDBRANCH   7   9
ENDBRANCH   6   7
ENDBRANCH   5   6
ENDBRANCH   4   5
ENDBRANCH   3   4
ENDBRANCH   2   3
ENDBRANCH   1   2
BRANCH   1  12
ATOM     12  C   UNL     1       6.942  -6.925  -5.931  1.00  0.00     0.000 C 
BRANCH  12  13
ATOM     13  C   UNL     1       8.458  -6.762  -5.690  1.00  0.00    -0.000 C 
BRANCH  13  14
ATOM     14  C   UNL     1       9.257  -6.437  -6.968  1.00  0.00    -0.000 C 
BRANCH  14  15
ATOM     15  C   UNL     1       9.853  -5.019  -7.019  1.00  0.00    -0.000 C 
BRANCH  15  16
ATOM     16  C   UNL     1       9.258  -4.103  -8.105  1.00  0.00    -0.000 C 
BRANCH  16  17
ATOM     17  C   UNL     1       8.800  -2.743  -7.556  1.00  0.00    -0.000 C 
BRANCH  17  18
ATOM     18  C   UNL     1       8.181  -1.883  -8.665  1.00  0.00    -0.003 C 
ATOM     19  C   UNL     1       7.886  -2.717  -9.909  1.00  0.00     0.004 C 
ENDBRANCH  17  18
ENDBRANCH  16  17
ENDBRANCH  15  16
ENDBRANCH  14  15
ENDBRANCH  13  14
ENDBRANCH  12  13
ENDBRANCH   1  12
TORSDOF 14
ENDMDL
MODEL 2
REMARK VINA RESULT:    -3.603      2.128      5.628
REMARK INTER + INTRA:          -9.164
REMARK INTER:                  -7.799
REMARK INTRA:                  -1.365
REMARK UNBOUND:                -2.611
REMARK SMILES CCCCCCCCCCCCCC[C@@H](C)C(=O)[O-]
REMARK SMILES IDX 9 1 10 2 11 3 12 4 13 5 14 6 15 7 16 8 17 9 18 10 19 11 8 12
REMARK SMILES IDX 7 13 6 14 5 15 4 16 3 17 2 18 1 19
REMARK H PARENT
REMARK Flexibility Score: inf
ROOT
ATOM      1  C   UNL     1       7.528  -3.460  -9.418  1.00  0.00     0.000 C 
ENDROOT
BRANCH   1   2
ATOM      2  C   UNL     1       9.009  -3.245  -9.069  1.00  0.00     0.000 C 
BRANCH   2   3
ATOM      3  C   UNL     1       9.233  -2.996  -7.567  1.00  0.00     0.000 C 
BRANCH   3   4
ATOM      4  C   UNL     1       8.670  -4.124  -6.687  1.00  0.00     0.000 C 
BRANCH   4   5
ATOM      5  C   UNL     1       9.244  -5.505  -7.053  1.00  0.00     0.001 C 
BRANCH   5   6
ATOM      6  C   UNL     1       8.152  -6.507  -7.476  1.00  0.00     0.009 C 
BRANCH   6   7
ATOM      7  C   UNL     1       7.573  -7.341  -6.310  1.00  0.00     0.032 C 
ATOM      8  C   UNL     1       8.509  -7.285  -5.098  1.00  0.00     0.014 C 
BRANCH   7   9
ATOM      9  C   UNL     1       6.204  -6.858  -5.915  1.00  0.00     0.044 C 
ATOM     10  O   UNL     1       5.191  -7.223  -6.567  1.00  0.00    -0.550 OA
ATOM     11  O   UNL     1       6.047  -6.004  -4.828  1.00  0.00    -0.550 OA
ENDBRANCH   7   9
ENDBRANCH   6   7
ENDBRANCH   5   6
ENDBRANCH   4   5
ENDBRANCH   3   4
ENDBRANCH   2   3
ENDBRANCH   1   2
BRANCH   1  12
ATOM     12  C   UNL     1       6.647  -2.256  -9.042  1.00  0.00     0.000 C 
BRANCH  12  13
ATOM     13  C   UNL     1       5.229  -2.680  -8.601  1.00  0.00    -0.000 C 
BRANCH  13  14
ATOM     14  C   UNL     1       5.188  -3.370  -7.223  1.00  0.00    -0.000 C 
BRANCH  14  15
ATOM     15  C   UNL     1       3.777  -3.696  -6.701  1.00  0.00    -0.000 C 
BRANCH  15  16
ATOM     16  C   UNL     1       3.611  -3.596  -5.173  1.00  0.00    -0.000 C 
BRANCH  16  17
ATOM     17  C   UNL     1       2.552  -2.565  -4.752  1.00  0.00    -0.000 C 
BRANCH  17  18
ATOM     18  C   UNL     1       1.888  -2.969  -3.430  1.00  0.00    -0.003 C 
ATOM     19  C   UNL     1       2.591  -2.322  -2.240  1.00  0.00     0.004 C 
ENDBRANCH  17  18
ENDBRANCH  16  17
ENDBRANCH  15  16
ENDBRANCH  14  15
ENDBRANCH  13  14
ENDBRANCH  12  13
ENDBRANCH   1  12
TORSDOF 14
ENDMDL
MODEL 3
REMARK VINA RESULT:    -3.580      1.827      5.500
REMARK INTER + INTRA:          -9.122
REMARK INTER:                  -7.661
REMARK INTRA:                  -1.461
REMARK UNBOUND:                -2.611
REMARK SMILES CCCCCCCCCCCCCC[C@@H](C)C(=O)[O-]
REMARK SMILES IDX 9 1 10 2 11 3 12 4 13 5 14 6 15 7 16 8 17 9 18 10 19 11 8 12
REMARK SMILES IDX 7 13 6 14 5 15 4 16 3 17 2 18 1 19
REMARK H PARENT
REMARK Flexibility Score: inf
ROOT
ATOM      1  C   UNL     1       7.253  -2.499  -8.644  1.00  0.00     0.000 C 
ENDROOT
BRANCH   1   2
ATOM      2  C   UNL     1       8.396  -2.355  -7.627  1.00  0.00     0.000 C 
BRANCH   2   3
ATOM      3  C   UNL     1       9.653  -3.144  -8.031  1.00  0.00     0.000 C 
BRANCH   3   4
ATOM      4  C   UNL     1       9.896  -4.372  -7.138  1.00  0.00     0.000 C 
BRANCH   4   5
ATOM      5  C   UNL     1       8.856  -5.484  -7.363  1.00  0.00     0.001 C 
BRANCH   5   6
ATOM      6  C   UNL     1       8.748  -6.445  -6.162  1.00  0.00     0.009 C 
BRANCH   6   7
ATOM      7  C   UNL     1       7.324  -6.565  -5.574  1.00  0.00     0.032 C 
ATOM      8  C   UNL     1       6.629  -5.199  -5.575  1.00  0.00     0.014 C 
BRANCH   7   9
ATOM      9  C   UNL     1       6.492  -7.556  -6.343  1.00  0.00     0.044 C 
ATOM     10  O   UNL     1       5.238  -7.553  -6.230  1.00  0.00    -0.550 OA
ATOM     11  O   UNL     1       7.102  -8.482  -7.183  1.00  0.00    -0.550 OA
ENDBRANCH   7   9
ENDBRANCH   6   7
ENDBRANCH   5   6
ENDBRANCH   4   5
ENDBRANCH   3   4
ENDBRANCH   2   3
ENDBRANCH   1   2
BRANCH   1  12
ATOM     12  C   UNL     1       5.890  -2.753  -7.976  1.00  0.00     0.000 C 
BRANCH  12  13
ATOM     13  C   UNL     1       4.720  -2.678  -8.981  1.00  0.00    -0.000 C 
BRANCH  13  14
ATOM     14  C   UNL     1       3.746  -3.868  -8.889  1.00  0.00    -0.000 C 
BRANCH  14  15
ATOM     15  C   UNL     1       3.691  -4.559  -7.514  1.00  0.00    -0.000 C 
BRANCH  15  16
ATOM     16  C   UNL     1       2.640  -3.990  -6.542  1.00  0.00    -0.000 C 
BRANCH  16  17
ATOM     17  C   UNL     1       3.260  -3.405  -5.264  1.00  0.00    -0.000 C 
BRANCH  17  18
ATOM     18  C   UNL     1       2.200  -2.686  -4.419  1.00  0.00    -0.003 C 
ATOM     19  C   UNL     1       2.519  -2.789  -2.931  1.00  0.00     0.004 C 
ENDBRANCH  17  18
ENDBRANCH  16  17
ENDBRANCH  15  16
ENDBRANCH  14  15
ENDBRANCH  13  14
ENDBRANCH  12  13
ENDBRANCH   1  12
TORSDOF 14
ENDMDL
MODEL 4
REMARK VINA RESULT:    -3.451      0.878      3.268
REMARK INTER + INTRA:          -8.887
REMARK INTER:                  -6.691
REMARK INTRA:                  -2.196
REMARK UNBOUND:                -2.611
REMARK SMILES CCCCCCCCCCCCCC[C@@H](C)C(=O)[O-]
REMARK SMILES IDX 9 1 10 2 11 3 12 4 13 5 14 6 15 7 16 8 17 9 18 10 19 11 8 12
REMARK SMILES IDX 7 13 6 14 5 15 4 16 3 17 2 18 1 19
REMARK H PARENT
REMARK Flexibility Score: inf
ROOT
ATOM      1  C   UNL     1       7.705  -2.446  -7.604  1.00  0.00     0.000 C 
ENDROOT
BRANCH   1   2
ATOM      2  C   UNL     1       6.710  -2.707  -8.745  1.00  0.00     0.000 C 
BRANCH   2   3
ATOM      3  C   UNL     1       5.245  -2.623  -8.285  1.00  0.00     0.000 C 
BRANCH   3   4
ATOM      4  C   UNL     1       4.258  -2.522  -9.460  1.00  0.00     0.000 C 
BRANCH   4   5
ATOM      5  C   UNL     1       3.400  -3.789  -9.625  1.00  0.00     0.001 C 
BRANCH   5   6
ATOM      6  C   UNL     1       3.759  -4.884  -8.601  1.00  0.00     0.009 C 
BRANCH   6   7
ATOM      7  C   UNL     1       4.253  -6.205  -9.235  1.00  0.00     0.032 C 
ATOM      8  C   UNL     1       5.726  -6.083  -9.640  1.00  0.00     0.014 C 
BRANCH   7   9
ATOM      9  C   UNL     1       4.083  -7.366  -8.292  1.00  0.00     0.044 C 
ATOM     10  O   UNL     1       4.762  -8.414  -8.450  1.00  0.00    -0.550 OA
ATOM     11  O   UNL     1       3.174  -7.289  -7.242  1.00  0.00    -0.550 OA
ENDBRANCH   7   9
ENDBRANCH   6   7
ENDBRANCH   5   6
ENDBRANCH   4   5
ENDBRANCH   3   4
ENDBRANCH   2   3
ENDBRANCH   1   2
BRANCH   1  12
ATOM     12  C   UNL     1       9.143  -2.225  -8.107  1.00  0.00     0.000 C 
BRANCH  12  13
ATOM     13  C   UNL     1       9.922  -3.549  -8.261  1.00  0.00    -0.000 C 
BRANCH  13  14
ATOM     14  C   UNL     1       9.931  -4.415  -6.986  1.00  0.00    -0.000 C 
BRANCH  14  15
ATOM     15  C   UNL     1       9.606  -5.903  -7.208  1.00  0.00    -0.000 C 
BRANCH  15  16
ATOM     16  C   UNL     1       8.834  -6.577  -6.058  1.00  0.00    -0.000 C 
BRANCH  16  17
ATOM     17  C   UNL     1       7.427  -7.039  -6.470  1.00  0.00    -0.000 C 
BRANCH  17  18
ATOM     18  C   UNL     1       6.372  -6.538  -5.476  1.00  0.00    -0.003 C 
ATOM     19  C   UNL     1       6.043  -5.068  -5.716  1.00  0.00     0.004 C 
ENDBRANCH  17  18
ENDBRANCH  16  17
ENDBRANCH  15  16
ENDBRANCH  14  15
ENDBRANCH  13  14
ENDBRANCH  12  13
ENDBRANCH   1  12
TORSDOF 14
ENDMDL
MODEL 5
REMARK VINA RESULT:    -3.406      1.441      4.998
REMARK INTER + INTRA:          -8.805
REMARK INTER:                  -6.434
REMARK INTRA:                  -2.371
REMARK UNBOUND:                -2.611
REMARK SMILES CCCCCCCCCCCCCC[C@@H](C)C(=O)[O-]
REMARK SMILES IDX 9 1 10 2 11 3 12 4 13 5 14 6 15 7 16 8 17 9 18 10 19 11 8 12
REMARK SMILES IDX 7 13 6 14 5 15 4 16 3 17 2 18 1 19
REMARK H PARENT
REMARK Flexibility Score: inf
ROOT
ATOM      1  C   UNL     1       8.481  -1.692  -8.572  1.00  0.00     0.000 C 
ENDROOT
BRANCH   1   2
ATOM      2  C   UNL     1       9.578  -2.732  -8.293  1.00  0.00     0.000 C 
BRANCH   2   3
ATOM      3  C   UNL     1       9.293  -3.573  -7.038  1.00  0.00     0.000 C 
BRANCH   3   4
ATOM      4  C   UNL     1       7.890  -3.321  -6.460  1.00  0.00     0.000 C 
BRANCH   4   5
ATOM      5  C   UNL     1       7.120  -4.624  -6.181  1.00  0.00     0.001 C 
BRANCH   5   6
ATOM      6  C   UNL     1       7.315  -5.677  -7.291  1.00  0.00     0.009 C 
BRANCH   6   7
ATOM      7  C   UNL     1       7.767  -7.062  -6.775  1.00  0.00     0.032 C 
ATOM      8  C   UNL     1       8.600  -6.911  -5.498  1.00  0.00     0.014 C 
BRANCH   7   9
ATOM      9  C   UNL     1       6.589  -7.961  -6.508  1.00  0.00     0.044 C 
ATOM     10  O   UNL     1       5.662  -7.578  -5.746  1.00  0.00    -0.550 OA
ATOM     11  O   UNL     1       6.517  -9.218  -7.097  1.00  0.00    -0.550 OA
ENDBRANCH   7   9
ENDBRANCH   6   7
ENDBRANCH   5   6
ENDBRANCH   4   5
ENDBRANCH   3   4
ENDBRANCH   2   3
ENDBRANCH   1   2
BRANCH   1  12
ATOM     12  C   UNL     1       7.866  -1.838  -9.976  1.00  0.00     0.000 C 
BRANCH  12  13
ATOM     13  C   UNL     1       6.718  -2.871 -10.010  1.00  0.00    -0.000 C 
BRANCH  13  14
ATOM     14  C   UNL     1       5.325  -2.256  -9.777  1.00  0.00    -0.000 C 
BRANCH  14  15
ATOM     15  C   UNL     1       4.566  -2.810  -8.557  1.00  0.00    -0.000 C 
BRANCH  15  16
ATOM     16  C   UNL     1       3.717  -4.065  -8.835  1.00  0.00    -0.000 C 
BRANCH  16  17
ATOM     17  C   UNL     1       3.809  -5.111  -7.713  1.00  0.00    -0.000 C 
BRANCH  17  18
ATOM     18  C   UNL     1       3.648  -6.530  -8.272  1.00  0.00    -0.003 C 
ATOM     19  C   UNL     1       4.553  -6.753  -9.479  1.00  0.00     0.004 C 
ENDBRANCH  17  18
ENDBRANCH  16  17
ENDBRANCH  15  16
ENDBRANCH  14  15
ENDBRANCH  13  14
ENDBRANCH  12  13
ENDBRANCH   1  12
TORSDOF 14
ENDMDL
MODEL 6
REMARK VINA RESULT:    -3.379      1.817      3.622
REMARK INTER + INTRA:          -8.756
REMARK INTER:                  -6.151
REMARK INTRA:                  -2.604
REMARK UNBOUND:                -2.611
REMARK SMILES CCCCCCCCCCCCCC[C@@H](C)C(=O)[O-]
REMARK SMILES IDX 9 1 10 2 11 3 12 4 13 5 14 6 15 7 16 8 17 9 18 10 19 11 8 12
REMARK SMILES IDX 7 13 6 14 5 15 4 16 3 17 2 18 1 19
REMARK H PARENT
REMARK Flexibility Score: inf
ROOT
ATOM      1  C   UNL     1       8.909  -3.792  -6.777  1.00  0.00     0.000 C 
ENDROOT
BRANCH   1   2
ATOM      2  C   UNL     1       7.951  -2.609  -6.986  1.00  0.00     0.000 C 
BRANCH   2   3
ATOM      3  C   UNL     1       6.599  -3.038  -7.582  1.00  0.00     0.000 C 
BRANCH   3   4
ATOM      4  C   UNL     1       6.493  -2.743  -9.087  1.00  0.00     0.000 C 
BRANCH   4   5
ATOM      5  C   UNL     1       5.336  -3.502  -9.761  1.00  0.00     0.001 C 
BRANCH   5   6
ATOM      6  C   UNL     1       3.980  -3.246  -9.073  1.00  0.00     0.009 C 
BRANCH   6   7
ATOM      7  C   UNL     1       3.223  -4.532  -8.669  1.00  0.00     0.032 C 
ATOM      8  C   UNL     1       3.960  -5.770  -9.191  1.00  0.00     0.014 C 
BRANCH   7   9
ATOM      9  C   UNL     1       3.064  -4.631  -7.176  1.00  0.00     0.044 C 
ATOM     10  O   UNL     1       1.915  -4.607  -6.659  1.00  0.00    -0.550 OA
ATOM     11  O   UNL     1       4.181  -4.748  -6.357  1.00  0.00    -0.550 OA
ENDBRANCH   7   9
ENDBRANCH   6   7
ENDBRANCH   5   6
ENDBRANCH   4   5
ENDBRANCH   3   4
ENDBRANCH   2   3
ENDBRANCH   1   2
BRANCH   1  12
ATOM     12  C   UNL     1       9.924  -3.945  -7.924  1.00  0.00     0.000 C 
BRANCH  12  13
ATOM     13  C   UNL     1       9.926  -5.368  -8.522  1.00  0.00    -0.000 C 
BRANCH  13  14
ATOM     14  C   UNL     1       8.876  -5.576  -9.631  1.00  0.00    -0.000 C 
BRANCH  14  15
ATOM     15  C   UNL     1       7.623  -6.362  -9.201  1.00  0.00    -0.000 C 
BRANCH  15  16
ATOM     16  C   UNL     1       7.799  -7.223  -7.936  1.00  0.00    -0.000 C 
BRANCH  16  17
ATOM     17  C   UNL     1       6.635  -7.074  -6.944  1.00  0.00    -0.000 C 
BRANCH  17  18
ATOM     18  C   UNL     1       7.140  -6.619  -5.569  1.00  0.00    -0.003 C 
ATOM     19  C   UNL     1       8.500  -7.232  -5.251  1.00  0.00     0.004 C 
ENDBRANCH  17  18
ENDBRANCH  16  17
ENDBRANCH  15  16
ENDBRANCH  14  15
ENDBRANCH  13  14
ENDBRANCH  12  13
ENDBRANCH   1  12
TORSDOF 14
ENDMDL
MODEL 7
REMARK VINA RESULT:    -3.362      1.468      3.856
REMARK INTER + INTRA:          -8.725
REMARK INTER:                  -6.124
REMARK INTRA:                  -2.601
REMARK UNBOUND:                -2.611
REMARK SMILES CCCCCCCCCCCCCC[C@@H](C)C(=O)[O-]
REMARK SMILES IDX 9 1 10 2 11 3 12 4 13 5 14 6 15 7 16 8 17 9 18 10 19 11 8 12
REMARK SMILES IDX 7 13 6 14 5 15 4 16 3 17 2 18 1 19
REMARK H PARENT
REMARK Flexibility Score: inf
ROOT
ATOM      1  C   UNL     1       4.461  -4.267  -6.974  1.00  0.00     0.000 C 
ENDROOT
BRANCH   1   2
ATOM      2  C   UNL     1       3.378  -4.790  -7.931  1.00  0.00     0.000 C 
BRANCH   2   3
ATOM      3  C   UNL     1       3.745  -6.147  -8.556  1.00  0.00     0.000 C 
BRANCH   3   4
ATOM      4  C   UNL     1       4.889  -6.041  -9.578  1.00  0.00     0.000 C 
BRANCH   4   5
ATOM      5  C   UNL     1       6.094  -6.926  -9.214  1.00  0.00     0.001 C 
BRANCH   5   6
ATOM      6  C   UNL     1       7.150  -6.175  -8.379  1.00  0.00     0.009 C 
BRANCH   6   7
ATOM      7  C   UNL     1       7.626  -6.941  -7.124  1.00  0.00     0.032 C 
ATOM      8  C   UNL     1       7.977  -5.960  -6.000  1.00  0.00     0.014 C 
BRANCH   7   9
ATOM      9  C   UNL     1       6.578  -7.909  -6.640  1.00  0.00     0.044 C 
ATOM     10  O   UNL     1       5.615  -7.501  -5.940  1.00  0.00    -0.550 OA
ATOM     11  O   UNL     1       6.668  -9.258  -6.963  1.00  0.00    -0.550 OA
ENDBRANCH   7   9
ENDBRANCH   6   7
ENDBRANCH   5   6
ENDBRANCH   4   5
ENDBRANCH   3   4
ENDBRANCH   2   3
ENDBRANCH   1   2
BRANCH   1  12
ATOM     12  C   UNL     1       5.160  -3.000  -7.501  1.00  0.00     0.000 C 
BRANCH  12  13
ATOM     13  C   UNL     1       4.462  -2.421  -8.750  1.00  0.00    -0.000 C 
BRANCH  13  14
ATOM     14  C   UNL     1       5.369  -2.358  -9.994  1.00  0.00    -0.000 C 
BRANCH  14  15
ATOM     15  C   UNL     1       6.834  -2.766  -9.752  1.00  0.00    -0.000 C 
BRANCH  15  16
ATOM     16  C   UNL     1       7.854  -1.616  -9.856  1.00  0.00    -0.000 C 
BRANCH  16  17
ATOM     17  C   UNL     1       8.765  -1.512  -8.623  1.00  0.00    -0.000 C 
BRANCH  17  18
ATOM     18  C   UNL     1       8.865  -2.861  -7.899  1.00  0.00    -0.003 C 
ATOM     19  C   UNL     1      10.125  -3.616  -8.312  1.00  0.00     0.004 C 
ENDBRANCH  17  18
ENDBRANCH  16  17
ENDBRANCH  15  16
ENDBRANCH  14  15
ENDBRANCH  13  14
ENDBRANCH  12  13
ENDBRANCH   1  12
TORSDOF 14
ENDMDL
MODEL 8
REMARK VINA RESULT:    -3.357      1.785      4.186
REMARK INTER + INTRA:          -8.716
REMARK INTER:                  -6.541
REMARK INTRA:                  -2.175
REMARK UNBOUND:                -2.611
REMARK SMILES CCCCCCCCCCCCCC[C@@H](C)C(=O)[O-]
REMARK SMILES IDX 9 1 10 2 11 3 12 4 13 5 14 6 15 7 16 8 17 9 18 10 19 11 8 12
REMARK SMILES IDX 7 13 6 14 5 15 4 16 3 17 2 18 1 19
REMARK H PARENT
REMARK Flexibility Score: inf
ROOT
ATOM      1  C   UNL     1       3.704  -3.547  -9.820  1.00  0.00     0.000 C 
ENDROOT
BRANCH   1   2
ATOM      2  C   UNL     1       3.369  -4.465  -8.634  1.00  0.00     0.000 C 
BRANCH   2   3
ATOM      3  C   UNL     1       3.859  -5.908  -8.844  1.00  0.00     0.000 C 
BRANCH   3   4
ATOM      4  C   UNL     1       5.276  -5.973  -9.438  1.00  0.00     0.000 C 
BRANCH   4   5
ATOM      5  C   UNL     1       6.334  -6.396  -8.403  1.00  0.00     0.001 C 
BRANCH   5   6
ATOM      6  C   UNL     1       5.709  -7.024  -7.140  1.00  0.00     0.009 C 
BRANCH   6   7
ATOM      7  C   UNL     1       6.289  -6.483  -5.813  1.00  0.00     0.032 C 
ATOM      8  C   UNL     1       7.781  -6.813  -5.708  1.00  0.00     0.014 C 
BRANCH   7   9
ATOM      9  C   UNL     1       6.090  -4.996  -5.692  1.00  0.00     0.044 C 
ATOM     10  O   UNL     1       4.932  -4.521  -5.551  1.00  0.00    -0.550 OA
ATOM     11  O   UNL     1       7.182  -4.136  -5.735  1.00  0.00    -0.550 OA
ENDBRANCH   7   9
ENDBRANCH   6   7
ENDBRANCH   5   6
ENDBRANCH   4   5
ENDBRANCH   3   4
ENDBRANCH   2   3
ENDBRANCH   1   2
BRANCH   1  12
ATOM     12  C   UNL     1       4.479  -2.286  -9.396  1.00  0.00     0.000 C 
BRANCH  12  13
ATOM     13  C   UNL     1       5.701  -2.617  -8.513  1.00  0.00    -0.000 C 
BRANCH  13  14
ATOM     14  C   UNL     1       7.054  -2.370  -9.209  1.00  0.00    -0.000 C 
BRANCH  14  15
ATOM     15  C   UNL     1       8.212  -1.995  -8.265  1.00  0.00    -0.000 C 
BRANCH  15  16
ATOM     16  C   UNL     1       9.575  -2.609  -8.636  1.00  0.00    -0.000 C 
BRANCH  16  17
ATOM     17  C   UNL     1      10.028  -3.701  -7.655  1.00  0.00    -0.000 C 
BRANCH  17  18
ATOM     18  C   UNL     1       9.845  -5.096  -8.265  1.00  0.00    -0.003 C 
ATOM     19  C   UNL     1       9.724  -5.022  -9.784  1.00  0.00     0.004 C 
ENDBRANCH  17  18
ENDBRANCH  16  17
ENDBRANCH  15  16
ENDBRANCH  14  15
ENDBRANCH  13  14
ENDBRANCH  12  13
ENDBRANCH   1  12
TORSDOF 14
ENDMDL
MODEL 9
REMARK VINA RESULT:    -3.293      2.694      5.516
REMARK INTER + INTRA:          -8.599
REMARK INTER:                  -5.993
REMARK INTRA:                  -2.606
REMARK UNBOUND:                -2.611
REMARK SMILES CCCCCCCCCCCCCC[C@@H](C)C(=O)[O-]
REMARK SMILES IDX 9 1 10 2 11 3 12 4 13 5 14 6 15 7 16 8 17 9 18 10 19 11 8 12
REMARK SMILES IDX 7 13 6 14 5 15 4 16 3 17 2 18 1 19
REMARK H PARENT
REMARK Flexibility Score: inf
ROOT
ATOM      1  C   UNL     1       6.936  -6.483  -6.433  1.00  0.00     0.000 C 
ENDROOT
BRANCH   1   2
ATOM      2  C   UNL     1       8.166  -6.284  -7.333  1.00  0.00     0.000 C 
BRANCH   2   3
ATOM      3  C   UNL     1       9.461  -6.074  -6.530  1.00  0.00     0.000 C 
BRANCH   3   4
ATOM      4  C   UNL     1      10.072  -4.679  -6.742  1.00  0.00     0.000 C 
BRANCH   4   5
ATOM      5  C   UNL     1      10.107  -4.265  -8.225  1.00  0.00     0.001 C 
BRANCH   5   6
ATOM      6  C   UNL     1       9.628  -2.816  -8.446  1.00  0.00     0.009 C 
BRANCH   6   7
ATOM      7  C   UNL     1       8.730  -2.631  -9.691  1.00  0.00     0.032 C 
ATOM      8  C   UNL     1       7.936  -3.911  -9.972  1.00  0.00     0.014 C 
BRANCH   7   9
ATOM      9  C   UNL     1       7.780  -1.476  -9.517  1.00  0.00     0.044 C 
ATOM     10  O   UNL     1       6.537  -1.676  -9.499  1.00  0.00    -0.550 OA
ATOM     11  O   UNL     1       8.268  -0.181  -9.376  1.00  0.00    -0.550 OA
ENDBRANCH   7   9
ENDBRANCH   6   7
ENDBRANCH   5   6
ENDBRANCH   4   5
ENDBRANCH   3   4
ENDBRANCH   2   3
ENDBRANCH   1   2
BRANCH   1  12
ATOM     12  C   UNL     1       6.559  -5.211  -5.652  1.00  0.00     0.000 C 
BRANCH  12  13
ATOM     13  C   UNL     1       6.424  -3.977  -6.570  1.00  0.00    -0.000 C 
BRANCH  13  14
ATOM     14  C   UNL     1       4.966  -3.620  -6.920  1.00  0.00    -0.000 C 
BRANCH  14  15
ATOM     15  C   UNL     1       4.438  -4.247  -8.223  1.00  0.00    -0.000 C 
BRANCH  15  16
ATOM     16  C   UNL     1       3.574  -5.508  -8.034  1.00  0.00    -0.000 C 
BRANCH  16  17
ATOM     17  C   UNL     1       3.810  -6.565  -9.124  1.00  0.00    -0.000 C 
BRANCH  17  18
ATOM     18  C   UNL     1       5.208  -6.418  -9.737  1.00  0.00    -0.003 C 
ATOM     19  C   UNL     1       5.882  -7.777  -9.904  1.00  0.00     0.004 C 
ENDBRANCH  17  18
ENDBRANCH  16  17
ENDBRANCH  15  16
ENDBRANCH  14  15
ENDBRANCH  13  14
ENDBRANCH  12  13
ENDBRANCH   1  12
TORSDOF 14
ENDMDL
