MODEL 1
REMARK VINA RESULT:    -3.055      0.000      0.000
REMARK INTER + INTRA:          -3.713
REMARK INTER:                  -3.591
REMARK INTRA:                  -0.122
REMARK UNBOUND:                -0.122
REMARK SMILES O=C([O-])CCC(=O)[O-]
REMARK SMILES IDX 4 1 2 2 1 3 3 4 5 5 6 6 7 7 8 8
REMARK H PARENT
REMARK Flexibility Score: inf
ROOT
ATOM      1  C   UNL     1      23.787  -3.982  12.754  1.00  0.00     0.059 C 
ENDROOT
BRANCH   1   2
ATOM      2  C   UNL     1      24.719  -5.044  12.255  1.00  0.00     0.042 C 
ATOM      3  O   UNL     1      25.761  -4.728  11.624  1.00  0.00    -0.550 OA
ATOM      4  O   UNL     1      24.457  -6.382  12.524  1.00  0.00    -0.550 OA
ENDBRANCH   1   2
BRANCH   1   5
ATOM      5  C   UNL     1      22.534  -3.874  11.878  1.00  0.00     0.059 C 
BRANCH   5   6
ATOM      6  C   UNL     1      22.690  -2.828  10.817  1.00  0.00     0.042 C 
ATOM      7  O   UNL     1      21.967  -2.855   9.787  1.00  0.00    -0.550 OA
ATOM      8  O   UNL     1      23.665  -1.847  10.948  1.00  0.00    -0.550 OA
ENDBRANCH   5   6
ENDBRANCH   1   5
TORSDOF 3
ENDMDL
MODEL 2
REMARK VINA RESULT:    -3.052     11.658     12.502
REMARK INTER + INTRA:          -3.709
REMARK INTER:                  -3.594
REMARK INTRA:                  -0.115
REMARK UNBOUND:                -0.122
REMARK SMILES O=C([O-])CCC(=O)[O-]
REMARK SMILES IDX 4 1 2 2 1 3 3 4 5 5 6 6 7 7 8 8
REMARK H PARENT
REMARK Flexibility Score: inf
ROOT
ATOM      1  C   UNL     1      19.443  -8.331  23.278  1.00  0.00     0.059 C 
ENDROOT
BRANCH   1   2
ATOM      2  C   UNL     1      18.536  -8.775  22.171  1.00  0.00     0.042 C 
ATOM      3  O   UNL     1      18.243  -9.993  22.042  1.00  0.00    -0.550 OA
ATOM      4  O   UNL     1      17.982  -7.839  21.307  1.00  0.00    -0.550 OA
ENDBRANCH   1   2
BRANCH   1   5
ATOM      5  C   UNL     1      20.897  -8.223  22.808  1.00  0.00     0.059 C 
BRANCH   5   6
ATOM      6  C   UNL     1      21.317  -6.795  22.636  1.00  0.00     0.042 C 
ATOM      7  O   UNL     1      22.538  -6.494  22.582  1.00  0.00    -0.550 OA
ATOM      8  O   UNL     1      20.358  -5.792  22.575  1.00  0.00    -0.550 OA
ENDBRANCH   5   6
ENDBRANCH   1   5
TORSDOF 3
ENDMDL
MODEL 3
REMARK VINA RESULT:    -3.034     11.965     12.692
REMARK INTER + INTRA:          -3.688
REMARK INTER:                  -3.568
REMARK INTRA:                  -0.120
REMARK UNBOUND:                -0.122
REMARK SMILES O=C([O-])CCC(=O)[O-]
REMARK SMILES IDX 4 1 2 2 1 3 3 4 5 5 6 6 7 7 8 8
REMARK H PARENT
REMARK Flexibility Score: inf
ROOT
ATOM      1  C   UNL     1      19.671  -8.634  22.632  1.00  0.00     0.059 C 
ENDROOT
BRANCH   1   2
ATOM      2  C   UNL     1      20.563  -7.431  22.618  1.00  0.00     0.042 C 
ATOM      3  O   UNL     1      21.813  -7.569  22.552  1.00  0.00    -0.550 OA
ATOM      4  O   UNL     1      20.012  -6.155  22.635  1.00  0.00    -0.550 OA
ENDBRANCH   1   2
BRANCH   1   5
ATOM      5  C   UNL     1      18.605  -8.560  21.534  1.00  0.00     0.059 C 
BRANCH   5   6
ATOM      6  C   UNL     1      17.227  -8.439  22.109  1.00  0.00     0.042 C 
ATOM      7  O   UNL     1      16.331  -9.264  21.792  1.00  0.00    -0.550 OA
ATOM      8  O   UNL     1      16.922  -7.387  22.964  1.00  0.00    -0.550 OA
ENDBRANCH   5   6
ENDBRANCH   1   5
TORSDOF 3
ENDMDL
MODEL 4
REMARK VINA RESULT:    -3.031     12.575     13.696
REMARK INTER + INTRA:          -3.684
REMARK INTER:                  -3.582
REMARK INTRA:                  -0.103
REMARK UNBOUND:                -0.122
REMARK SMILES O=C([O-])CCC(=O)[O-]
REMARK SMILES IDX 4 1 2 2 1 3 3 4 5 5 6 6 7 7 8 8
REMARK H PARENT
REMARK Flexibility Score: inf
ROOT
ATOM      1  C   UNL     1      18.425  -7.737  23.627  1.00  0.00     0.059 C 
ENDROOT
BRANCH   1   2
ATOM      2  C   UNL     1      19.506  -8.191  22.694  1.00  0.00     0.042 C 
ATOM      3  O   UNL     1      20.634  -8.522  23.145  1.00  0.00    -0.550 OA
ATOM      4  O   UNL     1      19.255  -8.287  21.331  1.00  0.00    -0.550 OA
ENDBRANCH   1   2
BRANCH   1   5
ATOM      5  C   UNL     1      17.070  -7.644  22.918  1.00  0.00     0.059 C 
BRANCH   5   6
ATOM      6  C   UNL     1      16.325  -8.942  22.977  1.00  0.00     0.042 C 
ATOM      7  O   UNL     1      16.015  -9.447  24.088  1.00  0.00    -0.550 OA
ATOM      8  O   UNL     1      16.010  -9.615  21.803  1.00  0.00    -0.550 OA
ENDBRANCH   5   6
ENDBRANCH   1   5
TORSDOF 3
ENDMDL
MODEL 5
REMARK VINA RESULT:    -3.011      2.410      4.278
REMARK INTER + INTRA:          -3.660
REMARK INTER:                  -3.525
REMARK INTRA:                  -0.136
REMARK UNBOUND:                -0.122
REMARK SMILES O=C([O-])CCC(=O)[O-]
REMARK SMILES IDX 4 1 2 2 1 3 3 4 5 5 6 6 7 7 8 8
REMARK H PARENT
REMARK Flexibility Score: inf
ROOT
ATOM      1  C   UNL     1      23.011  -1.418  11.436  1.00  0.00     0.059 C 
ENDROOT
BRANCH   1   2
ATOM      2  C   UNL     1      22.102  -0.764  12.431  1.00  0.00     0.042 C 
ATOM      3  O   UNL     1      22.508  -0.524  13.599  1.00  0.00    -0.550 OA
ATOM      4  O   UNL     1      20.819  -0.383  12.058  1.00  0.00    -0.550 OA
ENDBRANCH   1   2
BRANCH   1   5
ATOM      5  C   UNL     1      22.444  -2.754  10.944  1.00  0.00     0.059 C 
BRANCH   5   6
ATOM      6  C   UNL     1      22.671  -3.849  11.940  1.00  0.00     0.042 C 
ATOM      7  O   UNL     1      23.744  -3.901  12.596  1.00  0.00    -0.550 OA
ATOM      8  O   UNL     1      21.711  -4.839  12.114  1.00  0.00    -0.550 OA
ENDBRANCH   5   6
ENDBRANCH   1   5
TORSDOF 3
ENDMDL
MODEL 6
REMARK VINA RESULT:    -3.006     12.322     13.269
REMARK INTER + INTRA:          -3.655
REMARK INTER:                  -3.582
REMARK INTRA:                  -0.073
REMARK UNBOUND:                -0.122
REMARK SMILES O=C([O-])CCC(=O)[O-]
REMARK SMILES IDX 4 1 2 2 1 3 3 4 5 5 6 6 7 7 8 8
REMARK H PARENT
REMARK Flexibility Score: inf
ROOT
ATOM      1  C   UNL     1      18.025  -8.245  21.609  1.00  0.00     0.059 C 
ENDROOT
BRANCH   1   2
ATOM      2  C   UNL     1      16.712  -8.611  22.231  1.00  0.00     0.042 C 
ATOM      3  O   UNL     1      16.218  -7.890  23.138  1.00  0.00    -0.550 OA
ATOM      4  O   UNL     1      16.014  -9.724  21.780  1.00  0.00    -0.550 OA
ENDBRANCH   1   2
BRANCH   1   5
ATOM      5  C   UNL     1      19.198  -8.923  22.325  1.00  0.00     0.059 C 
BRANCH   5   6
ATOM      6  C   UNL     1      20.255  -7.934  22.711  1.00  0.00     0.042 C 
ATOM      7  O   UNL     1      21.429  -8.321  22.951  1.00  0.00    -0.550 OA
ATOM      8  O   UNL     1      19.933  -6.590  22.845  1.00  0.00    -0.550 OA
ENDBRANCH   5   6
ENDBRANCH   1   5
TORSDOF 3
ENDMDL
MODEL 7
REMARK VINA RESULT:    -2.991     13.580     14.595
REMARK INTER + INTRA:          -3.637
REMARK INTER:                  -3.592
REMARK INTRA:                  -0.045
REMARK UNBOUND:                -0.122
REMARK SMILES O=C([O-])CCC(=O)[O-]
REMARK SMILES IDX 4 1 2 2 1 3 3 4 5 5 6 6 7 7 8 8
REMARK H PARENT
REMARK Flexibility Score: inf
ROOT
ATOM      1  C   UNL     1      16.034  -8.151  23.496  1.00  0.00     0.059 C 
ENDROOT
BRANCH   1   2
ATOM      2  C   UNL     1      16.004  -8.702  24.889  1.00  0.00     0.042 C 
ATOM      3  O   UNL     1      15.609  -9.879  25.097  1.00  0.00    -0.550 OA
ATOM      4  O   UNL     1      16.451  -7.928  25.953  1.00  0.00    -0.550 OA
ENDBRANCH   1   2
BRANCH   1   5
ATOM      5  C   UNL     1      16.467  -9.212  22.479  1.00  0.00     0.059 C 
BRANCH   5   6
ATOM      6  C   UNL     1      17.416  -8.650  21.465  1.00  0.00     0.042 C 
ATOM      7  O   UNL     1      17.816  -9.360  20.505  1.00  0.00    -0.550 OA
ATOM      8  O   UNL     1      17.892  -7.352  21.604  1.00  0.00    -0.550 OA
ENDBRANCH   5   6
ENDBRANCH   1   5
TORSDOF 3
ENDMDL
MODEL 8
REMARK VINA RESULT:    -2.975      0.822      3.894
REMARK INTER + INTRA:          -3.618
REMARK INTER:                  -3.503
REMARK INTRA:                  -0.115
REMARK UNBOUND:                -0.122
REMARK SMILES O=C([O-])CCC(=O)[O-]
REMARK SMILES IDX 4 1 2 2 1 3 3 4 5 5 6 6 7 7 8 8
REMARK H PARENT
REMARK Flexibility Score: inf
ROOT
ATOM      1  C   UNL     1      22.626  -3.724  11.628  1.00  0.00     0.059 C 
ENDROOT
BRANCH   1   2
ATOM      2  C   UNL     1      22.908  -2.304  11.241  1.00  0.00     0.042 C 
ATOM      3  O   UNL     1      21.987  -1.445  11.269  1.00  0.00    -0.550 OA
ATOM      4  O   UNL     1      24.196  -1.920  10.891  1.00  0.00    -0.550 OA
ENDBRANCH   1   2
BRANCH   1   5
ATOM      5  C   UNL     1      23.492  -4.170  12.811  1.00  0.00     0.059 C 
BRANCH   5   6
ATOM      6  C   UNL     1      24.520  -5.177  12.394  1.00  0.00     0.042 C 
ATOM      7  O   UNL     1      25.545  -4.814  11.760  1.00  0.00    -0.550 OA
ATOM      8  O   UNL     1      24.324  -6.524  12.671  1.00  0.00    -0.550 OA
ENDBRANCH   5   6
ENDBRANCH   1   5
TORSDOF 3
ENDMDL
MODEL 9
REMARK VINA RESULT:    -2.962     13.445     14.607
REMARK INTER + INTRA:          -3.603
REMARK INTER:                  -3.517
REMARK INTRA:                  -0.086
REMARK UNBOUND:                -0.122
REMARK SMILES O=C([O-])CCC(=O)[O-]
REMARK SMILES IDX 4 1 2 2 1 3 3 4 5 5 6 6 7 7 8 8
REMARK H PARENT
REMARK Flexibility Score: inf
ROOT
ATOM      1  C   UNL     1      17.374  -7.558  22.867  1.00  0.00     0.059 C 
ENDROOT
BRANCH   1   2
ATOM      2  C   UNL     1      18.091  -8.561  22.015  1.00  0.00     0.042 C 
ATOM      3  O   UNL     1      17.608  -8.911  20.906  1.00  0.00    -0.550 OA
ATOM      4  O   UNL     1      19.313  -9.078  22.427  1.00  0.00    -0.550 OA
ENDBRANCH   1   2
BRANCH   1   5
ATOM      5  C   UNL     1      16.034  -8.101  23.372  1.00  0.00     0.059 C 
BRANCH   5   6
ATOM      6  C   UNL     1      16.153  -8.669  24.754  1.00  0.00     0.042 C 
ATOM      7  O   UNL     1      16.781  -8.041  25.646  1.00  0.00    -0.550 OA
ATOM      8  O   UNL     1      15.605  -9.912  25.043  1.00  0.00    -0.550 OA
ENDBRANCH   5   6
ENDBRANCH   1   5
TORSDOF 3
ENDMDL
