MODEL 1
REMARK VINA RESULT:    -5.901      0.000      0.000
REMARK INTER + INTRA:          -6.667
REMARK INTER:                  -6.419
REMARK INTRA:                  -0.248
REMARK UNBOUND:                -0.248
REMARK SMILES CC(C)c1cc2c(cc1O)[C@@]1(C)CCCC(C)(C)[C@@H]1CC2=O
REMARK SMILES IDX 4 1 9 2 8 3 7 4 6 5 5 6 21 7 22 8 20 9 19 10 11 11 13 12
REMARK SMILES IDX 14 13 15 14 16 15 17 16 18 17 12 18 2 19 1 20 3 21 10 22
REMARK H PARENT 10 23
REMARK Flexibility Score: inf
ROOT
ATOM      1  C   UNL     1      -1.000  -9.560 -38.055  1.00  0.00    -0.003 A 
ATOM      2  C   UNL     1      -0.460  -9.062 -36.854  1.00  0.00     0.119 A 
ATOM      3  C   UNL     1      -0.480  -9.850 -35.698  1.00  0.00     0.051 A 
ATOM      4  C   UNL     1      -1.054 -11.140 -35.691  1.00  0.00    -0.027 A 
ATOM      5  C   UNL     1      -1.537 -11.664 -36.915  1.00  0.00     0.022 A 
ATOM      6  C   UNL     1      -1.521 -10.865 -38.073  1.00  0.00     0.020 A 
ATOM      7  C   UNL     1      -2.045 -13.052 -36.992  1.00  0.00     0.163 C 
ATOM      8  O   UNL     1      -2.503 -13.508 -38.075  1.00  0.00    -0.294 OA
ATOM      9  C   UNL     1      -1.966 -13.956 -35.805  1.00  0.00     0.086 C 
ATOM     10  C   UNL     1      -2.086 -13.149 -34.494  1.00  0.00     0.013 C 
ATOM     11  C   UNL     1      -1.020 -11.992 -34.405  1.00  0.00    -0.003 C 
ATOM     12  C   UNL     1      -1.353 -11.090 -33.160  1.00  0.00     0.012 C 
ATOM     13  C   UNL     1      -2.156 -11.774 -32.038  1.00  0.00     0.001 C 
ATOM     14  C   UNL     1      -1.833 -13.260 -31.913  1.00  0.00     0.007 C 
ATOM     15  C   UNL     1      -2.216 -14.056 -33.198  1.00  0.00    -0.031 C 
ATOM     16  C   UNL     1      -1.338 -15.332 -33.265  1.00  0.00     0.011 C 
ATOM     17  C   UNL     1      -3.688 -14.526 -33.056  1.00  0.00     0.011 C 
ATOM     18  C   UNL     1       0.430 -12.532 -34.287  1.00  0.00     0.017 C 
ENDROOT
BRANCH   1  19
ATOM     19  C   UNL     1      -0.985  -8.723 -39.327  1.00  0.00     0.017 C 
ATOM     20  C   UNL     1      -0.286  -9.472 -40.468  1.00  0.00     0.012 C 
ATOM     21  C   UNL     1      -2.404  -8.298 -39.731  1.00  0.00     0.012 C 
ENDBRANCH   1  19
BRANCH   2  22
ATOM     22  O   UNL     1       0.104  -7.787 -36.808  1.00  0.00    -0.508 OA
ATOM     23  H   UNL     1       0.587  -7.446 -35.985  1.00  0.00     0.293 HD
ENDBRANCH   2  22
TORSDOF 2
ENDMDL
MODEL 2
REMARK VINA RESULT:    -5.860      6.744      8.297
REMARK INTER + INTRA:          -6.622
REMARK INTER:                  -6.371
REMARK INTRA:                  -0.251
REMARK UNBOUND:                -0.248
REMARK SMILES CC(C)c1cc2c(cc1O)[C@@]1(C)CCCC(C)(C)[C@@H]1CC2=O
REMARK SMILES IDX 4 1 9 2 8 3 7 4 6 5 5 6 21 7 22 8 20 9 19 10 11 11 13 12
REMARK SMILES IDX 14 13 15 14 16 15 17 16 18 17 12 18 2 19 1 20 3 21 10 22
REMARK H PARENT 10 23
REMARK Flexibility Score: inf
ROOT
ATOM      1  C   UNL     1       0.627 -10.901 -42.635  1.00  0.00    -0.003 A 
ATOM      2  C   UNL     1       0.423  -9.525 -42.848  1.00  0.00     0.119 A 
ATOM      3  C   UNL     1      -0.869  -8.991 -42.787  1.00  0.00     0.051 A 
ATOM      4  C   UNL     1      -1.995  -9.805 -42.537  1.00  0.00    -0.027 A 
ATOM      5  C   UNL     1      -1.780 -11.177 -42.258  1.00  0.00     0.022 A 
ATOM      6  C   UNL     1      -0.480 -11.710 -42.329  1.00  0.00     0.020 A 
ATOM      7  C   UNL     1      -2.909 -12.055 -41.877  1.00  0.00     0.163 C 
ATOM      8  O   UNL     1      -2.722 -13.283 -41.659  1.00  0.00    -0.294 OA
ATOM      9  C   UNL     1      -4.279 -11.489 -41.685  1.00  0.00     0.086 C 
ATOM     10  C   UNL     1      -4.506 -10.278 -42.615  1.00  0.00     0.013 C 
ATOM     11  C   UNL     1      -3.398  -9.172 -42.437  1.00  0.00    -0.003 C 
ATOM     12  C   UNL     1      -3.575  -8.090 -43.566  1.00  0.00     0.012 C 
ATOM     13  C   UNL     1      -4.990  -7.977 -44.164  1.00  0.00     0.001 C 
ATOM     14  C   UNL     1      -6.080  -8.282 -43.140  1.00  0.00     0.007 C 
ATOM     15  C   UNL     1      -6.002  -9.749 -42.618  1.00  0.00    -0.031 C 
ATOM     16  C   UNL     1      -6.664  -9.806 -41.216  1.00  0.00     0.011 C 
ATOM     17  C   UNL     1      -6.853 -10.644 -43.557  1.00  0.00     0.011 C 
ATOM     18  C   UNL     1      -3.463  -8.489 -41.045  1.00  0.00     0.017 C 
ENDROOT
BRANCH   1  19
ATOM     19  C   UNL     1       2.025 -11.503 -42.693  1.00  0.00     0.017 C 
ATOM     20  C   UNL     1       2.239 -12.499 -41.547  1.00  0.00     0.012 C 
ATOM     21  C   UNL     1       2.293 -12.160 -44.054  1.00  0.00     0.012 C 
ENDBRANCH   1  19
BRANCH   2  22
ATOM     22  O   UNL     1       1.503  -8.682 -43.115  1.00  0.00    -0.508 OA
ATOM     23  H   UNL     1       1.731  -8.389 -44.057  1.00  0.00     0.293 HD
ENDBRANCH   2  22
TORSDOF 2
ENDMDL
MODEL 3
REMARK VINA RESULT:    -5.821      5.753      8.748
REMARK INTER + INTRA:          -6.580
REMARK INTER:                  -6.329
REMARK INTRA:                  -0.251
REMARK UNBOUND:                -0.248
REMARK SMILES CC(C)c1cc2c(cc1O)[C@@]1(C)CCCC(C)(C)[C@@H]1CC2=O
REMARK SMILES IDX 4 1 9 2 8 3 7 4 6 5 5 6 21 7 22 8 20 9 19 10 11 11 13 12
REMARK SMILES IDX 14 13 15 14 16 15 17 16 18 17 12 18 2 19 1 20 3 21 10 22
REMARK H PARENT 10 23
REMARK Flexibility Score: inf
ROOT
ATOM      1  C   UNL     1      -6.354 -10.683 -44.556  1.00  0.00    -0.003 A 
ATOM      2  C   UNL     1      -6.353 -11.657 -43.540  1.00  0.00     0.119 A 
ATOM      3  C   UNL     1      -5.336 -11.665 -42.579  1.00  0.00     0.051 A 
ATOM      4  C   UNL     1      -4.282 -10.726 -42.609  1.00  0.00    -0.027 A 
ATOM      5  C   UNL     1      -4.320  -9.708 -43.593  1.00  0.00     0.022 A 
ATOM      6  C   UNL     1      -5.341  -9.710 -44.561  1.00  0.00     0.020 A 
ATOM      7  C   UNL     1      -3.305  -8.631 -43.603  1.00  0.00     0.163 C 
ATOM      8  O   UNL     1      -3.322  -7.742 -44.498  1.00  0.00    -0.294 OA
ATOM      9  C   UNL     1      -2.280  -8.544 -42.519  1.00  0.00     0.086 C 
ATOM     10  C   UNL     1      -1.928  -9.949 -41.986  1.00  0.00     0.013 C 
ATOM     11  C   UNL     1      -3.201 -10.744 -41.508  1.00  0.00    -0.003 C 
ATOM     12  C   UNL     1      -2.785 -12.229 -41.194  1.00  0.00     0.012 C 
ATOM     13  C   UNL     1      -1.302 -12.443 -40.838  1.00  0.00     0.001 C 
ATOM     14  C   UNL     1      -0.701 -11.248 -40.103  1.00  0.00     0.007 C 
ATOM     15  C   UNL     1      -0.701  -9.958 -40.978  1.00  0.00    -0.031 C 
ATOM     16  C   UNL     1      -0.687  -8.726 -40.035  1.00  0.00     0.011 C 
ATOM     17  C   UNL     1       0.620  -9.922 -41.789  1.00  0.00     0.011 C 
ATOM     18  C   UNL     1      -3.858 -10.109 -40.253  1.00  0.00     0.017 C 
ENDROOT
BRANCH   1  19
ATOM     19  C   UNL     1      -7.452 -10.653 -45.610  1.00  0.00     0.017 C 
ATOM     20  C   UNL     1      -8.582  -9.701 -45.196  1.00  0.00     0.012 C 
ATOM     21  C   UNL     1      -6.892 -10.279 -46.989  1.00  0.00     0.012 C 
ENDBRANCH   1  19
BRANCH   2  22
ATOM     22  O   UNL     1      -7.365 -12.616 -43.477  1.00  0.00    -0.508 OA
ATOM     23  H   UNL     1      -8.307 -12.379 -43.190  1.00  0.00     0.293 HD
ENDBRANCH   2  22
TORSDOF 2
ENDMDL
MODEL 4
REMARK VINA RESULT:    -5.660      1.868      6.910
REMARK INTER + INTRA:          -6.404
REMARK INTER:                  -6.159
REMARK INTRA:                  -0.245
REMARK UNBOUND:                -0.248
REMARK SMILES CC(C)c1cc2c(cc1O)[C@@]1(C)CCCC(C)(C)[C@@H]1CC2=O
REMARK SMILES IDX 4 1 9 2 8 3 7 4 6 5 5 6 21 7 22 8 20 9 19 10 11 11 13 12
REMARK SMILES IDX 14 13 15 14 16 15 17 16 18 17 12 18 2 19 1 20 3 21 10 22
REMARK H PARENT 10 23
REMARK Flexibility Score: inf
ROOT
ATOM      1  C   UNL     1      -1.867 -11.910 -35.374  1.00  0.00    -0.003 A 
ATOM      2  C   UNL     1      -2.272 -12.969 -36.207  1.00  0.00     0.119 A 
ATOM      3  C   UNL     1      -2.224 -12.824 -37.598  1.00  0.00     0.051 A 
ATOM      4  C   UNL     1      -1.795 -11.622 -38.202  1.00  0.00    -0.027 A 
ATOM      5  C   UNL     1      -1.327 -10.581 -37.363  1.00  0.00     0.022 A 
ATOM      6  C   UNL     1      -1.385 -10.730 -35.965  1.00  0.00     0.020 A 
ATOM      7  C   UNL     1      -0.760  -9.343 -37.943  1.00  0.00     0.163 C 
ATOM      8  O   UNL     1      -0.370  -8.405 -37.195  1.00  0.00    -0.294 OA
ATOM      9  C   UNL     1      -0.582  -9.210 -39.420  1.00  0.00     0.086 C 
ATOM     10  C   UNL     1      -1.670 -10.003 -40.176  1.00  0.00     0.013 C 
ATOM     11  C   UNL     1      -1.717 -11.516 -39.740  1.00  0.00    -0.003 C 
ATOM     12  C   UNL     1      -2.985 -12.190 -40.384  1.00  0.00     0.012 C 
ATOM     13  C   UNL     1      -3.517 -11.520 -41.664  1.00  0.00     0.001 C 
ATOM     14  C   UNL     1      -2.403 -10.895 -42.501  1.00  0.00     0.007 C 
ATOM     15  C   UNL     1      -1.672  -9.746 -41.743  1.00  0.00    -0.031 C 
ATOM     16  C   UNL     1      -0.245  -9.600 -42.332  1.00  0.00     0.011 C 
ATOM     17  C   UNL     1      -2.421  -8.419 -42.036  1.00  0.00     0.011 C 
ATOM     18  C   UNL     1      -0.442 -12.293 -40.159  1.00  0.00     0.017 C 
ENDROOT
BRANCH   1  19
ATOM     19  C   UNL     1      -1.908 -12.047 -33.858  1.00  0.00     0.017 C 
ATOM     20  C   UNL     1      -0.762 -11.262 -33.207  1.00  0.00     0.012 C 
ATOM     21  C   UNL     1      -3.267 -11.610 -33.295  1.00  0.00     0.012 C 
ENDBRANCH   1  19
BRANCH   2  22
ATOM     22  O   UNL     1      -2.719 -14.172 -35.657  1.00  0.00    -0.508 OA
ATOM     23  H   UNL     1      -3.625 -14.560 -35.888  1.00  0.00     0.293 HD
ENDBRANCH   2  22
TORSDOF 2
ENDMDL
MODEL 5
REMARK VINA RESULT:    -5.505      5.979     10.822
REMARK INTER + INTRA:          -6.236
REMARK INTER:                  -5.985
REMARK INTRA:                  -0.251
REMARK UNBOUND:                -0.248
REMARK SMILES CC(C)c1cc2c(cc1O)[C@@]1(C)CCCC(C)(C)[C@@H]1CC2=O
REMARK SMILES IDX 4 1 9 2 8 3 7 4 6 5 5 6 21 7 22 8 20 9 19 10 11 11 13 12
REMARK SMILES IDX 14 13 15 14 16 15 17 16 18 17 12 18 2 19 1 20 3 21 10 22
REMARK H PARENT 10 23
REMARK Flexibility Score: inf
ROOT
ATOM      1  C   UNL     1      -2.961 -10.711 -41.734  1.00  0.00    -0.003 A 
ATOM      2  C   UNL     1      -2.288  -9.523 -42.073  1.00  0.00     0.119 A 
ATOM      3  C   UNL     1      -2.771  -8.715 -43.109  1.00  0.00     0.051 A 
ATOM      4  C   UNL     1      -3.918  -9.071 -43.851  1.00  0.00    -0.027 A 
ATOM      5  C   UNL     1      -4.630 -10.233 -43.466  1.00  0.00     0.022 A 
ATOM      6  C   UNL     1      -4.136 -11.045 -42.429  1.00  0.00     0.020 A 
ATOM      7  C   UNL     1      -5.901 -10.593 -44.134  1.00  0.00     0.163 C 
ATOM      8  O   UNL     1      -6.520 -11.644 -43.810  1.00  0.00    -0.294 OA
ATOM      9  C   UNL     1      -6.504  -9.687 -45.157  1.00  0.00     0.086 C 
ATOM     10  C   UNL     1      -5.405  -8.920 -45.924  1.00  0.00     0.013 C 
ATOM     11  C   UNL     1      -4.442  -8.133 -44.958  1.00  0.00    -0.003 C 
ATOM     12  C   UNL     1      -3.233  -7.571 -45.795  1.00  0.00     0.012 C 
ATOM     13  C   UNL     1      -3.502  -7.365 -47.298  1.00  0.00     0.001 C 
ATOM     14  C   UNL     1      -4.950  -6.975 -47.581  1.00  0.00     0.007 C 
ATOM     15  C   UNL     1      -5.953  -8.093 -47.163  1.00  0.00    -0.031 C 
ATOM     16  C   UNL     1      -7.332  -7.436 -46.887  1.00  0.00     0.011 C 
ATOM     17  C   UNL     1      -6.141  -9.051 -48.368  1.00  0.00     0.011 C 
ATOM     18  C   UNL     1      -5.158  -6.966 -44.228  1.00  0.00     0.017 C 
ENDROOT
BRANCH   1  19
ATOM     19  C   UNL     1      -2.456 -11.604 -40.609  1.00  0.00     0.017 C 
ATOM     20  C   UNL     1      -3.158 -11.268 -39.287  1.00  0.00     0.012 C 
ATOM     21  C   UNL     1      -2.620 -13.090 -40.958  1.00  0.00     0.012 C 
ENDBRANCH   1  19
BRANCH   2  22
ATOM     22  O   UNL     1      -1.141  -9.137 -41.378  1.00  0.00    -0.508 OA
ATOM     23  H   UNL     1      -0.275  -9.658 -41.446  1.00  0.00     0.293 HD
ENDBRANCH   2  22
TORSDOF 2
ENDMDL
MODEL 6
REMARK VINA RESULT:    -5.309      4.749      7.499
REMARK INTER + INTRA:          -6.023
REMARK INTER:                  -5.772
REMARK INTRA:                  -0.251
REMARK UNBOUND:                -0.248
REMARK SMILES CC(C)c1cc2c(cc1O)[C@@]1(C)CCCC(C)(C)[C@@H]1CC2=O
REMARK SMILES IDX 4 1 9 2 8 3 7 4 6 5 5 6 21 7 22 8 20 9 19 10 11 11 13 12
REMARK SMILES IDX 14 13 15 14 16 15 17 16 18 17 12 18 2 19 1 20 3 21 10 22
REMARK H PARENT 10 23
REMARK Flexibility Score: inf
ROOT
ATOM      1  C   UNL     1      -5.212  -9.123 -44.672  1.00  0.00    -0.003 A 
ATOM      2  C   UNL     1      -4.051  -8.336 -44.560  1.00  0.00     0.119 A 
ATOM      3  C   UNL     1      -3.087  -8.642 -43.592  1.00  0.00     0.051 A 
ATOM      4  C   UNL     1      -3.257  -9.719 -42.696  1.00  0.00    -0.027 A 
ATOM      5  C   UNL     1      -4.394 -10.549 -42.852  1.00  0.00     0.022 A 
ATOM      6  C   UNL     1      -5.362 -10.231 -43.822  1.00  0.00     0.020 A 
ATOM      7  C   UNL     1      -4.566 -11.757 -42.015  1.00  0.00     0.163 C 
ATOM      8  O   UNL     1      -5.594 -12.478 -42.135  1.00  0.00    -0.294 OA
ATOM      9  C   UNL     1      -3.497 -12.178 -41.060  1.00  0.00     0.086 C 
ATOM     10  C   UNL     1      -2.736 -10.949 -40.516  1.00  0.00     0.013 C 
ATOM     11  C   UNL     1      -2.152 -10.050 -41.669  1.00  0.00    -0.003 C 
ATOM     12  C   UNL     1      -1.594  -8.719 -41.041  1.00  0.00     0.012 C 
ATOM     13  C   UNL     1      -1.188  -8.801 -39.558  1.00  0.00     0.001 C 
ATOM     14  C   UNL     1      -0.650 -10.178 -39.178  1.00  0.00     0.007 C 
ATOM     15  C   UNL     1      -1.724 -11.296 -39.343  1.00  0.00    -0.031 C 
ATOM     16  C   UNL     1      -0.995 -12.649 -39.556  1.00  0.00     0.011 C 
ATOM     17  C   UNL     1      -2.512 -11.411 -38.012  1.00  0.00     0.011 C 
ATOM     18  C   UNL     1      -1.027 -10.763 -42.465  1.00  0.00     0.017 C 
ENDROOT
BRANCH   1  19
ATOM     19  C   UNL     1      -6.271  -8.810 -45.720  1.00  0.00     0.017 C 
ATOM     20  C   UNL     1      -6.068  -9.665 -46.976  1.00  0.00     0.012 C 
ATOM     21  C   UNL     1      -7.687  -8.989 -45.153  1.00  0.00     0.012 C 
ENDBRANCH   1  19
BRANCH   2  22
ATOM     22  O   UNL     1      -3.846  -7.251 -45.414  1.00  0.00    -0.508 OA
ATOM     23  H   UNL     1      -3.861  -6.296 -45.077  1.00  0.00     0.293 HD
ENDBRANCH   2  22
TORSDOF 2
ENDMDL
MODEL 7
REMARK VINA RESULT:    -5.088      8.714     12.163
REMARK INTER + INTRA:          -5.782
REMARK INTER:                  -5.532
REMARK INTRA:                  -0.251
REMARK UNBOUND:                -0.248
REMARK SMILES CC(C)c1cc2c(cc1O)[C@@]1(C)CCCC(C)(C)[C@@H]1CC2=O
REMARK SMILES IDX 4 1 9 2 8 3 7 4 6 5 5 6 21 7 22 8 20 9 19 10 11 11 13 12
REMARK SMILES IDX 14 13 15 14 16 15 17 16 18 17 12 18 2 19 1 20 3 21 10 22
REMARK H PARENT 10 23
REMARK Flexibility Score: inf
ROOT
ATOM      1  C   UNL     1      -7.668 -10.723 -42.824  1.00  0.00    -0.003 A 
ATOM      2  C   UNL     1      -6.993  -9.591 -42.332  1.00  0.00     0.119 A 
ATOM      3  C   UNL     1      -6.270  -8.772 -43.206  1.00  0.00     0.051 A 
ATOM      4  C   UNL     1      -6.177  -9.062 -44.585  1.00  0.00    -0.027 A 
ATOM      5  C   UNL     1      -6.911 -10.164 -45.088  1.00  0.00     0.022 A 
ATOM      6  C   UNL     1      -7.629 -10.988 -44.203  1.00  0.00     0.020 A 
ATOM      7  C   UNL     1      -6.942 -10.448 -46.540  1.00  0.00     0.163 C 
ATOM      8  O   UNL     1      -7.571 -11.447 -46.984  1.00  0.00    -0.294 OA
ATOM      9  C   UNL     1      -6.282  -9.522 -47.509  1.00  0.00     0.086 C 
ATOM     10  C   UNL     1      -5.049  -8.848 -46.869  1.00  0.00     0.013 C 
ATOM     11  C   UNL     1      -5.404  -8.110 -45.523  1.00  0.00    -0.003 C 
ATOM     12  C   UNL     1      -4.068  -7.650 -44.829  1.00  0.00     0.012 C 
ATOM     13  C   UNL     1      -2.864  -7.454 -45.769  1.00  0.00     0.001 C 
ATOM     14  C   UNL     1      -3.280  -6.971 -47.156  1.00  0.00     0.007 C 
ATOM     15  C   UNL     1      -4.178  -8.008 -47.896  1.00  0.00    -0.031 C 
ATOM     16  C   UNL     1      -5.039  -7.253 -48.942  1.00  0.00     0.011 C 
ATOM     17  C   UNL     1      -3.254  -8.974 -48.683  1.00  0.00     0.011 C 
ATOM     18  C   UNL     1      -6.327  -6.883 -45.745  1.00  0.00     0.017 C 
ENDROOT
BRANCH   1  19
ATOM     19  C   UNL     1      -8.464 -11.627 -41.892  1.00  0.00     0.017 C 
ATOM     20  C   UNL     1      -9.739 -12.132 -42.577  1.00  0.00     0.012 C 
ATOM     21  C   UNL     1      -7.609 -12.796 -41.383  1.00  0.00     0.012 C 
ENDBRANCH   1  19
BRANCH   2  22
ATOM     22  O   UNL     1      -7.042  -9.272 -40.974  1.00  0.00    -0.508 OA
ATOM     23  H   UNL     1      -7.004  -8.313 -40.649  1.00  0.00     0.293 HD
ENDBRANCH   2  22
TORSDOF 2
ENDMDL
MODEL 8
REMARK VINA RESULT:    -5.058     12.501     14.570
REMARK INTER + INTRA:          -5.749
REMARK INTER:                  -5.525
REMARK INTRA:                  -0.225
REMARK UNBOUND:                -0.248
REMARK SMILES CC(C)c1cc2c(cc1O)[C@@]1(C)CCCC(C)(C)[C@@H]1CC2=O
REMARK SMILES IDX 4 1 9 2 8 3 7 4 6 5 5 6 21 7 22 8 20 9 19 10 11 11 13 12
REMARK SMILES IDX 14 13 15 14 16 15 17 16 18 17 12 18 2 19 1 20 3 21 10 22
REMARK H PARENT 10 23
REMARK Flexibility Score: inf
ROOT
ATOM      1  C   UNL     1       0.458 -24.954 -45.867  1.00  0.00    -0.003 A 
ATOM      2  C   UNL     1       1.400 -23.927 -45.672  1.00  0.00     0.119 A 
ATOM      3  C   UNL     1       1.223 -23.000 -44.639  1.00  0.00     0.051 A 
ATOM      4  C   UNL     1       0.100 -23.050 -43.786  1.00  0.00    -0.027 A 
ATOM      5  C   UNL     1      -0.813 -24.122 -43.942  1.00  0.00     0.022 A 
ATOM      6  C   UNL     1      -0.634 -25.046 -44.987  1.00  0.00     0.020 A 
ATOM      7  C   UNL     1      -1.946 -24.289 -43.004  1.00  0.00     0.163 C 
ATOM      8  O   UNL     1      -2.775 -25.226 -43.162  1.00  0.00    -0.294 OA
ATOM      9  C   UNL     1      -2.091 -23.388 -41.821  1.00  0.00     0.086 C 
ATOM     10  C   UNL     1      -1.530 -21.984 -42.130  1.00  0.00     0.013 C 
ATOM     11  C   UNL     1      -0.038 -22.034 -42.632  1.00  0.00    -0.003 C 
ATOM     12  C   UNL     1       0.377 -20.601 -43.134  1.00  0.00     0.012 C 
ATOM     13  C   UNL     1      -0.417 -19.428 -42.529  1.00  0.00     0.001 C 
ATOM     14  C   UNL     1      -0.857 -19.701 -41.093  1.00  0.00     0.007 C 
ATOM     15  C   UNL     1      -1.832 -20.914 -40.997  1.00  0.00    -0.031 C 
ATOM     16  C   UNL     1      -1.736 -21.508 -39.567  1.00  0.00     0.011 C 
ATOM     17  C   UNL     1      -3.280 -20.386 -41.172  1.00  0.00     0.011 C 
ATOM     18  C   UNL     1       0.943 -22.505 -41.527  1.00  0.00     0.017 C 
ENDROOT
BRANCH   1  19
ATOM     19  C   UNL     1       0.632 -25.976 -46.982  1.00  0.00     0.017 C 
ATOM     20  C   UNL     1       1.544 -27.125 -46.535  1.00  0.00     0.012 C 
ATOM     21  C   UNL     1      -0.724 -26.505 -47.471  1.00  0.00     0.012 C 
ENDBRANCH   1  19
BRANCH   2  22
ATOM     22  O   UNL     1       2.519 -23.828 -46.501  1.00  0.00    -0.508 OA
ATOM     23  H   UNL     1       2.645 -23.050 -47.137  1.00  0.00     0.293 HD
ENDBRANCH   2  22
TORSDOF 2
ENDMDL
