MODEL 1
REMARK VINA RESULT:    -3.940      0.000      0.000
REMARK INTER + INTRA:          -4.016
REMARK INTER:                  -4.861
REMARK INTRA:                   0.845
REMARK UNBOUND:                 0.845
REMARK SMILES CC1=CC=CC(C)(C)CC1=O
REMARK SMILES IDX 1 1 2 2 3 3 10 4 11 5 9 6 4 8 5 9 6 10 7 11 8 12
REMARK H PARENT
REMARK Flexibility Score: 80.00
ROOT
ATOM      1  C   UNL     1     -24.354  13.747 -29.987  1.00  0.00     0.048 C 
ATOM      2  C   UNL     1     -25.366  12.627 -29.911  1.00  0.00    -0.008 C 
ATOM      3  C   UNL     1     -25.264  11.753 -28.887  1.00  0.00     0.007 C 
ENDROOT
BRANCH   2   4
ATOM      4  C   UNL     1     -26.364  12.553 -31.012  1.00  0.00     0.159 C 
ATOM      5  O   UNL     1     -26.367  13.462 -31.887  1.00  0.00    -0.295 OA
BRANCH   4   6
ATOM      6  C   UNL     1     -27.352  11.437 -31.177  1.00  0.00     0.091 CG0
ATOM      7  G   UNL     1     -28.177  11.137 -29.905  1.00  0.00     0.000 G0
ENDBRANCH   4   6
ENDBRANCH   2   4
BRANCH   3   8
ATOM      8  C   UNL     1     -26.107  10.582 -28.554  1.00  0.00    -0.003 C 
ATOM      9  C   UNL     1     -27.356  10.312 -28.951  1.00  0.00    -0.020 C 
BRANCH   9  10
ATOM     10  C   UNL     1     -28.182  11.136 -29.911  1.00  0.00    -0.010 CG0
ATOM     11  C   UNL     1     -28.702  12.412 -29.212  1.00  0.00     0.016 C 
ATOM     12  C   UNL     1     -29.407  10.295 -30.336  1.00  0.00     0.016 C 
ATOM     13  G   UNL     1     -27.348  11.444 -31.175  1.00  0.00     0.000 G0
ENDBRANCH   9  10
ENDBRANCH   3   8
TORSDOF 0
ENDMDL
MODEL 2
REMARK VINA RESULT:    -3.661     10.075     12.283
REMARK INTER + INTRA:          -3.672
REMARK INTER:                  -4.746
REMARK INTRA:                   1.075
REMARK UNBOUND:                 0.845
REMARK SMILES CC1=CC=CC(C)(C)CC1=O
REMARK SMILES IDX 1 1 2 2 3 3 10 4 11 5 9 6 4 8 5 9 6 10 7 11 8 12
REMARK H PARENT
REMARK Flexibility Score: 80.00
ROOT
ATOM      1  C   UNL     1     -18.235  13.170 -30.038  1.00  0.00     0.048 C 
ATOM      2  C   UNL     1     -16.836  12.913 -30.548  1.00  0.00    -0.008 C 
ATOM      3  C   UNL     1     -15.995  12.213 -29.757  1.00  0.00     0.007 C 
ENDROOT
BRANCH   2   4
ATOM      4  C   UNL     1     -16.486  13.506 -31.867  1.00  0.00     0.159 C 
ATOM      5  O   UNL     1     -17.288  14.327 -32.392  1.00  0.00    -0.295 OA
BRANCH   4   6
ATOM      6  C   UNL     1     -15.212  13.223 -32.605  1.00  0.00     0.091 CG0
ATOM      7  G   UNL     1     -13.935  13.491 -31.776  1.00  0.00     0.000 G0
ENDBRANCH   4   6
ENDBRANCH   2   4
BRANCH   3   8
ATOM      8  C   UNL     1     -14.592  11.804 -29.994  1.00  0.00    -0.003 C 
ATOM      9  C   UNL     1     -13.713  12.305 -30.870  1.00  0.00    -0.020 C 
BRANCH   9  10
ATOM     10  C   UNL     1     -13.946  13.478 -31.793  1.00  0.00    -0.010 CG0
ATOM     11  C   UNL     1     -12.708  13.709 -32.690  1.00  0.00     0.016 C 
ATOM     12  C   UNL     1     -14.146  14.742 -30.926  1.00  0.00     0.016 C 
ATOM     13  G   UNL     1     -15.238  13.244 -32.607  1.00  0.00     0.000 G0
ENDBRANCH   9  10
ENDBRANCH   3   8
TORSDOF 0
ENDMDL
MODEL 3
REMARK VINA RESULT:    -3.631     10.574     12.474
REMARK INTER + INTRA:          -3.635
REMARK INTER:                  -4.497
REMARK INTRA:                   0.862
REMARK UNBOUND:                 0.845
REMARK SMILES CC1=CC=CC(C)(C)CC1=O
REMARK SMILES IDX 1 1 2 2 3 3 10 4 11 5 9 6 4 8 5 9 6 10 7 11 8 12
REMARK H PARENT
REMARK Flexibility Score: 80.00
ROOT
ATOM      1  C   UNL     1     -12.294  13.573 -32.604  1.00  0.00     0.048 C 
ATOM      2  C   UNL     1     -13.371  13.866 -31.586  1.00  0.00    -0.008 C 
ATOM      3  C   UNL     1     -13.744  15.153 -31.414  1.00  0.00     0.007 C 
ENDROOT
BRANCH   2   4
ATOM      4  C   UNL     1     -13.897  12.706 -30.816  1.00  0.00     0.159 C 
ATOM      5  O   UNL     1     -13.466  11.553 -31.093  1.00  0.00    -0.295 OA
BRANCH   4   6
ATOM      6  C   UNL     1     -14.884  12.821 -29.693  1.00  0.00     0.091 CG0
ATOM      7  G   UNL     1     -16.143  13.645 -30.047  1.00  0.00     0.000 G0
ENDBRANCH   4   6
ENDBRANCH   2   4
BRANCH   3   8
ATOM      8  C   UNL     1     -14.766  15.730 -30.511  1.00  0.00    -0.003 C 
ATOM      9  C   UNL     1     -15.812  15.124 -29.938  1.00  0.00    -0.020 C 
BRANCH   9  10
ATOM     10  C   UNL     1     -16.153  13.656 -30.035  1.00  0.00    -0.010 CG0
ATOM     11  C   UNL     1     -16.737  13.332 -31.429  1.00  0.00     0.016 C 
ATOM     12  C   UNL     1     -17.239  13.342 -28.981  1.00  0.00     0.016 C 
ATOM     13  G   UNL     1     -14.901  12.814 -29.701  1.00  0.00     0.000 G0
ENDBRANCH   9  10
ENDBRANCH   3   8
TORSDOF 0
ENDMDL
MODEL 4
REMARK VINA RESULT:    -3.608      8.883     10.639
REMARK INTER + INTRA:          -3.606
REMARK INTER:                  -4.453
REMARK INTRA:                   0.847
REMARK UNBOUND:                 0.845
REMARK SMILES CC1=CC=CC(C)(C)CC1=O
REMARK SMILES IDX 1 1 2 2 3 3 10 4 11 5 9 6 4 8 5 9 6 10 7 11 8 12
REMARK H PARENT
REMARK Flexibility Score: 80.00
ROOT
ATOM      1  C   UNL     1     -13.336  12.923 -31.596  1.00  0.00     0.048 C 
ATOM      2  C   UNL     1     -14.706  12.525 -31.096  1.00  0.00    -0.008 C 
ATOM      3  C   UNL     1     -14.789  11.478 -30.248  1.00  0.00     0.007 C 
ENDROOT
BRANCH   2   4
ATOM      4  C   UNL     1     -15.862  13.296 -31.629  1.00  0.00     0.159 C 
ATOM      5  O   UNL     1     -15.633  14.297 -32.363  1.00  0.00    -0.295 OA
BRANCH   4   6
ATOM      6  C   UNL     1     -17.297  12.937 -31.384  1.00  0.00     0.091 CG0
ATOM      7  G   UNL     1     -17.660  12.788 -29.889  1.00  0.00     0.000 G0
ENDBRANCH   4   6
ENDBRANCH   2   4
BRANCH   3   8
ATOM      8  C   UNL     1     -15.976  10.879 -29.595  1.00  0.00    -0.003 C 
ATOM      9  C   UNL     1     -17.185  11.419 -29.404  1.00  0.00    -0.020 C 
BRANCH   9  10
ATOM     10  C   UNL     1     -17.640  12.777 -29.886  1.00  0.00    -0.010 CG0
ATOM     11  C   UNL     1     -17.034  13.891 -29.002  1.00  0.00     0.016 C 
ATOM     12  C   UNL     1     -19.178  12.847 -29.749  1.00  0.00     0.016 C 
ATOM     13  G   UNL     1     -17.282  12.938 -31.381  1.00  0.00     0.000 G0
ENDBRANCH   9  10
ENDBRANCH   3   8
TORSDOF 0
ENDMDL
MODEL 5
REMARK VINA RESULT:    -3.559      9.790     11.607
REMARK INTER + INTRA:          -3.547
REMARK INTER:                  -4.391
REMARK INTRA:                   0.845
REMARK UNBOUND:                 0.845
REMARK SMILES CC1=CC=CC(C)(C)CC1=O
REMARK SMILES IDX 1 1 2 2 3 3 10 4 11 5 9 6 4 8 5 9 6 10 7 11 8 12
REMARK H PARENT
REMARK Flexibility Score: 80.00
ROOT
ATOM      1  C   UNL     1     -13.167  14.244 -32.500  1.00  0.00     0.048 C 
ATOM      2  C   UNL     1     -14.023  13.524 -31.485  1.00  0.00    -0.008 C 
ATOM      3  C   UNL     1     -13.447  13.154 -30.321  1.00  0.00     0.007 C 
ENDROOT
BRANCH   2   4
ATOM      4  C   UNL     1     -15.428  13.234 -31.882  1.00  0.00     0.159 C 
ATOM      5  O   UNL     1     -15.843  13.664 -32.993  1.00  0.00    -0.295 OA
BRANCH   4   6
ATOM      6  C   UNL     1     -16.383  12.422 -31.059  1.00  0.00     0.091 CG0
ATOM      7  G   UNL     1     -16.508  12.896 -29.593  1.00  0.00     0.000 G0
ENDBRANCH   4   6
ENDBRANCH   2   4
BRANCH   3   8
ATOM      8  C   UNL     1     -14.033  12.457 -29.154  1.00  0.00    -0.003 C 
ATOM      9  C   UNL     1     -15.320  12.349 -28.804  1.00  0.00    -0.020 C 
BRANCH   9  10
ATOM     10  C   UNL     1     -16.501  12.876 -29.585  1.00  0.00    -0.010 CG0
ATOM     11  C   UNL     1     -16.605  14.411 -29.429  1.00  0.00     0.016 C 
ATOM     12  C   UNL     1     -17.786  12.251 -28.997  1.00  0.00     0.016 C 
ATOM     13  G   UNL     1     -16.382  12.432 -31.061  1.00  0.00     0.000 G0
ENDBRANCH   9  10
ENDBRANCH   3   8
TORSDOF 0
ENDMDL
MODEL 6
REMARK VINA RESULT:    -3.528     10.559     11.563
REMARK INTER + INTRA:          -3.508
REMARK INTER:                  -4.341
REMARK INTRA:                   0.833
REMARK UNBOUND:                 0.845
REMARK SMILES CC1=CC=CC(C)(C)CC1=O
REMARK SMILES IDX 1 1 2 2 3 3 10 4 11 5 9 6 4 8 5 9 6 10 7 11 8 12
REMARK H PARENT
REMARK Flexibility Score: 80.00
ROOT
ATOM      1  C   UNL     1     -15.044  12.957 -32.825  1.00  0.00     0.048 C 
ATOM      2  C   UNL     1     -15.459  12.870 -31.374  1.00  0.00    -0.008 C 
ATOM      3  C   UNL     1     -16.533  13.588 -30.981  1.00  0.00     0.007 C 
ENDROOT
BRANCH   2   4
ATOM      4  C   UNL     1     -14.609  12.033 -30.485  1.00  0.00     0.159 C 
ATOM      5  O   UNL     1     -13.669  11.367 -31.000  1.00  0.00    -0.295 OA
BRANCH   4   6
ATOM      6  C   UNL     1     -14.769  11.958 -28.996  1.00  0.00     0.091 CG0
ATOM      7  G   UNL     1     -16.205  11.622 -28.536  1.00  0.00     0.000 G0
ENDBRANCH   4   6
ENDBRANCH   2   4
BRANCH   3   8
ATOM      8  C   UNL     1     -17.169  13.688 -29.647  1.00  0.00    -0.003 C 
ATOM      9  C   UNL     1     -17.066  12.851 -28.608  1.00  0.00    -0.020 C 
BRANCH   9  10
ATOM     10  C   UNL     1     -16.199  11.615 -28.543  1.00  0.00    -0.010 CG0
ATOM     11  C   UNL     1     -16.840  10.466 -29.354  1.00  0.00     0.016 C 
ATOM     12  C   UNL     1     -16.113  11.164 -27.068  1.00  0.00     0.016 C 
ATOM     13  G   UNL     1     -14.772  11.963 -29.024  1.00  0.00     0.000 G0
ENDBRANCH   9  10
ENDBRANCH   3   8
TORSDOF 0
ENDMDL
MODEL 7
REMARK VINA RESULT:    -3.522      9.398     10.698
REMARK INTER + INTRA:          -3.501
REMARK INTER:                  -4.364
REMARK INTRA:                   0.864
REMARK UNBOUND:                 0.845
REMARK SMILES CC1=CC=CC(C)(C)CC1=O
REMARK SMILES IDX 1 1 2 2 3 3 10 4 11 5 9 6 4 8 5 9 6 10 7 11 8 12
REMARK H PARENT
REMARK Flexibility Score: 80.00
ROOT
ATOM      1  C   UNL     1     -16.844  13.963 -31.989  1.00  0.00     0.048 C 
ATOM      2  C   UNL     1     -17.058  13.129 -30.747  1.00  0.00    -0.008 C 
ATOM      3  C   UNL     1     -18.023  12.186 -30.778  1.00  0.00     0.007 C 
ENDROOT
BRANCH   2   4
ATOM      4  C   UNL     1     -16.212  13.458 -29.567  1.00  0.00     0.159 C 
ATOM      5  O   UNL     1     -15.298  14.318 -29.701  1.00  0.00    -0.295 OA
BRANCH   4   6
ATOM      6  C   UNL     1     -16.401  12.861 -28.205  1.00  0.00     0.091 CG0
ATOM      7  G   UNL     1     -16.425  11.316 -28.196  1.00  0.00     0.000 G0
ENDBRANCH   4   6
ENDBRANCH   2   4
BRANCH   3   8
ATOM      8  C   UNL     1     -18.445  11.226 -29.732  1.00  0.00    -0.003 C 
ATOM      9  C   UNL     1     -17.770  10.821 -28.650  1.00  0.00    -0.020 C 
BRANCH   9  10
ATOM     10  C   UNL     1     -16.414  11.320 -28.208  1.00  0.00    -0.010 CG0
ATOM     11  C   UNL     1     -15.305  10.721 -29.103  1.00  0.00     0.016 C 
ATOM     12  C   UNL     1     -16.169  10.834 -26.761  1.00  0.00     0.016 C 
ATOM     13  G   UNL     1     -16.410  12.865 -28.205  1.00  0.00     0.000 G0
ENDBRANCH   9  10
ENDBRANCH   3   8
TORSDOF 0
ENDMDL
MODEL 8
REMARK VINA RESULT:    -3.393      1.884      2.719
REMARK INTER + INTRA:          -3.341
REMARK INTER:                  -4.190
REMARK INTRA:                   0.848
REMARK UNBOUND:                 0.845
REMARK SMILES CC1=CC=CC(C)(C)CC1=O
REMARK SMILES IDX 1 1 2 2 3 3 10 4 11 5 9 6 4 8 5 9 6 10 7 11 8 12
REMARK H PARENT
REMARK Flexibility Score: 80.00
ROOT
ATOM      1  C   UNL     1     -23.171  13.966 -30.468  1.00  0.00     0.048 C 
ATOM      2  C   UNL     1     -24.426  13.283 -29.977  1.00  0.00    -0.008 C 
ATOM      3  C   UNL     1     -25.591  13.957 -30.074  1.00  0.00     0.007 C 
ENDROOT
BRANCH   2   4
ATOM      4  C   UNL     1     -24.259  11.932 -29.374  1.00  0.00     0.159 C 
ATOM      5  O   UNL     1     -23.117  11.397 -29.399  1.00  0.00    -0.295 OA
BRANCH   4   6
ATOM      6  C   UNL     1     -25.360  11.173 -28.696  1.00  0.00     0.091 CG0
ATOM      7  G   UNL     1     -26.641  11.029 -29.549  1.00  0.00     0.000 G0
ENDBRANCH   4   6
ENDBRANCH   2   4
BRANCH   3   8
ATOM      8  C   UNL     1     -26.961  13.543 -29.692  1.00  0.00    -0.003 C 
ATOM      9  C   UNL     1     -27.434  12.307 -29.494  1.00  0.00    -0.020 C 
BRANCH   9  10
ATOM     10  C   UNL     1     -26.635  11.027 -29.553  1.00  0.00    -0.010 CG0
ATOM     11  C   UNL     1     -26.337  10.649 -31.022  1.00  0.00     0.016 C 
ATOM     12  C   UNL     1     -27.488   9.896 -28.936  1.00  0.00     0.016 C 
ATOM     13  G   UNL     1     -25.352  11.182 -28.704  1.00  0.00     0.000 G0
ENDBRANCH   9  10
ENDBRANCH   3   8
TORSDOF 0
ENDMDL
MODEL 9
REMARK VINA RESULT:    -3.321     11.709     12.938
REMARK INTER + INTRA:          -3.252
REMARK INTER:                  -4.100
REMARK INTRA:                   0.848
REMARK UNBOUND:                 0.845
REMARK SMILES CC1=CC=CC(C)(C)CC1=O
REMARK SMILES IDX 1 1 2 2 3 3 10 4 11 5 9 6 4 8 5 9 6 10 7 11 8 12
REMARK H PARENT
REMARK Flexibility Score: 80.00
ROOT
ATOM      1  C   UNL     1     -14.133  16.334 -30.553  1.00  0.00     0.048 C 
ATOM      2  C   UNL     1     -14.071  14.824 -30.539  1.00  0.00    -0.008 C 
ATOM      3  C   UNL     1     -13.001  14.232 -31.110  1.00  0.00     0.007 C 
ENDROOT
BRANCH   2   4
ATOM      4  C   UNL     1     -15.232  14.113 -29.938  1.00  0.00     0.159 C 
ATOM      5  O   UNL     1     -16.146  14.797 -29.399  1.00  0.00    -0.295 OA
BRANCH   4   6
ATOM      6  C   UNL     1     -15.412  12.625 -29.966  1.00  0.00     0.091 CG0
ATOM      7  G   UNL     1     -14.189  11.835 -29.447  1.00  0.00     0.000 G0
ENDBRANCH   4   6
ENDBRANCH   2   4
BRANCH   3   8
ATOM      8  C   UNL     1     -12.668  12.794 -31.234  1.00  0.00    -0.003 C 
ATOM      9  C   UNL     1     -13.140  11.763 -30.522  1.00  0.00    -0.020 C 
BRANCH   9  10
ATOM     10  C   UNL     1     -14.198  11.834 -29.447  1.00  0.00    -0.010 CG0
ATOM     11  C   UNL     1     -13.605  12.429 -28.149  1.00  0.00     0.016 C 
ATOM     12  C   UNL     1     -14.670  10.396 -29.138  1.00  0.00     0.016 C 
ATOM     13  G   UNL     1     -15.411  12.636 -29.971  1.00  0.00     0.000 G0
ENDBRANCH   9  10
ENDBRANCH   3   8
TORSDOF 0
ENDMDL
