MODEL 1
REMARK VINA RESULT:    -1.494      0.000      0.000
REMARK INTER + INTRA:          -1.494
REMARK INTER:                  -1.494
REMARK INTRA:                   0.000
REMARK UNBOUND:                 0.000
REMARK SMILES CC1=CC=CC(C)(C)[C@@H]1C
REMARK SMILES IDX 10 1 9 2 2 3 3 4 4 5 5 6 6 7 7 8 8 9 1 10
REMARK H PARENT
REMARK Flexibility Score: inf
ROOT
ATOM      1  C   UNL     1     -16.670  -1.810  15.160  1.00  0.00     0.013 C 
ATOM      2  C   UNL     1     -16.093  -2.145  16.553  1.00  0.00     0.021 C 
ATOM      3  C   UNL     1     -16.028  -0.916  17.465  1.00  0.00    -0.070 C 
ATOM      4  C   UNL     1     -15.255  -0.957  18.563  1.00  0.00    -0.001 C 
ATOM      5  C   UNL     1     -14.374  -2.103  18.833  1.00  0.00    -0.004 C 
ATOM      6  C   UNL     1     -14.151  -3.032  17.900  1.00  0.00    -0.020 C 
ATOM      7  C   UNL     1     -14.707  -2.890  16.493  1.00  0.00    -0.011 C 
ATOM      8  C   UNL     1     -14.869  -4.310  15.905  1.00  0.00     0.016 C 
ATOM      9  C   UNL     1     -13.673  -2.111  15.652  1.00  0.00     0.016 C 
ATOM     10  C   UNL     1     -16.937   0.270  17.251  1.00  0.00     0.040 C 
ENDROOT
TORSDOF 0
ENDMDL
MODEL 2
REMARK VINA RESULT:     0.652      0.988      2.903
REMARK INTER + INTRA:           0.652
REMARK INTER:                   0.652
REMARK INTRA:                   0.000
REMARK UNBOUND:                 0.000
REMARK SMILES CC1=CC=CC(C)(C)[C@@H]1C
REMARK SMILES IDX 10 1 9 2 2 3 3 4 4 5 5 6 6 7 7 8 8 9 1 10
REMARK H PARENT
REMARK Flexibility Score: inf
ROOT
ATOM      1  C   UNL     1     -12.783  -3.237  18.007  1.00  0.00     0.013 C 
ATOM      2  C   UNL     1     -13.859  -2.277  17.452  1.00  0.00     0.021 C 
ATOM      3  C   UNL     1     -14.970  -1.999  18.469  1.00  0.00    -0.070 C 
ATOM      4  C   UNL     1     -16.131  -1.473  18.043  1.00  0.00    -0.001 C 
ATOM      5  C   UNL     1     -16.401  -1.283  16.610  1.00  0.00    -0.004 C 
ATOM      6  C   UNL     1     -15.603  -1.820  15.684  1.00  0.00    -0.020 C 
ATOM      7  C   UNL     1     -14.450  -2.734  16.065  1.00  0.00    -0.011 C 
ATOM      8  C   UNL     1     -13.384  -2.638  14.952  1.00  0.00     0.016 C 
ATOM      9  C   UNL     1     -14.992  -4.179  16.122  1.00  0.00     0.016 C 
ATOM     10  C   UNL     1     -14.731  -2.144  19.952  1.00  0.00     0.040 C 
ENDROOT
TORSDOF 0
ENDMDL
MODEL 3
REMARK VINA RESULT:     0.749      1.270      3.306
REMARK INTER + INTRA:           0.749
REMARK INTER:                   0.749
REMARK INTRA:                   0.000
REMARK UNBOUND:                 0.000
REMARK SMILES CC1=CC=CC(C)(C)[C@@H]1C
REMARK SMILES IDX 10 1 9 2 2 3 3 4 4 5 5 6 6 7 7 8 8 9 1 10
REMARK H PARENT
REMARK Flexibility Score: inf
ROOT
ATOM      1  C   UNL     1     -17.138  -2.553  15.684  1.00  0.00     0.013 C 
ATOM      2  C   UNL     1     -15.601  -2.551  15.833  1.00  0.00     0.021 C 
ATOM      3  C   UNL     1     -14.999  -3.949  15.661  1.00  0.00    -0.070 C 
ATOM      4  C   UNL     1     -13.746  -4.179  16.089  1.00  0.00    -0.001 C 
ATOM      5  C   UNL     1     -12.995  -3.157  16.833  1.00  0.00    -0.004 C 
ATOM      6  C   UNL     1     -13.601  -2.059  17.294  1.00  0.00    -0.020 C 
ATOM      7  C   UNL     1     -15.103  -1.870  17.164  1.00  0.00    -0.011 C 
ATOM      8  C   UNL     1     -15.388  -0.352  17.147  1.00  0.00     0.016 C 
ATOM      9  C   UNL     1     -15.767  -2.495  18.411  1.00  0.00     0.016 C 
ATOM     10  C   UNL     1     -15.714  -5.021  14.875  1.00  0.00     0.040 C 
ENDROOT
TORSDOF 0
ENDMDL
MODEL 4
REMARK VINA RESULT:     1.239      0.922      2.980
REMARK INTER + INTRA:           1.239
REMARK INTER:                   1.239
REMARK INTRA:                   0.000
REMARK UNBOUND:                 0.000
REMARK SMILES CC1=CC=CC(C)(C)[C@@H]1C
REMARK SMILES IDX 10 1 9 2 2 3 3 4 4 5 5 6 6 7 7 8 8 9 1 10
REMARK H PARENT
REMARK Flexibility Score: inf
ROOT
ATOM      1  C   UNL     1     -16.875  -0.418  17.810  1.00  0.00     0.013 C 
ATOM      2  C   UNL     1     -15.578  -1.134  17.373  1.00  0.00     0.021 C 
ATOM      3  C   UNL     1     -15.792  -2.025  16.146  1.00  0.00    -0.070 C 
ATOM      4  C   UNL     1     -14.874  -2.961  15.849  1.00  0.00    -0.001 C 
ATOM      5  C   UNL     1     -13.743  -3.232  16.748  1.00  0.00    -0.004 C 
ATOM      6  C   UNL     1     -13.707  -2.718  17.980  1.00  0.00    -0.020 C 
ATOM      7  C   UNL     1     -14.875  -1.924  18.541  1.00  0.00    -0.011 C 
ATOM      8  C   UNL     1     -14.318  -0.953  19.606  1.00  0.00     0.016 C 
ATOM      9  C   UNL     1     -15.840  -2.919  19.221  1.00  0.00     0.016 C 
ATOM     10  C   UNL     1     -16.916  -1.765  15.173  1.00  0.00     0.040 C 
ENDROOT
TORSDOF 0
ENDMDL
