MODEL 1
REMARK VINA RESULT:    -4.674      0.000      0.000
REMARK INTER + INTRA:         -10.066
REMARK INTER:                  -7.134
REMARK INTRA:                  -2.932
REMARK UNBOUND:                -2.932
REMARK SMILES CC(=O)CCC=C(C)CCC=C(C)CCC=C(C)C
REMARK SMILES IDX 10 1 11 2 12 3 13 4 14 5 15 6 16 7 18 8 17 9 19 10 9 11 7 12
REMARK SMILES IDX 6 13 8 14 5 15 4 16 2 17 3 18 1 19
REMARK H PARENT
REMARK Flexibility Score: inf
ROOT
ATOM      1  C   UNL     1     134.452 182.554 191.527  1.00  0.00     0.032 C 
ENDROOT
BRANCH   1   2
ATOM      2  C   UNL     1     135.818 182.396 190.900  1.00  0.00    -0.028 C 
ATOM      3  C   UNL     1     136.254 183.021 189.780  1.00  0.00    -0.077 C 
ATOM      4  C   UNL     1     137.642 182.700 189.288  1.00  0.00     0.039 C 
BRANCH   3   5
ATOM      5  C   UNL     1     135.423 184.029 189.009  1.00  0.00     0.034 C 
BRANCH   5   6
ATOM      6  C   UNL     1     134.570 183.344 187.935  1.00  0.00     0.032 C 
BRANCH   6   7
ATOM      7  C   UNL     1     133.180 183.931 187.902  1.00  0.00    -0.028 C 
ATOM      8  C   UNL     1     132.121 181.891 188.896  1.00  0.00     0.039 C 
ATOM      9  C   UNL     1     132.067 183.281 188.306  1.00  0.00    -0.080 C 
ATOM     10  C   UNL     1     130.739 183.981 188.174  1.00  0.00     0.039 C 
ENDBRANCH   6   7
ENDBRANCH   5   6
ENDBRANCH   3   5
ENDBRANCH   1   2
BRANCH   1  11
ATOM     11  C   UNL     1     134.461 183.643 192.610  1.00  0.00     0.034 C 
BRANCH  11  12
ATOM     12  C   UNL     1     133.701 184.884 192.177  1.00  0.00    -0.077 C 
ATOM     13  C   UNL     1     134.234 186.128 192.215  1.00  0.00    -0.028 C 
ATOM     14  C   UNL     1     132.287 184.733 191.676  1.00  0.00     0.039 C 
BRANCH  13  15
ATOM     15  C   UNL     1     135.658 186.460 192.598  1.00  0.00     0.035 C 
BRANCH  15  16
ATOM     16  C   UNL     1     136.538 186.622 191.354  1.00  0.00     0.079 C 
BRANCH  16  17
ATOM     17  C   UNL     1     137.815 185.830 191.473  1.00  0.00     0.130 C 
ATOM     18  O   UNL     1     138.702 185.993 190.651  1.00  0.00    -0.300 OA
ATOM     19  C   UNL     1     138.021 184.849 192.589  1.00  0.00     0.087 C 
ENDBRANCH  16  17
ENDBRANCH  15  16
ENDBRANCH  13  15
ENDBRANCH  11  12
ENDBRANCH   1  11
TORSDOF 9
ENDMDL
MODEL 2
REMARK VINA RESULT:    -4.569      1.210      1.889
REMARK INTER + INTRA:          -9.905
REMARK INTER:                  -7.297
REMARK INTRA:                  -2.608
REMARK UNBOUND:                -2.932
REMARK SMILES CC(=O)CCC=C(C)CCC=C(C)CCC=C(C)C
REMARK SMILES IDX 10 1 11 2 12 3 13 4 14 5 15 6 16 7 18 8 17 9 19 10 9 11 7 12
REMARK SMILES IDX 6 13 8 14 5 15 4 16 2 17 3 18 1 19
REMARK H PARENT
REMARK Flexibility Score: inf
ROOT
ATOM      1  C   UNL     1     134.536 182.673 191.647  1.00  0.00     0.032 C 
ENDROOT
BRANCH   1   2
ATOM      2  C   UNL     1     135.894 182.566 190.993  1.00  0.00    -0.028 C 
ATOM      3  C   UNL     1     136.264 183.156 189.832  1.00  0.00    -0.077 C 
ATOM      4  C   UNL     1     137.658 182.894 189.321  1.00  0.00     0.039 C 
BRANCH   3   5
ATOM      5  C   UNL     1     135.355 184.069 189.031  1.00  0.00     0.034 C 
BRANCH   5   6
ATOM      6  C   UNL     1     134.205 183.287 188.387  1.00  0.00     0.032 C 
BRANCH   6   7
ATOM      7  C   UNL     1     134.612 182.754 187.035  1.00  0.00    -0.028 C 
ATOM      8  C   UNL     1     134.934 180.417 187.876  1.00  0.00     0.039 C 
ATOM      9  C   UNL     1     134.967 181.473 186.796  1.00  0.00    -0.080 C 
ATOM     10  C   UNL     1     135.391 181.095 185.400  1.00  0.00     0.039 C 
ENDBRANCH   6   7
ENDBRANCH   5   6
ENDBRANCH   3   5
ENDBRANCH   1   2
BRANCH   1  11
ATOM     11  C   UNL     1     134.516 183.785 192.707  1.00  0.00     0.034 C 
BRANCH  11  12
ATOM     12  C   UNL     1     133.728 184.999 192.247  1.00  0.00    -0.077 C 
ATOM     13  C   UNL     1     134.247 186.249 192.219  1.00  0.00    -0.028 C 
ATOM     14  C   UNL     1     132.303 184.811 191.792  1.00  0.00     0.039 C 
BRANCH  13  15
ATOM     15  C   UNL     1     135.676 186.613 192.548  1.00  0.00     0.035 C 
BRANCH  15  16
ATOM     16  C   UNL     1     136.540 186.648 191.283  1.00  0.00     0.079 C 
BRANCH  16  17
ATOM     17  C   UNL     1     137.885 186.010 191.513  1.00  0.00     0.130 C 
ATOM     18  O   UNL     1     138.829 186.324 190.805  1.00  0.00    -0.300 OA
ATOM     19  C   UNL     1     138.091 185.000 192.603  1.00  0.00     0.087 C 
ENDBRANCH  16  17
ENDBRANCH  15  16
ENDBRANCH  13  15
ENDBRANCH  11  12
ENDBRANCH   1  11
TORSDOF 9
ENDMDL
MODEL 3
REMARK VINA RESULT:    -4.560      2.681      4.242
REMARK INTER + INTRA:          -9.891
REMARK INTER:                  -7.350
REMARK INTRA:                  -2.541
REMARK UNBOUND:                -2.932
REMARK SMILES CC(=O)CCC=C(C)CCC=C(C)CCC=C(C)C
REMARK SMILES IDX 10 1 11 2 12 3 13 4 14 5 15 6 16 7 18 8 17 9 19 10 9 11 7 12
REMARK SMILES IDX 6 13 8 14 5 15 4 16 2 17 3 18 1 19
REMARK H PARENT
REMARK Flexibility Score: inf
ROOT
ATOM      1  C   UNL     1     138.225 184.632 190.379  1.00  0.00     0.032 C 
ENDROOT
BRANCH   1   2
ATOM      2  C   UNL     1     137.715 183.312 189.848  1.00  0.00    -0.028 C 
ATOM      3  C   UNL     1     136.478 183.084 189.347  1.00  0.00    -0.077 C 
ATOM      4  C   UNL     1     136.143 181.683 188.903  1.00  0.00     0.039 C 
BRANCH   3   5
ATOM      5  C   UNL     1     135.422 184.165 189.202  1.00  0.00     0.034 C 
BRANCH   5   6
ATOM      6  C   UNL     1     134.149 183.809 189.978  1.00  0.00     0.032 C 
BRANCH   6   7
ATOM      7  C   UNL     1     134.055 184.616 191.250  1.00  0.00    -0.028 C 
ATOM      8  C   UNL     1     134.897 182.745 192.687  1.00  0.00     0.039 C 
ATOM      9  C   UNL     1     134.363 184.143 192.477  1.00  0.00    -0.080 C 
ATOM     10  C   UNL     1     134.180 185.054 193.664  1.00  0.00     0.039 C 
ENDBRANCH   6   7
ENDBRANCH   5   6
ENDBRANCH   3   5
ENDBRANCH   1   2
BRANCH   1  11
ATOM     11  C   UNL     1     137.942 184.771 191.883  1.00  0.00     0.034 C 
BRANCH  11  12
ATOM     12  C   UNL     1     137.418 186.151 192.239  1.00  0.00    -0.077 C 
ATOM     13  C   UNL     1     137.449 186.651 193.497  1.00  0.00    -0.028 C 
ATOM     14  C   UNL     1     136.840 187.014 191.147  1.00  0.00     0.039 C 
BRANCH  13  15
ATOM     15  C   UNL     1     138.072 185.972 194.695  1.00  0.00     0.035 C 
BRANCH  15  16
ATOM     16  C   UNL     1     137.627 186.642 195.999  1.00  0.00     0.079 C 
BRANCH  16  17
ATOM     17  C   UNL     1     138.737 187.459 196.608  1.00  0.00     0.130 C 
ATOM     18  O   UNL     1     139.859 186.984 196.689  1.00  0.00    -0.300 OA
ATOM     19  C   UNL     1     138.493 188.850 197.112  1.00  0.00     0.087 C 
ENDBRANCH  16  17
ENDBRANCH  15  16
ENDBRANCH  13  15
ENDBRANCH  11  12
ENDBRANCH   1  11
TORSDOF 9
ENDMDL
MODEL 4
REMARK VINA RESULT:    -4.542      2.222      4.004
REMARK INTER + INTRA:          -9.865
REMARK INTER:                  -8.250
REMARK INTRA:                  -1.615
REMARK UNBOUND:                -2.932
REMARK SMILES CC(=O)CCC=C(C)CCC=C(C)CCC=C(C)C
REMARK SMILES IDX 10 1 11 2 12 3 13 4 14 5 15 6 16 7 18 8 17 9 19 10 9 11 7 12
REMARK SMILES IDX 6 13 8 14 5 15 4 16 2 17 3 18 1 19
REMARK H PARENT
REMARK Flexibility Score: inf
ROOT
ATOM      1  C   UNL     1     137.418 183.833 190.102  1.00  0.00     0.032 C 
ENDROOT
BRANCH   1   2
ATOM      2  C   UNL     1     136.039 184.200 189.604  1.00  0.00    -0.028 C 
ATOM      3  C   UNL     1     135.313 183.506 188.696  1.00  0.00    -0.077 C 
ATOM      4  C   UNL     1     133.969 184.060 188.295  1.00  0.00     0.039 C 
BRANCH   3   5
ATOM      5  C   UNL     1     135.778 182.202 188.074  1.00  0.00     0.034 C 
BRANCH   5   6
ATOM      6  C   UNL     1     134.665 181.551 187.246  1.00  0.00     0.032 C 
BRANCH   6   7
ATOM      7  C   UNL     1     135.030 181.530 185.782  1.00  0.00    -0.028 C 
ATOM      8  C   UNL     1     133.011 182.844 185.096  1.00  0.00     0.039 C 
ATOM      9  C   UNL     1     134.284 182.085 184.801  1.00  0.00    -0.080 C 
ATOM     10  C   UNL     1     134.755 181.949 183.377  1.00  0.00     0.039 C 
ENDBRANCH   6   7
ENDBRANCH   5   6
ENDBRANCH   3   5
ENDBRANCH   1   2
BRANCH   1  11
ATOM     11  C   UNL     1     137.691 184.450 191.482  1.00  0.00     0.034 C 
BRANCH  11  12
ATOM     12  C   UNL     1     137.783 185.964 191.423  1.00  0.00    -0.077 C 
ATOM     13  C   UNL     1     136.918 186.783 192.066  1.00  0.00    -0.028 C 
ATOM     14  C   UNL     1     138.890 186.594 190.617  1.00  0.00     0.039 C 
BRANCH  13  15
ATOM     15  C   UNL     1     135.809 186.335 192.990  1.00  0.00     0.035 C 
BRANCH  15  16
ATOM     16  C   UNL     1     134.455 186.356 192.274  1.00  0.00     0.079 C 
BRANCH  16  17
ATOM     17  C   UNL     1     133.790 185.005 192.306  1.00  0.00     0.130 C 
ATOM     18  O   UNL     1     134.388 184.051 192.780  1.00  0.00    -0.300 OA
ATOM     19  C   UNL     1     132.402 184.807 191.773  1.00  0.00     0.087 C 
ENDBRANCH  16  17
ENDBRANCH  15  16
ENDBRANCH  13  15
ENDBRANCH  11  12
ENDBRANCH   1  11
TORSDOF 9
ENDMDL
MODEL 5
REMARK VINA RESULT:    -4.535      2.032      4.085
REMARK INTER + INTRA:          -9.854
REMARK INTER:                  -7.349
REMARK INTRA:                  -2.505
REMARK UNBOUND:                -2.932
REMARK SMILES CC(=O)CCC=C(C)CCC=C(C)CCC=C(C)C
REMARK SMILES IDX 10 1 11 2 12 3 13 4 14 5 15 6 16 7 18 8 17 9 19 10 9 11 7 12
REMARK SMILES IDX 6 13 8 14 5 15 4 16 2 17 3 18 1 19
REMARK H PARENT
REMARK Flexibility Score: inf
ROOT
ATOM      1  C   UNL     1     137.519 183.810 190.227  1.00  0.00     0.032 C 
ENDROOT
BRANCH   1   2
ATOM      2  C   UNL     1     136.133 184.060 189.680  1.00  0.00    -0.028 C 
ATOM      3  C   UNL     1     135.492 183.298 188.762  1.00  0.00    -0.077 C 
ATOM      4  C   UNL     1     134.123 183.738 188.310  1.00  0.00     0.039 C 
BRANCH   3   5
ATOM      5  C   UNL     1     136.077 182.026 188.178  1.00  0.00     0.034 C 
BRANCH   5   6
ATOM      6  C   UNL     1     135.340 180.785 188.693  1.00  0.00     0.032 C 
BRANCH   6   7
ATOM      7  C   UNL     1     135.761 180.460 190.106  1.00  0.00    -0.028 C 
ATOM      8  C   UNL     1     133.517 181.015 191.071  1.00  0.00     0.039 C 
ATOM      9  C   UNL     1     134.961 180.584 191.187  1.00  0.00    -0.080 C 
ATOM     10  C   UNL     1     135.533 180.263 192.544  1.00  0.00     0.039 C 
ENDBRANCH   6   7
ENDBRANCH   5   6
ENDBRANCH   3   5
ENDBRANCH   1   2
BRANCH   1  11
ATOM     11  C   UNL     1     137.702 184.475 191.599  1.00  0.00     0.034 C 
BRANCH  11  12
ATOM     12  C   UNL     1     137.759 185.989 191.497  1.00  0.00    -0.077 C 
ATOM     13  C   UNL     1     136.871 186.805 192.111  1.00  0.00    -0.028 C 
ATOM     14  C   UNL     1     138.857 186.622 190.681  1.00  0.00     0.039 C 
BRANCH  13  15
ATOM     15  C   UNL     1     135.766 186.358 193.040  1.00  0.00     0.035 C 
BRANCH  15  16
ATOM     16  C   UNL     1     134.411 186.360 192.324  1.00  0.00     0.079 C 
BRANCH  16  17
ATOM     17  C   UNL     1     133.802 184.983 192.290  1.00  0.00     0.130 C 
ATOM     18  O   UNL     1     132.842 184.767 191.566  1.00  0.00    -0.300 OA
ATOM     19  C   UNL     1     134.356 183.865 193.123  1.00  0.00     0.087 C 
ENDBRANCH  16  17
ENDBRANCH  15  16
ENDBRANCH  13  15
ENDBRANCH  11  12
ENDBRANCH   1  11
TORSDOF 9
ENDMDL
MODEL 6
REMARK VINA RESULT:    -4.490      2.318      3.958
REMARK INTER + INTRA:          -9.785
REMARK INTER:                  -6.630
REMARK INTRA:                  -3.155
REMARK UNBOUND:                -2.932
REMARK SMILES CC(=O)CCC=C(C)CCC=C(C)CCC=C(C)C
REMARK SMILES IDX 10 1 11 2 12 3 13 4 14 5 15 6 16 7 18 8 17 9 19 10 9 11 7 12
REMARK SMILES IDX 6 13 8 14 5 15 4 16 2 17 3 18 1 19
REMARK H PARENT
REMARK Flexibility Score: inf
ROOT
ATOM      1  C   UNL     1     138.197 184.642 190.374  1.00  0.00     0.032 C 
ENDROOT
BRANCH   1   2
ATOM      2  C   UNL     1     137.748 183.307 189.824  1.00  0.00    -0.028 C 
ATOM      3  C   UNL     1     136.531 183.035 189.297  1.00  0.00    -0.077 C 
ATOM      4  C   UNL     1     136.260 181.625 188.837  1.00  0.00     0.039 C 
BRANCH   3   5
ATOM      5  C   UNL     1     135.439 184.076 189.136  1.00  0.00     0.034 C 
BRANCH   5   6
ATOM      6  C   UNL     1     134.153 183.651 189.854  1.00  0.00     0.032 C 
BRANCH   6   7
ATOM      7  C   UNL     1     133.928 184.489 191.089  1.00  0.00    -0.028 C 
ATOM      8  C   UNL     1     134.870 182.756 192.632  1.00  0.00     0.039 C 
ATOM      9  C   UNL     1     134.220 184.090 192.346  1.00  0.00    -0.080 C 
ATOM     10  C   UNL     1     133.901 185.020 193.487  1.00  0.00     0.039 C 
ENDBRANCH   6   7
ENDBRANCH   5   6
ENDBRANCH   3   5
ENDBRANCH   1   2
BRANCH   1  11
ATOM     11  C   UNL     1     137.879 184.760 191.872  1.00  0.00     0.034 C 
BRANCH  11  12
ATOM     12  C   UNL     1     137.291 186.115 192.225  1.00  0.00    -0.077 C 
ATOM     13  C   UNL     1     137.271 186.606 193.486  1.00  0.00    -0.028 C 
ATOM     14  C   UNL     1     136.704 186.962 191.125  1.00  0.00     0.039 C 
BRANCH  13  15
ATOM     15  C   UNL     1     137.892 185.943 194.695  1.00  0.00     0.035 C 
BRANCH  15  16
ATOM     16  C   UNL     1     136.814 185.425 195.652  1.00  0.00     0.079 C 
BRANCH  16  17
ATOM     17  C   UNL     1     136.759 183.920 195.661  1.00  0.00     0.130 C 
ATOM     18  O   UNL     1     135.760 183.356 196.078  1.00  0.00    -0.300 OA
ATOM     19  C   UNL     1     137.909 183.096 195.160  1.00  0.00     0.087 C 
ENDBRANCH  16  17
ENDBRANCH  15  16
ENDBRANCH  13  15
ENDBRANCH  11  12
ENDBRANCH   1  11
TORSDOF 9
ENDMDL
MODEL 7
REMARK VINA RESULT:    -4.453      1.651      4.036
REMARK INTER + INTRA:          -9.728
REMARK INTER:                  -7.030
REMARK INTRA:                  -2.698
REMARK UNBOUND:                -2.932
REMARK SMILES CC(=O)CCC=C(C)CCC=C(C)CCC=C(C)C
REMARK SMILES IDX 10 1 11 2 12 3 13 4 14 5 15 6 16 7 18 8 17 9 19 10 9 11 7 12
REMARK SMILES IDX 6 13 8 14 5 15 4 16 2 17 3 18 1 19
REMARK H PARENT
REMARK Flexibility Score: inf
ROOT
ATOM      1  C   UNL     1     135.336 180.818 188.968  1.00  0.00     0.032 C 
ENDROOT
BRANCH   1   2
ATOM      2  C   UNL     1     135.658 180.609 190.430  1.00  0.00    -0.028 C 
ATOM      3  C   UNL     1     134.884 180.988 191.474  1.00  0.00    -0.077 C 
ATOM      4  C   UNL     1     135.400 180.725 192.866  1.00  0.00     0.039 C 
BRANCH   3   5
ATOM      5  C   UNL     1     133.528 181.649 191.313  1.00  0.00     0.034 C 
BRANCH   5   6
ATOM      6  C   UNL     1     133.210 182.567 192.499  1.00  0.00     0.032 C 
BRANCH   6   7
ATOM      7  C   UNL     1     133.388 184.016 192.117  1.00  0.00    -0.028 C 
ATOM      8  C   UNL     1     135.177 184.413 193.824  1.00  0.00     0.039 C 
ATOM      9  C   UNL     1     134.248 184.864 192.720  1.00  0.00    -0.080 C 
ATOM     10  C   UNL     1     134.286 186.298 192.258  1.00  0.00     0.039 C 
ENDBRANCH   6   7
ENDBRANCH   5   6
ENDBRANCH   3   5
ENDBRANCH   1   2
BRANCH   1  11
ATOM     11  C   UNL     1     136.157 181.976 188.379  1.00  0.00     0.034 C 
BRANCH  11  12
ATOM     12  C   UNL     1     135.617 183.331 188.801  1.00  0.00    -0.077 C 
ATOM     13  C   UNL     1     136.250 184.136 189.686  1.00  0.00    -0.028 C 
ATOM     14  C   UNL     1     134.319 183.813 188.206  1.00  0.00     0.039 C 
BRANCH  13  15
ATOM     15  C   UNL     1     137.599 183.863 190.311  1.00  0.00     0.035 C 
BRANCH  15  16
ATOM     16  C   UNL     1     137.931 184.907 191.381  1.00  0.00     0.079 C 
BRANCH  16  17
ATOM     17  C   UNL     1     138.188 186.261 190.772  1.00  0.00     0.130 C 
ATOM     18  O   UNL     1     137.283 187.078 190.717  1.00  0.00    -0.300 OA
ATOM     19  C   UNL     1     139.541 186.629 190.238  1.00  0.00     0.087 C 
ENDBRANCH  16  17
ENDBRANCH  15  16
ENDBRANCH  13  15
ENDBRANCH  11  12
ENDBRANCH   1  11
TORSDOF 9
ENDMDL
MODEL 8
REMARK VINA RESULT:    -4.425      2.977      4.194
REMARK INTER + INTRA:          -9.686
REMARK INTER:                  -8.035
REMARK INTRA:                  -1.651
REMARK UNBOUND:                -2.932
REMARK SMILES CC(=O)CCC=C(C)CCC=C(C)CCC=C(C)C
REMARK SMILES IDX 10 1 11 2 12 3 13 4 14 5 15 6 16 7 18 8 17 9 19 10 9 11 7 12
REMARK SMILES IDX 6 13 8 14 5 15 4 16 2 17 3 18 1 19
REMARK H PARENT
REMARK Flexibility Score: inf
ROOT
ATOM      1  C   UNL     1     134.858 186.068 192.328  1.00  0.00     0.032 C 
ENDROOT
BRANCH   1   2
ATOM      2  C   UNL     1     136.153 186.594 191.752  1.00  0.00    -0.028 C 
ATOM      3  C   UNL     1     137.219 185.846 191.384  1.00  0.00    -0.077 C 
ATOM      4  C   UNL     1     138.440 186.563 190.866  1.00  0.00     0.039 C 
BRANCH   3   5
ATOM      5  C   UNL     1     137.241 184.330 191.455  1.00  0.00     0.034 C 
BRANCH   5   6
ATOM      6  C   UNL     1     137.204 183.705 190.056  1.00  0.00     0.032 C 
BRANCH   6   7
ATOM      7  C   UNL     1     135.899 184.018 189.365  1.00  0.00    -0.028 C 
ATOM      8  C   UNL     1     135.917 181.902 188.025  1.00  0.00     0.039 C 
ATOM      9  C   UNL     1     135.322 183.230 188.432  1.00  0.00    -0.080 C 
ATOM     10  C   UNL     1     134.036 183.694 187.797  1.00  0.00     0.039 C 
ENDBRANCH   6   7
ENDBRANCH   5   6
ENDBRANCH   3   5
ENDBRANCH   1   2
BRANCH   1  11
ATOM     11  C   UNL     1     134.843 186.189 193.860  1.00  0.00     0.034 C 
BRANCH  11  12
ATOM     12  C   UNL     1     135.499 184.997 194.533  1.00  0.00    -0.077 C 
ATOM     13  C   UNL     1     136.731 185.050 195.092  1.00  0.00    -0.028 C 
ATOM     14  C   UNL     1     134.749 183.691 194.592  1.00  0.00     0.039 C 
BRANCH  13  15
ATOM     15  C   UNL     1     137.588 186.289 195.210  1.00  0.00     0.035 C 
BRANCH  15  16
ATOM     16  C   UNL     1     137.394 186.964 196.571  1.00  0.00     0.079 C 
BRANCH  16  17
ATOM     17  C   UNL     1     138.604 187.771 196.966  1.00  0.00     0.130 C 
ATOM     18  O   UNL     1     139.712 187.264 196.904  1.00  0.00    -0.300 OA
ATOM     19  C   UNL     1     138.474 189.193 197.428  1.00  0.00     0.087 C 
ENDBRANCH  16  17
ENDBRANCH  15  16
ENDBRANCH  13  15
ENDBRANCH  11  12
ENDBRANCH   1  11
TORSDOF 9
ENDMDL
MODEL 9
REMARK VINA RESULT:    -4.342      1.112      4.304
REMARK INTER + INTRA:          -9.559
REMARK INTER:                  -6.679
REMARK INTRA:                  -2.880
REMARK UNBOUND:                -2.932
REMARK SMILES CC(=O)CCC=C(C)CCC=C(C)CCC=C(C)C
REMARK SMILES IDX 10 1 11 2 12 3 13 4 14 5 15 6 16 7 18 8 17 9 19 10 9 11 7 12
REMARK SMILES IDX 6 13 8 14 5 15 4 16 2 17 3 18 1 19
REMARK H PARENT
REMARK Flexibility Score: inf
ROOT
ATOM      1  C   UNL     1     134.607 183.379 187.753  1.00  0.00     0.032 C 
ENDROOT
BRANCH   1   2
ATOM      2  C   UNL     1     133.220 183.978 187.765  1.00  0.00    -0.028 C 
ATOM      3  C   UNL     1     132.146 183.480 188.422  1.00  0.00    -0.077 C 
ATOM      4  C   UNL     1     130.831 184.203 188.277  1.00  0.00     0.039 C 
BRANCH   3   5
ATOM      5  C   UNL     1     132.204 182.244 189.301  1.00  0.00     0.034 C 
BRANCH   5   6
ATOM      6  C   UNL     1     131.945 182.592 190.771  1.00  0.00     0.032 C 
BRANCH   6   7
ATOM      7  C   UNL     1     133.174 182.331 191.607  1.00  0.00    -0.028 C 
ATOM      8  C   UNL     1     133.546 184.757 192.104  1.00  0.00     0.039 C 
ATOM      9  C   UNL     1     133.918 183.295 192.191  1.00  0.00    -0.080 C 
ATOM     10  C   UNL     1     135.146 182.886 192.963  1.00  0.00     0.039 C 
ENDBRANCH   6   7
ENDBRANCH   5   6
ENDBRANCH   3   5
ENDBRANCH   1   2
BRANCH   1  11
ATOM     11  C   UNL     1     135.455 183.919 188.914  1.00  0.00     0.034 C 
BRANCH  11  12
ATOM     12  C   UNL     1     136.446 182.889 189.425  1.00  0.00    -0.077 C 
ATOM     13  C   UNL     1     137.616 183.220 190.021  1.00  0.00    -0.028 C 
ATOM     14  C   UNL     1     136.118 181.426 189.272  1.00  0.00     0.039 C 
BRANCH  13  15
ATOM     15  C   UNL     1     138.068 184.626 190.342  1.00  0.00     0.035 C 
BRANCH  15  16
ATOM     16  C   UNL     1     137.907 184.928 191.836  1.00  0.00     0.079 C 
BRANCH  16  17
ATOM     17  C   UNL     1     136.989 186.100 192.068  1.00  0.00     0.130 C 
ATOM     18  O   UNL     1     136.496 186.677 191.111  1.00  0.00    -0.300 OA
ATOM     19  C   UNL     1     136.662 186.570 193.454  1.00  0.00     0.087 C 
ENDBRANCH  16  17
ENDBRANCH  15  16
ENDBRANCH  13  15
ENDBRANCH  11  12
ENDBRANCH   1  11
TORSDOF 9
ENDMDL
