MODEL 1
REMARK VINA RESULT:    -2.911      0.000      0.000
REMARK INTER + INTRA:          -5.031
REMARK INTER:                  -4.272
REMARK INTRA:                  -0.759
REMARK UNBOUND:                -0.759
REMARK SMILES O=C([O-])CCCCCCCC(=O)[O-]
REMARK SMILES IDX 7 1 6 2 5 3 4 4 2 5 1 6 3 7 8 8 9 9 10 10 11 11 12 12 13 13
REMARK H PARENT
REMARK Flexibility Score: inf
ROOT
ATOM      1  C   UNL     1      17.932 -15.849  13.893  1.00  0.00     0.000 C 
ENDROOT
BRANCH   1   2
ATOM      2  C   UNL     1      17.419 -17.171  13.310  1.00  0.00     0.000 C 
BRANCH   2   3
ATOM      3  C   UNL     1      18.375 -17.707  12.235  1.00  0.00     0.006 C 
BRANCH   3   4
ATOM      4  C   UNL     1      19.014 -16.582  11.412  1.00  0.00     0.053 C 
BRANCH   4   5
ATOM      5  C   UNL     1      18.439 -16.509  10.031  1.00  0.00     0.041 C 
ATOM      6  O   UNL     1      17.799 -17.486   9.558  1.00  0.00    -0.550 OA
ATOM      7  O   UNL     1      18.636 -15.374   9.254  1.00  0.00    -0.550 OA
ENDBRANCH   4   5
ENDBRANCH   3   4
ENDBRANCH   2   3
ENDBRANCH   1   2
BRANCH   1   8
ATOM      8  C   UNL     1      18.262 -15.994  15.384  1.00  0.00     0.000 C 
BRANCH   8   9
ATOM      9  C   UNL     1      19.774 -15.928  15.623  1.00  0.00     0.006 C 
BRANCH   9  10
ATOM     10  C   UNL     1      20.481 -15.205  14.472  1.00  0.00     0.053 C 
BRANCH  10  11
ATOM     11  C   UNL     1      21.684 -15.977  14.028  1.00  0.00     0.041 C 
ATOM     12  O   UNL     1      21.597 -17.212  13.803  1.00  0.00    -0.550 OA
ATOM     13  O   UNL     1      22.889 -15.321  13.814  1.00  0.00    -0.550 OA
ENDBRANCH  10  11
ENDBRANCH   9  10
ENDBRANCH   8   9
ENDBRANCH   1   8
TORSDOF 8
ENDMDL
MODEL 2
REMARK VINA RESULT:    -2.900      0.198      4.560
REMARK INTER + INTRA:          -5.015
REMARK INTER:                  -4.257
REMARK INTRA:                  -0.758
REMARK UNBOUND:                -0.759
REMARK SMILES O=C([O-])CCCCCCCC(=O)[O-]
REMARK SMILES IDX 7 1 6 2 5 3 4 4 2 5 1 6 3 7 8 8 9 9 10 10 11 11 12 12 13 13
REMARK H PARENT
REMARK Flexibility Score: inf
ROOT
ATOM      1  C   UNL     1      18.037 -15.925  13.760  1.00  0.00     0.000 C 
ENDROOT
BRANCH   1   2
ATOM      2  C   UNL     1      18.304 -15.878  15.269  1.00  0.00     0.000 C 
BRANCH   2   3
ATOM      3  C   UNL     1      19.807 -15.762  15.559  1.00  0.00     0.006 C 
BRANCH   3   4
ATOM      4  C   UNL     1      20.594 -15.242  14.350  1.00  0.00     0.053 C 
BRANCH   4   5
ATOM      5  C   UNL     1      21.690 -16.183  13.954  1.00  0.00     0.041 C 
ATOM      6  O   UNL     1      21.460 -17.418  13.854  1.00  0.00    -0.550 OA
ATOM      7  O   UNL     1      22.973 -15.701  13.727  1.00  0.00    -0.550 OA
ENDBRANCH   4   5
ENDBRANCH   3   4
ENDBRANCH   2   3
ENDBRANCH   1   2
BRANCH   1   8
ATOM      8  C   UNL     1      17.591 -17.325  13.321  1.00  0.00     0.000 C 
BRANCH   8   9
ATOM      9  C   UNL     1      18.379 -17.794  12.093  1.00  0.00     0.006 C 
BRANCH   9  10
ATOM     10  C   UNL     1      19.017 -16.609  11.364  1.00  0.00     0.053 C 
BRANCH  10  11
ATOM     11  C   UNL     1      18.443 -16.468   9.989  1.00  0.00     0.041 C 
ATOM     12  O   UNL     1      17.724 -17.381   9.505  1.00  0.00    -0.550 OA
ATOM     13  O   UNL     1      18.660 -15.305   9.261  1.00  0.00    -0.550 OA
ENDBRANCH  10  11
ENDBRANCH   9  10
ENDBRANCH   8   9
ENDBRANCH   1   8
TORSDOF 8
ENDMDL
MODEL 3
REMARK VINA RESULT:    -2.714     14.596     15.765
REMARK INTER + INTRA:          -4.742
REMARK INTER:                  -4.255
REMARK INTRA:                  -0.488
REMARK UNBOUND:                -0.759
REMARK SMILES O=C([O-])CCCCCCCC(=O)[O-]
REMARK SMILES IDX 7 1 6 2 5 3 4 4 2 5 1 6 3 7 8 8 9 9 10 10 11 11 12 12 13 13
REMARK H PARENT
REMARK Flexibility Score: inf
ROOT
ATOM      1  C   UNL     1      22.794 -13.019  -2.140  1.00  0.00     0.000 C 
ENDROOT
BRANCH   1   2
ATOM      2  C   UNL     1      21.548 -13.566  -2.848  1.00  0.00     0.000 C 
BRANCH   2   3
ATOM      3  C   UNL     1      21.317 -15.042  -2.495  1.00  0.00     0.006 C 
BRANCH   3   4
ATOM      4  C   UNL     1      19.912 -15.519  -2.881  1.00  0.00     0.053 C 
BRANCH   4   5
ATOM      5  C   UNL     1      18.890 -15.119  -1.861  1.00  0.00     0.041 C 
ATOM      6  O   UNL     1      19.229 -14.939  -0.661  1.00  0.00    -0.550 OA
ATOM      7  O   UNL     1      17.559 -14.975  -2.230  1.00  0.00    -0.550 OA
ENDBRANCH   4   5
ENDBRANCH   3   4
ENDBRANCH   2   3
ENDBRANCH   1   2
BRANCH   1   8
ATOM      8  C   UNL     1      22.422 -11.907  -1.152  1.00  0.00     0.000 C 
BRANCH   8   9
ATOM      9  C   UNL     1      20.907 -11.683  -1.119  1.00  0.00     0.006 C 
BRANCH   9  10
ATOM     10  C   UNL     1      20.536 -10.344  -1.764  1.00  0.00     0.053 C 
BRANCH  10  11
ATOM     11  C   UNL     1      19.109 -10.357  -2.215  1.00  0.00     0.041 C 
ATOM     12  O   UNL     1      18.439 -11.421  -2.169  1.00  0.00    -0.550 OA
ATOM     13  O   UNL     1      18.505  -9.181  -2.640  1.00  0.00    -0.550 OA
ENDBRANCH  10  11
ENDBRANCH   9  10
ENDBRANCH   8   9
ENDBRANCH   1   8
TORSDOF 8
ENDMDL
MODEL 4
REMARK VINA RESULT:    -2.667     14.736     16.026
REMARK INTER + INTRA:          -4.673
REMARK INTER:                  -3.986
REMARK INTRA:                  -0.687
REMARK UNBOUND:                -0.759
REMARK SMILES O=C([O-])CCCCCCCC(=O)[O-]
REMARK SMILES IDX 7 1 6 2 5 3 4 4 2 5 1 6 3 7 8 8 9 9 10 10 11 11 12 12 13 13
REMARK H PARENT
REMARK Flexibility Score: inf
ROOT
ATOM      1  C   UNL     1      18.948 -10.996  -1.735  1.00  0.00     0.000 C 
ENDROOT
BRANCH   1   2
ATOM      2  C   UNL     1      20.206 -10.121  -1.684  1.00  0.00     0.000 C 
BRANCH   2   3
ATOM      3  C   UNL     1      21.036 -10.274  -2.966  1.00  0.00     0.006 C 
BRANCH   3   4
ATOM      4  C   UNL     1      22.508 -10.589  -2.671  1.00  0.00     0.053 C 
BRANCH   4   5
ATOM      5  C   UNL     1      22.654 -11.810  -1.816  1.00  0.00     0.041 C 
ATOM      6  O   UNL     1      22.340 -12.943  -2.270  1.00  0.00    -0.550 OA
ATOM      7  O   UNL     1      23.105 -11.694  -0.507  1.00  0.00    -0.550 OA
ENDBRANCH   4   5
ENDBRANCH   3   4
ENDBRANCH   2   3
ENDBRANCH   1   2
BRANCH   1   8
ATOM      8  C   UNL     1      18.900 -11.817  -3.029  1.00  0.00     0.000 C 
BRANCH   8   9
ATOM      9  C   UNL     1      18.257 -13.187  -2.789  1.00  0.00     0.006 C 
BRANCH   9  10
ATOM     10  C   UNL     1      19.234 -14.319  -3.122  1.00  0.00     0.053 C 
BRANCH  10  11
ATOM     11  C   UNL     1      19.558 -15.110  -1.894  1.00  0.00     0.041 C 
ATOM     12  O   UNL     1      18.958 -14.878  -0.813  1.00  0.00    -0.550 OA
ATOM     13  O   UNL     1      20.489 -16.139  -1.958  1.00  0.00    -0.550 OA
ENDBRANCH  10  11
ENDBRANCH   9  10
ENDBRANCH   8   9
ENDBRANCH   1   8
TORSDOF 8
ENDMDL
MODEL 5
REMARK VINA RESULT:    -2.661      1.332      4.697
REMARK INTER + INTRA:          -4.665
REMARK INTER:                  -4.111
REMARK INTRA:                  -0.555
REMARK UNBOUND:                -0.759
REMARK SMILES O=C([O-])CCCCCCCC(=O)[O-]
REMARK SMILES IDX 7 1 6 2 5 3 4 4 2 5 1 6 3 7 8 8 9 9 10 10 11 11 12 12 13 13
REMARK H PARENT
REMARK Flexibility Score: inf
ROOT
ATOM      1  C   UNL     1      18.107 -15.948  13.809  1.00  0.00     0.000 C 
ENDROOT
BRANCH   1   2
ATOM      2  C   UNL     1      18.262 -15.902  15.334  1.00  0.00     0.000 C 
BRANCH   2   3
ATOM      3  C   UNL     1      19.743 -15.873  15.736  1.00  0.00     0.006 C 
BRANCH   3   4
ATOM      4  C   UNL     1      20.671 -15.717  14.525  1.00  0.00     0.053 C 
BRANCH   4   5
ATOM      5  C   UNL     1      21.969 -15.069  14.900  1.00  0.00     0.041 C 
ATOM      6  O   UNL     1      22.301 -14.969  16.112  1.00  0.00    -0.550 OA
ATOM      7  O   UNL     1      22.796 -14.545  13.914  1.00  0.00    -0.550 OA
ENDBRANCH   4   5
ENDBRANCH   3   4
ENDBRANCH   2   3
ENDBRANCH   1   2
BRANCH   1   8
ATOM      8  C   UNL     1      17.096 -17.022  13.390  1.00  0.00     0.000 C 
BRANCH   8   9
ATOM      9  C   UNL     1      17.500 -17.669  12.061  1.00  0.00     0.006 C 
BRANCH   9  10
ATOM     10  C   UNL     1      19.010 -17.916  12.006  1.00  0.00     0.053 C 
BRANCH  10  11
ATOM     11  C   UNL     1      19.599 -17.297  10.777  1.00  0.00     0.041 C 
ATOM     12  O   UNL     1      18.981 -16.387  10.167  1.00  0.00    -0.550 OA
ATOM     13  O   UNL     1      20.855 -17.691  10.336  1.00  0.00    -0.550 OA
ENDBRANCH  10  11
ENDBRANCH   9  10
ENDBRANCH   8   9
ENDBRANCH   1   8
TORSDOF 8
ENDMDL
MODEL 6
REMARK VINA RESULT:    -2.554      2.127      5.023
REMARK INTER + INTRA:          -4.508
REMARK INTER:                  -3.928
REMARK INTRA:                  -0.580
REMARK UNBOUND:                -0.759
REMARK SMILES O=C([O-])CCCCCCCC(=O)[O-]
REMARK SMILES IDX 7 1 6 2 5 3 4 4 2 5 1 6 3 7 8 8 9 9 10 10 11 11 12 12 13 13
REMARK H PARENT
REMARK Flexibility Score: inf
ROOT
ATOM      1  C   UNL     1      21.267 -17.390  13.217  1.00  0.00     0.000 C 
ENDROOT
BRANCH   1   2
ATOM      2  C   UNL     1      21.765 -16.056  13.786  1.00  0.00     0.000 C 
BRANCH   2   3
ATOM      3  C   UNL     1      20.597 -15.215  14.321  1.00  0.00     0.006 C 
BRANCH   3   4
ATOM      4  C   UNL     1      19.723 -15.997  15.309  1.00  0.00     0.053 C 
BRANCH   4   5
ATOM      5  C   UNL     1      18.269 -15.894  14.966  1.00  0.00     0.041 C 
ATOM      6  O   UNL     1      17.402 -15.858  15.880  1.00  0.00    -0.550 OA
ATOM      7  O   UNL     1      17.868 -15.870  13.636  1.00  0.00    -0.550 OA
ENDBRANCH   4   5
ENDBRANCH   3   4
ENDBRANCH   2   3
ENDBRANCH   1   2
BRANCH   1   8
ATOM      8  C   UNL     1      21.952 -17.711  11.883  1.00  0.00     0.000 C 
BRANCH   8   9
ATOM      9  C   UNL     1      20.932 -17.771  10.741  1.00  0.00     0.006 C 
BRANCH   9  10
ATOM     10  C   UNL     1      19.500 -17.728  11.281  1.00  0.00     0.053 C 
BRANCH  10  11
ATOM     11  C   UNL     1      18.595 -17.031  10.313  1.00  0.00     0.041 C 
ATOM     12  O   UNL     1      18.778 -15.818  10.036  1.00  0.00    -0.550 OA
ATOM     13  O   UNL     1      17.581 -17.737   9.680  1.00  0.00    -0.550 OA
ENDBRANCH  10  11
ENDBRANCH   9  10
ENDBRANCH   8   9
ENDBRANCH   1   8
TORSDOF 8
ENDMDL
MODEL 7
REMARK VINA RESULT:    -2.514      1.651      5.175
REMARK INTER + INTRA:          -4.449
REMARK INTER:                  -3.785
REMARK INTRA:                  -0.665
REMARK UNBOUND:                -0.759
REMARK SMILES O=C([O-])CCCCCCCC(=O)[O-]
REMARK SMILES IDX 7 1 6 2 5 3 4 4 2 5 1 6 3 7 8 8 9 9 10 10 11 11 12 12 13 13
REMARK H PARENT
REMARK Flexibility Score: inf
ROOT
ATOM      1  C   UNL     1      17.797 -17.801  13.639  1.00  0.00     0.000 C 
ENDROOT
BRANCH   1   2
ATOM      2  C   UNL     1      17.439 -17.616  15.118  1.00  0.00     0.000 C 
BRANCH   2   3
ATOM      3  C   UNL     1      17.556 -16.143  15.534  1.00  0.00     0.006 C 
BRANCH   3   4
ATOM      4  C   UNL     1      18.467 -15.954  16.753  1.00  0.00     0.053 C 
BRANCH   4   5
ATOM      5  C   UNL     1      19.904 -16.209  16.417  1.00  0.00     0.041 C 
ATOM      6  O   UNL     1      20.486 -15.507  15.548  1.00  0.00    -0.550 OA
ATOM      7  O   UNL     1      20.591 -17.242  17.041  1.00  0.00    -0.550 OA
ENDBRANCH   4   5
ENDBRANCH   3   4
ENDBRANCH   2   3
ENDBRANCH   1   2
BRANCH   1   8
ATOM      8  C   UNL     1      18.035 -16.449  12.956  1.00  0.00     0.000 C 
BRANCH   8   9
ATOM      9  C   UNL     1      19.448 -16.369  12.370  1.00  0.00     0.006 C 
BRANCH   9  10
ATOM     10  C   UNL     1      19.554 -17.187  11.079  1.00  0.00     0.053 C 
BRANCH  10  11
ATOM     11  C   UNL     1      18.554 -16.711  10.073  1.00  0.00     0.041 C 
ATOM     12  O   UNL     1      18.660 -15.565   9.566  1.00  0.00    -0.550 OA
ATOM     13  O   UNL     1      17.532 -17.556   9.658  1.00  0.00    -0.550 OA
ENDBRANCH  10  11
ENDBRANCH   9  10
ENDBRANCH   8   9
ENDBRANCH   1   8
TORSDOF 8
ENDMDL
MODEL 8
REMARK VINA RESULT:    -2.505      2.499      4.064
REMARK INTER + INTRA:          -4.435
REMARK INTER:                  -3.699
REMARK INTRA:                  -0.736
REMARK UNBOUND:                -0.759
REMARK SMILES O=C([O-])CCCCCCCC(=O)[O-]
REMARK SMILES IDX 7 1 6 2 5 3 4 4 2 5 1 6 3 7 8 8 9 9 10 10 11 11 12 12 13 13
REMARK H PARENT
REMARK Flexibility Score: inf
ROOT
ATOM      1  C   UNL     1      18.798 -16.537  11.439  1.00  0.00     0.000 C 
ENDROOT
BRANCH   1   2
ATOM      2  C   UNL     1      17.711 -17.445  12.023  1.00  0.00     0.000 C 
BRANCH   2   3
ATOM      3  C   UNL     1      17.325 -17.001  13.441  1.00  0.00     0.006 C 
BRANCH   3   4
ATOM      4  C   UNL     1      18.234 -15.884  13.968  1.00  0.00     0.053 C 
BRANCH   4   5
ATOM      5  C   UNL     1      18.291 -15.873  15.464  1.00  0.00     0.041 C 
ATOM      6  O   UNL     1      19.393 -16.013  16.058  1.00  0.00    -0.550 OA
ATOM      7  O   UNL     1      17.122 -15.741  16.204  1.00  0.00    -0.550 OA
ENDBRANCH   4   5
ENDBRANCH   3   4
ENDBRANCH   2   3
ENDBRANCH   1   2
BRANCH   1   8
ATOM      8  C   UNL     1      19.938 -17.362  10.829  1.00  0.00     0.000 C 
BRANCH   8   9
ATOM      9  C   UNL     1      20.719 -18.109  11.916  1.00  0.00     0.006 C 
BRANCH   9  10
ATOM     10  C   UNL     1      22.016 -17.374  12.264  1.00  0.00     0.053 C 
BRANCH  10  11
ATOM     11  C   UNL     1      21.922 -16.759  13.626  1.00  0.00     0.041 C 
ATOM     12  O   UNL     1      21.794 -15.514  13.752  1.00  0.00    -0.550 OA
ATOM     13  O   UNL     1      21.924 -17.569  14.754  1.00  0.00    -0.550 OA
ENDBRANCH  10  11
ENDBRANCH   9  10
ENDBRANCH   8   9
ENDBRANCH   1   8
TORSDOF 8
ENDMDL
