MODEL 1
REMARK VINA RESULT:    -3.946      0.000      0.000
REMARK INTER + INTRA:          -6.178
REMARK INTER:                  -6.022
REMARK INTRA:                  -0.156
REMARK UNBOUND:                -0.156
REMARK SMILES CC1=CCC[C@@H](C)C(=O)C[C@H](C(C)C)C(=O)C1
REMARK SMILES IDX 8 1 9 2 6 3 7 4 5 5 4 6 3 7 2 8 1 9 10 11 11 12 15 13 16 14
REMARK SMILES IDX 17 15 12 17 13 18 14 19
REMARK H PARENT
REMARK Flexibility Score: 70.00
ROOT
ATOM      1  C   UNL     1     -15.345  14.872 -30.561  1.00  0.00     0.136 C 
ATOM      2  O   UNL     1     -16.131  15.012 -31.487  1.00  0.00    -0.299 OA
ENDROOT
BRANCH   1   3
ATOM      3  C   UNL     1     -13.895  15.289 -30.794  1.00  0.00     0.053 C 
ATOM      4  C   UNL     1     -13.395  14.632 -32.089  1.00  0.00     0.016 C 
BRANCH   3   5
ATOM      5  C   UNL     1     -12.891  15.000 -29.646  1.00  0.00     0.015 C 
BRANCH   5   6
ATOM      6  C   UNL     1     -12.350  13.550 -29.620  1.00  0.00     0.028 C 
BRANCH   6   7
ATOM      7  C   UNL     1     -12.347  12.988 -28.216  1.00  0.00    -0.028 C 
ATOM      8  C   UNL     1     -13.146  11.993 -27.762  1.00  0.00    -0.070 CG0
ATOM      9  C   UNL     1     -12.951  11.526 -26.341  1.00  0.00     0.039 C 
ATOM     10  G   UNL     1     -14.228  11.346 -28.606  1.00  0.00     0.000 G0
ENDBRANCH   6   7
ENDBRANCH   5   6
ENDBRANCH   3   5
ENDBRANCH   1   3
BRANCH   1  11
ATOM     11  C   UNL     1     -15.868  14.252 -29.280  1.00  0.00     0.087 C 
BRANCH  11  12
ATOM     12  C   UNL     1     -16.288  12.759 -29.424  1.00  0.00     0.066 C 
BRANCH  12  13
ATOM     13  C   UNL     1     -15.589  11.922 -28.365  1.00  0.00     0.140 C 
ATOM     14  O   UNL     1     -16.150  11.699 -27.301  1.00  0.00    -0.299 OA
BRANCH  13  15
ATOM     15  C   UNL     1     -14.226  11.327 -28.601  1.00  0.00     0.106 CG0
ATOM     16  G   UNL     1     -13.147  12.003 -27.776  1.00  0.00     0.000 G0
ENDBRANCH  13  15
ENDBRANCH  12  13
BRANCH  12  17
ATOM     17  C   UNL     1     -17.832  12.509 -29.418  1.00  0.00    -0.006 C 
ATOM     18  C   UNL     1     -18.345  12.228 -30.843  1.00  0.00     0.008 C 
ATOM     19  C   UNL     1     -18.621  13.695 -28.832  1.00  0.00     0.008 C 
ENDBRANCH  12  17
ENDBRANCH  11  12
ENDBRANCH   1  11
TORSDOF 1
ENDMDL
MODEL 2
REMARK VINA RESULT:    -3.620      1.602      3.921
REMARK INTER + INTRA:          -5.680
REMARK INTER:                  -6.105
REMARK INTRA:                   0.424
REMARK UNBOUND:                -0.156
REMARK SMILES CC1=CCC[C@@H](C)C(=O)C[C@H](C(C)C)C(=O)C1
REMARK SMILES IDX 8 1 9 2 6 3 7 4 5 5 4 6 3 7 2 8 1 9 10 11 11 12 15 13 16 14
REMARK SMILES IDX 17 15 12 17 13 18 14 19
REMARK H PARENT
REMARK Flexibility Score: 70.00
ROOT
ATOM      1  C   UNL     1     -16.486  13.295 -31.386  1.00  0.00     0.136 C 
ATOM      2  O   UNL     1     -16.951  14.262 -31.974  1.00  0.00    -0.299 OA
ENDROOT
BRANCH   1   3
ATOM      3  C   UNL     1     -17.468  12.327 -30.731  1.00  0.00     0.053 C 
ATOM      4  C   UNL     1     -18.729  13.103 -30.324  1.00  0.00     0.016 C 
BRANCH   3   5
ATOM      5  C   UNL     1     -16.944  11.516 -29.515  1.00  0.00     0.015 C 
BRANCH   5   6
ATOM      6  C   UNL     1     -16.688  12.363 -28.246  1.00  0.00     0.028 C 
BRANCH   6   7
ATOM      7  C   UNL     1     -15.651  11.718 -27.354  1.00  0.00    -0.028 C 
ATOM      8  C   UNL     1     -14.420  12.215 -27.086  1.00  0.00    -0.070 CG0
ATOM      9  C   UNL     1     -13.548  11.455 -26.119  1.00  0.00     0.039 C 
ATOM     10  G   UNL     1     -13.880  13.481 -27.724  1.00  0.00     0.000 G0
ENDBRANCH   6   7
ENDBRANCH   5   6
ENDBRANCH   3   5
ENDBRANCH   1   3
BRANCH   1  11
ATOM     11  C   UNL     1     -14.977  13.170 -31.319  1.00  0.00     0.087 C 
BRANCH  11  12
ATOM     12  C   UNL     1     -14.308  14.120 -30.282  1.00  0.00     0.066 C 
BRANCH  12  13
ATOM     13  C   UNL     1     -13.585  13.302 -29.223  1.00  0.00     0.140 C 
ATOM     14  O   UNL     1     -12.738  12.488 -29.562  1.00  0.00    -0.299 OA
BRANCH  13  15
ATOM     15  C   UNL     1     -13.863  13.488 -27.755  1.00  0.00     0.106 CG0
ATOM     16  G   UNL     1     -14.383  12.223 -27.099  1.00  0.00     0.000 G0
ENDBRANCH  13  15
ENDBRANCH  12  13
BRANCH  12  17
ATOM     17  C   UNL     1     -13.368  15.207 -30.900  1.00  0.00    -0.006 C 
ATOM     18  C   UNL     1     -13.065  14.890 -32.377  1.00  0.00     0.008 C 
ATOM     19  C   UNL     1     -12.036  15.340 -30.139  1.00  0.00     0.008 C 
ENDBRANCH  12  17
ENDBRANCH  11  12
ENDBRANCH   1  11
TORSDOF 1
ENDMDL
MODEL 3
REMARK VINA RESULT:    -3.541      2.188      4.807
REMARK INTER + INTRA:          -5.561
REMARK INTER:                  -5.590
REMARK INTRA:                   0.029
REMARK UNBOUND:                -0.156
REMARK SMILES CC1=CCC[C@@H](C)C(=O)C[C@H](C(C)C)C(=O)C1
REMARK SMILES IDX 8 1 9 2 6 3 7 4 5 5 4 6 3 7 2 8 1 9 10 11 11 12 15 13 16 14
REMARK SMILES IDX 17 15 12 17 13 18 14 19
REMARK H PARENT
REMARK Flexibility Score: 70.00
ROOT
ATOM      1  C   UNL     1     -16.722  13.845 -28.987  1.00  0.00     0.136 C 
ATOM      2  O   UNL     1     -17.145  14.990 -28.905  1.00  0.00    -0.299 OA
ENDROOT
BRANCH   1   3
ATOM      3  C   UNL     1     -17.520  12.856 -29.833  1.00  0.00     0.053 C 
ATOM      4  C   UNL     1     -17.789  11.596 -28.996  1.00  0.00     0.016 C 
BRANCH   3   5
ATOM      5  C   UNL     1     -16.905  12.449 -31.199  1.00  0.00     0.015 C 
BRANCH   5   6
ATOM      6  C   UNL     1     -16.624  13.635 -32.151  1.00  0.00     0.028 C 
BRANCH   6   7
ATOM      7  C   UNL     1     -15.172  13.671 -32.572  1.00  0.00    -0.028 C 
ATOM      8  C   UNL     1     -14.203  14.424 -32.000  1.00  0.00    -0.070 CG0
ATOM      9  C   UNL     1     -12.795  14.277 -32.522  1.00  0.00     0.039 C 
ATOM     10  G   UNL     1     -14.470  15.413 -30.881  1.00  0.00     0.000 G0
ENDBRANCH   6   7
ENDBRANCH   5   6
ENDBRANCH   3   5
ENDBRANCH   1   3
BRANCH   1  11
ATOM     11  C   UNL     1     -15.470  13.498 -28.205  1.00  0.00     0.087 C 
BRANCH  11  12
ATOM     12  C   UNL     1     -14.164  13.538 -29.051  1.00  0.00     0.066 C 
BRANCH  12  13
ATOM     13  C   UNL     1     -13.914  14.953 -29.549  1.00  0.00     0.140 C 
ATOM     14  O   UNL     1     -13.251  15.725 -28.870  1.00  0.00    -0.299 OA
BRANCH  13  15
ATOM     15  C   UNL     1     -14.439  15.427 -30.878  1.00  0.00     0.106 CG0
ATOM     16  G   UNL     1     -14.203  14.420 -31.987  1.00  0.00     0.000 G0
ENDBRANCH  13  15
ENDBRANCH  12  13
BRANCH  12  17
ATOM     17  C   UNL     1     -12.900  12.957 -28.335  1.00  0.00    -0.006 C 
ATOM     18  C   UNL     1     -11.912  12.373 -29.361  1.00  0.00     0.008 C 
ATOM     19  C   UNL     1     -13.252  11.865 -27.308  1.00  0.00     0.008 C 
ENDBRANCH  12  17
ENDBRANCH  11  12
ENDBRANCH   1  11
TORSDOF 1
ENDMDL
MODEL 4
REMARK VINA RESULT:    -3.249      1.981      4.501
REMARK INTER + INTRA:          -5.115
REMARK INTER:                  -5.328
REMARK INTRA:                   0.213
REMARK UNBOUND:                -0.156
REMARK SMILES CC1=CCC[C@@H](C)C(=O)C[C@H](C(C)C)C(=O)C1
REMARK SMILES IDX 8 1 9 2 6 3 7 4 5 5 4 6 3 7 2 8 1 9 10 11 11 12 15 13 16 14
REMARK SMILES IDX 17 15 12 17 13 18 14 19
REMARK H PARENT
REMARK Flexibility Score: 70.00
ROOT
ATOM      1  C   UNL     1     -15.073  14.208 -31.889  1.00  0.00     0.136 C 
ATOM      2  O   UNL     1     -15.301  15.338 -31.484  1.00  0.00    -0.299 OA
ENDROOT
BRANCH   1   3
ATOM      3  C   UNL     1     -16.179  13.166 -31.734  1.00  0.00     0.053 C 
ATOM      4  C   UNL     1     -17.539  13.869 -31.843  1.00  0.00     0.016 C 
BRANCH   3   5
ATOM      5  C   UNL     1     -16.146  12.298 -30.446  1.00  0.00     0.015 C 
BRANCH   5   6
ATOM      6  C   UNL     1     -15.840  13.089 -29.152  1.00  0.00     0.028 C 
BRANCH   6   7
ATOM      7  C   UNL     1     -14.765  12.409 -28.333  1.00  0.00    -0.028 C 
ATOM      8  C   UNL     1     -13.476  12.811 -28.233  1.00  0.00    -0.070 CG0
ATOM      9  C   UNL     1     -12.565  12.036 -27.315  1.00  0.00     0.039 C 
ATOM     10  G   UNL     1     -12.909  13.985 -29.010  1.00  0.00     0.000 G0
ENDBRANCH   6   7
ENDBRANCH   5   6
ENDBRANCH   3   5
ENDBRANCH   1   3
BRANCH   1  11
ATOM     11  C   UNL     1     -13.699  13.927 -32.464  1.00  0.00     0.087 C 
BRANCH  11  12
ATOM     12  C   UNL     1     -12.526  14.453 -31.586  1.00  0.00     0.066 C 
BRANCH  12  13
ATOM     13  C   UNL     1     -12.354  13.560 -30.367  1.00  0.00     0.140 C 
ATOM     14  O   UNL     1     -11.758  12.497 -30.475  1.00  0.00    -0.299 OA
BRANCH  13  15
ATOM     15  C   UNL     1     -12.873  13.964 -29.012  1.00  0.00     0.106 CG0
ATOM     16  G   UNL     1     -13.472  12.797 -28.250  1.00  0.00     0.000 G0
ENDBRANCH  13  15
ENDBRANCH  12  13
BRANCH  12  17
ATOM     17  C   UNL     1     -11.172  14.644 -32.346  1.00  0.00    -0.006 C 
ATOM     18  C   UNL     1     -10.878  16.140 -32.568  1.00  0.00     0.008 C 
ATOM     19  C   UNL     1     -11.152  13.927 -33.708  1.00  0.00     0.008 C 
ENDBRANCH  12  17
ENDBRANCH  11  12
ENDBRANCH   1  11
TORSDOF 1
ENDMDL
MODEL 5
REMARK VINA RESULT:    -3.122     11.070     13.656
REMARK INTER + INTRA:          -4.920
REMARK INTER:                  -4.918
REMARK INTRA:                  -0.002
REMARK UNBOUND:                -0.156
REMARK SMILES CC1=CCC[C@@H](C)C(=O)C[C@H](C(C)C)C(=O)C1
REMARK SMILES IDX 8 1 9 2 6 3 7 4 5 5 4 6 3 7 2 8 1 9 10 11 11 12 15 13 16 14
REMARK SMILES IDX 17 15 12 17 13 18 14 19
REMARK H PARENT
REMARK Flexibility Score: 70.00
ROOT
ATOM      1  C   UNL     1     -30.089  13.754 -30.579  1.00  0.00     0.136 C 
ATOM      2  O   UNL     1     -31.037  14.390 -30.140  1.00  0.00    -0.299 OA
ENDROOT
BRANCH   1   3
ATOM      3  C   UNL     1     -29.983  12.282 -30.185  1.00  0.00     0.053 C 
ATOM      4  C   UNL     1     -31.121  11.506 -30.864  1.00  0.00     0.016 C 
BRANCH   3   5
ATOM      5  C   UNL     1     -29.974  11.964 -28.665  1.00  0.00     0.015 C 
BRANCH   5   6
ATOM      6  C   UNL     1     -28.773  12.563 -27.895  1.00  0.00     0.028 C 
BRANCH   6   7
ATOM      7  C   UNL     1     -27.508  11.772 -28.146  1.00  0.00    -0.028 C 
ATOM      8  C   UNL     1     -26.351  12.270 -28.642  1.00  0.00    -0.070 CG0
ATOM      9  C   UNL     1     -25.175  11.333 -28.763  1.00  0.00     0.039 C 
ATOM     10  G   UNL     1     -26.192  13.709 -29.094  1.00  0.00     0.000 G0
ENDBRANCH   6   7
ENDBRANCH   5   6
ENDBRANCH   3   5
ENDBRANCH   1   3
BRANCH   1  11
ATOM     11  C   UNL     1     -29.079  14.493 -31.434  1.00  0.00     0.087 C 
BRANCH  11  12
ATOM     12  C   UNL     1     -27.865  15.054 -30.637  1.00  0.00     0.066 C 
BRANCH  12  13
ATOM     13  C   UNL     1     -26.824  13.962 -30.446  1.00  0.00     0.140 C 
ATOM     14  O   UNL     1     -26.477  13.284 -31.403  1.00  0.00    -0.299 OA
BRANCH  13  15
ATOM     15  C   UNL     1     -26.180  13.710 -29.109  1.00  0.00     0.106 CG0
ATOM     16  G   UNL     1     -26.356  12.277 -28.642  1.00  0.00     0.000 G0
ENDBRANCH  13  15
ENDBRANCH  12  13
BRANCH  12  17
ATOM     17  C   UNL     1     -27.227  16.349 -31.241  1.00  0.00    -0.006 C 
ATOM     18  C   UNL     1     -26.606  17.219 -30.132  1.00  0.00     0.008 C 
ATOM     19  C   UNL     1     -28.242  17.198 -32.028  1.00  0.00     0.008 C 
ENDBRANCH  12  17
ENDBRANCH  11  12
ENDBRANCH   1  11
TORSDOF 1
ENDMDL
MODEL 6
REMARK VINA RESULT:    -3.089     10.664     13.405
REMARK INTER + INTRA:          -4.870
REMARK INTER:                  -5.567
REMARK INTRA:                   0.697
REMARK UNBOUND:                -0.156
REMARK SMILES CC1=CCC[C@@H](C)C(=O)C[C@H](C(C)C)C(=O)C1
REMARK SMILES IDX 8 1 9 2 6 3 7 4 5 5 4 6 3 7 2 8 1 9 10 11 11 12 15 13 16 14
REMARK SMILES IDX 17 15 12 17 13 18 14 19
REMARK H PARENT
REMARK Flexibility Score: 70.00
ROOT
ATOM      1  C   UNL     1     -28.804  14.685 -31.720  1.00  0.00     0.136 C 
ATOM      2  O   UNL     1     -28.898  15.665 -32.445  1.00  0.00    -0.299 OA
ENDROOT
BRANCH   1   3
ATOM      3  C   UNL     1     -30.084  14.157 -31.077  1.00  0.00     0.053 C 
ATOM      4  C   UNL     1     -31.111  15.297 -31.014  1.00  0.00     0.016 C 
BRANCH   3   5
ATOM      5  C   UNL     1     -29.944  13.508 -29.673  1.00  0.00     0.015 C 
BRANCH   5   6
ATOM      6  C   UNL     1     -29.878  11.963 -29.688  1.00  0.00     0.028 C 
BRANCH   6   7
ATOM      7  C   UNL     1     -29.044  11.437 -28.541  1.00  0.00    -0.028 C 
ATOM      8  C   UNL     1     -27.691  11.378 -28.510  1.00  0.00    -0.070 CG0
ATOM      9  C   UNL     1     -27.036  10.877 -27.247  1.00  0.00     0.039 C 
ATOM     10  G   UNL     1     -26.816  11.775 -29.683  1.00  0.00     0.000 G0
ENDBRANCH   6   7
ENDBRANCH   5   6
ENDBRANCH   3   5
ENDBRANCH   1   3
BRANCH   1  11
ATOM     11  C   UNL     1     -27.421  14.110 -31.486  1.00  0.00     0.087 C 
BRANCH  11  12
ATOM     12  C   UNL     1     -26.850  14.394 -30.066  1.00  0.00     0.066 C 
BRANCH  12  13
ATOM     13  C   UNL     1     -26.182  13.142 -29.519  1.00  0.00     0.140 C 
ATOM     14  O   UNL     1     -25.132  13.238 -28.899  1.00  0.00    -0.299 OA
BRANCH  13  15
ATOM     15  C   UNL     1     -26.796  11.778 -29.693  1.00  0.00     0.106 CG0
ATOM     16  G   UNL     1     -27.683  11.389 -28.526  1.00  0.00     0.000 G0
ENDBRANCH  13  15
ENDBRANCH  12  13
BRANCH  12  17
ATOM     17  C   UNL     1     -25.896  15.631 -29.978  1.00  0.00    -0.006 C 
ATOM     18  C   UNL     1     -26.590  16.894 -30.520  1.00  0.00     0.008 C 
ATOM     19  C   UNL     1     -24.580  15.419 -30.748  1.00  0.00     0.008 C 
ENDBRANCH  12  17
ENDBRANCH  11  12
ENDBRANCH   1  11
TORSDOF 1
ENDMDL
MODEL 7
REMARK VINA RESULT:    -3.009     10.540     13.488
REMARK INTER + INTRA:          -4.749
REMARK INTER:                  -5.295
REMARK INTRA:                   0.546
REMARK UNBOUND:                -0.156
REMARK SMILES CC1=CCC[C@@H](C)C(=O)C[C@H](C(C)C)C(=O)C1
REMARK SMILES IDX 8 1 9 2 6 3 7 4 5 5 4 6 3 7 2 8 1 9 10 11 11 12 15 13 16 14
REMARK SMILES IDX 17 15 12 17 13 18 14 19
REMARK H PARENT
REMARK Flexibility Score: 70.00
ROOT
ATOM      1  C   UNL     1     -29.383  13.541 -30.456  1.00  0.00     0.136 C 
ATOM      2  O   UNL     1     -30.486  14.014 -30.222  1.00  0.00    -0.299 OA
ENDROOT
BRANCH   1   3
ATOM      3  C   UNL     1     -28.953  12.316 -29.653  1.00  0.00     0.053 C 
ATOM      4  C   UNL     1     -29.311  12.543 -28.177  1.00  0.00     0.016 C 
BRANCH   3   5
ATOM      5  C   UNL     1     -27.463  11.894 -29.765  1.00  0.00     0.015 C 
BRANCH   5   6
ATOM      6  C   UNL     1     -26.510  12.659 -28.816  1.00  0.00     0.028 C 
BRANCH   6   7
ATOM      7  C   UNL     1     -25.442  13.400 -29.588  1.00  0.00    -0.028 C 
ATOM      8  C   UNL     1     -25.464  14.717 -29.901  1.00  0.00    -0.070 CG0
ATOM      9  C   UNL     1     -24.272  15.290 -30.626  1.00  0.00     0.039 C 
ATOM     10  G   UNL     1     -26.632  15.629 -29.574  1.00  0.00     0.000 G0
ENDBRANCH   6   7
ENDBRANCH   5   6
ENDBRANCH   3   5
ENDBRANCH   1   3
BRANCH   1  11
ATOM     11  C   UNL     1     -28.521  14.241 -31.488  1.00  0.00     0.087 C 
BRANCH  11  12
ATOM     12  C   UNL     1     -28.547  15.795 -31.386  1.00  0.00     0.066 C 
BRANCH  12  13
ATOM     13  C   UNL     1     -27.245  16.294 -30.780  1.00  0.00     0.140 C 
ATOM     14  O   UNL     1     -26.685  17.267 -31.266  1.00  0.00    -0.299 OA
BRANCH  13  15
ATOM     15  C   UNL     1     -26.635  15.639 -29.569  1.00  0.00     0.106 CG0
ATOM     16  G   UNL     1     -25.477  14.726 -29.925  1.00  0.00     0.000 G0
ENDBRANCH  13  15
ENDBRANCH  12  13
BRANCH  12  17
ATOM     17  C   UNL     1     -28.870  16.535 -32.726  1.00  0.00    -0.006 C 
ATOM     18  C   UNL     1     -29.170  18.023 -32.469  1.00  0.00     0.008 C 
ATOM     19  C   UNL     1     -30.062  15.911 -33.474  1.00  0.00     0.008 C 
ENDBRANCH  12  17
ENDBRANCH  11  12
ENDBRANCH   1  11
TORSDOF 1
ENDMDL
MODEL 8
REMARK VINA RESULT:    -2.509      2.039      3.942
REMARK INTER + INTRA:          -3.985
REMARK INTER:                  -4.498
REMARK INTRA:                   0.513
REMARK UNBOUND:                -0.156
REMARK SMILES CC1=CCC[C@@H](C)C(=O)C[C@H](C(C)C)C(=O)C1
REMARK SMILES IDX 8 1 9 2 6 3 7 4 5 5 4 6 3 7 2 8 1 9 10 11 11 12 15 13 16 14
REMARK SMILES IDX 17 15 12 17 13 18 14 19
REMARK H PARENT
REMARK Flexibility Score: 70.00
ROOT
ATOM      1  C   UNL     1     -16.544  12.290 -29.676  1.00  0.00     0.136 C 
ATOM      2  O   UNL     1     -17.291  11.876 -28.802  1.00  0.00    -0.299 OA
ENDROOT
BRANCH   1   3
ATOM      3  C   UNL     1     -16.869  13.645 -30.300  1.00  0.00     0.053 C 
ATOM      4  C   UNL     1     -16.711  13.537 -31.824  1.00  0.00     0.016 C 
BRANCH   3   5
ATOM      5  C   UNL     1     -16.062  14.866 -29.781  1.00  0.00     0.015 C 
BRANCH   5   6
ATOM      6  C   UNL     1     -15.225  15.585 -30.866  1.00  0.00     0.028 C 
BRANCH   6   7
ATOM      7  C   UNL     1     -13.765  15.657 -30.476  1.00  0.00    -0.028 C 
ATOM      8  C   UNL     1     -12.880  14.634 -30.536  1.00  0.00    -0.070 CG0
ATOM      9  C   UNL     1     -11.447  14.919 -30.161  1.00  0.00     0.039 C 
ATOM     10  G   UNL     1     -13.266  13.225 -30.943  1.00  0.00     0.000 G0
ENDBRANCH   6   7
ENDBRANCH   5   6
ENDBRANCH   3   5
ENDBRANCH   1   3
BRANCH   1  11
ATOM     11  C   UNL     1     -15.388  11.403 -30.095  1.00  0.00     0.087 C 
BRANCH  11  12
ATOM     12  C   UNL     1     -14.145  11.499 -29.163  1.00  0.00     0.066 C 
BRANCH  12  13
ATOM     13  C   UNL     1     -13.001  12.182 -29.896  1.00  0.00     0.140 C 
ATOM     14  O   UNL     1     -11.847  11.870 -29.641  1.00  0.00    -0.299 OA
BRANCH  13  15
ATOM     15  C   UNL     1     -13.251  13.219 -30.959  1.00  0.00     0.106 CG0
ATOM     16  G   UNL     1     -12.877  14.617 -30.504  1.00  0.00     0.000 G0
ENDBRANCH  13  15
ENDBRANCH  12  13
BRANCH  12  17
ATOM     17  C   UNL     1     -14.416  12.175 -27.778  1.00  0.00    -0.006 C 
ATOM     18  C   UNL     1     -13.174  12.950 -27.298  1.00  0.00     0.008 C 
ATOM     19  C   UNL     1     -14.816  11.159 -26.692  1.00  0.00     0.008 C 
ENDBRANCH  12  17
ENDBRANCH  11  12
ENDBRANCH   1  11
TORSDOF 1
ENDMDL
MODEL 9
REMARK VINA RESULT:    -2.411     12.756     15.628
REMARK INTER + INTRA:          -3.836
REMARK INTER:                  -3.954
REMARK INTRA:                   0.119
REMARK UNBOUND:                -0.156
REMARK SMILES CC1=CCC[C@@H](C)C(=O)C[C@H](C(C)C)C(=O)C1
REMARK SMILES IDX 8 1 9 2 6 3 7 4 5 5 4 6 3 7 2 8 1 9 10 11 11 12 15 13 16 14
REMARK SMILES IDX 17 15 12 17 13 18 14 19
REMARK H PARENT
REMARK Flexibility Score: 70.00
ROOT
ATOM      1  C   UNL     1     -27.304  16.908 -31.204  1.00  0.00     0.136 C 
ATOM      2  O   UNL     1     -26.234  16.412 -30.880  1.00  0.00    -0.299 OA
ENDROOT
BRANCH   1   3
ATOM      3  C   UNL     1     -28.459  15.958 -31.512  1.00  0.00     0.053 C 
ATOM      4  C   UNL     1     -28.138  14.581 -30.915  1.00  0.00     0.016 C 
BRANCH   3   5
ATOM      5  C   UNL     1     -28.851  15.796 -33.006  1.00  0.00     0.015 C 
BRANCH   5   6
ATOM      6  C   UNL     1     -30.312  16.188 -33.329  1.00  0.00     0.028 C 
BRANCH   6   7
ATOM      7  C   UNL     1     -30.778  17.336 -32.462  1.00  0.00    -0.028 C 
ATOM      8  C   UNL     1     -30.489  18.644 -32.661  1.00  0.00    -0.070 CG0
ATOM      9  C   UNL     1     -31.100  19.652 -31.720  1.00  0.00     0.039 C 
ATOM     10  G   UNL     1     -29.574  19.133 -33.768  1.00  0.00     0.000 G0
ENDBRANCH   6   7
ENDBRANCH   5   6
ENDBRANCH   3   5
ENDBRANCH   1   3
BRANCH   1  11
ATOM     11  C   UNL     1     -27.375  18.418 -31.318  1.00  0.00     0.087 C 
BRANCH  11  12
ATOM     12  C   UNL     1     -27.124  18.957 -32.757  1.00  0.00     0.066 C 
BRANCH  12  13
ATOM     13  C   UNL     1     -28.314  19.787 -33.213  1.00  0.00     0.140 C 
ATOM     14  O   UNL     1     -28.254  21.007 -33.165  1.00  0.00    -0.299 OA
BRANCH  13  15
ATOM     15  C   UNL     1     -29.564  19.145 -33.754  1.00  0.00     0.106 CG0
ATOM     16  G   UNL     1     -30.486  18.653 -32.655  1.00  0.00     0.000 G0
ENDBRANCH  13  15
ENDBRANCH  12  13
BRANCH  12  17
ATOM     17  C   UNL     1     -25.782  19.741 -32.938  1.00  0.00    -0.006 C 
ATOM     18  C   UNL     1     -25.452  19.919 -34.432  1.00  0.00     0.008 C 
ATOM     19  C   UNL     1     -24.594  19.048 -32.247  1.00  0.00     0.008 C 
ENDBRANCH  12  17
ENDBRANCH  11  12
ENDBRANCH   1  11
TORSDOF 1
ENDMDL
