MODEL 1
REMARK VINA RESULT:    -5.018      0.000      0.000
REMARK INTER + INTRA:          -8.181
REMARK INTER:                  -7.658
REMARK INTRA:                  -0.523
REMARK UNBOUND:                -0.523
REMARK SMILES CCCCCCCCCCC(=O)[O-]
REMARK SMILES IDX 7 1 8 2 9 3 10 4 11 5 12 6 13 7 6 8 5 9 4 10 3 11 2 12 1 13
REMARK H PARENT
REMARK Flexibility Score: inf
ROOT
ATOM      1  C   UNL     1       8.618   1.293 -33.753  1.00  0.00     0.000 C 
ENDROOT
BRANCH   1   2
ATOM      2  C   UNL     1       7.592   1.851 -34.759  1.00  0.00     0.000 C 
BRANCH   2   3
ATOM      3  C   UNL     1       7.896   1.486 -36.229  1.00  0.00     0.006 C 
BRANCH   3   4
ATOM      4  C   UNL     1       7.673  -0.001 -36.548  1.00  0.00     0.053 C 
BRANCH   4   5
ATOM      5  C   UNL     1       8.548  -0.465 -37.673  1.00  0.00     0.041 C 
ATOM      6  O   UNL     1       8.621  -1.689 -37.956  1.00  0.00    -0.550 OA
ATOM      7  O   UNL     1       9.300   0.455 -38.394  1.00  0.00    -0.550 OA
ENDBRANCH   4   5
ENDBRANCH   3   4
ENDBRANCH   2   3
ENDBRANCH   1   2
BRANCH   1   8
ATOM      8  C   UNL     1      10.092   1.475 -34.156  1.00  0.00     0.000 C 
BRANCH   8   9
ATOM      9  C   UNL     1      11.045   1.490 -32.949  1.00  0.00    -0.000 C 
BRANCH   9  10
ATOM     10  C   UNL     1      12.115   2.592 -33.046  1.00  0.00    -0.000 C 
BRANCH  10  11
ATOM     11  C   UNL     1      13.542   2.093 -33.336  1.00  0.00    -0.000 C 
BRANCH  11  12
ATOM     12  C   UNL     1      13.807   1.873 -34.832  1.00  0.00    -0.003 C 
ATOM     13  C   UNL     1      13.211   3.003 -35.668  1.00  0.00     0.004 C 
ENDBRANCH  11  12
ENDBRANCH  10  11
ENDBRANCH   9  10
ENDBRANCH   8   9
ENDBRANCH   1   8
TORSDOF 9
ENDMDL
MODEL 2
REMARK VINA RESULT:    -4.924      4.333      6.233
REMARK INTER + INTRA:          -8.037
REMARK INTER:                  -7.530
REMARK INTRA:                  -0.508
REMARK UNBOUND:                -0.523
REMARK SMILES CCCCCCCCCCC(=O)[O-]
REMARK SMILES IDX 7 1 8 2 9 3 10 4 11 5 12 6 13 7 6 8 5 9 4 10 3 11 2 12 1 13
REMARK H PARENT
REMARK Flexibility Score: inf
ROOT
ATOM      1  C   UNL     1       8.145   1.553 -33.791  1.00  0.00     0.000 C 
ENDROOT
BRANCH   1   2
ATOM      2  C   UNL     1       8.121   1.588 -32.249  1.00  0.00     0.000 C 
BRANCH   2   3
ATOM      3  C   UNL     1       6.703   1.489 -31.643  1.00  0.00     0.006 C 
BRANCH   3   4
ATOM      4  C   UNL     1       6.615   2.021 -30.204  1.00  0.00     0.053 C 
BRANCH   4   5
ATOM      5  C   UNL     1       7.289   1.104 -29.230  1.00  0.00     0.041 C 
ATOM      6  O   UNL     1       7.104  -0.140 -29.298  1.00  0.00    -0.550 OA
ATOM      7  O   UNL     1       8.105   1.625 -28.233  1.00  0.00    -0.550 OA
ENDBRANCH   4   5
ENDBRANCH   3   4
ENDBRANCH   2   3
ENDBRANCH   1   2
BRANCH   1   8
ATOM      8  C   UNL     1       9.530   1.313 -34.415  1.00  0.00     0.000 C 
BRANCH   8   9
ATOM      9  C   UNL     1       9.636   1.843 -35.855  1.00  0.00    -0.000 C 
BRANCH   9  10
ATOM     10  C   UNL     1       8.269   2.211 -36.459  1.00  0.00    -0.000 C 
BRANCH  10  11
ATOM     11  C   UNL     1       7.844   1.369 -37.676  1.00  0.00    -0.000 C 
BRANCH  11  12
ATOM     12  C   UNL     1       8.962   0.448 -38.187  1.00  0.00    -0.003 C 
ATOM     13  C   UNL     1       8.590  -1.021 -38.007  1.00  0.00     0.004 C 
ENDBRANCH  11  12
ENDBRANCH  10  11
ENDBRANCH   9  10
ENDBRANCH   8   9
ENDBRANCH   1   8
TORSDOF 9
ENDMDL
MODEL 3
REMARK VINA RESULT:    -4.916      3.812      4.805
REMARK INTER + INTRA:          -8.025
REMARK INTER:                  -7.455
REMARK INTRA:                  -0.570
REMARK UNBOUND:                -0.523
REMARK SMILES CCCCCCCCCCC(=O)[O-]
REMARK SMILES IDX 7 1 8 2 9 3 10 4 11 5 12 6 13 7 6 8 5 9 4 10 3 11 2 12 1 13
REMARK H PARENT
REMARK Flexibility Score: inf
ROOT
ATOM      1  C   UNL     1       7.043   0.616 -35.224  1.00  0.00     0.000 C 
ENDROOT
BRANCH   1   2
ATOM      2  C   UNL     1       6.313   0.656 -33.866  1.00  0.00     0.000 C 
BRANCH   2   3
ATOM      3  C   UNL     1       6.736   1.838 -32.963  1.00  0.00     0.006 C 
BRANCH   3   4
ATOM      4  C   UNL     1       7.879   1.489 -31.996  1.00  0.00     0.053 C 
BRANCH   4   5
ATOM      5  C   UNL     1       7.442   1.577 -30.566  1.00  0.00     0.041 C 
ATOM      6  O   UNL     1       6.439   2.270 -30.250  1.00  0.00    -0.550 OA
ATOM      7  O   UNL     1       8.157   0.910 -29.578  1.00  0.00    -0.550 OA
ENDBRANCH   4   5
ENDBRANCH   3   4
ENDBRANCH   2   3
ENDBRANCH   1   2
BRANCH   1   8
ATOM      8  C   UNL     1       7.752   1.923 -35.621  1.00  0.00     0.000 C 
BRANCH   8   9
ATOM      9  C   UNL     1       9.201   1.699 -36.087  1.00  0.00    -0.000 C 
BRANCH   9  10
ATOM     10  C   UNL     1      10.187   1.538 -34.916  1.00  0.00    -0.000 C 
BRANCH  10  11
ATOM     11  C   UNL     1      11.581   2.149 -35.147  1.00  0.00    -0.000 C 
BRANCH  11  12
ATOM     12  C   UNL     1      12.644   1.593 -34.189  1.00  0.00    -0.003 C 
ATOM     13  C   UNL     1      13.993   2.273 -34.410  1.00  0.00     0.004 C 
ENDBRANCH  11  12
ENDBRANCH  10  11
ENDBRANCH   9  10
ENDBRANCH   8   9
ENDBRANCH   1   8
TORSDOF 9
ENDMDL
MODEL 4
REMARK VINA RESULT:    -4.910      3.824      6.497
REMARK INTER + INTRA:          -8.016
REMARK INTER:                  -7.568
REMARK INTRA:                  -0.448
REMARK UNBOUND:                -0.523
REMARK SMILES CCCCCCCCCCC(=O)[O-]
REMARK SMILES IDX 7 1 8 2 9 3 10 4 11 5 12 6 13 7 6 8 5 9 4 10 3 11 2 12 1 13
REMARK H PARENT
REMARK Flexibility Score: inf
ROOT
ATOM      1  C   UNL     1      10.770   1.543 -33.765  1.00  0.00     0.000 C 
ENDROOT
BRANCH   1   2
ATOM      2  C   UNL     1      12.305   1.587 -33.622  1.00  0.00     0.000 C 
BRANCH   2   3
ATOM      3  C   UNL     1      12.809   2.647 -32.617  1.00  0.00     0.006 C 
BRANCH   3   4
ATOM      4  C   UNL     1      11.684   3.282 -31.783  1.00  0.00     0.053 C 
BRANCH   4   5
ATOM      5  C   UNL     1      11.674   2.762 -30.378  1.00  0.00     0.041 C 
ATOM      6  O   UNL     1      12.374   3.317 -29.491  1.00  0.00    -0.550 OA
ATOM      7  O   UNL     1      10.907   1.650 -30.054  1.00  0.00    -0.550 OA
ENDBRANCH   4   5
ENDBRANCH   3   4
ENDBRANCH   2   3
ENDBRANCH   1   2
BRANCH   1   8
ATOM      8  C   UNL     1      10.248   1.624 -35.210  1.00  0.00     0.000 C 
BRANCH   8   9
ATOM      9  C   UNL     1       8.712   1.604 -35.292  1.00  0.00    -0.000 C 
BRANCH   9  10
ATOM     10  C   UNL     1       8.174   2.278 -36.567  1.00  0.00    -0.000 C 
BRANCH  10  11
ATOM     11  C   UNL     1       7.696   1.311 -37.666  1.00  0.00    -0.000 C 
BRANCH  11  12
ATOM     12  C   UNL     1       8.838   0.478 -38.267  1.00  0.00    -0.003 C 
ATOM     13  C   UNL     1       8.630  -1.011 -38.004  1.00  0.00     0.004 C 
ENDBRANCH  11  12
ENDBRANCH  10  11
ENDBRANCH   9  10
ENDBRANCH   8   9
ENDBRANCH   1   8
TORSDOF 9
ENDMDL
MODEL 5
REMARK VINA RESULT:    -4.851      2.383      5.204
REMARK INTER + INTRA:          -7.926
REMARK INTER:                  -7.448
REMARK INTRA:                  -0.477
REMARK UNBOUND:                -0.523
REMARK SMILES CCCCCCCCCCC(=O)[O-]
REMARK SMILES IDX 7 1 8 2 9 3 10 4 11 5 12 6 13 7 6 8 5 9 4 10 3 11 2 12 1 13
REMARK H PARENT
REMARK Flexibility Score: inf
ROOT
ATOM      1  C   UNL     1       8.253   1.430 -33.081  1.00  0.00     0.000 C 
ENDROOT
BRANCH   1   2
ATOM      2  C   UNL     1       9.686   1.391 -33.649  1.00  0.00     0.000 C 
BRANCH   2   3
ATOM      3  C   UNL     1      10.788   1.551 -32.578  1.00  0.00     0.006 C 
BRANCH   3   4
ATOM      4  C   UNL     1      11.914   2.509 -32.998  1.00  0.00     0.053 C 
BRANCH   4   5
ATOM      5  C   UNL     1      12.598   2.048 -34.249  1.00  0.00     0.041 C 
ATOM      6  O   UNL     1      13.410   1.087 -34.211  1.00  0.00    -0.550 OA
ATOM      7  O   UNL     1      12.353   2.695 -35.454  1.00  0.00    -0.550 OA
ENDBRANCH   4   5
ENDBRANCH   3   4
ENDBRANCH   2   3
ENDBRANCH   1   2
BRANCH   1   8
ATOM      8  C   UNL     1       7.145   1.664 -34.123  1.00  0.00     0.000 C 
BRANCH   8   9
ATOM      9  C   UNL     1       7.149   0.613 -35.246  1.00  0.00    -0.000 C 
BRANCH   9  10
ATOM     10  C   UNL     1       7.352   1.230 -36.641  1.00  0.00    -0.000 C 
BRANCH  10  11
ATOM     11  C   UNL     1       8.814   1.301 -37.118  1.00  0.00    -0.000 C 
BRANCH  11  12
ATOM     12  C   UNL     1       9.096   0.394 -38.324  1.00  0.00    -0.003 C 
ATOM     13  C   UNL     1       8.550  -1.012 -38.095  1.00  0.00     0.004 C 
ENDBRANCH  11  12
ENDBRANCH  10  11
ENDBRANCH   9  10
ENDBRANCH   8   9
ENDBRANCH   1   8
TORSDOF 9
ENDMDL
MODEL 6
REMARK VINA RESULT:    -4.832      3.124      4.299
REMARK INTER + INTRA:          -7.897
REMARK INTER:                  -7.115
REMARK INTRA:                  -0.782
REMARK UNBOUND:                -0.523
REMARK SMILES CCCCCCCCCCC(=O)[O-]
REMARK SMILES IDX 7 1 8 2 9 3 10 4 11 5 12 6 13 7 6 8 5 9 4 10 3 11 2 12 1 13
REMARK H PARENT
REMARK Flexibility Score: inf
ROOT
ATOM      1  C   UNL     1       6.096   0.426 -33.010  1.00  0.00     0.000 C 
ENDROOT
BRANCH   1   2
ATOM      2  C   UNL     1       5.188  -0.478 -33.867  1.00  0.00     0.000 C 
BRANCH   2   3
ATOM      3  C   UNL     1       5.900  -1.101 -35.089  1.00  0.00     0.006 C 
BRANCH   3   4
ATOM      4  C   UNL     1       5.546  -2.581 -35.314  1.00  0.00     0.053 C 
BRANCH   4   5
ATOM      5  C   UNL     1       6.646  -3.314 -36.019  1.00  0.00     0.041 C 
ATOM      6  O   UNL     1       6.793  -4.553 -35.850  1.00  0.00    -0.550 OA
ATOM      7  O   UNL     1       7.524  -2.624 -36.846  1.00  0.00    -0.550 OA
ENDBRANCH   4   5
ENDBRANCH   3   4
ENDBRANCH   2   3
ENDBRANCH   1   2
BRANCH   1   8
ATOM      8  C   UNL     1       6.751   1.595 -33.765  1.00  0.00     0.000 C 
BRANCH   8   9
ATOM      9  C   UNL     1       8.285   1.489 -33.817  1.00  0.00    -0.000 C 
BRANCH   9  10
ATOM     10  C   UNL     1       8.820   1.266 -35.243  1.00  0.00    -0.000 C 
BRANCH  10  11
ATOM     11  C   UNL     1       8.188   2.161 -36.325  1.00  0.00    -0.000 C 
BRANCH  11  12
ATOM     12  C   UNL     1       7.739   1.374 -37.565  1.00  0.00    -0.003 C 
ATOM     13  C   UNL     1       8.863   0.484 -38.089  1.00  0.00     0.004 C 
ENDBRANCH  11  12
ENDBRANCH  10  11
ENDBRANCH   9  10
ENDBRANCH   8   9
ENDBRANCH   1   8
TORSDOF 9
ENDMDL
MODEL 7
REMARK VINA RESULT:    -4.808      1.541      2.625
REMARK INTER + INTRA:          -7.861
REMARK INTER:                  -7.396
REMARK INTRA:                  -0.465
REMARK UNBOUND:                -0.523
REMARK SMILES CCCCCCCCCCC(=O)[O-]
REMARK SMILES IDX 7 1 8 2 9 3 10 4 11 5 12 6 13 7 6 8 5 9 4 10 3 11 2 12 1 13
REMARK H PARENT
REMARK Flexibility Score: inf
ROOT
ATOM      1  C   UNL     1      10.896   2.064 -35.672  1.00  0.00     0.000 C 
ENDROOT
BRANCH   1   2
ATOM      2  C   UNL     1       9.435   1.590 -35.543  1.00  0.00     0.000 C 
BRANCH   2   3
ATOM      3  C   UNL     1       8.472   2.249 -36.555  1.00  0.00     0.006 C 
BRANCH   3   4
ATOM      4  C   UNL     1       7.583   1.239 -37.300  1.00  0.00     0.053 C 
BRANCH   4   5
ATOM      5  C   UNL     1       8.383   0.103 -37.860  1.00  0.00     0.041 C 
ATOM      6  O   UNL     1       9.250   0.315 -38.748  1.00  0.00    -0.550 OA
ATOM      7  O   UNL     1       8.155  -1.194 -37.417  1.00  0.00    -0.550 OA
ENDBRANCH   4   5
ENDBRANCH   3   4
ENDBRANCH   2   3
ENDBRANCH   1   2
BRANCH   1   8
ATOM      8  C   UNL     1      11.687   2.105 -34.354  1.00  0.00     0.000 C 
BRANCH   8   9
ATOM      9  C   UNL     1      11.126   1.146 -33.290  1.00  0.00    -0.000 C 
BRANCH   9  10
ATOM     10  C   UNL     1      10.352   1.876 -32.177  1.00  0.00    -0.000 C 
BRANCH  10  11
ATOM     11  C   UNL     1      11.184   2.241 -30.934  1.00  0.00    -0.000 C 
BRANCH  11  12
ATOM     12  C   UNL     1      11.940   3.568 -31.087  1.00  0.00    -0.003 C 
ATOM     13  C   UNL     1      13.439   3.376 -30.878  1.00  0.00     0.004 C 
ENDBRANCH  11  12
ENDBRANCH  10  11
ENDBRANCH   9  10
ENDBRANCH   8   9
ENDBRANCH   1   8
TORSDOF 9
ENDMDL
MODEL 8
REMARK VINA RESULT:    -4.679      4.036      5.644
REMARK INTER + INTRA:          -7.664
REMARK INTER:                  -7.124
REMARK INTRA:                  -0.540
REMARK UNBOUND:                -0.523
REMARK SMILES CCCCCCCCCCC(=O)[O-]
REMARK SMILES IDX 7 1 8 2 9 3 10 4 11 5 12 6 13 7 6 8 5 9 4 10 3 11 2 12 1 13
REMARK H PARENT
REMARK Flexibility Score: inf
ROOT
ATOM      1  C   UNL     1      10.898   1.884 -31.931  1.00  0.00     0.000 C 
ENDROOT
BRANCH   1   2
ATOM      2  C   UNL     1       9.595   1.962 -31.110  1.00  0.00     0.000 C 
BRANCH   2   3
ATOM      3  C   UNL     1       8.327   1.595 -31.913  1.00  0.00     0.006 C 
BRANCH   3   4
ATOM      4  C   UNL     1       7.019   1.906 -31.167  1.00  0.00     0.053 C 
BRANCH   4   5
ATOM      5  C   UNL     1       6.788   0.955 -30.032  1.00  0.00     0.041 C 
ATOM      6  O   UNL     1       6.098  -0.084 -30.205  1.00  0.00    -0.550 OA
ATOM      7  O   UNL     1       7.316   1.229 -28.777  1.00  0.00    -0.550 OA
ENDBRANCH   4   5
ENDBRANCH   3   4
ENDBRANCH   2   3
ENDBRANCH   1   2
BRANCH   1   8
ATOM      8  C   UNL     1      10.771   1.170 -33.288  1.00  0.00     0.000 C 
BRANCH   8   9
ATOM      9  C   UNL     1      11.555   1.874 -34.409  1.00  0.00    -0.000 C 
BRANCH   9  10
ATOM     10  C   UNL     1      10.714   2.091 -35.680  1.00  0.00    -0.000 C 
BRANCH  10  11
ATOM     11  C   UNL     1       9.303   1.477 -35.644  1.00  0.00    -0.000 C 
BRANCH  11  12
ATOM     12  C   UNL     1       8.301   2.224 -36.535  1.00  0.00    -0.003 C 
ATOM     13  C   UNL     1       7.746   1.311 -37.625  1.00  0.00     0.004 C 
ENDBRANCH  11  12
ENDBRANCH  10  11
ENDBRANCH   9  10
ENDBRANCH   8   9
ENDBRANCH   1   8
TORSDOF 9
ENDMDL
MODEL 9
REMARK VINA RESULT:    -4.674      1.192      1.937
REMARK INTER + INTRA:          -7.656
REMARK INTER:                  -7.093
REMARK INTRA:                  -0.564
REMARK UNBOUND:                -0.523
REMARK SMILES CCCCCCCCCCC(=O)[O-]
REMARK SMILES IDX 7 1 8 2 9 3 10 4 11 5 12 6 13 7 6 8 5 9 4 10 3 11 2 12 1 13
REMARK H PARENT
REMARK Flexibility Score: inf
ROOT
ATOM      1  C   UNL     1       9.772   1.793 -32.311  1.00  0.00     0.000 C 
ENDROOT
BRANCH   1   2
ATOM      2  C   UNL     1      10.113   1.243 -33.711  1.00  0.00     0.000 C 
BRANCH   2   3
ATOM      3  C   UNL     1       8.981   1.423 -34.747  1.00  0.00     0.006 C 
BRANCH   3   4
ATOM      4  C   UNL     1       9.492   1.615 -36.184  1.00  0.00     0.053 C 
BRANCH   4   5
ATOM      5  C   UNL     1       8.915   0.597 -37.119  1.00  0.00     0.041 C 
ATOM      6  O   UNL     1       9.257   0.583 -38.331  1.00  0.00    -0.550 OA
ATOM      7  O   UNL     1       7.981  -0.322 -36.657  1.00  0.00    -0.550 OA
ENDBRANCH   4   5
ENDBRANCH   3   4
ENDBRANCH   2   3
ENDBRANCH   1   2
BRANCH   1   8
ATOM      8  C   UNL     1      10.914   1.714 -31.284  1.00  0.00     0.000 C 
BRANCH   8   9
ATOM      9  C   UNL     1      11.857   2.928 -31.345  1.00  0.00    -0.000 C 
BRANCH   9  10
ATOM     10  C   UNL     1      12.476   3.134 -32.739  1.00  0.00    -0.000 C 
BRANCH  10  11
ATOM     11  C   UNL     1      13.720   2.277 -33.035  1.00  0.00    -0.000 C 
BRANCH  11  12
ATOM     12  C   UNL     1      13.778   1.788 -34.490  1.00  0.00    -0.003 C 
ATOM     13  C   UNL     1      13.071   2.763 -35.427  1.00  0.00     0.004 C 
ENDBRANCH  11  12
ENDBRANCH  10  11
ENDBRANCH   9  10
ENDBRANCH   8   9
ENDBRANCH   1   8
TORSDOF 9
ENDMDL
