MODEL 1
REMARK VINA RESULT:    -6.390      0.000      0.000
REMARK INTER + INTRA:          -7.819
REMARK INTER:                  -7.510
REMARK INTRA:                  -0.308
REMARK UNBOUND:                -0.308
REMARK SMILES Oc1ccc(-c2[o+]c3cc(O)cc(O)c3cc2O)cc1.[Cl-]
REMARK SMILES IDX 6 1 7 2 8 3 9 4 10 5 12 6 13 7 15 8 16 9 17 10 5 11 4 12
REMARK SMILES IDX 3 13 2 14 19 15 20 16 1 17 18 19 11 21 14 23
REMARK H PARENT 1 18 18 20 11 22 14 24
REMARK Flexibility Score: inf
ROOT
ATOM      1  C   UNL     1      21.068  13.193  20.950  1.00  0.00     0.401 A 
ATOM      2  O   UNL     1      20.958  12.980  19.640  1.00  0.00    -0.202 OA
ATOM      3  C   UNL     1      21.993  12.673  18.864  1.00  0.00     0.368 A 
ATOM      4  C   UNL     1      21.795  12.469  17.495  1.00  0.00     0.162 A 
ATOM      5  C   UNL     1      22.874  12.149  16.666  1.00  0.00     0.128 A 
ATOM      6  C   UNL     1      24.162  12.032  17.209  1.00  0.00     0.093 A 
ATOM      7  C   UNL     1      24.375  12.233  18.580  1.00  0.00     0.136 A 
ATOM      8  C   UNL     1      23.287  12.555  19.413  1.00  0.00     0.125 A 
ATOM      9  C   UNL     1      23.440  12.759  20.789  1.00  0.00     0.078 A 
ATOM     10  C   UNL     1      22.326  13.070  21.574  1.00  0.00     0.223 A 
ENDROOT
BRANCH   1  11
ATOM     11  C   UNL     1      19.843  13.537  21.708  1.00  0.00     0.084 A 
ATOM     12  C   UNL     1      19.545  14.868  22.055  1.00  0.00     0.022 A 
ATOM     13  C   UNL     1      18.371  15.170  22.751  1.00  0.00     0.047 A 
ATOM     14  C   UNL     1      17.474  14.151  23.096  1.00  0.00     0.115 A 
ATOM     15  C   UNL     1      18.928  12.525  22.040  1.00  0.00     0.022 A 
ATOM     16  C   UNL     1      17.755  12.830  22.737  1.00  0.00     0.047 A 
BRANCH  14  17
ATOM     17  O   UNL     1      16.302  14.441  23.791  1.00  0.00    -0.508 OA
ATOM     18  H   UNL     1      15.428  14.613  23.306  1.00  0.00     0.293 HD
ENDBRANCH  14  17
ENDBRANCH   1  11
BRANCH  10  19
ATOM     19  O   UNL     1      22.463  13.223  22.954  1.00  0.00    -0.500 OA
ATOM     20  H   UNL     1      21.884  12.707  23.605  1.00  0.00     0.294 HD
ENDBRANCH  10  19
BRANCH   5  21
ATOM     21  O   UNL     1      22.658  11.950  15.304  1.00  0.00    -0.507 OA
ATOM     22  H   UNL     1      22.426  11.037  14.933  1.00  0.00     0.293 HD
ENDBRANCH   5  21
BRANCH   7  23
ATOM     23  O   UNL     1      25.661  12.112  19.110  1.00  0.00    -0.507 OA
ATOM     24  H   UNL     1      25.962  12.668  19.902  1.00  0.00     0.293 HD
ENDBRANCH   7  23
TORSDOF 5
ENDMDL
MODEL 2
REMARK VINA RESULT:    -6.142      1.614      7.216
REMARK INTER + INTRA:          -7.528
REMARK INTER:                  -7.240
REMARK INTRA:                  -0.288
REMARK UNBOUND:                -0.308
REMARK SMILES Oc1ccc(-c2[o+]c3cc(O)cc(O)c3cc2O)cc1.[Cl-]
REMARK SMILES IDX 6 1 7 2 8 3 9 4 10 5 12 6 13 7 15 8 16 9 17 10 5 11 4 12
REMARK SMILES IDX 3 13 2 14 19 15 20 16 1 17 18 19 11 21 14 23
REMARK H PARENT 1 18 18 20 11 22 14 24
REMARK Flexibility Score: inf
ROOT
ATOM      1  C   UNL     1      20.338  13.133  20.881  1.00  0.00     0.401 A 
ATOM      2  O   UNL     1      20.439  13.779  22.042  1.00  0.00    -0.202 OA
ATOM      3  C   UNL     1      19.406  13.985  22.853  1.00  0.00     0.368 A 
ATOM      4  C   UNL     1      19.596  14.677  24.053  1.00  0.00     0.162 A 
ATOM      5  C   UNL     1      18.518  14.905  24.913  1.00  0.00     0.128 A 
ATOM      6  C   UNL     1      17.240  14.437  24.573  1.00  0.00     0.093 A 
ATOM      7  C   UNL     1      17.036  13.741  23.373  1.00  0.00     0.136 A 
ATOM      8  C   UNL     1      18.122  13.513  22.507  1.00  0.00     0.125 A 
ATOM      9  C   UNL     1      17.978  12.818  21.301  1.00  0.00     0.078 A 
ATOM     10  C   UNL     1      19.090  12.612  20.481  1.00  0.00     0.223 A 
ENDROOT
BRANCH   1  11
ATOM     11  C   UNL     1      21.559  12.973  20.061  1.00  0.00     0.084 A 
ATOM     12  C   UNL     1      21.780  13.759  18.914  1.00  0.00     0.022 A 
ATOM     13  C   UNL     1      22.953  13.605  18.168  1.00  0.00     0.047 A 
ATOM     14  C   UNL     1      23.923  12.676  18.564  1.00  0.00     0.115 A 
ATOM     15  C   UNL     1      22.547  12.058  20.462  1.00  0.00     0.022 A 
ATOM     16  C   UNL     1      23.718  11.906  19.713  1.00  0.00     0.047 A 
BRANCH  14  17
ATOM     17  O   UNL     1      25.094  12.513  17.828  1.00  0.00    -0.508 OA
ATOM     18  H   UNL     1      25.995  12.411  18.281  1.00  0.00     0.293 HD
ENDBRANCH  14  17
ENDBRANCH   1  11
BRANCH  10  19
ATOM     19  O   UNL     1      18.964  11.875  19.302  1.00  0.00    -0.500 OA
ATOM     20  H   UNL     1      19.353  10.944  19.214  1.00  0.00     0.294 HD
ENDBRANCH  10  19
BRANCH   5  21
ATOM     21  O   UNL     1      18.725  15.597  26.105  1.00  0.00    -0.507 OA
ATOM     22  H   UNL     1      17.950  15.953  26.652  1.00  0.00     0.293 HD
ENDBRANCH   5  21
BRANCH   7  23
ATOM     23  O   UNL     1      15.760  13.279  23.044  1.00  0.00    -0.507 OA
ATOM     24  H   UNL     1      15.608  12.652  22.262  1.00  0.00     0.293 HD
ENDBRANCH   7  23
TORSDOF 5
ENDMDL
MODEL 3
REMARK VINA RESULT:    -6.112      1.758      7.041
REMARK INTER + INTRA:          -7.492
REMARK INTER:                  -7.201
REMARK INTRA:                  -0.291
REMARK UNBOUND:                -0.308
REMARK SMILES Oc1ccc(-c2[o+]c3cc(O)cc(O)c3cc2O)cc1.[Cl-]
REMARK SMILES IDX 6 1 7 2 8 3 9 4 10 5 12 6 13 7 15 8 16 9 17 10 5 11 4 12
REMARK SMILES IDX 3 13 2 14 19 15 20 16 1 17 18 19 11 21 14 23
REMARK H PARENT 1 18 18 20 11 22 14 24
REMARK Flexibility Score: inf
ROOT
ATOM      1  C   UNL     1      20.930  13.492  20.378  1.00  0.00     0.401 A 
ATOM      2  O   UNL     1      20.864  12.797  21.513  1.00  0.00    -0.202 OA
ATOM      3  C   UNL     1      20.051  13.116  22.515  1.00  0.00     0.368 A 
ATOM      4  C   UNL     1      20.045  12.337  23.676  1.00  0.00     0.162 A 
ATOM      5  C   UNL     1      19.198  12.663  24.739  1.00  0.00     0.128 A 
ATOM      6  C   UNL     1      18.349  13.775  24.642  1.00  0.00     0.093 A 
ATOM      7  C   UNL     1      18.344  14.565  23.483  1.00  0.00     0.136 A 
ATOM      8  C   UNL     1      19.198  14.236  22.414  1.00  0.00     0.125 A 
ATOM      9  C   UNL     1      19.230  14.983  21.231  1.00  0.00     0.078 A 
ATOM     10  C   UNL     1      20.091  14.610  20.195  1.00  0.00     0.223 A 
ENDROOT
BRANCH   1  11
ATOM     11  C   UNL     1      21.883  13.043  19.338  1.00  0.00     0.084 A 
ATOM     12  C   UNL     1      21.458  12.280  18.234  1.00  0.00     0.022 A 
ATOM     13  C   UNL     1      22.373  11.888  17.253  1.00  0.00     0.047 A 
ATOM     14  C   UNL     1      23.719  12.262  17.353  1.00  0.00     0.115 A 
ATOM     15  C   UNL     1      23.230  13.431  19.420  1.00  0.00     0.022 A 
ATOM     16  C   UNL     1      24.143  13.036  18.437  1.00  0.00     0.047 A 
BRANCH  14  17
ATOM     17  O   UNL     1      24.639  11.876  16.382  1.00  0.00    -0.508 OA
ATOM     18  H   UNL     1      25.574  12.267  16.352  1.00  0.00     0.293 HD
ENDBRANCH  14  17
ENDBRANCH   1  11
BRANCH  10  19
ATOM     19  O   UNL     1      20.091  15.320  18.994  1.00  0.00    -0.500 OA
ATOM     20  H   UNL     1      20.836  15.964  18.758  1.00  0.00     0.294 HD
ENDBRANCH  10  19
BRANCH   5  21
ATOM     21  O   UNL     1      19.205  11.875  25.889  1.00  0.00    -0.507 OA
ATOM     22  H   UNL     1      19.624  10.953  25.896  1.00  0.00     0.293 HD
ENDBRANCH   5  21
BRANCH   7  23
ATOM     23  O   UNL     1      17.495  15.669  23.396  1.00  0.00    -0.507 OA
ATOM     24  H   UNL     1      17.760  16.573  23.769  1.00  0.00     0.293 HD
ENDBRANCH   7  23
TORSDOF 5
ENDMDL
MODEL 4
REMARK VINA RESULT:    -5.872      1.726      6.987
REMARK INTER + INTRA:          -7.210
REMARK INTER:                  -7.275
REMARK INTRA:                   0.064
REMARK UNBOUND:                -0.308
REMARK SMILES Oc1ccc(-c2[o+]c3cc(O)cc(O)c3cc2O)cc1.[Cl-]
REMARK SMILES IDX 6 1 7 2 8 3 9 4 10 5 12 6 13 7 15 8 16 9 17 10 5 11 4 12
REMARK SMILES IDX 3 13 2 14 19 15 20 16 1 17 18 19 11 21 14 23
REMARK H PARENT 1 18 18 20 11 22 14 24
REMARK Flexibility Score: inf
ROOT
ATOM      1  C   UNL     1      21.337  13.122  20.327  1.00  0.00     0.401 A 
ATOM      2  O   UNL     1      21.842  13.848  21.323  1.00  0.00    -0.202 OA
ATOM      3  C   UNL     1      21.134  14.216  22.386  1.00  0.00     0.368 A 
ATOM      4  C   UNL     1      21.738  14.982  23.388  1.00  0.00     0.162 A 
ATOM      5  C   UNL     1      21.005  15.379  24.510  1.00  0.00     0.128 A 
ATOM      6  C   UNL     1      19.659  15.008  24.633  1.00  0.00     0.093 A 
ATOM      7  C   UNL     1      19.040  14.239  23.637  1.00  0.00     0.136 A 
ATOM      8  C   UNL     1      19.779  13.840  22.508  1.00  0.00     0.125 A 
ATOM      9  C   UNL     1      19.216  13.066  21.487  1.00  0.00     0.078 A 
ATOM     10  C   UNL     1      19.996  12.690  20.389  1.00  0.00     0.223 A 
ENDROOT
BRANCH   1  11
ATOM     11  C   UNL     1      22.222  12.782  19.190  1.00  0.00     0.084 A 
ATOM     12  C   UNL     1      21.765  12.843  17.861  1.00  0.00     0.022 A 
ATOM     13  C   UNL     1      22.627  12.539  16.803  1.00  0.00     0.047 A 
ATOM     14  C   UNL     1      23.958  12.184  17.058  1.00  0.00     0.115 A 
ATOM     15  C   UNL     1      23.563  12.445  19.436  1.00  0.00     0.022 A 
ATOM     16  C   UNL     1      24.423  12.140  18.375  1.00  0.00     0.047 A 
BRANCH  14  17
ATOM     17  O   UNL     1      24.825  11.877  16.012  1.00  0.00    -0.508 OA
ATOM     18  H   UNL     1      24.541  11.276  15.247  1.00  0.00     0.293 HD
ENDBRANCH  14  17
ENDBRANCH   1  11
BRANCH  10  19
ATOM     19  O   UNL     1      19.456  11.875  19.394  1.00  0.00    -0.500 OA
ATOM     20  H   UNL     1      18.834  11.106  19.616  1.00  0.00     0.294 HD
ENDBRANCH  10  19
BRANCH   5  21
ATOM     21  O   UNL     1      21.623  16.144  25.499  1.00  0.00    -0.507 OA
ATOM     22  H   UNL     1      22.630  16.246  25.536  1.00  0.00     0.293 HD
ENDBRANCH   5  21
BRANCH   7  23
ATOM     23  O   UNL     1      17.700  13.873  23.770  1.00  0.00    -0.507 OA
ATOM     24  H   UNL     1      17.016  14.095  23.056  1.00  0.00     0.293 HD
ENDBRANCH   7  23
TORSDOF 5
ENDMDL
MODEL 5
REMARK VINA RESULT:    -5.785      1.477      2.769
REMARK INTER + INTRA:          -7.108
REMARK INTER:                  -6.791
REMARK INTRA:                  -0.316
REMARK UNBOUND:                -0.308
REMARK SMILES Oc1ccc(-c2[o+]c3cc(O)cc(O)c3cc2O)cc1.[Cl-]
REMARK SMILES IDX 6 1 7 2 8 3 9 4 10 5 12 6 13 7 15 8 16 9 17 10 5 11 4 12
REMARK SMILES IDX 3 13 2 14 19 15 20 16 1 17 18 19 11 21 14 23
REMARK H PARENT 1 18 18 20 11 22 14 24
REMARK Flexibility Score: inf
ROOT
ATOM      1  C   UNL     1      20.272  13.423  21.354  1.00  0.00     0.401 A 
ATOM      2  O   UNL     1      21.553  13.069  21.444  1.00  0.00    -0.202 OA
ATOM      3  C   UNL     1      22.325  12.854  20.382  1.00  0.00     0.368 A 
ATOM      4  C   UNL     1      23.660  12.480  20.563  1.00  0.00     0.162 A 
ATOM      5  C   UNL     1      24.482  12.248  19.456  1.00  0.00     0.128 A 
ATOM      6  C   UNL     1      23.968  12.391  18.160  1.00  0.00     0.093 A 
ATOM      7  C   UNL     1      22.631  12.767  17.964  1.00  0.00     0.136 A 
ATOM      8  C   UNL     1      21.804  13.000  19.079  1.00  0.00     0.125 A 
ATOM      9  C   UNL     1      20.465  13.384  18.944  1.00  0.00     0.078 A 
ATOM     10  C   UNL     1      19.688  13.610  20.084  1.00  0.00     0.223 A 
ENDROOT
BRANCH   1  11
ATOM     11  C   UNL     1      19.513  13.625  22.608  1.00  0.00     0.084 A 
ATOM     12  C   UNL     1      19.499  14.869  23.266  1.00  0.00     0.022 A 
ATOM     13  C   UNL     1      18.755  15.040  24.437  1.00  0.00     0.047 A 
ATOM     14  C   UNL     1      18.006  13.978  24.958  1.00  0.00     0.115 A 
ATOM     15  C   UNL     1      18.742  12.571  23.126  1.00  0.00     0.022 A 
ATOM     16  C   UNL     1      17.999  12.746  24.298  1.00  0.00     0.047 A 
BRANCH  14  17
ATOM     17  O   UNL     1      17.262  14.137  26.125  1.00  0.00    -0.508 OA
ATOM     18  H   UNL     1      17.360  14.962  26.706  1.00  0.00     0.293 HD
ENDBRANCH  14  17
ENDBRANCH   1  11
BRANCH  10  19
ATOM     19  O   UNL     1      18.368  14.043  19.957  1.00  0.00    -0.500 OA
ATOM     20  H   UNL     1      18.061  14.579  19.154  1.00  0.00     0.294 HD
ENDBRANCH  10  19
BRANCH   5  21
ATOM     21  O   UNL     1      25.811  11.875  19.654  1.00  0.00    -0.507 OA
ATOM     22  H   UNL     1      26.562  12.287  19.113  1.00  0.00     0.293 HD
ENDBRANCH   5  21
BRANCH   7  23
ATOM     23  O   UNL     1      22.129  12.908  16.670  1.00  0.00    -0.507 OA
ATOM     24  H   UNL     1      21.939  13.820  16.270  1.00  0.00     0.293 HD
ENDBRANCH   7  23
TORSDOF 5
ENDMDL
MODEL 6
REMARK VINA RESULT:    -5.607      1.526      6.626
REMARK INTER + INTRA:          -6.898
REMARK INTER:                  -7.162
REMARK INTRA:                   0.264
REMARK UNBOUND:                -0.308
REMARK SMILES Oc1ccc(-c2[o+]c3cc(O)cc(O)c3cc2O)cc1.[Cl-]
REMARK SMILES IDX 6 1 7 2 8 3 9 4 10 5 12 6 13 7 15 8 16 9 17 10 5 11 4 12
REMARK SMILES IDX 3 13 2 14 19 15 20 16 1 17 18 19 11 21 14 23
REMARK H PARENT 1 18 18 20 11 22 14 24
REMARK Flexibility Score: inf
ROOT
ATOM      1  C   UNL     1      21.347  12.387  20.829  1.00  0.00     0.401 A 
ATOM      2  O   UNL     1      20.046  12.674  20.798  1.00  0.00    -0.202 OA
ATOM      3  C   UNL     1      19.286  12.723  21.888  1.00  0.00     0.368 A 
ATOM      4  C   UNL     1      17.927  13.028  21.770  1.00  0.00     0.162 A 
ATOM      5  C   UNL     1      17.115  13.079  22.907  1.00  0.00     0.128 A 
ATOM      6  C   UNL     1      17.664  12.824  24.171  1.00  0.00     0.093 A 
ATOM      7  C   UNL     1      19.026  12.518  24.305  1.00  0.00     0.136 A 
ATOM      8  C   UNL     1      19.842  12.466  23.159  1.00  0.00     0.125 A 
ATOM      9  C   UNL     1      21.209  12.173  23.233  1.00  0.00     0.078 A 
ATOM     10  C   UNL     1      21.977  12.142  22.066  1.00  0.00     0.223 A 
ENDROOT
BRANCH   1  11
ATOM     11  C   UNL     1      22.086  12.354  19.547  1.00  0.00     0.084 A 
ATOM     12  C   UNL     1      23.453  12.680  19.480  1.00  0.00     0.022 A 
ATOM     13  C   UNL     1      24.135  12.620  18.261  1.00  0.00     0.047 A 
ATOM     14  C   UNL     1      23.465  12.220  17.098  1.00  0.00     0.115 A 
ATOM     15  C   UNL     1      21.427  11.934  18.380  1.00  0.00     0.022 A 
ATOM     16  C   UNL     1      22.112  11.875  17.162  1.00  0.00     0.047 A 
BRANCH  14  17
ATOM     17  O   UNL     1      24.134  12.157  15.878  1.00  0.00    -0.508 OA
ATOM     18  H   UNL     1      25.141  12.050  15.832  1.00  0.00     0.293 HD
ENDBRANCH  14  17
ENDBRANCH   1  11
BRANCH  10  19
ATOM     19  O   UNL     1      23.350  11.902  22.138  1.00  0.00    -0.500 OA
ATOM     20  H   UNL     1      23.735  11.209  22.770  1.00  0.00     0.294 HD
ENDBRANCH  10  19
BRANCH   5  21
ATOM     21  O   UNL     1      15.761  13.384  22.771  1.00  0.00    -0.507 OA
ATOM     22  H   UNL     1      15.435  14.342  22.744  1.00  0.00     0.293 HD
ENDBRANCH   5  21
BRANCH   7  23
ATOM     23  O   UNL     1      19.564  12.267  25.568  1.00  0.00    -0.507 OA
ATOM     24  H   UNL     1      19.585  11.333  25.960  1.00  0.00     0.293 HD
ENDBRANCH   7  23
TORSDOF 5
ENDMDL
MODEL 7
REMARK VINA RESULT:    -5.226      3.462      6.534
REMARK INTER + INTRA:          -6.451
REMARK INTER:                  -6.129
REMARK INTRA:                  -0.322
REMARK UNBOUND:                -0.308
REMARK SMILES Oc1ccc(-c2[o+]c3cc(O)cc(O)c3cc2O)cc1.[Cl-]
REMARK SMILES IDX 6 1 7 2 8 3 9 4 10 5 12 6 13 7 15 8 16 9 17 10 5 11 4 12
REMARK SMILES IDX 3 13 2 14 19 15 20 16 1 17 18 19 11 21 14 23
REMARK H PARENT 1 18 18 20 11 22 14 24
REMARK Flexibility Score: inf
ROOT
ATOM      1  C   UNL     1      21.218  14.893  24.210  1.00  0.00     0.401 A 
ATOM      2  O   UNL     1      21.158  14.240  23.051  1.00  0.00    -0.202 OA
ATOM      3  C   UNL     1      20.015  13.846  22.496  1.00  0.00     0.368 A 
ATOM      4  C   UNL     1      20.039  13.161  21.277  1.00  0.00     0.162 A 
ATOM      5  C   UNL     1      18.845  12.738  20.684  1.00  0.00     0.128 A 
ATOM      6  C   UNL     1      17.620  13.002  21.313  1.00  0.00     0.093 A 
ATOM      7  C   UNL     1      17.582  13.689  22.535  1.00  0.00     0.136 A 
ATOM      8  C   UNL     1      18.784  14.114  23.131  1.00  0.00     0.125 A 
ATOM      9  C   UNL     1      18.806  14.810  24.345  1.00  0.00     0.078 A 
ATOM     10  C   UNL     1      20.026  15.216  24.891  1.00  0.00     0.223 A 
ENDROOT
BRANCH   1  11
ATOM     11  C   UNL     1      22.551  15.271  24.732  1.00  0.00     0.084 A 
ATOM     12  C   UNL     1      23.253  14.440  25.624  1.00  0.00     0.022 A 
ATOM     13  C   UNL     1      24.520  14.809  26.085  1.00  0.00     0.047 A 
ATOM     14  C   UNL     1      25.108  16.003  25.650  1.00  0.00     0.115 A 
ATOM     15  C   UNL     1      23.156  16.458  24.286  1.00  0.00     0.022 A 
ATOM     16  C   UNL     1      24.424  16.824  24.748  1.00  0.00     0.047 A 
BRANCH  14  17
ATOM     17  O   UNL     1      26.370  16.381  26.104  1.00  0.00    -0.508 OA
ATOM     18  H   UNL     1      26.530  16.636  27.072  1.00  0.00     0.293 HD
ENDBRANCH  14  17
ENDBRANCH   1  11
BRANCH  10  19
ATOM     19  O   UNL     1      20.052  15.955  26.074  1.00  0.00    -0.500 OA
ATOM     20  H   UNL     1      19.827  16.943  26.088  1.00  0.00     0.294 HD
ENDBRANCH  10  19
BRANCH   5  21
ATOM     21  O   UNL     1      18.887  12.056  19.469  1.00  0.00    -0.507 OA
ATOM     22  H   UNL     1      18.453  12.433  18.636  1.00  0.00     0.293 HD
ENDBRANCH   5  21
BRANCH   7  23
ATOM     23  O   UNL     1      16.357  13.947  23.151  1.00  0.00    -0.507 OA
ATOM     24  H   UNL     1      15.479  13.811  22.664  1.00  0.00     0.293 HD
ENDBRANCH   7  23
TORSDOF 5
ENDMDL
MODEL 8
REMARK VINA RESULT:    -5.206     10.236     12.247
REMARK INTER + INTRA:          -6.427
REMARK INTER:                  -6.776
REMARK INTRA:                   0.349
REMARK UNBOUND:                -0.308
REMARK SMILES Oc1ccc(-c2[o+]c3cc(O)cc(O)c3cc2O)cc1.[Cl-]
REMARK SMILES IDX 6 1 7 2 8 3 9 4 10 5 12 6 13 7 15 8 16 9 17 10 5 11 4 12
REMARK SMILES IDX 3 13 2 14 19 15 20 16 1 17 18 19 11 21 14 23
REMARK H PARENT 1 18 18 20 11 22 14 24
REMARK Flexibility Score: inf
ROOT
ATOM      1  C   UNL     1      14.621  22.933  18.901  1.00  0.00     0.401 A 
ATOM      2  O   UNL     1      14.945  22.937  17.609  1.00  0.00    -0.202 OA
ATOM      3  C   UNL     1      14.991  21.835  16.867  1.00  0.00     0.368 A 
ATOM      4  C   UNL     1      15.344  21.924  15.517  1.00  0.00     0.162 A 
ATOM      5  C   UNL     1      15.399  20.773  14.726  1.00  0.00     0.128 A 
ATOM      6  C   UNL     1      15.099  19.524  15.286  1.00  0.00     0.093 A 
ATOM      7  C   UNL     1      14.742  19.420  16.639  1.00  0.00     0.136 A 
ATOM      8  C   UNL     1      14.687  20.579  17.434  1.00  0.00     0.125 A 
ATOM      9  C   UNL     1      14.329  20.536  18.786  1.00  0.00     0.078 A 
ATOM     10  C   UNL     1      14.283  21.718  19.531  1.00  0.00     0.223 A 
ENDROOT
BRANCH   1  11
ATOM     11  C   UNL     1      14.614  24.225  19.625  1.00  0.00     0.084 A 
ATOM     12  C   UNL     1      13.876  24.397  20.810  1.00  0.00     0.022 A 
ATOM     13  C   UNL     1      13.903  25.620  21.487  1.00  0.00     0.047 A 
ATOM     14  C   UNL     1      14.678  26.680  20.998  1.00  0.00     0.115 A 
ATOM     15  C   UNL     1      15.404  25.286  19.153  1.00  0.00     0.022 A 
ATOM     16  C   UNL     1      15.430  26.508  19.832  1.00  0.00     0.047 A 
BRANCH  14  17
ATOM     17  O   UNL     1      14.712  27.903  21.664  1.00  0.00    -0.508 OA
ATOM     18  H   UNL     1      14.107  28.091  22.456  1.00  0.00     0.293 HD
ENDBRANCH  14  17
ENDBRANCH   1  11
BRANCH  10  19
ATOM     19  O   UNL     1      13.877  21.689  20.866  1.00  0.00    -0.500 OA
ATOM     20  H   UNL     1      14.449  21.262  21.585  1.00  0.00     0.294 HD
ENDBRANCH  10  19
BRANCH   5  21
ATOM     21  O   UNL     1      15.755  20.880  13.382  1.00  0.00    -0.507 OA
ATOM     22  H   UNL     1      16.445  20.267  12.967  1.00  0.00     0.293 HD
ENDBRANCH   5  21
BRANCH   7  23
ATOM     23  O   UNL     1      14.443  18.171  17.186  1.00  0.00    -0.507 OA
ATOM     24  H   UNL     1      14.879  17.849  18.042  1.00  0.00     0.293 HD
ENDBRANCH   7  23
TORSDOF 5
ENDMDL
MODEL 9
REMARK VINA RESULT:    -5.003      9.694     12.675
REMARK INTER + INTRA:          -6.189
REMARK INTER:                  -6.236
REMARK INTRA:                   0.047
REMARK UNBOUND:                -0.308
REMARK SMILES Oc1ccc(-c2[o+]c3cc(O)cc(O)c3cc2O)cc1.[Cl-]
REMARK SMILES IDX 6 1 7 2 8 3 9 4 10 5 12 6 13 7 15 8 16 9 17 10 5 11 4 12
REMARK SMILES IDX 3 13 2 14 19 15 20 16 1 17 18 19 11 21 14 23
REMARK H PARENT 1 18 18 20 11 22 14 24
REMARK Flexibility Score: inf
ROOT
ATOM      1  C   UNL     1      14.454  20.859  17.510  1.00  0.00     0.401 A 
ATOM      2  O   UNL     1      14.726  22.141  17.275  1.00  0.00    -0.202 OA
ATOM      3  C   UNL     1      14.664  23.081  18.213  1.00  0.00     0.368 A 
ATOM      4  C   UNL     1      14.962  24.407  17.884  1.00  0.00     0.162 A 
ATOM      5  C   UNL     1      14.898  25.407  18.860  1.00  0.00     0.128 A 
ATOM      6  C   UNL     1      14.535  25.080  20.174  1.00  0.00     0.093 A 
ATOM      7  C   UNL     1      14.234  23.754  20.518  1.00  0.00     0.136 A 
ATOM      8  C   UNL     1      14.299  22.749  19.535  1.00  0.00     0.125 A 
ATOM      9  C   UNL     1      14.018  21.408  19.823  1.00  0.00     0.078 A 
ATOM     10  C   UNL     1      14.104  20.447  18.812  1.00  0.00     0.223 A 
ENDROOT
BRANCH   1  11
ATOM     11  C   UNL     1      14.548  19.906  16.381  1.00  0.00     0.084 A 
ATOM     12  C   UNL     1      13.962  20.186  15.133  1.00  0.00     0.022 A 
ATOM     13  C   UNL     1      14.085  19.280  14.075  1.00  0.00     0.047 A 
ATOM     14  C   UNL     1      14.805  18.091  14.246  1.00  0.00     0.115 A 
ATOM     15  C   UNL     1      15.286  18.721  16.537  1.00  0.00     0.022 A 
ATOM     16  C   UNL     1      15.407  17.816  15.477  1.00  0.00     0.047 A 
BRANCH  14  17
ATOM     17  O   UNL     1      14.933  17.181  13.199  1.00  0.00    -0.508 OA
ATOM     18  H   UNL     1      15.816  17.044  12.721  1.00  0.00     0.293 HD
ENDBRANCH  14  17
ENDBRANCH   1  11
BRANCH  10  19
ATOM     19  O   UNL     1      13.875  19.102  19.104  1.00  0.00    -0.500 OA
ATOM     20  H   UNL     1      14.631  18.428  19.126  1.00  0.00     0.294 HD
ENDBRANCH  10  19
BRANCH   5  21
ATOM     21  O   UNL     1      15.197  26.724  18.514  1.00  0.00    -0.507 OA
ATOM     22  H   UNL     1      16.139  27.006  18.272  1.00  0.00     0.293 HD
ENDBRANCH   5  21
BRANCH   7  23
ATOM     23  O   UNL     1      13.875  23.439  21.829  1.00  0.00    -0.507 OA
ATOM     24  H   UNL     1      14.433  22.811  22.396  1.00  0.00     0.293 HD
ENDBRANCH   7  23
TORSDOF 5
ENDMDL
