MODEL 1
REMARK VINA RESULT:    -3.133      0.000      0.000
REMARK INTER + INTRA:          -3.452
REMARK INTER:                  -3.408
REMARK INTRA:                  -0.044
REMARK UNBOUND:                -0.044
REMARK SMILES COc1ccccc1O
REMARK SMILES IDX 3 1 4 2 5 3 6 4 7 5 8 6 2 7 1 8 9 9
REMARK H PARENT 9 10
REMARK Flexibility Score: inf
ROOT
ATOM      1  C   UNL     1      -8.551   9.063  -7.881  1.00  0.00     0.160 A 
ATOM      2  C   UNL     1      -9.846   9.062  -7.325  1.00  0.00     0.050 A 
ATOM      3  C   UNL     1     -10.124   8.305  -6.183  1.00  0.00     0.004 A 
ATOM      4  C   UNL     1      -9.119   7.544  -5.585  1.00  0.00     0.004 A 
ATOM      5  C   UNL     1      -7.832   7.538  -6.126  1.00  0.00     0.050 A 
ATOM      6  C   UNL     1      -7.542   8.291  -7.271  1.00  0.00     0.157 A 
ENDROOT
BRANCH   1   7
ATOM      7  O   UNL     1      -8.234   9.809  -9.027  1.00  0.00    -0.493 OA
ATOM      8  C   UNL     1      -8.437   9.361 -10.363  1.00  0.00     0.278 C 
ENDBRANCH   1   7
BRANCH   6   9
ATOM      9  O   UNL     1      -6.247   8.262  -7.785  1.00  0.00    -0.504 OA
ATOM     10  H   UNL     1      -5.605   9.040  -7.679  1.00  0.00     0.293 HD
ENDBRANCH   6   9
TORSDOF 2
ENDMDL
MODEL 2
REMARK VINA RESULT:    -3.119      1.449      3.195
REMARK INTER + INTRA:          -3.436
REMARK INTER:                  -3.411
REMARK INTRA:                  -0.025
REMARK UNBOUND:                -0.044
REMARK SMILES COc1ccccc1O
REMARK SMILES IDX 3 1 4 2 5 3 6 4 7 5 8 6 2 7 1 8 9 9
REMARK H PARENT 9 10
REMARK Flexibility Score: inf
ROOT
ATOM      1  C   UNL     1      -8.302   7.869  -7.003  1.00  0.00     0.160 A 
ATOM      2  C   UNL     1      -9.679   7.879  -7.301  1.00  0.00     0.050 A 
ATOM      3  C   UNL     1     -10.125   8.258  -8.571  1.00  0.00     0.004 A 
ATOM      4  C   UNL     1      -9.207   8.629  -9.554  1.00  0.00     0.004 A 
ATOM      5  C   UNL     1      -7.839   8.623  -9.270  1.00  0.00     0.050 A 
ATOM      6  C   UNL     1      -7.382   8.246  -8.002  1.00  0.00     0.157 A 
ENDROOT
BRANCH   1   7
ATOM      7  O   UNL     1      -7.817   7.495  -5.740  1.00  0.00    -0.493 OA
ATOM      8  C   UNL     1      -8.623   7.364  -4.573  1.00  0.00     0.278 C 
ENDBRANCH   1   7
BRANCH   6   9
ATOM      9  O   UNL     1      -6.010   8.251  -7.753  1.00  0.00    -0.504 OA
ATOM     10  H   UNL     1      -5.443   7.415  -7.836  1.00  0.00     0.293 HD
ENDBRANCH   6   9
TORSDOF 2
ENDMDL
MODEL 3
REMARK VINA RESULT:    -2.967      1.572      2.472
REMARK INTER + INTRA:          -3.271
REMARK INTER:                  -3.227
REMARK INTRA:                  -0.044
REMARK UNBOUND:                -0.044
REMARK SMILES COc1ccccc1O
REMARK SMILES IDX 3 1 4 2 5 3 6 4 7 5 8 6 2 7 1 8 9 9
REMARK H PARENT 9 10
REMARK Flexibility Score: inf
ROOT
ATOM      1  C   UNL     1      -7.537   8.414  -8.693  1.00  0.00     0.160 A 
ATOM      2  C   UNL     1      -7.160   8.202  -7.352  1.00  0.00     0.050 A 
ATOM      3  C   UNL     1      -8.117   7.846  -6.397  1.00  0.00     0.004 A 
ATOM      4  C   UNL     1      -9.455   7.699  -6.767  1.00  0.00     0.004 A 
ATOM      5  C   UNL     1      -9.840   7.907  -8.093  1.00  0.00     0.050 A 
ATOM      6  C   UNL     1      -8.890   8.264  -9.057  1.00  0.00     0.157 A 
ENDROOT
BRANCH   1   7
ATOM      7  O   UNL     1      -6.605   8.773  -9.680  1.00  0.00    -0.493 OA
ATOM      8  C   UNL     1      -6.183  10.107  -9.945  1.00  0.00     0.278 C 
ENDBRANCH   1   7
BRANCH   6   9
ATOM      9  O   UNL     1      -9.309   8.464 -10.372  1.00  0.00    -0.504 OA
ATOM     10  H   UNL     1     -10.168   8.065 -10.732  1.00  0.00     0.293 HD
ENDBRANCH   6   9
TORSDOF 2
ENDMDL
MODEL 4
REMARK VINA RESULT:    -2.928     14.814     15.455
REMARK INTER + INTRA:          -3.229
REMARK INTER:                  -3.197
REMARK INTRA:                  -0.032
REMARK UNBOUND:                -0.044
REMARK SMILES COc1ccccc1O
REMARK SMILES IDX 3 1 4 2 5 3 6 4 7 5 8 6 2 7 1 8 9 9
REMARK H PARENT 9 10
REMARK Flexibility Score: inf
ROOT
ATOM      1  C   UNL     1      -7.887  -5.765 -12.940  1.00  0.00     0.160 A 
ATOM      2  C   UNL     1      -6.903  -6.540 -13.586  1.00  0.00     0.050 A 
ATOM      3  C   UNL     1      -5.766  -5.931 -14.125  1.00  0.00     0.004 A 
ATOM      4  C   UNL     1      -5.598  -4.549 -14.027  1.00  0.00     0.004 A 
ATOM      5  C   UNL     1      -6.567  -3.772 -13.389  1.00  0.00     0.050 A 
ATOM      6  C   UNL     1      -7.710  -4.371 -12.846  1.00  0.00     0.157 A 
ENDROOT
BRANCH   1   7
ATOM      7  O   UNL     1      -9.042  -6.341 -12.388  1.00  0.00    -0.493 OA
ATOM      8  C   UNL     1      -9.049  -7.497 -11.555  1.00  0.00     0.278 C 
ENDBRANCH   1   7
BRANCH   6   9
ATOM      9  O   UNL     1      -8.657  -3.565 -12.216  1.00  0.00    -0.504 OA
ATOM     10  H   UNL     1      -9.264  -2.939 -12.733  1.00  0.00     0.293 HD
ENDBRANCH   6   9
TORSDOF 2
ENDMDL
MODEL 5
REMARK VINA RESULT:    -2.829     15.363     15.940
REMARK INTER + INTRA:          -3.121
REMARK INTER:                  -3.095
REMARK INTRA:                  -0.027
REMARK UNBOUND:                -0.044
REMARK SMILES COc1ccccc1O
REMARK SMILES IDX 3 1 4 2 5 3 6 4 7 5 8 6 2 7 1 8 9 9
REMARK H PARENT 9 10
REMARK Flexibility Score: inf
ROOT
ATOM      1  C   UNL     1      -7.430  -6.512 -13.055  1.00  0.00     0.160 A 
ATOM      2  C   UNL     1      -8.461  -5.662 -12.606  1.00  0.00     0.050 A 
ATOM      3  C   UNL     1      -8.355  -4.277 -12.768  1.00  0.00     0.004 A 
ATOM      4  C   UNL     1      -7.225  -3.727 -13.374  1.00  0.00     0.004 A 
ATOM      5  C   UNL     1      -6.198  -4.559 -13.823  1.00  0.00     0.050 A 
ATOM      6  C   UNL     1      -6.293  -5.947 -13.666  1.00  0.00     0.157 A 
ENDROOT
BRANCH   1   7
ATOM      7  O   UNL     1      -7.501  -7.906 -12.910  1.00  0.00    -0.493 OA
ATOM      8  C   UNL     1      -8.249  -8.576 -11.900  1.00  0.00     0.278 C 
ENDBRANCH   1   7
BRANCH   6   9
ATOM      9  O   UNL     1      -5.249  -6.749 -14.125  1.00  0.00    -0.504 OA
ATOM     10  H   UNL     1      -4.292  -6.621 -13.815  1.00  0.00     0.293 HD
ENDBRANCH   6   9
TORSDOF 2
ENDMDL
MODEL 6
REMARK VINA RESULT:    -2.809     14.255     14.636
REMARK INTER + INTRA:          -3.099
REMARK INTER:                  -3.074
REMARK INTRA:                  -0.026
REMARK UNBOUND:                -0.044
REMARK SMILES COc1ccccc1O
REMARK SMILES IDX 3 1 4 2 5 3 6 4 7 5 8 6 2 7 1 8 9 9
REMARK H PARENT 9 10
REMARK Flexibility Score: inf
ROOT
ATOM      1  C   UNL     1      -7.288  -3.974 -13.692  1.00  0.00     0.160 A 
ATOM      2  C   UNL     1      -8.461  -4.715 -13.447  1.00  0.00     0.050 A 
ATOM      3  C   UNL     1      -8.402  -6.105 -13.303  1.00  0.00     0.004 A 
ATOM      4  C   UNL     1      -7.178  -6.768 -13.401  1.00  0.00     0.004 A 
ATOM      5  C   UNL     1      -6.009  -6.044 -13.643  1.00  0.00     0.050 A 
ATOM      6  C   UNL     1      -6.057  -4.652 -13.790  1.00  0.00     0.157 A 
ENDROOT
BRANCH   1   7
ATOM      7  O   UNL     1      -7.308  -2.579 -13.843  1.00  0.00    -0.493 OA
ATOM      8  C   UNL     1      -8.488  -1.804 -14.031  1.00  0.00     0.278 C 
ENDBRANCH   1   7
BRANCH   6   9
ATOM      9  O   UNL     1      -4.870  -3.960 -14.031  1.00  0.00    -0.504 OA
ATOM     10  H   UNL     1      -4.850  -2.958 -14.179  1.00  0.00     0.293 HD
ENDBRANCH   6   9
TORSDOF 2
ENDMDL
MODEL 7
REMARK VINA RESULT:    -2.776      1.837      3.724
REMARK INTER + INTRA:          -3.064
REMARK INTER:                  -3.103
REMARK INTRA:                   0.040
REMARK UNBOUND:                -0.044
REMARK SMILES COc1ccccc1O
REMARK SMILES IDX 3 1 4 2 5 3 6 4 7 5 8 6 2 7 1 8 9 9
REMARK H PARENT 9 10
REMARK Flexibility Score: inf
ROOT
ATOM      1  C   UNL     1      -7.855   8.200  -7.468  1.00  0.00     0.160 A 
ATOM      2  C   UNL     1      -7.162   9.389  -7.770  1.00  0.00     0.050 A 
ATOM      3  C   UNL     1      -7.483  10.123  -8.915  1.00  0.00     0.004 A 
ATOM      4  C   UNL     1      -8.495   9.682  -9.769  1.00  0.00     0.004 A 
ATOM      5  C   UNL     1      -9.189   8.505  -9.480  1.00  0.00     0.050 A 
ATOM      6  C   UNL     1      -8.874   7.761  -8.336  1.00  0.00     0.157 A 
ENDROOT
BRANCH   1   7
ATOM      7  O   UNL     1      -7.560   7.436  -6.328  1.00  0.00    -0.493 OA
ATOM      8  C   UNL     1      -8.343   7.427  -5.138  1.00  0.00     0.278 C 
ENDBRANCH   1   7
BRANCH   6   9
ATOM      9  O   UNL     1      -9.587   6.591  -8.078  1.00  0.00    -0.504 OA
ATOM     10  H   UNL     1     -10.576   6.504  -8.284  1.00  0.00     0.293 HD
ENDBRANCH   6   9
TORSDOF 2
ENDMDL
MODEL 8
REMARK VINA RESULT:    -2.752     17.093     18.352
REMARK INTER + INTRA:          -3.038
REMARK INTER:                  -2.992
REMARK INTRA:                  -0.046
REMARK UNBOUND:                -0.044
REMARK SMILES COc1ccccc1O
REMARK SMILES IDX 3 1 4 2 5 3 6 4 7 5 8 6 2 7 1 8 9 9
REMARK H PARENT 9 10
REMARK Flexibility Score: inf
ROOT
ATOM      1  C   UNL     1       7.935   8.862  -0.576  1.00  0.00     0.160 A 
ATOM      2  C   UNL     1       7.101   9.556  -1.476  1.00  0.00     0.050 A 
ATOM      3  C   UNL     1       7.589   9.960  -2.722  1.00  0.00     0.004 A 
ATOM      4  C   UNL     1       8.907   9.679  -3.083  1.00  0.00     0.004 A 
ATOM      5  C   UNL     1       9.742   8.992  -2.200  1.00  0.00     0.050 A 
ATOM      6  C   UNL     1       9.264   8.583  -0.949  1.00  0.00     0.157 A 
ENDROOT
BRANCH   1   7
ATOM      7  O   UNL     1       7.481   8.441   0.684  1.00  0.00    -0.493 OA
ATOM      8  C   UNL     1       7.429   9.269   1.842  1.00  0.00     0.278 C 
ENDBRANCH   1   7
BRANCH   6   9
ATOM      9  O   UNL     1      10.125   7.899  -0.091  1.00  0.00    -0.504 OA
ATOM     10  H   UNL     1      10.706   8.379   0.587  1.00  0.00     0.293 HD
ENDBRANCH   6   9
TORSDOF 2
ENDMDL
