MODEL 1
REMARK VINA RESULT:    -6.474      0.000      0.000
REMARK INTER + INTRA:          -8.937
REMARK INTER:                  -8.934
REMARK INTRA:                  -0.003
REMARK UNBOUND:                -0.003
REMARK SMILES C[C@@H]1C(=O)O[C@H](C)[C@@H]1C[C@H](O)[C@](C)(O)[C@H]1CC[C@@]2(O)C3=CC(=O)[C@@H]4C[C@H](O)[C@@H](O)C[C@@]4(C)[C@H]3CC[C@@]12C
REMARK SMILES IDX 12 1 13 2 10 3 9 4 8 5 1 6 2 7 3 8 6 9 5 10 4 11 7 12 11 13
REMARK SMILES IDX 15 15 16 16 36 17 17 18 18 19 35 20 37 21 20 22 34 23 33 24
REMARK SMILES IDX 21 25 31 26 22 27 24 28 30 29 32 30 23 31 25 32 28 33 26 34
REMARK SMILES IDX 19 35 29 37 27 39 14 41
REMARK H PARENT 11 14 19 36 29 38 27 40 14 42
REMARK Flexibility Score: inf
ROOT
ATOM      1  C   UNL     1      -5.594  28.369  45.983  1.00  0.00     0.091 C 
ATOM      2  C   UNL     1      -7.008  28.776  46.492  1.00  0.00     0.045 C 
ENDROOT
BRANCH   1   3
ATOM      3  C   UNL     1      -4.664  29.644  45.896  1.00  0.00     0.146 C 
BRANCH   3   4
ATOM      4  C   UNL     1      -5.389  31.023  46.023  1.00  0.00     0.043 C 
BRANCH   4   5
ATOM      5  C   UNL     1      -4.946  31.843  47.266  1.00  0.00     0.046 C 
ATOM      6  C   UNL     1      -7.311  32.953  47.225  1.00  0.00     0.020 C 
ATOM      7  C   UNL     1      -6.094  32.525  48.062  1.00  0.00     0.103 C 
ATOM      8  C   UNL     1      -5.403  33.724  48.595  1.00  0.00     0.309 C 
ATOM      9  C   UNL     1      -3.876  32.956  47.037  1.00  0.00     0.177 C 
ATOM     10  O   UNL     1      -4.166  33.933  48.022  1.00  0.00    -0.462 OA
ATOM     11  O   UNL     1      -5.882  34.482  49.477  1.00  0.00    -0.252 OA
ATOM     12  C   UNL     1      -3.908  33.622  45.656  1.00  0.00     0.053 C 
ENDBRANCH   4   5
ENDBRANCH   3   4
BRANCH   3  13
ATOM     13  O   UNL     1      -3.876  29.607  44.729  1.00  0.00    -0.390 OA
ATOM     14  H   UNL     1      -3.447  30.497  44.620  1.00  0.00     0.211 HD
ENDBRANCH   3  13
ENDBRANCH   1   3
BRANCH   1  15
ATOM     15  C   UNL     1      -5.705  27.701  44.547  1.00  0.00     0.032 C 
ATOM     16  C   UNL     1      -5.484  26.181  44.579  1.00  0.00     0.010 C 
ATOM     17  C   UNL     1      -6.999  27.910  43.674  1.00  0.00     0.006 C 
ATOM     18  C   UNL     1      -6.273  25.583  43.425  1.00  0.00     0.041 C 
ATOM     19  C   UNL     1      -6.909  26.743  42.628  1.00  0.00     0.092 C 
ATOM     20  C   UNL     1      -8.310  27.710  44.511  1.00  0.00     0.011 C 
ATOM     21  C   UNL     1      -6.977  29.319  42.996  1.00  0.00     0.015 C 
ATOM     22  C   UNL     1      -8.287  26.329  42.069  1.00  0.00    -0.031 C 
ATOM     23  C   UNL     1      -9.618  27.717  43.684  1.00  0.00     0.009 C 
ATOM     24  C   UNL     1      -9.449  27.317  42.195  1.00  0.00     0.025 C 
ATOM     25  C   UNL     1      -8.466  25.088  41.574  1.00  0.00     0.050 C 
ATOM     26  C   UNL     1     -10.765  26.863  41.433  1.00  0.00    -0.013 C 
ATOM     27  C   UNL     1      -9.804  24.543  41.322  1.00  0.00     0.159 C 
ATOM     28  C   UNL     1     -11.013  25.350  41.719  1.00  0.00     0.070 C 
ATOM     29  C   UNL     1     -12.033  27.725  41.822  1.00  0.00     0.042 C 
ATOM     30  C   UNL     1     -10.521  27.075  39.903  1.00  0.00     0.013 C 
ATOM     31  O   UNL     1      -9.921  23.380  40.851  1.00  0.00    -0.295 OA
ATOM     32  C   UNL     1     -12.311  24.821  41.063  1.00  0.00     0.047 C 
ATOM     33  C   UNL     1     -13.282  26.906  42.227  1.00  0.00     0.143 C 
ATOM     34  C   UNL     1     -13.540  25.750  41.247  1.00  0.00     0.143 C 
BRANCH  19  35
ATOM     35  O   UNL     1      -6.022  27.077  41.580  1.00  0.00    -0.385 OA
ATOM     36  H   UNL     1      -6.536  27.485  40.839  1.00  0.00     0.211 HD
ENDBRANCH  19  35
BRANCH  33  37
ATOM     37  O   UNL     1     -13.155  26.407  43.534  1.00  0.00    -0.390 OA
ATOM     38  H   UNL     1     -12.748  27.128  44.079  1.00  0.00     0.211 HD
ENDBRANCH  33  37
BRANCH  34  39
ATOM     39  O   UNL     1     -13.934  26.287  40.009  1.00  0.00    -0.390 OA
ATOM     40  H   UNL     1     -14.579  27.020  40.200  1.00  0.00     0.211 HD
ENDBRANCH  34  39
ENDBRANCH   1  15
BRANCH   1  41
ATOM     41  O   UNL     1      -5.009  27.438  46.867  1.00  0.00    -0.387 OA
ATOM     42  H   UNL     1      -5.708  26.803  47.175  1.00  0.00     0.211 HD
ENDBRANCH   1  41
TORSDOF 9
ENDMDL
MODEL 2
REMARK VINA RESULT:    -6.395      1.827      2.665
REMARK INTER + INTRA:          -8.828
REMARK INTER:                  -8.303
REMARK INTRA:                  -0.525
REMARK UNBOUND:                -0.003
REMARK SMILES C[C@@H]1C(=O)O[C@H](C)[C@@H]1C[C@H](O)[C@](C)(O)[C@H]1CC[C@@]2(O)C3=CC(=O)[C@@H]4C[C@H](O)[C@@H](O)C[C@@]4(C)[C@H]3CC[C@@]12C
REMARK SMILES IDX 12 1 13 2 10 3 9 4 8 5 1 6 2 7 3 8 6 9 5 10 4 11 7 12 11 13
REMARK SMILES IDX 15 15 16 16 36 17 17 18 18 19 35 20 37 21 20 22 34 23 33 24
REMARK SMILES IDX 21 25 31 26 22 27 24 28 30 29 32 30 23 31 25 32 28 33 26 34
REMARK SMILES IDX 19 35 29 37 27 39 14 41
REMARK H PARENT 11 14 19 36 29 38 27 40 14 42
REMARK Flexibility Score: inf
ROOT
ATOM      1  C   UNL     1      -6.083  28.039  45.293  1.00  0.00     0.091 C 
ATOM      2  C   UNL     1      -7.069  26.921  45.739  1.00  0.00     0.045 C 
ENDROOT
BRANCH   1   3
ATOM      3  C   UNL     1      -5.703  28.948  46.529  1.00  0.00     0.146 C 
BRANCH   3   4
ATOM      4  C   UNL     1      -5.398  30.445  46.202  1.00  0.00     0.043 C 
BRANCH   4   5
ATOM      5  C   UNL     1      -6.326  31.443  46.949  1.00  0.00     0.046 C 
ATOM      6  C   UNL     1      -6.552  32.737  44.691  1.00  0.00     0.020 C 
ATOM      7  C   UNL     1      -7.186  32.367  46.041  1.00  0.00     0.103 C 
ATOM      8  C   UNL     1      -7.304  33.577  46.890  1.00  0.00     0.309 C 
ATOM      9  C   UNL     1      -5.654  32.390  47.993  1.00  0.00     0.177 C 
ATOM     10  O   UNL     1      -6.456  33.559  47.978  1.00  0.00    -0.462 OA
ATOM     11  O   UNL     1      -8.092  34.530  46.657  1.00  0.00    -0.252 OA
ATOM     12  C   UNL     1      -4.204  32.781  47.686  1.00  0.00     0.053 C 
ENDBRANCH   4   5
ENDBRANCH   3   4
BRANCH   3  13
ATOM     13  O   UNL     1      -4.642  28.378  47.260  1.00  0.00    -0.390 OA
ATOM     14  H   UNL     1      -5.029  27.756  47.931  1.00  0.00     0.211 HD
ENDBRANCH   3  13
ENDBRANCH   1   3
BRANCH   1  15
ATOM     15  C   UNL     1      -6.750  28.936  44.167  1.00  0.00     0.032 C 
ATOM     16  C   UNL     1      -6.045  28.810  42.808  1.00  0.00     0.010 C 
ATOM     17  C   UNL     1      -8.286  28.794  43.847  1.00  0.00     0.006 C 
ATOM     18  C   UNL     1      -7.084  29.071  41.730  1.00  0.00     0.041 C 
ATOM     19  C   UNL     1      -8.411  29.447  42.426  1.00  0.00     0.092 C 
ATOM     20  C   UNL     1      -8.723  27.292  43.730  1.00  0.00     0.011 C 
ATOM     21  C   UNL     1      -9.138  29.543  44.923  1.00  0.00     0.015 C 
ATOM     22  C   UNL     1      -9.617  28.915  41.622  1.00  0.00    -0.031 C 
ATOM     23  C   UNL     1     -10.174  27.074  43.236  1.00  0.00     0.009 C 
ATOM     24  C   UNL     1     -10.755  28.234  42.387  1.00  0.00     0.025 C 
ATOM     25  C   UNL     1      -9.605  28.971  40.276  1.00  0.00     0.050 C 
ATOM     26  C   UNL     1     -12.016  27.887  41.488  1.00  0.00    -0.013 C 
ATOM     27  C   UNL     1     -10.562  28.214  39.463  1.00  0.00     0.159 C 
ATOM     28  C   UNL     1     -11.519  27.270  40.144  1.00  0.00     0.070 C 
ATOM     29  C   UNL     1     -13.040  26.920  42.207  1.00  0.00     0.042 C 
ATOM     30  C   UNL     1     -12.774  29.224  41.203  1.00  0.00     0.013 C 
ATOM     31  O   UNL     1     -10.517  28.304  38.207  1.00  0.00    -0.295 OA
ATOM     32  C   UNL     1     -12.681  26.842  39.216  1.00  0.00     0.047 C 
ATOM     33  C   UNL     1     -13.463  25.682  41.380  1.00  0.00     0.143 C 
ATOM     34  C   UNL     1     -13.816  26.065  39.933  1.00  0.00     0.143 C 
BRANCH  19  35
ATOM     35  O   UNL     1      -8.457  30.857  42.524  1.00  0.00    -0.385 OA
ATOM     36  H   UNL     1      -9.110  31.111  43.224  1.00  0.00     0.211 HD
ENDBRANCH  19  35
BRANCH  33  37
ATOM     37  O   UNL     1     -12.456  24.704  41.385  1.00  0.00    -0.390 OA
ATOM     38  H   UNL     1     -11.607  25.163  41.157  1.00  0.00     0.211 HD
ENDBRANCH  33  37
BRANCH  34  39
ATOM     39  O   UNL     1     -14.997  26.826  39.942  1.00  0.00    -0.390 OA
ATOM     40  H   UNL     1     -14.735  27.775  39.801  1.00  0.00     0.211 HD
ENDBRANCH  34  39
ENDBRANCH   1  15
BRANCH   1  41
ATOM     41  O   UNL     1      -4.904  27.466  44.771  1.00  0.00    -0.387 OA
ATOM     42  H   UNL     1      -5.071  27.185  43.832  1.00  0.00     0.211 HD
ENDBRANCH   1  41
TORSDOF 9
ENDMDL
MODEL 3
REMARK VINA RESULT:    -6.346      1.931      8.500
REMARK INTER + INTRA:          -8.760
REMARK INTER:                  -8.319
REMARK INTRA:                  -0.441
REMARK UNBOUND:                -0.003
REMARK SMILES C[C@@H]1C(=O)O[C@H](C)[C@@H]1C[C@H](O)[C@](C)(O)[C@H]1CC[C@@]2(O)C3=CC(=O)[C@@H]4C[C@H](O)[C@@H](O)C[C@@]4(C)[C@H]3CC[C@@]12C
REMARK SMILES IDX 12 1 13 2 10 3 9 4 8 5 1 6 2 7 3 8 6 9 5 10 4 11 7 12 11 13
REMARK SMILES IDX 15 15 16 16 36 17 17 18 18 19 35 20 37 21 20 22 34 23 33 24
REMARK SMILES IDX 21 25 31 26 22 27 24 28 30 29 32 30 23 31 25 32 28 33 26 34
REMARK SMILES IDX 19 35 29 37 27 39 14 41
REMARK H PARENT 11 14 19 36 29 38 27 40 14 42
REMARK Flexibility Score: inf
ROOT
ATOM      1  C   UNL     1      -7.723  24.543  40.799  1.00  0.00     0.091 C 
ATOM      2  C   UNL     1      -7.466  23.689  39.525  1.00  0.00     0.045 C 
ENDROOT
BRANCH   1   3
ATOM      3  C   UNL     1      -9.039  25.400  40.618  1.00  0.00     0.146 C 
BRANCH   3   4
ATOM      4  C   UNL     1     -10.247  24.988  41.520  1.00  0.00     0.043 C 
BRANCH   4   5
ATOM      5  C   UNL     1     -11.607  25.558  41.031  1.00  0.00     0.046 C 
ATOM      6  C   UNL     1     -11.645  27.003  43.208  1.00  0.00     0.020 C 
ATOM      7  C   UNL     1     -12.082  26.857  41.742  1.00  0.00     0.103 C 
ATOM      8  C   UNL     1     -13.556  26.703  41.668  1.00  0.00     0.309 C 
ATOM      9  C   UNL     1     -12.833  24.592  41.061  1.00  0.00     0.177 C 
ATOM     10  O   UNL     1     -13.948  25.442  41.272  1.00  0.00    -0.462 OA
ATOM     11  O   UNL     1     -14.376  27.619  41.938  1.00  0.00    -0.252 OA
ATOM     12  C   UNL     1     -12.805  23.530  42.166  1.00  0.00     0.053 C 
ENDBRANCH   4   5
ENDBRANCH   3   4
BRANCH   3  13
ATOM     13  O   UNL     1      -9.427  25.438  39.264  1.00  0.00    -0.390 OA
ATOM     14  H   UNL     1     -10.142  26.121  39.168  1.00  0.00     0.211 HD
ENDBRANCH   3  13
ENDBRANCH   1   3
BRANCH   1  15
ATOM     15  C   UNL     1      -6.496  25.515  41.060  1.00  0.00     0.032 C 
ATOM     16  C   UNL     1      -6.417  26.662  40.041  1.00  0.00     0.010 C 
ATOM     17  C   UNL     1      -6.313  26.200  42.466  1.00  0.00     0.006 C 
ATOM     18  C   UNL     1      -5.751  27.841  40.734  1.00  0.00     0.041 C 
ATOM     19  C   UNL     1      -5.338  27.391  42.153  1.00  0.00     0.092 C 
ATOM     20  C   UNL     1      -7.657  26.805  43.003  1.00  0.00     0.011 C 
ATOM     21  C   UNL     1      -5.705  25.188  43.491  1.00  0.00     0.015 C 
ATOM     22  C   UNL     1      -5.471  28.557  43.155  1.00  0.00    -0.031 C 
ATOM     23  C   UNL     1      -7.521  27.654  44.289  1.00  0.00     0.009 C 
ATOM     24  C   UNL     1      -6.119  28.278  44.513  1.00  0.00     0.025 C 
ATOM     25  C   UNL     1      -5.109  29.803  42.788  1.00  0.00     0.050 C 
ATOM     26  C   UNL     1      -6.043  29.498  45.525  1.00  0.00    -0.013 C 
ATOM     27  C   UNL     1      -5.496  30.981  43.570  1.00  0.00     0.159 C 
ATOM     28  C   UNL     1      -6.405  30.808  44.759  1.00  0.00     0.070 C 
ATOM     29  C   UNL     1      -6.973  29.311  46.790  1.00  0.00     0.042 C 
ATOM     30  C   UNL     1      -4.572  29.586  46.048  1.00  0.00     0.013 C 
ATOM     31  O   UNL     1      -5.127  32.125  43.191  1.00  0.00    -0.295 OA
ATOM     32  C   UNL     1      -6.416  32.055  45.675  1.00  0.00     0.047 C 
ATOM     33  C   UNL     1      -7.902  30.507  47.103  1.00  0.00     0.143 C 
ATOM     34  C   UNL     1      -7.145  31.843  47.028  1.00  0.00     0.143 C 
BRANCH  19  35
ATOM     35  O   UNL     1      -4.001  26.938  42.084  1.00  0.00    -0.385 OA
ATOM     36  H   UNL     1      -3.822  26.598  41.171  1.00  0.00     0.211 HD
ENDBRANCH  19  35
BRANCH  33  37
ATOM     37  O   UNL     1      -9.004  30.531  46.232  1.00  0.00    -0.390 OA
ATOM     38  H   UNL     1      -9.229  29.588  46.027  1.00  0.00     0.211 HD
ENDBRANCH  33  37
BRANCH  34  39
ATOM     39  O   UNL     1      -6.228  31.903  48.091  1.00  0.00    -0.390 OA
ATOM     40  H   UNL     1      -6.004  32.862  48.231  1.00  0.00     0.211 HD
ENDBRANCH  34  39
ENDBRANCH   1  15
BRANCH   1  41
ATOM     41  O   UNL     1      -7.878  23.704  41.923  1.00  0.00    -0.387 OA
ATOM     42  H   UNL     1      -8.621  24.051  42.484  1.00  0.00     0.211 HD
ENDBRANCH   1  41
TORSDOF 9
ENDMDL
MODEL 4
REMARK VINA RESULT:    -6.315     11.292     15.001
REMARK INTER + INTRA:          -8.717
REMARK INTER:                  -8.440
REMARK INTRA:                  -0.277
REMARK UNBOUND:                -0.003
REMARK SMILES C[C@@H]1C(=O)O[C@H](C)[C@@H]1C[C@H](O)[C@](C)(O)[C@H]1CC[C@@]2(O)C3=CC(=O)[C@@H]4C[C@H](O)[C@@H](O)C[C@@]4(C)[C@H]3CC[C@@]12C
REMARK SMILES IDX 12 1 13 2 10 3 9 4 8 5 1 6 2 7 3 8 6 9 5 10 4 11 7 12 11 13
REMARK SMILES IDX 15 15 16 16 36 17 17 18 18 19 35 20 37 21 20 22 34 23 33 24
REMARK SMILES IDX 21 25 31 26 22 27 24 28 30 29 32 30 23 31 25 32 28 33 26 34
REMARK SMILES IDX 19 35 29 37 27 39 14 41
REMARK H PARENT 11 14 19 36 29 38 27 40 14 42
REMARK Flexibility Score: inf
ROOT
ATOM      1  C   UNL     1     -15.170  26.742  32.973  1.00  0.00     0.091 C 
ATOM      2  C   UNL     1     -14.987  28.205  32.474  1.00  0.00     0.045 C 
ENDROOT
BRANCH   1   3
ATOM      3  C   UNL     1     -16.571  26.586  33.687  1.00  0.00     0.146 C 
BRANCH   3   4
ATOM      4  C   UNL     1     -17.569  25.591  33.011  1.00  0.00     0.043 C 
BRANCH   4   5
ATOM      5  C   UNL     1     -18.497  24.863  34.023  1.00  0.00     0.046 C 
ATOM      6  C   UNL     1     -18.359  22.773  32.461  1.00  0.00     0.020 C 
ATOM      7  C   UNL     1     -18.554  23.315  33.886  1.00  0.00     0.103 C 
ATOM      8  C   UNL     1     -19.935  23.035  34.347  1.00  0.00     0.309 C 
ATOM      9  C   UNL     1     -19.985  25.332  34.086  1.00  0.00     0.177 C 
ATOM     10  O   UNL     1     -20.706  24.172  34.466  1.00  0.00    -0.462 OA
ATOM     11  O   UNL     1     -20.374  21.884  34.606  1.00  0.00    -0.252 OA
ATOM     12  C   UNL     1     -20.562  25.862  32.768  1.00  0.00     0.053 C 
ENDBRANCH   4   5
ENDBRANCH   3   4
BRANCH   3  13
ATOM     13  O   UNL     1     -17.179  27.843  33.872  1.00  0.00    -0.390 OA
ATOM     14  H   UNL     1     -17.725  28.043  33.066  1.00  0.00     0.211 HD
ENDBRANCH   3  13
ENDBRANCH   1   3
BRANCH   1  15
ATOM     15  C   UNL     1     -14.015  26.368  33.996  1.00  0.00     0.032 C 
ATOM     16  C   UNL     1     -14.550  25.762  35.303  1.00  0.00     0.010 C 
ATOM     17  C   UNL     1     -12.841  25.417  33.552  1.00  0.00     0.006 C 
ATOM     18  C   UNL     1     -13.476  24.833  35.846  1.00  0.00     0.041 C 
ATOM     19  C   UNL     1     -12.242  24.935  34.921  1.00  0.00     0.092 C 
ATOM     20  C   UNL     1     -13.367  24.156  32.783  1.00  0.00     0.011 C 
ATOM     21  C   UNL     1     -11.798  26.203  32.692  1.00  0.00     0.015 C 
ATOM     22  C   UNL     1     -11.525  23.572  34.818  1.00  0.00    -0.031 C 
ATOM     23  C   UNL     1     -12.292  23.085  32.477  1.00  0.00     0.009 C 
ATOM     24  C   UNL     1     -11.074  23.092  33.437  1.00  0.00     0.025 C 
ATOM     25  C   UNL     1     -11.396  22.796  35.912  1.00  0.00     0.050 C 
ATOM     26  C   UNL     1     -10.195  21.771  33.470  1.00  0.00    -0.013 C 
ATOM     27  C   UNL     1     -11.011  21.385  35.817  1.00  0.00     0.159 C 
ATOM     28  C   UNL     1     -10.853  20.757  34.456  1.00  0.00     0.070 C 
ATOM     29  C   UNL     1     -10.000  21.121  32.042  1.00  0.00     0.042 C 
ATOM     30  C   UNL     1      -8.774  22.162  33.991  1.00  0.00     0.013 C 
ATOM     31  O   UNL     1     -10.895  20.701  36.869  1.00  0.00    -0.295 OA
ATOM     32  C   UNL     1     -10.100  19.406  34.518  1.00  0.00     0.047 C 
ATOM     33  C   UNL     1     -10.326  19.611  31.959  1.00  0.00     0.143 C 
ATOM     34  C   UNL     1      -9.703  18.835  33.131  1.00  0.00     0.143 C 
BRANCH  19  35
ATOM     35  O   UNL     1     -11.382  25.915  35.465  1.00  0.00    -0.385 OA
ATOM     36  H   UNL     1     -10.446  25.602  35.388  1.00  0.00     0.211 HD
ENDBRANCH  19  35
BRANCH  33  37
ATOM     37  O   UNL     1     -11.714  19.396  31.925  1.00  0.00    -0.390 OA
ATOM     38  H   UNL     1     -12.141  20.286  31.832  1.00  0.00     0.211 HD
ENDBRANCH  33  37
BRANCH  34  39
ATOM     39  O   UNL     1      -8.306  18.839  32.983  1.00  0.00    -0.390 OA
ATOM     40  H   UNL     1      -8.055  17.983  32.544  1.00  0.00     0.211 HD
ENDBRANCH  34  39
ENDBRANCH   1  15
BRANCH   1  41
ATOM     41  O   UNL     1     -15.112  25.847  31.884  1.00  0.00    -0.387 OA
ATOM     42  H   UNL     1     -14.429  25.150  32.076  1.00  0.00     0.211 HD
ENDBRANCH   1  41
TORSDOF 9
ENDMDL
MODEL 5
REMARK VINA RESULT:    -6.112     12.584     14.811
REMARK INTER + INTRA:          -8.438
REMARK INTER:                  -7.651
REMARK INTRA:                  -0.787
REMARK UNBOUND:                -0.003
REMARK SMILES C[C@@H]1C(=O)O[C@H](C)[C@@H]1C[C@H](O)[C@](C)(O)[C@H]1CC[C@@]2(O)C3=CC(=O)[C@@H]4C[C@H](O)[C@@H](O)C[C@@]4(C)[C@H]3CC[C@@]12C
REMARK SMILES IDX 12 1 13 2 10 3 9 4 8 5 1 6 2 7 3 8 6 9 5 10 4 11 7 12 11 13
REMARK SMILES IDX 15 15 16 16 36 17 17 18 18 19 35 20 37 21 20 22 34 23 33 24
REMARK SMILES IDX 21 25 31 26 22 27 24 28 30 29 32 30 23 31 25 32 28 33 26 34
REMARK SMILES IDX 19 35 29 37 27 39 14 41
REMARK H PARENT 11 14 19 36 29 38 27 40 14 42
REMARK Flexibility Score: inf
ROOT
ATOM      1  C   UNL     1     -20.884  30.182  37.023  1.00  0.00     0.091 C 
ATOM      2  C   UNL     1     -21.257  31.688  36.892  1.00  0.00     0.045 C 
ENDROOT
BRANCH   1   3
ATOM      3  C   UNL     1     -20.859  29.763  38.546  1.00  0.00     0.146 C 
BRANCH   3   4
ATOM      4  C   UNL     1     -21.487  28.371  38.878  1.00  0.00     0.043 C 
BRANCH   4   5
ATOM      5  C   UNL     1     -21.118  27.847  40.294  1.00  0.00     0.046 C 
ATOM      6  C   UNL     1     -20.393  25.615  39.146  1.00  0.00     0.020 C 
ATOM      7  C   UNL     1     -20.212  26.585  40.325  1.00  0.00     0.103 C 
ATOM      8  C   UNL     1     -20.661  25.938  41.582  1.00  0.00     0.309 C 
ATOM      9  C   UNL     1     -22.300  27.539  41.266  1.00  0.00     0.177 C 
ATOM     10  O   UNL     1     -21.814  26.496  42.094  1.00  0.00    -0.462 OA
ATOM     11  O   UNL     1     -20.065  24.978  42.136  1.00  0.00    -0.252 OA
ATOM     12  C   UNL     1     -23.597  27.072  40.594  1.00  0.00     0.053 C 
ENDBRANCH   4   5
ENDBRANCH   3   4
BRANCH   3  13
ATOM     13  O   UNL     1     -21.435  30.767  39.350  1.00  0.00    -0.390 OA
ATOM     14  H   UNL     1     -21.730  30.348  40.201  1.00  0.00     0.211 HD
ENDBRANCH   3  13
ENDBRANCH   1   3
BRANCH   1  15
ATOM     15  C   UNL     1     -19.457  29.918  36.381  1.00  0.00     0.032 C 
ATOM     16  C   UNL     1     -18.353  29.740  37.435  1.00  0.00     0.010 C 
ATOM     17  C   UNL     1     -19.252  28.731  35.366  1.00  0.00     0.006 C 
ATOM     18  C   UNL     1     -17.291  28.834  36.832  1.00  0.00     0.041 C 
ATOM     19  C   UNL     1     -17.696  28.527  35.373  1.00  0.00     0.092 C 
ATOM     20  C   UNL     1     -19.916  27.404  35.875  1.00  0.00     0.011 C 
ATOM     21  C   UNL     1     -19.794  29.122  33.953  1.00  0.00     0.015 C 
ATOM     22  C   UNL     1     -17.274  27.094  34.982  1.00  0.00    -0.031 C 
ATOM     23  C   UNL     1     -19.601  26.150  35.024  1.00  0.00     0.009 C 
ATOM     24  C   UNL     1     -18.277  26.225  34.219  1.00  0.00     0.025 C 
ATOM     25  C   UNL     1     -16.087  26.607  35.394  1.00  0.00     0.050 C 
ATOM     26  C   UNL     1     -17.679  24.844  33.715  1.00  0.00    -0.013 C 
ATOM     27  C   UNL     1     -15.773  25.176  35.320  1.00  0.00     0.159 C 
ATOM     28  C   UNL     1     -16.838  24.212  34.867  1.00  0.00     0.070 C 
ATOM     29  C   UNL     1     -18.789  23.838  33.210  1.00  0.00     0.042 C 
ATOM     30  C   UNL     1     -16.751  25.150  32.495  1.00  0.00     0.013 C 
ATOM     31  O   UNL     1     -14.647  24.768  35.711  1.00  0.00    -0.295 OA
ATOM     32  C   UNL     1     -16.256  22.828  34.493  1.00  0.00     0.047 C 
ATOM     33  C   UNL     1     -18.708  22.416  33.815  1.00  0.00     0.143 C 
ATOM     34  C   UNL     1     -17.268  21.878  33.800  1.00  0.00     0.143 C 
BRANCH  19  35
ATOM     35  O   UNL     1     -17.062  29.481  34.545  1.00  0.00    -0.385 OA
ATOM     36  H   UNL     1     -16.505  30.077  35.106  1.00  0.00     0.211 HD
ENDBRANCH  19  35
BRANCH  33  37
ATOM     37  O   UNL     1     -19.213  22.397  35.126  1.00  0.00    -0.390 OA
ATOM     38  H   UNL     1     -18.874  21.569  35.553  1.00  0.00     0.211 HD
ENDBRANCH  33  37
BRANCH  34  39
ATOM     39  O   UNL     1     -16.886  21.649  32.467  1.00  0.00    -0.390 OA
ATOM     40  H   UNL     1     -15.936  21.932  32.382  1.00  0.00     0.211 HD
ENDBRANCH  34  39
ENDBRANCH   1  15
BRANCH   1  41
ATOM     41  O   UNL     1     -21.834  29.387  36.348  1.00  0.00    -0.387 OA
ATOM     42  H   UNL     1     -21.426  28.506  36.138  1.00  0.00     0.211 HD
ENDBRANCH   1  41
TORSDOF 9
ENDMDL
MODEL 6
REMARK VINA RESULT:    -6.072      6.335     12.868
REMARK INTER + INTRA:          -8.382
REMARK INTER:                  -7.508
REMARK INTRA:                  -0.874
REMARK UNBOUND:                -0.003
REMARK SMILES C[C@@H]1C(=O)O[C@H](C)[C@@H]1C[C@H](O)[C@](C)(O)[C@H]1CC[C@@]2(O)C3=CC(=O)[C@@H]4C[C@H](O)[C@@H](O)C[C@@]4(C)[C@H]3CC[C@@]12C
REMARK SMILES IDX 12 1 13 2 10 3 9 4 8 5 1 6 2 7 3 8 6 9 5 10 4 11 7 12 11 13
REMARK SMILES IDX 15 15 16 16 36 17 17 18 18 19 35 20 37 21 20 22 34 23 33 24
REMARK SMILES IDX 21 25 31 26 22 27 24 28 30 29 32 30 23 31 25 32 28 33 26 34
REMARK SMILES IDX 19 35 29 37 27 39 14 41
REMARK H PARENT 11 14 19 36 29 38 27 40 14 42
REMARK Flexibility Score: inf
ROOT
ATOM      1  C   UNL     1     -15.617  26.086  33.840  1.00  0.00     0.091 C 
ATOM      2  C   UNL     1     -16.741  26.743  32.988  1.00  0.00     0.045 C 
ENDROOT
BRANCH   1   3
ATOM      3  C   UNL     1     -15.072  24.794  33.111  1.00  0.00     0.146 C 
BRANCH   3   4
ATOM      4  C   UNL     1     -13.522  24.723  32.925  1.00  0.00     0.043 C 
BRANCH   4   5
ATOM      5  C   UNL     1     -12.996  23.285  32.657  1.00  0.00     0.046 C 
ATOM      6  C   UNL     1     -12.495  23.123  35.217  1.00  0.00     0.020 C 
ATOM      7  C   UNL     1     -12.844  22.383  33.915  1.00  0.00     0.103 C 
ATOM      8  C   UNL     1     -11.712  21.514  33.511  1.00  0.00     0.309 C 
ATOM      9  C   UNL     1     -11.647  23.156  31.883  1.00  0.00     0.177 C 
ATOM     10  O   UNL     1     -11.073  21.954  32.371  1.00  0.00    -0.462 OA
ATOM     11  O   UNL     1     -11.357  20.480  34.134  1.00  0.00    -0.252 OA
ATOM     12  C   UNL     1     -10.653  24.302  32.102  1.00  0.00     0.053 C 
ENDBRANCH   4   5
ENDBRANCH   3   4
BRANCH   3  13
ATOM     13  O   UNL     1     -15.725  24.605  31.877  1.00  0.00    -0.390 OA
ATOM     14  H   UNL     1     -15.035  24.402  31.191  1.00  0.00     0.211 HD
ENDBRANCH   3  13
ENDBRANCH   1   3
BRANCH   1  15
ATOM     15  C   UNL     1     -16.182  25.684  35.268  1.00  0.00     0.032 C 
ATOM     16  C   UNL     1     -16.160  24.167  35.513  1.00  0.00     0.010 C 
ATOM     17  C   UNL     1     -15.566  26.319  36.571  1.00  0.00     0.006 C 
ATOM     18  C   UNL     1     -16.012  23.950  37.010  1.00  0.00     0.041 C 
ATOM     19  C   UNL     1     -16.034  25.333  37.699  1.00  0.00     0.092 C 
ATOM     20  C   UNL     1     -13.998  26.311  36.542  1.00  0.00     0.011 C 
ATOM     21  C   UNL     1     -16.114  27.768  36.782  1.00  0.00     0.015 C 
ATOM     22  C   UNL     1     -15.105  25.342  38.931  1.00  0.00    -0.031 C 
ATOM     23  C   UNL     1     -13.320  26.748  37.863  1.00  0.00     0.009 C 
ATOM     24  C   UNL     1     -14.182  26.546  39.136  1.00  0.00     0.025 C 
ATOM     25  C   UNL     1     -15.052  24.267  39.741  1.00  0.00     0.050 C 
ATOM     26  C   UNL     1     -13.405  26.534  40.520  1.00  0.00    -0.013 C 
ATOM     27  C   UNL     1     -13.982  24.096  40.728  1.00  0.00     0.159 C 
ATOM     28  C   UNL     1     -12.856  25.096  40.772  1.00  0.00     0.070 C 
ATOM     29  C   UNL     1     -12.241  27.601  40.584  1.00  0.00     0.042 C 
ATOM     30  C   UNL     1     -14.430  26.908  41.639  1.00  0.00     0.013 C 
ATOM     31  O   UNL     1     -13.978  23.076  41.469  1.00  0.00    -0.295 OA
ATOM     32  C   UNL     1     -12.029  24.991  42.076  1.00  0.00     0.047 C 
ATOM     33  C   UNL     1     -10.870  27.049  41.043  1.00  0.00     0.143 C 
ATOM     34  C   UNL     1     -11.012  26.145  42.279  1.00  0.00     0.143 C 
BRANCH  19  35
ATOM     35  O   UNL     1     -17.370  25.601  38.075  1.00  0.00    -0.385 OA
ATOM     36  H   UNL     1     -17.380  25.958  38.998  1.00  0.00     0.211 HD
ENDBRANCH  19  35
BRANCH  33  37
ATOM     37  O   UNL     1     -10.238  26.345  40.005  1.00  0.00    -0.390 OA
ATOM     38  H   UNL     1     -10.064  26.997  39.279  1.00  0.00     0.211 HD
ENDBRANCH  33  37
BRANCH  34  39
ATOM     39  O   UNL     1     -11.388  26.938  43.377  1.00  0.00    -0.390 OA
ATOM     40  H   UNL     1     -11.276  27.888  43.104  1.00  0.00     0.211 HD
ENDBRANCH  34  39
ENDBRANCH   1  15
BRANCH   1  41
ATOM     41  O   UNL     1     -14.550  26.992  34.018  1.00  0.00    -0.387 OA
ATOM     42  H   UNL     1     -14.735  27.814  33.493  1.00  0.00     0.211 HD
ENDBRANCH   1  41
TORSDOF 9
ENDMDL
MODEL 7
REMARK VINA RESULT:    -5.994      1.594      9.153
REMARK INTER + INTRA:          -8.275
REMARK INTER:                  -7.986
REMARK INTRA:                  -0.289
REMARK UNBOUND:                -0.003
REMARK SMILES C[C@@H]1C(=O)O[C@H](C)[C@@H]1C[C@H](O)[C@](C)(O)[C@H]1CC[C@@]2(O)C3=CC(=O)[C@@H]4C[C@H](O)[C@@H](O)C[C@@]4(C)[C@H]3CC[C@@]12C
REMARK SMILES IDX 12 1 13 2 10 3 9 4 8 5 1 6 2 7 3 8 6 9 5 10 4 11 7 12 11 13
REMARK SMILES IDX 15 15 16 16 36 17 17 18 18 19 35 20 37 21 20 22 34 23 33 24
REMARK SMILES IDX 21 25 31 26 22 27 24 28 30 29 32 30 23 31 25 32 28 33 26 34
REMARK SMILES IDX 19 35 29 37 27 39 14 41
REMARK H PARENT 11 14 19 36 29 38 27 40 14 42
REMARK Flexibility Score: inf
ROOT
ATOM      1  C   UNL     1      -8.531  26.549  40.998  1.00  0.00     0.091 C 
ATOM      2  C   UNL     1      -9.315  27.859  40.693  1.00  0.00     0.045 C 
ENDROOT
BRANCH   1   3
ATOM      3  C   UNL     1      -9.434  25.293  40.675  1.00  0.00     0.146 C 
BRANCH   3   4
ATOM      4  C   UNL     1     -10.733  25.152  41.531  1.00  0.00     0.043 C 
BRANCH   4   5
ATOM      5  C   UNL     1     -12.038  25.369  40.715  1.00  0.00     0.046 C 
ATOM      6  C   UNL     1     -12.900  26.822  42.709  1.00  0.00     0.020 C 
ATOM      7  C   UNL     1     -12.945  26.536  41.199  1.00  0.00     0.103 C 
ATOM      8  C   UNL     1     -14.288  26.033  40.821  1.00  0.00     0.309 C 
ATOM      9  C   UNL     1     -12.987  24.139  40.557  1.00  0.00     0.177 C 
ATOM     10  O   UNL     1     -14.284  24.704  40.453  1.00  0.00    -0.462 OA
ATOM     11  O   UNL     1     -15.333  26.734  40.832  1.00  0.00    -0.252 OA
ATOM     12  C   UNL     1     -12.975  23.145  41.725  1.00  0.00     0.053 C 
ENDBRANCH   4   5
ENDBRANCH   3   4
BRANCH   3  13
ATOM     13  O   UNL     1      -8.676  24.106  40.732  1.00  0.00    -0.390 OA
ATOM     14  H   UNL     1      -8.207  24.083  41.609  1.00  0.00     0.211 HD
ENDBRANCH   3  13
ENDBRANCH   1   3
BRANCH   1  15
ATOM     15  C   UNL     1      -8.107  26.512  42.527  1.00  0.00     0.032 C 
ATOM     16  C   UNL     1      -6.657  26.049  42.732  1.00  0.00     0.010 C 
ATOM     17  C   UNL     1      -8.259  27.799  43.422  1.00  0.00     0.006 C 
ATOM     18  C   UNL     1      -6.148  26.700  44.008  1.00  0.00     0.041 C 
ATOM     19  C   UNL     1      -7.314  27.495  44.638  1.00  0.00     0.092 C 
ATOM     20  C   UNL     1      -7.719  29.082  42.699  1.00  0.00     0.011 C 
ATOM     21  C   UNL     1      -9.748  27.988  43.859  1.00  0.00     0.015 C 
ATOM     22  C   UNL     1      -6.792  28.772  45.330  1.00  0.00    -0.031 C 
ATOM     23  C   UNL     1      -7.663  30.352  43.583  1.00  0.00     0.009 C 
ATOM     24  C   UNL     1      -7.552  30.081  45.106  1.00  0.00     0.025 C 
ATOM     25  C   UNL     1      -5.640  28.735  46.029  1.00  0.00     0.050 C 
ATOM     26  C   UNL     1      -7.036  31.286  46.001  1.00  0.00    -0.013 C 
ATOM     27  C   UNL     1      -4.946  29.960  46.438  1.00  0.00     0.159 C 
ATOM     28  C   UNL     1      -5.476  31.293  45.979  1.00  0.00     0.070 C 
ATOM     29  C   UNL     1      -7.612  32.687  45.544  1.00  0.00     0.042 C 
ATOM     30  C   UNL     1      -7.539  31.040  47.460  1.00  0.00     0.013 C 
ATOM     31  O   UNL     1      -3.875  29.875  47.097  1.00  0.00    -0.295 OA
ATOM     32  C   UNL     1      -4.871  32.471  46.780  1.00  0.00     0.047 C 
ATOM     33  C   UNL     1      -6.553  33.797  45.345  1.00  0.00     0.143 C 
ATOM     34  C   UNL     1      -5.554  33.839  46.513  1.00  0.00     0.143 C 
BRANCH  19  35
ATOM     35  O   UNL     1      -7.954  26.646  45.569  1.00  0.00    -0.385 OA
ATOM     36  H   UNL     1      -8.508  25.988  45.078  1.00  0.00     0.211 HD
ENDBRANCH  19  35
BRANCH  33  37
ATOM     37  O   UNL     1      -5.865  33.625  44.132  1.00  0.00    -0.390 OA
ATOM     38  H   UNL     1      -4.995  34.092  44.226  1.00  0.00     0.211 HD
ENDBRANCH  33  37
BRANCH  34  39
ATOM     39  O   UNL     1      -6.225  34.282  47.665  1.00  0.00    -0.390 OA
ATOM     40  H   UNL     1      -6.009  33.641  48.395  1.00  0.00     0.211 HD
ENDBRANCH  34  39
ENDBRANCH   1  15
BRANCH   1  41
ATOM     41  O   UNL     1      -7.365  26.486  40.207  1.00  0.00    -0.387 OA
ATOM     42  H   UNL     1      -7.362  27.252  39.574  1.00  0.00     0.211 HD
ENDBRANCH   1  41
TORSDOF 9
ENDMDL
MODEL 8
REMARK VINA RESULT:    -5.962     12.593     15.637
REMARK INTER + INTRA:          -8.231
REMARK INTER:                  -7.770
REMARK INTRA:                  -0.461
REMARK UNBOUND:                -0.003
REMARK SMILES C[C@@H]1C(=O)O[C@H](C)[C@@H]1C[C@H](O)[C@](C)(O)[C@H]1CC[C@@]2(O)C3=CC(=O)[C@@H]4C[C@H](O)[C@@H](O)C[C@@]4(C)[C@H]3CC[C@@]12C
REMARK SMILES IDX 12 1 13 2 10 3 9 4 8 5 1 6 2 7 3 8 6 9 5 10 4 11 7 12 11 13
REMARK SMILES IDX 15 15 16 16 36 17 17 18 18 19 35 20 37 21 20 22 34 23 33 24
REMARK SMILES IDX 21 25 31 26 22 27 24 28 30 29 32 30 23 31 25 32 28 33 26 34
REMARK SMILES IDX 19 35 29 37 27 39 14 41
REMARK H PARENT 11 14 19 36 29 38 27 40 14 42
REMARK Flexibility Score: inf
ROOT
ATOM      1  C   UNL     1     -18.281  23.664  33.530  1.00  0.00     0.091 C 
ATOM      2  C   UNL     1     -19.516  23.687  34.477  1.00  0.00     0.045 C 
ENDROOT
BRANCH   1   3
ATOM      3  C   UNL     1     -17.112  22.828  34.186  1.00  0.00     0.146 C 
BRANCH   3   4
ATOM      4  C   UNL     1     -15.770  22.794  33.386  1.00  0.00     0.043 C 
BRANCH   4   5
ATOM      5  C   UNL     1     -14.591  23.486  34.126  1.00  0.00     0.046 C 
ATOM      6  C   UNL     1     -14.502  25.184  32.142  1.00  0.00     0.020 C 
ATOM      7  C   UNL     1     -14.240  24.918  33.633  1.00  0.00     0.103 C 
ATOM      8  C   UNL     1     -12.783  24.968  33.905  1.00  0.00     0.309 C 
ATOM      9  C   UNL     1     -13.235  22.716  34.176  1.00  0.00     0.177 C 
ATOM     10  O   UNL     1     -12.250  23.735  34.220  1.00  0.00    -0.462 OA
ATOM     11  O   UNL     1     -12.090  26.017  33.856  1.00  0.00    -0.252 OA
ATOM     12  C   UNL     1     -12.951  21.808  32.973  1.00  0.00     0.053 C 
ENDBRANCH   4   5
ENDBRANCH   3   4
BRANCH   3  13
ATOM     13  O   UNL     1     -17.541  21.519  34.483  1.00  0.00    -0.390 OA
ATOM     14  H   UNL     1     -17.199  20.914  33.773  1.00  0.00     0.211 HD
ENDBRANCH   3  13
ENDBRANCH   1   3
BRANCH   1  15
ATOM     15  C   UNL     1     -17.778  25.144  33.255  1.00  0.00     0.032 C 
ATOM     16  C   UNL     1     -18.286  25.709  31.920  1.00  0.00     0.010 C 
ATOM     17  C   UNL     1     -18.049  26.281  34.311  1.00  0.00     0.006 C 
ATOM     18  C   UNL     1     -18.386  27.218  32.072  1.00  0.00     0.041 C 
ATOM     19  C   UNL     1     -17.853  27.593  33.473  1.00  0.00     0.092 C 
ATOM     20  C   UNL     1     -19.528  26.256  34.833  1.00  0.00     0.011 C 
ATOM     21  C   UNL     1     -17.035  26.176  35.497  1.00  0.00     0.015 C 
ATOM     22  C   UNL     1     -18.632  28.797  34.047  1.00  0.00    -0.031 C 
ATOM     23  C   UNL     1     -19.921  27.453  35.732  1.00  0.00     0.009 C 
ATOM     24  C   UNL     1     -19.083  28.739  35.508  1.00  0.00     0.025 C 
ATOM     25  C   UNL     1     -18.980  29.818  33.240  1.00  0.00     0.050 C 
ATOM     26  C   UNL     1     -19.715  30.094  36.040  1.00  0.00    -0.013 C 
ATOM     27  C   UNL     1     -19.970  30.821  33.647  1.00  0.00     0.159 C 
ATOM     28  C   UNL     1     -20.692  30.650  34.959  1.00  0.00     0.070 C 
ATOM     29  C   UNL     1     -20.449  29.930  37.431  1.00  0.00     0.042 C 
ATOM     30  C   UNL     1     -18.543  31.106  36.259  1.00  0.00     0.013 C 
ATOM     31  O   UNL     1     -20.258  31.763  32.861  1.00  0.00    -0.295 OA
ATOM     32  C   UNL     1     -21.407  31.947  35.407  1.00  0.00     0.047 C 
ATOM     33  C   UNL     1     -21.887  30.498  37.484  1.00  0.00     0.143 C 
ATOM     34  C   UNL     1     -21.963  31.899  36.855  1.00  0.00     0.143 C 
BRANCH  19  35
ATOM     35  O   UNL     1     -16.480  27.902  33.339  1.00  0.00    -0.385 OA
ATOM     36  H   UNL     1     -15.954  27.291  33.913  1.00  0.00     0.211 HD
ENDBRANCH  19  35
BRANCH  33  37
ATOM     37  O   UNL     1     -22.793  29.636  36.844  1.00  0.00    -0.390 OA
ATOM     38  H   UNL     1     -22.276  28.846  36.544  1.00  0.00     0.211 HD
ENDBRANCH  33  37
BRANCH  34  39
ATOM     39  O   UNL     1     -21.264  32.801  37.675  1.00  0.00    -0.390 OA
ATOM     40  H   UNL     1     -21.615  32.688  38.600  1.00  0.00     0.211 HD
ENDBRANCH  34  39
ENDBRANCH   1  15
BRANCH   1  41
ATOM     41  O   UNL     1     -18.627  23.072  32.297  1.00  0.00    -0.387 OA
ATOM     42  H   UNL     1     -19.290  23.651  31.835  1.00  0.00     0.211 HD
ENDBRANCH   1  41
TORSDOF 9
ENDMDL
MODEL 9
REMARK VINA RESULT:    -5.957      3.916      7.938
REMARK INTER + INTRA:          -8.224
REMARK INTER:                  -7.486
REMARK INTRA:                  -0.738
REMARK UNBOUND:                -0.003
REMARK SMILES C[C@@H]1C(=O)O[C@H](C)[C@@H]1C[C@H](O)[C@](C)(O)[C@H]1CC[C@@]2(O)C3=CC(=O)[C@@H]4C[C@H](O)[C@@H](O)C[C@@]4(C)[C@H]3CC[C@@]12C
REMARK SMILES IDX 12 1 13 2 10 3 9 4 8 5 1 6 2 7 3 8 6 9 5 10 4 11 7 12 11 13
REMARK SMILES IDX 15 15 16 16 36 17 17 18 18 19 35 20 37 21 20 22 34 23 33 24
REMARK SMILES IDX 21 25 31 26 22 27 24 28 30 29 32 30 23 31 25 32 28 33 26 34
REMARK SMILES IDX 19 35 29 37 27 39 14 41
REMARK H PARENT 11 14 19 36 29 38 27 40 14 42
REMARK Flexibility Score: inf
ROOT
ATOM      1  C   UNL     1     -12.768  26.465  41.912  1.00  0.00     0.091 C 
ATOM      2  C   UNL     1     -14.118  27.205  42.136  1.00  0.00     0.045 C 
ENDROOT
BRANCH   1   3
ATOM      3  C   UNL     1     -11.596  27.514  41.757  1.00  0.00     0.146 C 
BRANCH   3   4
ATOM      4  C   UNL     1     -10.494  27.468  42.863  1.00  0.00     0.043 C 
BRANCH   4   5
ATOM      5  C   UNL     1      -9.140  28.086  42.414  1.00  0.00     0.046 C 
ATOM      6  C   UNL     1      -8.464  25.700  41.590  1.00  0.00     0.020 C 
ATOM      7  C   UNL     1      -8.303  27.220  41.430  1.00  0.00     0.103 C 
ATOM      8  C   UNL     1      -6.923  27.622  41.794  1.00  0.00     0.309 C 
ATOM      9  C   UNL     1      -8.148  28.516  43.540  1.00  0.00     0.177 C 
ATOM     10  O   UNL     1      -6.864  28.355  42.961  1.00  0.00    -0.462 OA
ATOM     11  O   UNL     1      -5.901  27.331  41.120  1.00  0.00    -0.252 OA
ATOM     12  C   UNL     1      -8.217  27.687  44.827  1.00  0.00     0.053 C 
ENDBRANCH   4   5
ENDBRANCH   3   4
BRANCH   3  13
ATOM     13  O   UNL     1     -12.109  28.819  41.626  1.00  0.00    -0.390 OA
ATOM     14  H   UNL     1     -12.398  29.127  42.526  1.00  0.00     0.211 HD
ENDBRANCH   3  13
ENDBRANCH   1   3
BRANCH   1  15
ATOM     15  C   UNL     1     -12.849  25.570  40.604  1.00  0.00     0.032 C 
ATOM     16  C   UNL     1     -11.855  26.010  39.518  1.00  0.00     0.010 C 
ATOM     17  C   UNL     1     -12.685  24.007  40.702  1.00  0.00     0.006 C 
ATOM     18  C   UNL     1     -11.499  24.779  38.701  1.00  0.00     0.041 C 
ATOM     19  C   UNL     1     -12.343  23.596  39.226  1.00  0.00     0.092 C 
ATOM     20  C   UNL     1     -11.473  23.600  41.610  1.00  0.00     0.011 C 
ATOM     21  C   UNL     1     -14.010  23.350  41.210  1.00  0.00     0.015 C 
ATOM     22  C   UNL     1     -11.547  22.276  39.137  1.00  0.00    -0.031 C 
ATOM     23  C   UNL     1     -11.135  22.090  41.607  1.00  0.00     0.009 C 
ATOM     24  C   UNL     1     -11.583  21.325  40.335  1.00  0.00     0.025 C 
ATOM     25  C   UNL     1     -10.768  22.033  38.064  1.00  0.00     0.050 C 
ATOM     26  C   UNL     1     -10.879  19.927  40.067  1.00  0.00    -0.013 C 
ATOM     27  C   UNL     1      -9.766  20.963  38.065  1.00  0.00     0.159 C 
ATOM     28  C   UNL     1      -9.527  20.180  39.331  1.00  0.00     0.070 C 
ATOM     29  C   UNL     1     -10.652  19.087  41.388  1.00  0.00     0.042 C 
ATOM     30  C   UNL     1     -11.828  19.089  39.150  1.00  0.00     0.013 C 
ATOM     31  O   UNL     1      -9.066  20.767  37.036  1.00  0.00    -0.295 OA
ATOM     32  C   UNL     1      -8.733  18.878  39.074  1.00  0.00     0.047 C 
ATOM     33  C   UNL     1      -9.214  18.553  41.585  1.00  0.00     0.143 C 
ATOM     34  C   UNL     1      -8.665  17.922  40.295  1.00  0.00     0.143 C 
BRANCH  19  35
ATOM     35  O   UNL     1     -13.517  23.527  38.440  1.00  0.00    -0.385 OA
ATOM     36  H   UNL     1     -14.302  23.701  39.018  1.00  0.00     0.211 HD
ENDBRANCH  19  35
BRANCH  33  37
ATOM     37  O   UNL     1      -8.353  19.573  42.024  1.00  0.00    -0.390 OA
ATOM     38  H   UNL     1      -7.984  19.282  42.897  1.00  0.00     0.211 HD
ENDBRANCH  33  37
BRANCH  34  39
ATOM     39  O   UNL     1      -9.379  16.742  40.029  1.00  0.00    -0.390 OA
ATOM     40  H   UNL     1      -8.908  16.002  40.500  1.00  0.00     0.211 HD
ENDBRANCH  34  39
ENDBRANCH   1  15
BRANCH   1  41
ATOM     41  O   UNL     1     -12.485  25.627  43.012  1.00  0.00    -0.387 OA
ATOM     42  H   UNL     1     -13.330  25.207  43.322  1.00  0.00     0.211 HD
ENDBRANCH   1  41
TORSDOF 9
ENDMDL
