MODEL 1
REMARK VINA RESULT:    -5.233      0.000      0.000
REMARK INTER + INTRA:          -7.578
REMARK INTER:                  -6.456
REMARK INTRA:                  -1.121
REMARK UNBOUND:                -1.121
REMARK SMILES CC(C)=CCC[C@@H](C)c1ccc(C)cc1
REMARK SMILES IDX 6 1 7 2 8 3 9 4 13 5 12 6 11 7 14 8 10 9 15 10 5 11 4 12
REMARK SMILES IDX 2 13 1 14 3 15
REMARK H PARENT
REMARK Flexibility Score: inf
ROOT
ATOM      1  C   UNL     1     172.326 173.594 150.837  1.00  0.00     0.012 C 
ENDROOT
BRANCH   1   2
ATOM      2  C   UNL     1     173.339 173.100 149.779  1.00  0.00     0.016 C 
ATOM      3  C   UNL     1     174.636 173.924 149.785  1.00  0.00     0.013 C 
BRANCH   2   4
ATOM      4  C   UNL     1     173.647 171.628 149.987  1.00  0.00    -0.045 A 
ATOM      5  C   UNL     1     174.565 167.443 150.536  1.00  0.00     0.044 C 
ATOM      6  C   UNL     1     174.240 168.898 150.375  1.00  0.00    -0.051 A 
ATOM      7  C   UNL     1     175.248 169.865 150.491  1.00  0.00     0.004 A 
ATOM      8  C   UNL     1     172.939 169.299 150.039  1.00  0.00     0.004 A 
ATOM      9  C   UNL     1     174.954 171.219 150.304  1.00  0.00     0.004 A 
ATOM     10  C   UNL     1     172.642 170.652 149.851  1.00  0.00     0.004 A 
ENDBRANCH   2   4
ENDBRANCH   1   2
BRANCH   1  11
ATOM     11  C   UNL     1     173.004 174.300 152.021  1.00  0.00     0.028 C 
BRANCH  11  12
ATOM     12  C   UNL     1     173.463 173.295 153.048  1.00  0.00    -0.028 C 
ATOM     13  C   UNL     1     174.703 173.262 153.583  1.00  0.00    -0.080 C 
ATOM     14  C   UNL     1     175.006 172.223 154.632  1.00  0.00     0.039 C 
ATOM     15  C   UNL     1     175.788 174.220 153.149  1.00  0.00     0.039 C 
ENDBRANCH  11  12
ENDBRANCH   1  11
TORSDOF 4
ENDMDL
MODEL 2
REMARK VINA RESULT:    -5.228      0.058      1.252
REMARK INTER + INTRA:          -7.572
REMARK INTER:                  -6.435
REMARK INTRA:                  -1.137
REMARK UNBOUND:                -1.121
REMARK SMILES CC(C)=CCC[C@@H](C)c1ccc(C)cc1
REMARK SMILES IDX 6 1 7 2 8 3 9 4 13 5 12 6 11 7 14 8 10 9 15 10 5 11 4 12
REMARK SMILES IDX 2 13 1 14 3 15
REMARK H PARENT
REMARK Flexibility Score: inf
ROOT
ATOM      1  C   UNL     1     172.306 173.567 150.848  1.00  0.00     0.012 C 
ENDROOT
BRANCH   1   2
ATOM      2  C   UNL     1     173.308 173.075 149.779  1.00  0.00     0.016 C 
ATOM      3  C   UNL     1     174.604 173.902 149.772  1.00  0.00     0.013 C 
BRANCH   2   4
ATOM      4  C   UNL     1     173.620 171.604 149.984  1.00  0.00    -0.045 A 
ATOM      5  C   UNL     1     174.463 167.414 150.609  1.00  0.00     0.044 C 
ATOM      6  C   UNL     1     174.177 168.865 150.363  1.00  0.00    -0.051 A 
ATOM      7  C   UNL     1     172.883 169.284 150.029  1.00  0.00     0.004 A 
ATOM      8  C   UNL     1     175.188 169.823 150.532  1.00  0.00     0.004 A 
ATOM      9  C   UNL     1     172.606 170.641 149.836  1.00  0.00     0.004 A 
ATOM     10  C   UNL     1     174.914 171.180 150.340  1.00  0.00     0.004 A 
ENDBRANCH   2   4
ENDBRANCH   1   2
BRANCH   1  11
ATOM     11  C   UNL     1     172.994 174.292 152.015  1.00  0.00     0.028 C 
BRANCH  11  12
ATOM     12  C   UNL     1     173.439 173.305 153.066  1.00  0.00    -0.028 C 
ATOM     13  C   UNL     1     174.679 173.270 153.604  1.00  0.00    -0.080 C 
ATOM     14  C   UNL     1     174.968 172.251 154.676  1.00  0.00     0.039 C 
ATOM     15  C   UNL     1     175.775 174.206 153.150  1.00  0.00     0.039 C 
ENDBRANCH  11  12
ENDBRANCH   1  11
TORSDOF 4
ENDMDL
MODEL 3
REMARK VINA RESULT:    -5.034     10.111     11.919
REMARK INTER + INTRA:          -7.332
REMARK INTER:                  -6.330
REMARK INTRA:                  -1.003
REMARK UNBOUND:                -1.121
REMARK SMILES CC(C)=CCC[C@@H](C)c1ccc(C)cc1
REMARK SMILES IDX 6 1 7 2 8 3 9 4 13 5 12 6 11 7 14 8 10 9 15 10 5 11 4 12
REMARK SMILES IDX 2 13 1 14 3 15
REMARK H PARENT
REMARK Flexibility Score: inf
ROOT
ATOM      1  C   UNL     1     174.940 162.115 151.210  1.00  0.00     0.012 C 
ENDROOT
BRANCH   1   2
ATOM      2  C   UNL     1     174.896 161.132 150.018  1.00  0.00     0.016 C 
ATOM      3  C   UNL     1     176.091 160.166 150.016  1.00  0.00     0.013 C 
BRANCH   2   4
ATOM      4  C   UNL     1     173.590 160.358 150.019  1.00  0.00    -0.045 A 
ATOM      5  C   UNL     1     169.852 158.195 150.064  1.00  0.00     0.044 C 
ATOM      6  C   UNL     1     171.152 158.939 150.019  1.00  0.00    -0.051 A 
ATOM      7  C   UNL     1     171.169 160.317 149.764  1.00  0.00     0.004 A 
ATOM      8  C   UNL     1     172.356 158.278 150.300  1.00  0.00     0.004 A 
ATOM      9  C   UNL     1     172.378 161.021 149.758  1.00  0.00     0.004 A 
ATOM     10  C   UNL     1     173.566 158.978 150.296  1.00  0.00     0.004 A 
ENDBRANCH   2   4
ENDBRANCH   1   2
BRANCH   1  11
ATOM     11  C   UNL     1     176.114 161.839 152.161  1.00  0.00     0.028 C 
BRANCH  11  12
ATOM     12  C   UNL     1     175.623 161.687 153.580  1.00  0.00    -0.028 C 
ATOM     13  C   UNL     1     175.524 160.506 154.231  1.00  0.00    -0.080 C 
ATOM     14  C   UNL     1     175.055 160.512 155.663  1.00  0.00     0.039 C 
ATOM     15  C   UNL     1     175.852 159.192 153.560  1.00  0.00     0.039 C 
ENDBRANCH  11  12
ENDBRANCH   1  11
TORSDOF 4
ENDMDL
MODEL 4
REMARK VINA RESULT:    -5.023      0.951      1.439
REMARK INTER + INTRA:          -7.320
REMARK INTER:                  -6.221
REMARK INTRA:                  -1.099
REMARK UNBOUND:                -1.121
REMARK SMILES CC(C)=CCC[C@@H](C)c1ccc(C)cc1
REMARK SMILES IDX 6 1 7 2 8 3 9 4 13 5 12 6 11 7 14 8 10 9 15 10 5 11 4 12
REMARK SMILES IDX 2 13 1 14 3 15
REMARK H PARENT
REMARK Flexibility Score: inf
ROOT
ATOM      1  C   UNL     1     173.771 174.205 151.749  1.00  0.00     0.012 C 
ENDROOT
BRANCH   1   2
ATOM      2  C   UNL     1     174.029 173.715 150.305  1.00  0.00     0.016 C 
ATOM      3  C   UNL     1     175.374 174.212 149.753  1.00  0.00     0.013 C 
BRANCH   2   4
ATOM      4  C   UNL     1     173.957 172.200 150.240  1.00  0.00    -0.045 A 
ATOM      5  C   UNL     1     173.787 167.891 150.001  1.00  0.00     0.044 C 
ATOM      6  C   UNL     1     173.845 169.385 150.114  1.00  0.00    -0.051 A 
ATOM      7  C   UNL     1     175.082 170.043 150.152  1.00  0.00     0.004 A 
ATOM      8  C   UNL     1     172.664 170.141 150.113  1.00  0.00     0.004 A 
ATOM      9  C   UNL     1     175.138 171.438 150.219  1.00  0.00     0.004 A 
ATOM     10  C   UNL     1     172.717 171.535 150.180  1.00  0.00     0.004 A 
ENDBRANCH   2   4
ENDBRANCH   1   2
BRANCH   1  11
ATOM     11  C   UNL     1     175.003 174.053 152.653  1.00  0.00     0.028 C 
BRANCH  11  12
ATOM     12  C   UNL     1     174.586 173.816 154.084  1.00  0.00    -0.028 C 
ATOM     13  C   UNL     1     174.448 172.595 154.647  1.00  0.00    -0.080 C 
ATOM     14  C   UNL     1     174.063 172.515 156.102  1.00  0.00     0.039 C 
ATOM     15  C   UNL     1     174.650 171.322 153.859  1.00  0.00     0.039 C 
ENDBRANCH  11  12
ENDBRANCH   1  11
TORSDOF 4
ENDMDL
MODEL 5
REMARK VINA RESULT:    -5.016     11.536     12.913
REMARK INTER + INTRA:          -7.310
REMARK INTER:                  -5.860
REMARK INTRA:                  -1.450
REMARK UNBOUND:                -1.121
REMARK SMILES CC(C)=CCC[C@@H](C)c1ccc(C)cc1
REMARK SMILES IDX 6 1 7 2 8 3 9 4 13 5 12 6 11 7 14 8 10 9 15 10 5 11 4 12
REMARK SMILES IDX 2 13 1 14 3 15
REMARK H PARENT
REMARK Flexibility Score: inf
ROOT
ATOM      1  C   UNL     1     175.555 159.618 152.149  1.00  0.00     0.012 C 
ENDROOT
BRANCH   1   2
ATOM      2  C   UNL     1     175.098 160.238 150.809  1.00  0.00     0.016 C 
ATOM      3  C   UNL     1     176.075 159.934 149.663  1.00  0.00     0.013 C 
BRANCH   2   4
ATOM      4  C   UNL     1     173.701 159.760 150.454  1.00  0.00    -0.045 A 
ATOM      5  C   UNL     1     169.752 158.364 149.400  1.00  0.00     0.044 C 
ATOM      6  C   UNL     1     171.114 158.850 149.795  1.00  0.00    -0.051 A 
ATOM      7  C   UNL     1     172.125 157.935 150.119  1.00  0.00     0.004 A 
ATOM      8  C   UNL     1     171.408 160.222 149.777  1.00  0.00     0.004 A 
ATOM      9  C   UNL     1     173.406 158.385 150.451  1.00  0.00     0.004 A 
ATOM     10  C   UNL     1     172.688 160.674 150.108  1.00  0.00     0.004 A 
ENDBRANCH   2   4
ENDBRANCH   1   2
BRANCH   1  11
ATOM     11  C   UNL     1     174.812 160.206 153.357  1.00  0.00     0.028 C 
BRANCH  11  12
ATOM     12  C   UNL     1     174.226 159.105 154.208  1.00  0.00    -0.028 C 
ATOM     13  C   UNL     1     172.904 158.845 154.314  1.00  0.00    -0.080 C 
ATOM     14  C   UNL     1     172.467 157.685 155.172  1.00  0.00     0.039 C 
ATOM     15  C   UNL     1     171.863 159.688 153.615  1.00  0.00     0.039 C 
ENDBRANCH  11  12
ENDBRANCH   1  11
TORSDOF 4
ENDMDL
MODEL 6
REMARK VINA RESULT:    -4.941      7.050     11.208
REMARK INTER + INTRA:          -7.218
REMARK INTER:                  -6.301
REMARK INTRA:                  -0.917
REMARK UNBOUND:                -1.121
REMARK SMILES CC(C)=CCC[C@@H](C)c1ccc(C)cc1
REMARK SMILES IDX 6 1 7 2 8 3 9 4 13 5 12 6 11 7 14 8 10 9 15 10 5 11 4 12
REMARK SMILES IDX 2 13 1 14 3 15
REMARK H PARENT
REMARK Flexibility Score: inf
ROOT
ATOM      1  C   UNL     1     175.704 161.347 150.121  1.00  0.00     0.012 C 
ENDROOT
BRANCH   1   2
ATOM      2  C   UNL     1     175.264 159.943 150.594  1.00  0.00     0.016 C 
ATOM      3  C   UNL     1     175.546 159.716 152.087  1.00  0.00     0.013 C 
BRANCH   2   4
ATOM      4  C   UNL     1     173.792 159.721 150.293  1.00  0.00    -0.045 A 
ATOM      5  C   UNL     1     169.591 159.128 149.484  1.00  0.00     0.044 C 
ATOM      6  C   UNL     1     171.055 159.330 149.736  1.00  0.00    -0.051 A 
ATOM      7  C   UNL     1     171.604 160.619 149.715  1.00  0.00     0.004 A 
ATOM      8  C   UNL     1     171.874 158.239 150.062  1.00  0.00     0.004 A 
ATOM      9  C   UNL     1     172.962 160.813 149.987  1.00  0.00     0.004 A 
ATOM     10  C   UNL     1     173.231 158.430 150.333  1.00  0.00     0.004 A 
ENDBRANCH   2   4
ENDBRANCH   1   2
BRANCH   1  11
ATOM     11  C   UNL     1     176.057 162.281 151.288  1.00  0.00     0.028 C 
BRANCH  11  12
ATOM     12  C   UNL     1     175.771 163.717 150.926  1.00  0.00    -0.028 C 
ATOM     13  C   UNL     1     174.640 164.378 151.258  1.00  0.00    -0.080 C 
ATOM     14  C   UNL     1     174.510 165.826 150.861  1.00  0.00     0.039 C 
ATOM     15  C   UNL     1     173.505 163.703 151.993  1.00  0.00     0.039 C 
ENDBRANCH  11  12
ENDBRANCH   1  11
TORSDOF 4
ENDMDL
MODEL 7
REMARK VINA RESULT:    -4.917      1.561      3.255
REMARK INTER + INTRA:          -7.189
REMARK INTER:                  -6.153
REMARK INTRA:                  -1.035
REMARK UNBOUND:                -1.121
REMARK SMILES CC(C)=CCC[C@@H](C)c1ccc(C)cc1
REMARK SMILES IDX 6 1 7 2 8 3 9 4 13 5 12 6 11 7 14 8 10 9 15 10 5 11 4 12
REMARK SMILES IDX 2 13 1 14 3 15
REMARK H PARENT
REMARK Flexibility Score: inf
ROOT
ATOM      1  C   UNL     1     173.515 173.756 150.153  1.00  0.00     0.012 C 
ENDROOT
BRANCH   1   2
ATOM      2  C   UNL     1     174.583 172.773 150.683  1.00  0.00     0.016 C 
ATOM      3  C   UNL     1     174.791 172.900 152.200  1.00  0.00     0.013 C 
BRANCH   2   4
ATOM      4  C   UNL     1     174.216 171.346 150.317  1.00  0.00    -0.045 A 
ATOM      5  C   UNL     1     173.128 167.286 149.321  1.00  0.00     0.044 C 
ATOM      6  C   UNL     1     173.512 168.700 149.638  1.00  0.00    -0.051 A 
ATOM      7  C   UNL     1     172.543 169.712 149.640  1.00  0.00     0.004 A 
ATOM      8  C   UNL     1     174.830 169.011 150.002  1.00  0.00     0.004 A 
ATOM      9  C   UNL     1     172.891 171.025 149.971  1.00  0.00     0.004 A 
ATOM     10  C   UNL     1     175.182 170.322 150.334  1.00  0.00     0.004 A 
ENDBRANCH   2   4
ENDBRANCH   1   2
BRANCH   1  11
ATOM     11  C   UNL     1     172.733 174.445 151.283  1.00  0.00     0.028 C 
BRANCH  11  12
ATOM     12  C   UNL     1     171.270 174.549 150.930  1.00  0.00    -0.028 C 
ATOM     13  C   UNL     1     170.307 173.738 151.421  1.00  0.00    -0.080 C 
ATOM     14  C   UNL     1     168.879 173.988 151.009  1.00  0.00     0.039 C 
ATOM     15  C   UNL     1     170.624 172.589 152.350  1.00  0.00     0.039 C 
ENDBRANCH  11  12
ENDBRANCH   1  11
TORSDOF 4
ENDMDL
MODEL 8
REMARK VINA RESULT:    -4.865     10.175     12.515
REMARK INTER + INTRA:          -7.124
REMARK INTER:                  -5.584
REMARK INTRA:                  -1.541
REMARK UNBOUND:                -1.121
REMARK SMILES CC(C)=CCC[C@@H](C)c1ccc(C)cc1
REMARK SMILES IDX 6 1 7 2 8 3 9 4 13 5 12 6 11 7 14 8 10 9 15 10 5 11 4 12
REMARK SMILES IDX 2 13 1 14 3 15
REMARK H PARENT
REMARK Flexibility Score: inf
ROOT
ATOM      1  C   UNL     1     175.294 159.619 150.170  1.00  0.00     0.012 C 
ENDROOT
BRANCH   1   2
ATOM      2  C   UNL     1     176.078 160.752 150.869  1.00  0.00     0.016 C 
ATOM      3  C   UNL     1     175.671 162.144 150.360  1.00  0.00     0.013 C 
BRANCH   2   4
ATOM      4  C   UNL     1     175.901 160.667 152.375  1.00  0.00    -0.045 A 
ATOM      5  C   UNL     1     175.350 160.385 156.649  1.00  0.00     0.044 C 
ATOM      6  C   UNL     1     175.571 160.487 155.170  1.00  0.00    -0.051 A 
ATOM      7  C   UNL     1     175.799 159.333 154.408  1.00  0.00     0.004 A 
ATOM      8  C   UNL     1     175.483 161.729 154.525  1.00  0.00     0.004 A 
ATOM      9  C   UNL     1     175.968 159.421 153.023  1.00  0.00     0.004 A 
ATOM     10  C   UNL     1     175.651 161.821 153.141  1.00  0.00     0.004 A 
ENDBRANCH   2   4
ENDBRANCH   1   2
BRANCH   1  11
ATOM     11  C   UNL     1     173.784 159.897 150.106  1.00  0.00     0.028 C 
BRANCH  11  12
ATOM     12  C   UNL     1     173.012 158.796 150.791  1.00  0.00    -0.028 C 
ATOM     13  C   UNL     1     172.321 158.950 151.942  1.00  0.00    -0.080 C 
ATOM     14  C   UNL     1     171.562 157.768 152.489  1.00  0.00     0.039 C 
ATOM     15  C   UNL     1     172.306 160.259 152.698  1.00  0.00     0.039 C 
ENDBRANCH  11  12
ENDBRANCH   1  11
TORSDOF 4
ENDMDL
MODEL 9
REMARK VINA RESULT:    -4.825      1.109      4.193
REMARK INTER + INTRA:          -7.075
REMARK INTER:                  -5.574
REMARK INTRA:                  -1.501
REMARK UNBOUND:                -1.121
REMARK SMILES CC(C)=CCC[C@@H](C)c1ccc(C)cc1
REMARK SMILES IDX 6 1 7 2 8 3 9 4 13 5 12 6 11 7 14 8 10 9 15 10 5 11 4 12
REMARK SMILES IDX 2 13 1 14 3 15
REMARK H PARENT
REMARK Flexibility Score: inf
ROOT
ATOM      1  C   UNL     1     174.688 174.198 150.832  1.00  0.00     0.012 C 
ENDROOT
BRANCH   1   2
ATOM      2  C   UNL     1     173.614 174.262 151.941  1.00  0.00     0.016 C 
ATOM      3  C   UNL     1     172.189 174.123 151.381  1.00  0.00     0.013 C 
BRANCH   2   4
ATOM      4  C   UNL     1     173.874 173.198 152.992  1.00  0.00    -0.045 A 
ATOM      5  C   UNL     1     174.665 170.151 155.950  1.00  0.00     0.044 C 
ATOM      6  C   UNL     1     174.381 171.227 154.945  1.00  0.00    -0.051 A 
ATOM      7  C   UNL     1     175.386 172.130 154.574  1.00  0.00     0.004 A 
ATOM      8  C   UNL     1     173.129 171.296 154.317  1.00  0.00     0.004 A 
ATOM      9  C   UNL     1     175.135 173.111 153.610  1.00  0.00     0.004 A 
ATOM     10  C   UNL     1     172.875 172.275 153.353  1.00  0.00     0.004 A 
ENDBRANCH   2   4
ENDBRANCH   1   2
BRANCH   1  11
ATOM     11  C   UNL     1     174.371 173.142 149.762  1.00  0.00     0.028 C 
BRANCH  11  12
ATOM     12  C   UNL     1     174.994 171.816 150.123  1.00  0.00    -0.028 C 
ATOM     13  C   UNL     1     174.305 170.661 150.258  1.00  0.00    -0.080 C 
ATOM     14  C   UNL     1     175.069 169.403 150.583  1.00  0.00     0.039 C 
ATOM     15  C   UNL     1     172.802 170.603 150.110  1.00  0.00     0.039 C 
ENDBRANCH  11  12
ENDBRANCH   1  11
TORSDOF 4
ENDMDL
