MODEL 1
REMARK VINA RESULT:    -4.035      0.000      0.000
REMARK INTER + INTRA:          -6.418
REMARK INTER:                  -5.923
REMARK INTRA:                  -0.495
REMARK UNBOUND:                -0.495
REMARK SMILES O=C([O-])CCCCCCCC(=O)[O-]
REMARK SMILES IDX 7 1 6 2 5 3 4 4 2 5 1 6 3 7 8 8 9 9 10 10 11 11 12 12 13 13
REMARK H PARENT
REMARK Flexibility Score: inf
ROOT
ATOM      1  C   UNL     1      25.981   2.669  42.598  1.00  0.00     0.000 C 
ENDROOT
BRANCH   1   2
ATOM      2  C   UNL     1      24.941   3.217  41.608  1.00  0.00     0.000 C 
BRANCH   2   3
ATOM      3  C   UNL     1      25.054   2.576  40.216  1.00  0.00     0.006 C 
BRANCH   3   4
ATOM      4  C   UNL     1      26.520   2.350  39.834  1.00  0.00     0.053 C 
BRANCH   4   5
ATOM      5  C   UNL     1      26.679   1.049  39.113  1.00  0.00     0.041 C 
ATOM      6  O   UNL     1      27.716   0.356  39.278  1.00  0.00    -0.550 OA
ATOM      7  O   UNL     1      25.702   0.626  38.219  1.00  0.00    -0.550 OA
ENDBRANCH   4   5
ENDBRANCH   3   4
ENDBRANCH   2   3
ENDBRANCH   1   2
BRANCH   1   8
ATOM      8  C   UNL     1      25.441   1.500  43.437  1.00  0.00     0.000 C 
BRANCH   8   9
ATOM      9  C   UNL     1      26.581   0.583  43.896  1.00  0.00     0.006 C 
BRANCH   9  10
ATOM     10  C   UNL     1      26.782  -0.577  42.917  1.00  0.00     0.053 C 
BRANCH  10  11
ATOM     11  C   UNL     1      27.573  -1.673  43.558  1.00  0.00     0.041 C 
ATOM     12  O   UNL     1      27.628  -2.812  43.021  1.00  0.00    -0.550 OA
ATOM     13  O   UNL     1      28.290  -1.425  44.720  1.00  0.00    -0.550 OA
ENDBRANCH  10  11
ENDBRANCH   9  10
ENDBRANCH   8   9
ENDBRANCH   1   8
TORSDOF 8
ENDMDL
MODEL 2
REMARK VINA RESULT:    -3.879      6.919      8.931
REMARK INTER + INTRA:          -6.188
REMARK INTER:                  -5.396
REMARK INTRA:                  -0.792
REMARK UNBOUND:                -0.495
REMARK SMILES O=C([O-])CCCCCCCC(=O)[O-]
REMARK SMILES IDX 7 1 6 2 5 3 4 4 2 5 1 6 3 7 8 8 9 9 10 10 11 11 12 12 13 13
REMARK H PARENT
REMARK Flexibility Score: inf
ROOT
ATOM      1  C   UNL     1      22.721  -4.659  34.894  1.00  0.00     0.000 C 
ENDROOT
BRANCH   1   2
ATOM      2  C   UNL     1      22.670  -6.195  34.930  1.00  0.00     0.000 C 
BRANCH   2   3
ATOM      3  C   UNL     1      24.066  -6.835  34.911  1.00  0.00     0.006 C 
BRANCH   3   4
ATOM      4  C   UNL     1      24.768  -6.658  36.261  1.00  0.00     0.053 C 
BRANCH   4   5
ATOM      5  C   UNL     1      26.131  -6.072  36.070  1.00  0.00     0.041 C 
ATOM      6  O   UNL     1      26.441  -5.531  34.977  1.00  0.00    -0.550 OA
ATOM      7  O   UNL     1      27.076  -6.167  37.084  1.00  0.00    -0.550 OA
ENDBRANCH   4   5
ENDBRANCH   3   4
ENDBRANCH   2   3
ENDBRANCH   1   2
BRANCH   1   8
ATOM      8  C   UNL     1      22.140  -4.017  36.163  1.00  0.00     0.000 C 
BRANCH   8   9
ATOM      9  C   UNL     1      23.088  -2.948  36.720  1.00  0.00     0.006 C 
BRANCH   9  10
ATOM     10  C   UNL     1      24.300  -2.758  35.804  1.00  0.00     0.053 C 
BRANCH  10  11
ATOM     11  C   UNL     1      25.417  -2.093  36.544  1.00  0.00     0.041 C 
ATOM     12  O   UNL     1      26.549  -2.642  36.609  1.00  0.00    -0.550 OA
ATOM     13  O   UNL     1      25.223  -0.845  37.120  1.00  0.00    -0.550 OA
ENDBRANCH  10  11
ENDBRANCH   9  10
ENDBRANCH   8   9
ENDBRANCH   1   8
TORSDOF 8
ENDMDL
MODEL 3
REMARK VINA RESULT:    -3.873      0.862      5.117
REMARK INTER + INTRA:          -6.180
REMARK INTER:                  -5.703
REMARK INTRA:                  -0.477
REMARK UNBOUND:                -0.495
REMARK SMILES O=C([O-])CCCCCCCC(=O)[O-]
REMARK SMILES IDX 7 1 6 2 5 3 4 4 2 5 1 6 3 7 8 8 9 9 10 10 11 11 12 12 13 13
REMARK H PARENT
REMARK Flexibility Score: inf
ROOT
ATOM      1  C   UNL     1      24.870   2.177  43.244  1.00  0.00     0.000 C 
ENDROOT
BRANCH   1   2
ATOM      2  C   UNL     1      25.374   1.126  44.246  1.00  0.00     0.000 C 
BRANCH   2   3
ATOM      3  C   UNL     1      26.747   0.553  43.862  1.00  0.00     0.006 C 
BRANCH   3   4
ATOM      4  C   UNL     1      26.597  -0.785  43.132  1.00  0.00     0.053 C 
BRANCH   4   5
ATOM      5  C   UNL     1      27.583  -1.781  43.654  1.00  0.00     0.041 C 
ATOM      6  O   UNL     1      27.699  -2.906  43.104  1.00  0.00    -0.550 OA
ATOM      7  O   UNL     1      28.340  -1.484  44.781  1.00  0.00    -0.550 OA
ENDBRANCH   4   5
ENDBRANCH   3   4
ENDBRANCH   2   3
ENDBRANCH   1   2
BRANCH   1   8
ATOM      8  C   UNL     1      25.986   2.713  42.334  1.00  0.00     0.000 C 
BRANCH   8   9
ATOM      9  C   UNL     1      25.515   2.792  40.877  1.00  0.00     0.006 C 
BRANCH   9  10
ATOM     10  C   UNL     1      26.346   1.869  39.980  1.00  0.00     0.053 C 
BRANCH  10  11
ATOM     11  C   UNL     1      25.577   1.501  38.751  1.00  0.00     0.041 C 
ATOM     12  O   UNL     1      25.772   0.390  38.191  1.00  0.00    -0.550 OA
ATOM     13  O   UNL     1      24.609   2.363  38.252  1.00  0.00    -0.550 OA
ENDBRANCH  10  11
ENDBRANCH   9  10
ENDBRANCH   8   9
ENDBRANCH   1   8
TORSDOF 8
ENDMDL
MODEL 4
REMARK VINA RESULT:    -3.739      7.203      9.167
REMARK INTER + INTRA:          -5.982
REMARK INTER:                  -5.333
REMARK INTRA:                  -0.650
REMARK UNBOUND:                -0.495
REMARK SMILES O=C([O-])CCCCCCCC(=O)[O-]
REMARK SMILES IDX 7 1 6 2 5 3 4 4 2 5 1 6 3 7 8 8 9 9 10 10 11 11 12 12 13 13
REMARK H PARENT
REMARK Flexibility Score: inf
ROOT
ATOM      1  C   UNL     1      22.599  -4.741  34.917  1.00  0.00     0.000 C 
ENDROOT
BRANCH   1   2
ATOM      2  C   UNL     1      22.237  -4.273  36.335  1.00  0.00     0.000 C 
BRANCH   2   3
ATOM      3  C   UNL     1      22.935  -2.960  36.723  1.00  0.00     0.006 C 
BRANCH   3   4
ATOM      4  C   UNL     1      24.095  -2.655  35.770  1.00  0.00     0.053 C 
BRANCH   4   5
ATOM      5  C   UNL     1      25.294  -2.192  36.535  1.00  0.00     0.041 C 
ATOM      6  O   UNL     1      26.278  -2.959  36.695  1.00  0.00    -0.550 OA
ATOM      7  O   UNL     1      25.303  -0.929  37.114  1.00  0.00    -0.550 OA
ENDBRANCH   4   5
ENDBRANCH   3   4
ENDBRANCH   2   3
ENDBRANCH   1   2
BRANCH   1   8
ATOM      8  C   UNL     1      23.102  -6.193  34.883  1.00  0.00     0.000 C 
BRANCH   8   9
ATOM      9  C   UNL     1      24.298  -6.380  35.824  1.00  0.00     0.006 C 
BRANCH   9  10
ATOM     10  C   UNL     1      25.499  -6.968  35.077  1.00  0.00     0.053 C 
BRANCH  10  11
ATOM     11  C   UNL     1      25.894  -6.080  33.940  1.00  0.00     0.041 C 
ATOM     12  O   UNL     1      26.409  -4.953  34.166  1.00  0.00    -0.550 OA
ATOM     13  O   UNL     1      25.740  -6.516  32.631  1.00  0.00    -0.550 OA
ENDBRANCH  10  11
ENDBRANCH   9  10
ENDBRANCH   8   9
ENDBRANCH   1   8
TORSDOF 8
ENDMDL
MODEL 5
REMARK VINA RESULT:    -3.680      7.153      9.072
REMARK INTER + INTRA:          -5.896
REMARK INTER:                  -5.074
REMARK INTRA:                  -0.822
REMARK UNBOUND:                -0.495
REMARK SMILES O=C([O-])CCCCCCCC(=O)[O-]
REMARK SMILES IDX 7 1 6 2 5 3 4 4 2 5 1 6 3 7 8 8 9 9 10 10 11 11 12 12 13 13
REMARK H PARENT
REMARK Flexibility Score: inf
ROOT
ATOM      1  C   UNL     1      23.308  -6.214  34.821  1.00  0.00     0.000 C 
ENDROOT
BRANCH   1   2
ATOM      2  C   UNL     1      24.493  -6.987  35.422  1.00  0.00     0.000 C 
BRANCH   2   3
ATOM      3  C   UNL     1      25.434  -6.087  36.238  1.00  0.00     0.006 C 
BRANCH   3   4
ATOM      4  C   UNL     1      26.485  -5.433  35.335  1.00  0.00     0.053 C 
BRANCH   4   5
ATOM      5  C   UNL     1      27.425  -4.599  36.145  1.00  0.00     0.041 C 
ATOM      6  O   UNL     1      28.019  -5.095  37.137  1.00  0.00    -0.550 OA
ATOM      7  O   UNL     1      27.608  -3.257  35.833  1.00  0.00    -0.550 OA
ENDBRANCH   4   5
ENDBRANCH   3   4
ENDBRANCH   2   3
ENDBRANCH   1   2
BRANCH   1   8
ATOM      8  C   UNL     1      22.405  -5.585  35.894  1.00  0.00     0.000 C 
BRANCH   8   9
ATOM      9  C   UNL     1      22.166  -4.097  35.606  1.00  0.00     0.006 C 
BRANCH   9  10
ATOM     10  C   UNL     1      22.854  -3.218  36.655  1.00  0.00     0.053 C 
BRANCH  10  11
ATOM     11  C   UNL     1      24.051  -2.541  36.068  1.00  0.00     0.041 C 
ATOM     12  O   UNL     1      24.372  -2.751  34.868  1.00  0.00    -0.550 OA
ATOM     13  O   UNL     1      24.784  -1.640  36.829  1.00  0.00    -0.550 OA
ENDBRANCH  10  11
ENDBRANCH   9  10
ENDBRANCH   8   9
ENDBRANCH   1   8
TORSDOF 8
ENDMDL
MODEL 6
REMARK VINA RESULT:    -3.676      3.477      6.895
REMARK INTER + INTRA:          -5.891
REMARK INTER:                  -5.489
REMARK INTRA:                  -0.402
REMARK UNBOUND:                -0.495
REMARK SMILES O=C([O-])CCCCCCCC(=O)[O-]
REMARK SMILES IDX 7 1 6 2 5 3 4 4 2 5 1 6 3 7 8 8 9 9 10 10 11 11 12 12 13 13
REMARK H PARENT
REMARK Flexibility Score: inf
ROOT
ATOM      1  C   UNL     1      27.691  -2.839  44.084  1.00  0.00     0.000 C 
ENDROOT
BRANCH   1   2
ATOM      2  C   UNL     1      27.834  -4.045  43.142  1.00  0.00     0.000 C 
BRANCH   2   3
ATOM      3  C   UNL     1      27.018  -5.260  43.608  1.00  0.00     0.006 C 
BRANCH   3   4
ATOM      4  C   UNL     1      25.786  -4.819  44.406  1.00  0.00     0.053 C 
BRANCH   4   5
ATOM      5  C   UNL     1      25.814  -5.408  45.781  1.00  0.00     0.041 C 
ATOM      6  O   UNL     1      24.767  -5.890  46.285  1.00  0.00    -0.550 OA
ATOM      7  O   UNL     1      26.987  -5.381  46.525  1.00  0.00    -0.550 OA
ENDBRANCH   4   5
ENDBRANCH   3   4
ENDBRANCH   2   3
ENDBRANCH   1   2
BRANCH   1   8
ATOM      8  C   UNL     1      27.725  -1.496  43.336  1.00  0.00     0.000 C 
BRANCH   8   9
ATOM      9  C   UNL     1      26.321  -0.887  43.241  1.00  0.00     0.006 C 
BRANCH   9  10
ATOM     10  C   UNL     1      26.384   0.566  42.760  1.00  0.00     0.053 C 
BRANCH  10  11
ATOM     11  C   UNL     1      26.097   1.504  43.889  1.00  0.00     0.041 C 
ATOM     12  O   UNL     1      26.812   2.527  44.060  1.00  0.00    -0.550 OA
ATOM     13  O   UNL     1      25.010   1.277  44.723  1.00  0.00    -0.550 OA
ENDBRANCH  10  11
ENDBRANCH   9  10
ENDBRANCH   8   9
ENDBRANCH   1   8
TORSDOF 8
ENDMDL
MODEL 7
REMARK VINA RESULT:    -3.650      7.121      8.766
REMARK INTER + INTRA:          -5.852
REMARK INTER:                  -5.030
REMARK INTRA:                  -0.822
REMARK UNBOUND:                -0.495
REMARK SMILES O=C([O-])CCCCCCCC(=O)[O-]
REMARK SMILES IDX 7 1 6 2 5 3 4 4 2 5 1 6 3 7 8 8 9 9 10 10 11 11 12 12 13 13
REMARK H PARENT
REMARK Flexibility Score: inf
ROOT
ATOM      1  C   UNL     1      23.191  -6.308  34.744  1.00  0.00     0.000 C 
ENDROOT
BRANCH   1   2
ATOM      2  C   UNL     1      22.415  -5.610  35.871  1.00  0.00     0.000 C 
BRANCH   2   3
ATOM      3  C   UNL     1      22.192  -4.114  35.600  1.00  0.00     0.006 C 
BRANCH   3   4
ATOM      4  C   UNL     1      22.868  -3.256  36.673  1.00  0.00     0.053 C 
BRANCH   4   5
ATOM      5  C   UNL     1      24.031  -2.514  36.095  1.00  0.00     0.041 C 
ATOM      6  O   UNL     1      24.449  -2.790  34.941  1.00  0.00    -0.550 OA
ATOM      7  O   UNL     1      24.686  -1.550  36.852  1.00  0.00    -0.550 OA
ENDBRANCH   4   5
ENDBRANCH   3   4
ENDBRANCH   2   3
ENDBRANCH   1   2
BRANCH   1   8
ATOM      8  C   UNL     1      24.487  -6.969  35.238  1.00  0.00     0.000 C 
BRANCH   8   9
ATOM      9  C   UNL     1      25.691  -6.042  35.026  1.00  0.00     0.006 C 
BRANCH   9  10
ATOM     10  C   UNL     1      26.239  -5.539  36.365  1.00  0.00     0.053 C 
BRANCH  10  11
ATOM     11  C   UNL     1      27.416  -4.643  36.146  1.00  0.00     0.041 C 
ATOM     12  O   UNL     1      28.366  -5.015  35.406  1.00  0.00    -0.550 OA
ATOM     13  O   UNL     1      27.443  -3.377  36.716  1.00  0.00    -0.550 OA
ENDBRANCH  10  11
ENDBRANCH   9  10
ENDBRANCH   8   9
ENDBRANCH   1   8
TORSDOF 8
ENDMDL
MODEL 8
REMARK VINA RESULT:    -3.645      1.490      5.976
REMARK INTER + INTRA:          -5.844
REMARK INTER:                  -5.566
REMARK INTRA:                  -0.278
REMARK UNBOUND:                -0.495
REMARK SMILES O=C([O-])CCCCCCCC(=O)[O-]
REMARK SMILES IDX 7 1 6 2 5 3 4 4 2 5 1 6 3 7 8 8 9 9 10 10 11 11 12 12 13 13
REMARK H PARENT
REMARK Flexibility Score: inf
ROOT
ATOM      1  C   UNL     1      26.369   0.473  42.436  1.00  0.00     0.000 C 
ENDROOT
BRANCH   1   2
ATOM      2  C   UNL     1      26.726  -0.406  43.646  1.00  0.00     0.000 C 
BRANCH   2   3
ATOM      3  C   UNL     1      27.803  -1.452  43.321  1.00  0.00     0.006 C 
BRANCH   3   4
ATOM      4  C   UNL     1      27.469  -2.800  43.969  1.00  0.00     0.053 C 
BRANCH   4   5
ATOM      5  C   UNL     1      27.986  -2.849  45.371  1.00  0.00     0.041 C 
ATOM      6  O   UNL     1      28.966  -2.137  45.711  1.00  0.00    -0.550 OA
ATOM      7  O   UNL     1      27.416  -3.720  46.292  1.00  0.00    -0.550 OA
ENDBRANCH   4   5
ENDBRANCH   3   4
ENDBRANCH   2   3
ENDBRANCH   1   2
BRANCH   1   8
ATOM      8  C   UNL     1      25.869   1.868  42.844  1.00  0.00     0.000 C 
BRANCH   8   9
ATOM      9  C   UNL     1      26.050   2.871  41.698  1.00  0.00     0.006 C 
BRANCH   9  10
ATOM     10  C   UNL     1      24.969   2.686  40.630  1.00  0.00     0.053 C 
BRANCH  10  11
ATOM     11  C   UNL     1      25.586   2.330  39.315  1.00  0.00     0.041 C 
ATOM     12  O   UNL     1      24.887   2.329  38.267  1.00  0.00    -0.550 OA
ATOM     13  O   UNL     1      26.943   2.048  39.238  1.00  0.00    -0.550 OA
ENDBRANCH  10  11
ENDBRANCH   9  10
ENDBRANCH   8   9
ENDBRANCH   1   8
TORSDOF 8
ENDMDL
MODEL 9
REMARK VINA RESULT:    -3.629      6.823      8.489
REMARK INTER + INTRA:          -5.821
REMARK INTER:                  -5.071
REMARK INTRA:                  -0.750
REMARK UNBOUND:                -0.495
REMARK SMILES O=C([O-])CCCCCCCC(=O)[O-]
REMARK SMILES IDX 7 1 6 2 5 3 4 4 2 5 1 6 3 7 8 8 9 9 10 10 11 11 12 12 13 13
REMARK H PARENT
REMARK Flexibility Score: inf
ROOT
ATOM      1  C   UNL     1      23.036  -3.059  36.396  1.00  0.00     0.000 C 
ENDROOT
BRANCH   1   2
ATOM      2  C   UNL     1      22.195  -4.116  35.662  1.00  0.00     0.000 C 
BRANCH   2   3
ATOM      3  C   UNL     1      22.575  -5.552  36.054  1.00  0.00     0.006 C 
BRANCH   3   4
ATOM      4  C   UNL     1      23.341  -6.244  34.922  1.00  0.00     0.053 C 
BRANCH   4   5
ATOM      5  C   UNL     1      24.779  -6.419  35.294  1.00  0.00     0.041 C 
ATOM      6  O   UNL     1      25.661  -6.493  34.399  1.00  0.00    -0.550 OA
ATOM      7  O   UNL     1      25.141  -6.551  36.629  1.00  0.00    -0.550 OA
ENDBRANCH   4   5
ENDBRANCH   3   4
ENDBRANCH   2   3
ENDBRANCH   1   2
BRANCH   1   8
ATOM      8  C   UNL     1      24.318  -2.689  35.634  1.00  0.00     0.000 C 
BRANCH   8   9
ATOM      9  C   UNL     1      25.541  -2.747  36.558  1.00  0.00     0.006 C 
BRANCH   9  10
ATOM     10  C   UNL     1      26.764  -3.298  35.818  1.00  0.00     0.053 C 
BRANCH  10  11
ATOM     11  C   UNL     1      27.798  -3.767  36.791  1.00  0.00     0.041 C 
ATOM     12  O   UNL     1      28.306  -2.960  37.614  1.00  0.00    -0.550 OA
ATOM     13  O   UNL     1      28.164  -5.106  36.824  1.00  0.00    -0.550 OA
ENDBRANCH  10  11
ENDBRANCH   9  10
ENDBRANCH   8   9
ENDBRANCH   1   8
TORSDOF 8
ENDMDL
