MODEL 1
REMARK VINA RESULT:    -6.545      0.000      0.000
REMARK INTER + INTRA:         -11.667
REMARK INTER:                  -9.988
REMARK INTRA:                  -1.678
REMARK UNBOUND:                -1.678
REMARK SMILES CC(=O)CCC=C(C)CCC=C(C)CCC=C(C)C
REMARK SMILES IDX 10 1 11 2 12 3 13 4 14 5 15 6 16 7 18 8 17 9 19 10 9 11 7 12
REMARK SMILES IDX 6 13 8 14 5 15 4 16 2 17 3 18 1 19
REMARK H PARENT
REMARK Flexibility Score: inf
ROOT
ATOM      1  C   UNL     1       6.224  21.600   7.664  1.00  0.00     0.032 C 
ENDROOT
BRANCH   1   2
ATOM      2  C   UNL     1       5.126  22.420   7.029  1.00  0.00    -0.028 C 
ATOM      3  C   UNL     1       3.825  22.056   7.054  1.00  0.00    -0.077 C 
ATOM      4  C   UNL     1       3.376  20.789   7.742  1.00  0.00     0.039 C 
BRANCH   3   5
ATOM      5  C   UNL     1       2.795  22.939   6.379  1.00  0.00     0.034 C 
BRANCH   5   6
ATOM      6  C   UNL     1       3.410  24.244   5.856  1.00  0.00     0.032 C 
BRANCH   6   7
ATOM      7  C   UNL     1       3.328  25.353   6.879  1.00  0.00    -0.028 C 
ATOM      8  C   UNL     1       3.111  27.652   7.716  1.00  0.00     0.039 C 
ATOM      9  C   UNL     1       3.118  26.655   6.587  1.00  0.00    -0.080 C 
ATOM     10  C   UNL     1       2.872  27.129   5.174  1.00  0.00     0.039 C 
ENDBRANCH   6   7
ENDBRANCH   5   6
ENDBRANCH   3   5
ENDBRANCH   1   2
BRANCH   1  11
ATOM     11  C   UNL     1       7.131  20.926   6.622  1.00  0.00     0.034 C 
BRANCH  11  12
ATOM     12  C   UNL     1       6.525  19.644   6.074  1.00  0.00    -0.077 C 
ATOM     13  C   UNL     1       6.110  19.521   4.793  1.00  0.00    -0.028 C 
ATOM     14  C   UNL     1       6.397  18.447   6.981  1.00  0.00     0.039 C 
BRANCH  13  15
ATOM     15  C   UNL     1       6.254  20.606   3.748  1.00  0.00     0.035 C 
BRANCH  15  16
ATOM     16  C   UNL     1       4.895  21.098   3.232  1.00  0.00     0.079 C 
BRANCH  16  17
ATOM     17  C   UNL     1       4.874  21.232   1.732  1.00  0.00     0.130 C 
ATOM     18  O   UNL     1       4.973  22.338   1.219  1.00  0.00    -0.300 OA
ATOM     19  C   UNL     1       4.698  20.023   0.862  1.00  0.00     0.087 C 
ENDBRANCH  16  17
ENDBRANCH  15  16
ENDBRANCH  13  15
ENDBRANCH  11  12
ENDBRANCH   1  11
TORSDOF 9
ENDMDL
MODEL 2
REMARK VINA RESULT:    -6.237      1.578      2.222
REMARK INTER + INTRA:         -11.196
REMARK INTER:                  -9.128
REMARK INTRA:                  -2.068
REMARK UNBOUND:                -1.678
REMARK SMILES CC(=O)CCC=C(C)CCC=C(C)CCC=C(C)C
REMARK SMILES IDX 10 1 11 2 12 3 13 4 14 5 15 6 16 7 18 8 17 9 19 10 9 11 7 12
REMARK SMILES IDX 6 13 8 14 5 15 4 16 2 17 3 18 1 19
REMARK H PARENT
REMARK Flexibility Score: inf
ROOT
ATOM      1  C   UNL     1       6.204  21.730   7.572  1.00  0.00     0.032 C 
ENDROOT
BRANCH   1   2
ATOM      2  C   UNL     1       5.001  22.443   7.000  1.00  0.00    -0.028 C 
ATOM      3  C   UNL     1       3.746  21.951   7.079  1.00  0.00    -0.077 C 
ATOM      4  C   UNL     1       3.457  20.638   7.768  1.00  0.00     0.039 C 
BRANCH   3   5
ATOM      5  C   UNL     1       2.603  22.734   6.466  1.00  0.00     0.034 C 
BRANCH   5   6
ATOM      6  C   UNL     1       3.074  23.633   5.315  1.00  0.00     0.032 C 
BRANCH   6   7
ATOM      7  C   UNL     1       2.277  23.396   4.054  1.00  0.00    -0.028 C 
ATOM      8  C   UNL     1       1.379  23.872   1.817  1.00  0.00     0.039 C 
ATOM      9  C   UNL     1       2.267  24.221   2.984  1.00  0.00    -0.080 C 
ATOM     10  C   UNL     1       3.129  25.460   2.920  1.00  0.00     0.039 C 
ENDBRANCH   6   7
ENDBRANCH   5   6
ENDBRANCH   3   5
ENDBRANCH   1   2
BRANCH   1  11
ATOM     11  C   UNL     1       7.092  21.110   6.481  1.00  0.00     0.034 C 
BRANCH  11  12
ATOM     12  C   UNL     1       6.546  19.786   5.976  1.00  0.00    -0.077 C 
ATOM     13  C   UNL     1       6.155  19.596   4.695  1.00  0.00    -0.028 C 
ATOM     14  C   UNL     1       6.451  18.620   6.927  1.00  0.00     0.039 C 
BRANCH  13  15
ATOM     15  C   UNL     1       6.272  20.645   3.611  1.00  0.00     0.035 C 
BRANCH  15  16
ATOM     16  C   UNL     1       4.903  21.188   3.180  1.00  0.00     0.079 C 
BRANCH  16  17
ATOM     17  C   UNL     1       4.779  21.290   1.682  1.00  0.00     0.130 C 
ATOM     18  O   UNL     1       4.690  22.388   1.153  1.00  0.00    -0.300 OA
ATOM     19  C   UNL     1       4.731  20.053   0.836  1.00  0.00     0.087 C 
ENDBRANCH  16  17
ENDBRANCH  15  16
ENDBRANCH  13  15
ENDBRANCH  11  12
ENDBRANCH   1  11
TORSDOF 9
ENDMDL
MODEL 3
REMARK VINA RESULT:    -6.212      1.780      2.854
REMARK INTER + INTRA:         -11.158
REMARK INTER:                  -8.768
REMARK INTRA:                  -2.390
REMARK UNBOUND:                -1.678
REMARK SMILES CC(=O)CCC=C(C)CCC=C(C)CCC=C(C)C
REMARK SMILES IDX 10 1 11 2 12 3 13 4 14 5 15 6 16 7 18 8 17 9 19 10 9 11 7 12
REMARK SMILES IDX 6 13 8 14 5 15 4 16 2 17 3 18 1 19
REMARK H PARENT
REMARK Flexibility Score: inf
ROOT
ATOM      1  C   UNL     1       5.677  18.606   7.251  1.00  0.00     0.032 C 
ENDROOT
BRANCH   1   2
ATOM      2  C   UNL     1       4.360  18.746   6.524  1.00  0.00    -0.028 C 
ATOM      3  C   UNL     1       3.389  19.598   6.916  1.00  0.00    -0.077 C 
ATOM      4  C   UNL     1       3.565  20.491   8.122  1.00  0.00     0.039 C 
BRANCH   3   5
ATOM      5  C   UNL     1       2.096  19.661   6.130  1.00  0.00     0.034 C 
BRANCH   5   6
ATOM      6  C   UNL     1       1.444  21.049   6.207  1.00  0.00     0.032 C 
BRANCH   6   7
ATOM      7  C   UNL     1       1.767  21.889   4.994  1.00  0.00    -0.028 C 
ATOM      8  C   UNL     1       2.749  23.746   3.719  1.00  0.00     0.039 C 
ATOM      9  C   UNL     1       2.561  22.982   5.005  1.00  0.00    -0.080 C 
ATOM     10  C   UNL     1       3.274  23.441   6.255  1.00  0.00     0.039 C 
ENDBRANCH   6   7
ENDBRANCH   5   6
ENDBRANCH   3   5
ENDBRANCH   1   2
BRANCH   1  11
ATOM     11  C   UNL     1       6.849  19.217   6.466  1.00  0.00     0.034 C 
BRANCH  11  12
ATOM     12  C   UNL     1       6.706  20.720   6.294  1.00  0.00    -0.077 C 
ATOM     13  C   UNL     1       6.463  21.300   5.096  1.00  0.00    -0.028 C 
ATOM     14  C   UNL     1       6.816  21.611   7.505  1.00  0.00     0.039 C 
BRANCH  13  15
ATOM     15  C   UNL     1       6.244  20.530   3.813  1.00  0.00     0.035 C 
BRANCH  15  16
ATOM     16  C   UNL     1       4.844  20.765   3.229  1.00  0.00     0.079 C 
BRANCH  16  17
ATOM     17  C   UNL     1       4.884  21.020   1.745  1.00  0.00     0.130 C 
ATOM     18  O   UNL     1       4.978  22.165   1.328  1.00  0.00    -0.300 OA
ATOM     19  C   UNL     1       4.776  19.883   0.774  1.00  0.00     0.087 C 
ENDBRANCH  16  17
ENDBRANCH  15  16
ENDBRANCH  13  15
ENDBRANCH  11  12
ENDBRANCH   1  11
TORSDOF 9
ENDMDL
MODEL 4
REMARK VINA RESULT:    -6.054      2.000      4.894
REMARK INTER + INTRA:         -10.918
REMARK INTER:                  -9.348
REMARK INTRA:                  -1.570
REMARK UNBOUND:                -1.678
REMARK SMILES CC(=O)CCC=C(C)CCC=C(C)CCC=C(C)C
REMARK SMILES IDX 10 1 11 2 12 3 13 4 14 5 15 6 16 7 18 8 17 9 19 10 9 11 7 12
REMARK SMILES IDX 6 13 8 14 5 15 4 16 2 17 3 18 1 19
REMARK H PARENT
REMARK Flexibility Score: inf
ROOT
ATOM      1  C   UNL     1       5.739  20.349   2.970  1.00  0.00     0.032 C 
ENDROOT
BRANCH   1   2
ATOM      2  C   UNL     1       6.424  20.955   4.172  1.00  0.00    -0.028 C 
ATOM      3  C   UNL     1       6.578  20.299   5.342  1.00  0.00    -0.077 C 
ATOM      4  C   UNL     1       6.076  18.885   5.524  1.00  0.00     0.039 C 
BRANCH   3   5
ATOM      5  C   UNL     1       7.270  20.993   6.498  1.00  0.00     0.034 C 
BRANCH   5   6
ATOM      6  C   UNL     1       6.300  21.299   7.648  1.00  0.00     0.032 C 
BRANCH   6   7
ATOM      7  C   UNL     1       5.255  22.313   7.246  1.00  0.00    -0.028 C 
ATOM      8  C   UNL     1       3.023  23.154   6.657  1.00  0.00     0.039 C 
ATOM      9  C   UNL     1       3.937  22.047   7.114  1.00  0.00    -0.080 C 
ATOM     10  C   UNL     1       3.359  20.687   7.431  1.00  0.00     0.039 C 
ENDBRANCH   6   7
ENDBRANCH   5   6
ENDBRANCH   3   5
ENDBRANCH   1   2
BRANCH   1  11
ATOM     11  C   UNL     1       4.773  21.330   2.288  1.00  0.00     0.034 C 
BRANCH  11  12
ATOM     12  C   UNL     1       4.591  21.026   0.810  1.00  0.00    -0.077 C 
ATOM     13  C   UNL     1       4.454  21.994  -0.125  1.00  0.00    -0.028 C 
ATOM     14  C   UNL     1       4.583  19.590   0.352  1.00  0.00     0.039 C 
BRANCH  13  15
ATOM     15  C   UNL     1       4.528  23.475   0.174  1.00  0.00     0.035 C 
BRANCH  15  16
ATOM     16  C   UNL     1       3.151  24.071   0.495  1.00  0.00     0.079 C 
BRANCH  16  17
ATOM     17  C   UNL     1       3.174  24.908   1.748  1.00  0.00     0.130 C 
ATOM     18  O   UNL     1       3.551  26.069   1.696  1.00  0.00    -0.300 OA
ATOM     19  C   UNL     1       2.770  24.317   3.066  1.00  0.00     0.087 C 
ENDBRANCH  16  17
ENDBRANCH  15  16
ENDBRANCH  13  15
ENDBRANCH  11  12
ENDBRANCH   1  11
TORSDOF 9
ENDMDL
MODEL 5
REMARK VINA RESULT:    -5.728      2.179      5.387
REMARK INTER + INTRA:         -10.420
REMARK INTER:                  -8.253
REMARK INTRA:                  -2.167
REMARK UNBOUND:                -1.678
REMARK SMILES CC(=O)CCC=C(C)CCC=C(C)CCC=C(C)C
REMARK SMILES IDX 10 1 11 2 12 3 13 4 14 5 15 6 16 7 18 8 17 9 19 10 9 11 7 12
REMARK SMILES IDX 6 13 8 14 5 15 4 16 2 17 3 18 1 19
REMARK H PARENT
REMARK Flexibility Score: inf
ROOT
ATOM      1  C   UNL     1       5.071  18.801   6.915  1.00  0.00     0.032 C 
ENDROOT
BRANCH   1   2
ATOM      2  C   UNL     1       5.445  19.438   5.597  1.00  0.00    -0.028 C 
ATOM      3  C   UNL     1       6.297  20.482   5.498  1.00  0.00    -0.077 C 
ATOM      4  C   UNL     1       6.953  21.081   6.720  1.00  0.00     0.039 C 
BRANCH   3   5
ATOM      5  C   UNL     1       6.603  21.062   4.133  1.00  0.00     0.034 C 
BRANCH   5   6
ATOM      6  C   UNL     1       5.725  20.444   3.036  1.00  0.00     0.032 C 
BRANCH   6   7
ATOM      7  C   UNL     1       5.186  21.493   2.091  1.00  0.00    -0.028 C 
ATOM      8  C   UNL     1       4.227  22.397   0.018  1.00  0.00     0.039 C 
ATOM      9  C   UNL     1       4.681  21.236   0.865  1.00  0.00    -0.080 C 
ATOM     10  C   UNL     1       4.543  19.829   0.334  1.00  0.00     0.039 C 
ENDBRANCH   6   7
ENDBRANCH   5   6
ENDBRANCH   3   5
ENDBRANCH   1   2
BRANCH   1  11
ATOM     11  C   UNL     1       3.721  19.305   7.450  1.00  0.00     0.034 C 
BRANCH  11  12
ATOM     12  C   UNL     1       2.550  18.804   6.621  1.00  0.00    -0.077 C 
ATOM     13  C   UNL     1       1.662  19.636   6.030  1.00  0.00    -0.028 C 
ATOM     14  C   UNL     1       2.372  17.320   6.425  1.00  0.00     0.039 C 
BRANCH  13  15
ATOM     15  C   UNL     1       1.763  21.146   6.067  1.00  0.00     0.035 C 
BRANCH  15  16
ATOM     16  C   UNL     1       2.567  21.701   4.884  1.00  0.00     0.079 C 
BRANCH  16  17
ATOM     17  C   UNL     1       3.279  22.983   5.235  1.00  0.00     0.130 C 
ATOM     18  O   UNL     1       3.364  23.877   4.406  1.00  0.00    -0.300 OA
ATOM     19  C   UNL     1       3.914  23.156   6.582  1.00  0.00     0.087 C 
ENDBRANCH  16  17
ENDBRANCH  15  16
ENDBRANCH  13  15
ENDBRANCH  11  12
ENDBRANCH   1  11
TORSDOF 9
ENDMDL
MODEL 6
REMARK VINA RESULT:    -5.675      1.696      5.957
REMARK INTER + INTRA:         -10.340
REMARK INTER:                  -8.922
REMARK INTRA:                  -1.418
REMARK UNBOUND:                -1.678
REMARK SMILES CC(=O)CCC=C(C)CCC=C(C)CCC=C(C)C
REMARK SMILES IDX 10 1 11 2 12 3 13 4 14 5 15 6 16 7 18 8 17 9 19 10 9 11 7 12
REMARK SMILES IDX 6 13 8 14 5 15 4 16 2 17 3 18 1 19
REMARK H PARENT
REMARK Flexibility Score: inf
ROOT
ATOM      1  C   UNL     1       6.797  21.151   6.837  1.00  0.00     0.032 C 
ENDROOT
BRANCH   1   2
ATOM      2  C   UNL     1       6.579  21.062   5.345  1.00  0.00    -0.028 C 
ATOM      3  C   UNL     1       6.326  19.899   4.706  1.00  0.00    -0.077 C 
ATOM      4  C   UNL     1       6.232  18.592   5.457  1.00  0.00     0.039 C 
BRANCH   3   5
ATOM      5  C   UNL     1       6.131  19.906   3.203  1.00  0.00     0.034 C 
BRANCH   5   6
ATOM      6  C   UNL     1       5.367  21.150   2.728  1.00  0.00     0.032 C 
BRANCH   6   7
ATOM      7  C   UNL     1       3.956  20.814   2.307  1.00  0.00    -0.028 C 
ATOM      8  C   UNL     1       2.144  20.136   0.793  1.00  0.00     0.039 C 
ATOM      9  C   UNL     1       3.603  20.383   1.076  1.00  0.00    -0.080 C 
ATOM     10  C   UNL     1       4.625  20.124  -0.005  1.00  0.00     0.039 C 
ENDBRANCH   6   7
ENDBRANCH   5   6
ENDBRANCH   3   5
ENDBRANCH   1   2
BRANCH   1  11
ATOM     11  C   UNL     1       5.786  22.083   7.523  1.00  0.00     0.034 C 
BRANCH  11  12
ATOM     12  C   UNL     1       4.351  21.632   7.313  1.00  0.00    -0.077 C 
ATOM     13  C   UNL     1       3.413  22.419   6.736  1.00  0.00    -0.028 C 
ATOM     14  C   UNL     1       3.947  20.244   7.740  1.00  0.00     0.039 C 
BRANCH  13  15
ATOM     15  C   UNL     1       3.692  23.799   6.182  1.00  0.00     0.035 C 
BRANCH  15  16
ATOM     16  C   UNL     1       2.678  24.838   6.680  1.00  0.00     0.079 C 
BRANCH  16  17
ATOM     17  C   UNL     1       3.120  26.248   6.383  1.00  0.00     0.130 C 
ATOM     18  O   UNL     1       3.506  26.541   5.261  1.00  0.00    -0.300 OA
ATOM     19  C   UNL     1       3.123  27.288   7.464  1.00  0.00     0.087 C 
ENDBRANCH  16  17
ENDBRANCH  15  16
ENDBRANCH  13  15
ENDBRANCH  11  12
ENDBRANCH   1  11
TORSDOF 9
ENDMDL
MODEL 7
REMARK VINA RESULT:    -5.667      2.218      5.357
REMARK INTER + INTRA:         -10.327
REMARK INTER:                  -8.263
REMARK INTRA:                  -2.063
REMARK UNBOUND:                -1.678
REMARK SMILES CC(=O)CCC=C(C)CCC=C(C)CCC=C(C)C
REMARK SMILES IDX 10 1 11 2 12 3 13 4 14 5 15 6 16 7 18 8 17 9 19 10 9 11 7 12
REMARK SMILES IDX 6 13 8 14 5 15 4 16 2 17 3 18 1 19
REMARK H PARENT
REMARK Flexibility Score: inf
ROOT
ATOM      1  C   UNL     1       7.069  21.091   6.062  1.00  0.00     0.032 C 
ENDROOT
BRANCH   1   2
ATOM      2  C   UNL     1       6.369  21.499   4.787  1.00  0.00    -0.028 C 
ATOM      3  C   UNL     1       6.087  20.631   3.791  1.00  0.00    -0.077 C 
ATOM      4  C   UNL     1       6.449  19.168   3.896  1.00  0.00     0.039 C 
BRANCH   3   5
ATOM      5  C   UNL     1       5.391  21.134   2.543  1.00  0.00     0.034 C 
BRANCH   5   6
ATOM      6  C   UNL     1       3.977  21.652   2.843  1.00  0.00     0.032 C 
BRANCH   6   7
ATOM      7  C   UNL     1       2.924  20.611   2.548  1.00  0.00    -0.028 C 
ATOM      8  C   UNL     1       1.362  19.290   1.187  1.00  0.00     0.039 C 
ATOM      9  C   UNL     1       2.451  20.323   1.316  1.00  0.00    -0.080 C 
ATOM     10  C   UNL     1       2.995  20.990   0.073  1.00  0.00     0.039 C 
ENDBRANCH   6   7
ENDBRANCH   5   6
ENDBRANCH   3   5
ENDBRANCH   1   2
BRANCH   1  11
ATOM     11  C   UNL     1       6.128  21.099   7.277  1.00  0.00     0.034 C 
BRANCH  11  12
ATOM     12  C   UNL     1       5.400  19.777   7.451  1.00  0.00    -0.077 C 
ATOM     13  C   UNL     1       4.063  19.696   7.641  1.00  0.00    -0.028 C 
ATOM     14  C   UNL     1       6.187  18.493   7.391  1.00  0.00     0.039 C 
BRANCH  13  15
ATOM     15  C   UNL     1       3.135  20.891   7.638  1.00  0.00     0.035 C 
BRANCH  15  16
ATOM     16  C   UNL     1       2.631  21.229   6.228  1.00  0.00     0.079 C 
BRANCH  16  17
ATOM     17  C   UNL     1       2.454  22.713   6.030  1.00  0.00     0.130 C 
ATOM     18  O   UNL     1       1.397  23.146   5.596  1.00  0.00    -0.300 OA
ATOM     19  C   UNL     1       3.577  23.660   6.330  1.00  0.00     0.087 C 
ENDBRANCH  16  17
ENDBRANCH  15  16
ENDBRANCH  13  15
ENDBRANCH  11  12
ENDBRANCH   1  11
TORSDOF 9
ENDMDL
MODEL 8
REMARK VINA RESULT:    -5.638      2.708      5.240
REMARK INTER + INTRA:         -10.283
REMARK INTER:                  -8.495
REMARK INTRA:                  -1.788
REMARK UNBOUND:                -1.678
REMARK SMILES CC(=O)CCC=C(C)CCC=C(C)CCC=C(C)C
REMARK SMILES IDX 10 1 11 2 12 3 13 4 14 5 15 6 16 7 18 8 17 9 19 10 9 11 7 12
REMARK SMILES IDX 6 13 8 14 5 15 4 16 2 17 3 18 1 19
REMARK H PARENT
REMARK Flexibility Score: inf
ROOT
ATOM      1  C   UNL     1       6.542  21.412   7.057  1.00  0.00     0.032 C 
ENDROOT
BRANCH   1   2
ATOM      2  C   UNL     1       5.749  21.613   5.787  1.00  0.00    -0.028 C 
ATOM      3  C   UNL     1       4.602  22.324   5.739  1.00  0.00    -0.077 C 
ATOM      4  C   UNL     1       4.034  22.987   6.973  1.00  0.00     0.039 C 
BRANCH   3   5
ATOM      5  C   UNL     1       3.869  22.462   4.420  1.00  0.00     0.034 C 
BRANCH   5   6
ATOM      6  C   UNL     1       3.727  21.115   3.698  1.00  0.00     0.032 C 
BRANCH   6   7
ATOM      7  C   UNL     1       4.381  21.136   2.337  1.00  0.00    -0.028 C 
ATOM      8  C   UNL     1       4.623  20.698  -0.068  1.00  0.00     0.039 C 
ATOM      9  C   UNL     1       3.823  20.649   1.208  1.00  0.00    -0.080 C 
ATOM     10  C   UNL     1       2.423  20.081   1.187  1.00  0.00     0.039 C 
ENDBRANCH   6   7
ENDBRANCH   5   6
ENDBRANCH   3   5
ENDBRANCH   1   2
BRANCH   1  11
ATOM     11  C   UNL     1       6.177  20.104   7.777  1.00  0.00     0.034 C 
BRANCH  11  12
ATOM     12  C   UNL     1       5.744  19.015   6.809  1.00  0.00    -0.077 C 
ATOM     13  C   UNL     1       4.454  18.634   6.666  1.00  0.00    -0.028 C 
ATOM     14  C   UNL     1       6.783  18.338   5.953  1.00  0.00     0.039 C 
BRANCH  13  15
ATOM     15  C   UNL     1       3.295  19.281   7.392  1.00  0.00     0.035 C 
BRANCH  15  16
ATOM     16  C   UNL     1       2.064  19.444   6.490  1.00  0.00     0.079 C 
BRANCH  16  17
ATOM     17  C   UNL     1       1.444  18.117   6.133  1.00  0.00     0.130 C 
ATOM     18  O   UNL     1       1.114  17.891   4.978  1.00  0.00    -0.300 OA
ATOM     19  C   UNL     1       1.198  17.083   7.191  1.00  0.00     0.087 C 
ENDBRANCH  16  17
ENDBRANCH  15  16
ENDBRANCH  13  15
ENDBRANCH  11  12
ENDBRANCH   1  11
TORSDOF 9
ENDMDL
MODEL 9
REMARK VINA RESULT:    -5.626      2.715      5.126
REMARK INTER + INTRA:         -10.265
REMARK INTER:                  -8.232
REMARK INTRA:                  -2.033
REMARK UNBOUND:                -1.678
REMARK SMILES CC(=O)CCC=C(C)CCC=C(C)CCC=C(C)C
REMARK SMILES IDX 10 1 11 2 12 3 13 4 14 5 15 6 16 7 18 8 17 9 19 10 9 11 7 12
REMARK SMILES IDX 6 13 8 14 5 15 4 16 2 17 3 18 1 19
REMARK H PARENT
REMARK Flexibility Score: inf
ROOT
ATOM      1  C   UNL     1       2.732  21.693   7.293  1.00  0.00     0.032 C 
ENDROOT
BRANCH   1   2
ATOM      2  C   UNL     1       3.384  22.256   6.052  1.00  0.00    -0.028 C 
ATOM      3  C   UNL     1       2.704  22.508   4.913  1.00  0.00    -0.077 C 
ATOM      4  C   UNL     1       1.218  22.252   4.809  1.00  0.00     0.039 C 
BRANCH   3   5
ATOM      5  C   UNL     1       3.445  23.063   3.714  1.00  0.00     0.034 C 
BRANCH   5   6
ATOM      6  C   UNL     1       2.870  22.539   2.390  1.00  0.00     0.032 C 
BRANCH   6   7
ATOM      7  C   UNL     1       3.528  21.248   1.964  1.00  0.00    -0.028 C 
ATOM      8  C   UNL     1       4.827  19.731   0.533  1.00  0.00     0.039 C 
ATOM      9  C   UNL     1       4.276  21.098   0.849  1.00  0.00    -0.080 C 
ATOM     10  C   UNL     1       4.589  22.257  -0.068  1.00  0.00     0.039 C 
ENDBRANCH   6   7
ENDBRANCH   5   6
ENDBRANCH   3   5
ENDBRANCH   1   2
BRANCH   1  11
ATOM     11  C   UNL     1       3.500  20.492   7.867  1.00  0.00     0.034 C 
BRANCH  11  12
ATOM     12  C   UNL     1       3.435  19.278   6.955  1.00  0.00    -0.077 C 
ATOM     13  C   UNL     1       4.502  18.479   6.723  1.00  0.00    -0.028 C 
ATOM     14  C   UNL     1       2.128  18.927   6.292  1.00  0.00     0.039 C 
BRANCH  13  15
ATOM     15  C   UNL     1       5.851  18.656   7.385  1.00  0.00     0.035 C 
BRANCH  15  16
ATOM     16  C   UNL     1       6.929  19.106   6.390  1.00  0.00     0.079 C 
BRANCH  16  17
ATOM     17  C   UNL     1       6.738  20.537   5.957  1.00  0.00     0.130 C 
ATOM     18  O   UNL     1       6.794  21.435   6.784  1.00  0.00    -0.300 OA
ATOM     19  C   UNL     1       6.447  20.866   4.523  1.00  0.00     0.087 C 
ENDBRANCH  16  17
ENDBRANCH  15  16
ENDBRANCH  13  15
ENDBRANCH  11  12
ENDBRANCH   1  11
TORSDOF 9
ENDMDL
