MODEL 1
REMARK VINA RESULT:    -3.676      0.000      0.000
REMARK INTER + INTRA:          -4.348
REMARK INTER:                  -4.321
REMARK INTRA:                  -0.028
REMARK UNBOUND:                -0.028
REMARK SMILES O=C([O-])CCC(=O)[O-]
REMARK SMILES IDX 4 1 2 2 1 3 3 4 5 5 6 6 7 7 8 8
REMARK H PARENT
REMARK Flexibility Score: inf
ROOT
ATOM      1  C   UNL     1     -17.710  35.012 -21.406  1.00  0.00     0.059 C 
ENDROOT
BRANCH   1   2
ATOM      2  C   UNL     1     -16.697  35.652 -20.510  1.00  0.00     0.042 C 
ATOM      3  O   UNL     1     -17.068  36.357 -19.536  1.00  0.00    -0.550 OA
ATOM      4  O   UNL     1     -15.341  35.509 -20.780  1.00  0.00    -0.550 OA
ENDBRANCH   1   2
BRANCH   1   5
ATOM      5  C   UNL     1     -18.093  35.960 -22.543  1.00  0.00     0.059 C 
BRANCH   5   6
ATOM      6  C   UNL     1     -19.328  35.476 -23.234  1.00  0.00     0.042 C 
ATOM      7  O   UNL     1     -19.328  34.368 -23.833  1.00  0.00    -0.550 OA
ATOM      8  O   UNL     1     -20.497  36.226 -23.175  1.00  0.00    -0.550 OA
ENDBRANCH   5   6
ENDBRANCH   1   5
TORSDOF 3
ENDMDL
MODEL 2
REMARK VINA RESULT:    -3.648      0.130      4.264
REMARK INTER + INTRA:          -4.316
REMARK INTER:                  -4.289
REMARK INTRA:                  -0.027
REMARK UNBOUND:                -0.028
REMARK SMILES O=C([O-])CCC(=O)[O-]
REMARK SMILES IDX 4 1 2 2 1 3 3 4 5 5 6 6 7 7 8 8
REMARK H PARENT
REMARK Flexibility Score: inf
ROOT
ATOM      1  C   UNL     1     -18.171  35.996 -22.606  1.00  0.00     0.059 C 
ENDROOT
BRANCH   1   2
ATOM      2  C   UNL     1     -19.388  35.479 -23.307  1.00  0.00     0.042 C 
ATOM      3  O   UNL     1     -20.471  36.118 -23.252  1.00  0.00    -0.550 OA
ATOM      4  O   UNL     1     -19.338  34.265 -23.982  1.00  0.00    -0.550 OA
ENDBRANCH   1   2
BRANCH   1   5
ATOM      5  C   UNL     1     -17.714  35.009 -21.532  1.00  0.00     0.059 C 
BRANCH   5   6
ATOM      6  C   UNL     1     -16.702  35.646 -20.632  1.00  0.00     0.042 C 
ATOM      7  O   UNL     1     -17.070  36.251 -19.591  1.00  0.00    -0.550 OA
ATOM      8  O   UNL     1     -15.347  35.529 -20.917  1.00  0.00    -0.550 OA
ENDBRANCH   5   6
ENDBRANCH   1   5
TORSDOF 3
ENDMDL
MODEL 3
REMARK VINA RESULT:    -3.626      1.510      4.038
REMARK INTER + INTRA:          -4.289
REMARK INTER:                  -4.173
REMARK INTRA:                  -0.116
REMARK UNBOUND:                -0.028
REMARK SMILES O=C([O-])CCC(=O)[O-]
REMARK SMILES IDX 4 1 2 2 1 3 3 4 5 5 6 6 7 7 8 8
REMARK H PARENT
REMARK Flexibility Score: inf
ROOT
ATOM      1  C   UNL     1     -18.361  34.491 -22.068  1.00  0.00     0.059 C 
ENDROOT
BRANCH   1   2
ATOM      2  C   UNL     1     -17.939  33.902 -23.377  1.00  0.00     0.042 C 
ATOM      3  O   UNL     1     -18.794  33.402 -24.153  1.00  0.00    -0.550 OA
ATOM      4  O   UNL     1     -16.592  33.862 -23.719  1.00  0.00    -0.550 OA
ENDBRANCH   1   2
BRANCH   1   5
ATOM      5  C   UNL     1     -17.724  35.866 -21.869  1.00  0.00     0.059 C 
BRANCH   5   6
ATOM      6  C   UNL     1     -16.737  35.828 -20.745  1.00  0.00     0.042 C 
ATOM      7  O   UNL     1     -17.122  35.987 -19.557  1.00  0.00    -0.550 OA
ATOM      8  O   UNL     1     -15.397  35.566 -21.005  1.00  0.00    -0.550 OA
ENDBRANCH   5   6
ENDBRANCH   1   5
TORSDOF 3
ENDMDL
MODEL 4
REMARK VINA RESULT:    -3.623      0.122      4.264
REMARK INTER + INTRA:          -4.286
REMARK INTER:                  -4.258
REMARK INTRA:                  -0.028
REMARK UNBOUND:                -0.028
REMARK SMILES O=C([O-])CCC(=O)[O-]
REMARK SMILES IDX 4 1 2 2 1 3 3 4 5 5 6 6 7 7 8 8
REMARK H PARENT
REMARK Flexibility Score: inf
ROOT
ATOM      1  C   UNL     1     -18.200  36.000 -22.532  1.00  0.00     0.059 C 
ENDROOT
BRANCH   1   2
ATOM      2  C   UNL     1     -19.386  35.421 -23.237  1.00  0.00     0.042 C 
ATOM      3  O   UNL     1     -19.305  34.296 -23.796  1.00  0.00    -0.550 OA
ATOM      4  O   UNL     1     -20.569  36.147 -23.318  1.00  0.00    -0.550 OA
ENDBRANCH   1   2
BRANCH   1   5
ATOM      5  C   UNL     1     -17.633  34.997 -21.527  1.00  0.00     0.059 C 
BRANCH   5   6
ATOM      6  C   UNL     1     -16.634  35.660 -20.632  1.00  0.00     0.042 C 
ATOM      7  O   UNL     1     -15.402  35.559 -20.870  1.00  0.00    -0.550 OA
ATOM      8  O   UNL     1     -17.067  36.434 -19.562  1.00  0.00    -0.550 OA
ENDBRANCH   5   6
ENDBRANCH   1   5
TORSDOF 3
ENDMDL
MODEL 5
REMARK VINA RESULT:    -3.622      0.797      1.392
REMARK INTER + INTRA:          -4.285
REMARK INTER:                  -4.243
REMARK INTRA:                  -0.041
REMARK UNBOUND:                -0.028
REMARK SMILES O=C([O-])CCC(=O)[O-]
REMARK SMILES IDX 4 1 2 2 1 3 3 4 5 5 6 6 7 7 8 8
REMARK H PARENT
REMARK Flexibility Score: inf
ROOT
ATOM      1  C   UNL     1     -17.748  34.867 -21.438  1.00  0.00     0.059 C 
ENDROOT
BRANCH   1   2
ATOM      2  C   UNL     1     -16.710  35.640 -20.688  1.00  0.00     0.042 C 
ATOM      3  O   UNL     1     -15.501  35.577 -21.032  1.00  0.00    -0.550 OA
ATOM      4  O   UNL     1     -17.072  36.394 -19.578  1.00  0.00    -0.550 OA
ENDBRANCH   1   2
BRANCH   1   5
ATOM      5  C   UNL     1     -18.346  35.719 -22.558  1.00  0.00     0.059 C 
BRANCH   5   6
ATOM      6  C   UNL     1     -18.884  34.848 -23.648  1.00  0.00     0.042 C 
ATOM      7  O   UNL     1     -18.397  33.703 -23.844  1.00  0.00    -0.550 OA
ATOM      8  O   UNL     1     -19.957  35.280 -24.418  1.00  0.00    -0.550 OA
ENDBRANCH   5   6
ENDBRANCH   1   5
TORSDOF 3
ENDMDL
MODEL 6
REMARK VINA RESULT:    -3.612      1.530      1.859
REMARK INTER + INTRA:          -4.273
REMARK INTER:                  -4.155
REMARK INTRA:                  -0.118
REMARK UNBOUND:                -0.028
REMARK SMILES O=C([O-])CCC(=O)[O-]
REMARK SMILES IDX 4 1 2 2 1 3 3 4 5 5 6 6 7 7 8 8
REMARK H PARENT
REMARK Flexibility Score: inf
ROOT
ATOM      1  C   UNL     1     -17.737  35.825 -21.826  1.00  0.00     0.059 C 
ENDROOT
BRANCH   1   2
ATOM      2  C   UNL     1     -16.735  35.882 -20.717  1.00  0.00     0.042 C 
ATOM      3  O   UNL     1     -17.069  36.305 -19.580  1.00  0.00    -0.550 OA
ATOM      4  O   UNL     1     -15.415  35.514 -20.953  1.00  0.00    -0.550 OA
ENDBRANCH   1   2
BRANCH   1   5
ATOM      5  C   UNL     1     -18.266  34.401 -21.996  1.00  0.00     0.059 C 
BRANCH   5   6
ATOM      6  C   UNL     1     -17.891  33.860 -23.339  1.00  0.00     0.042 C 
ATOM      7  O   UNL     1     -16.684  33.821 -23.693  1.00  0.00    -0.550 OA
ATOM      8  O   UNL     1     -18.873  33.351 -24.182  1.00  0.00    -0.550 OA
ENDBRANCH   5   6
ENDBRANCH   1   5
TORSDOF 3
ENDMDL
MODEL 7
REMARK VINA RESULT:    -3.553      2.094      2.574
REMARK INTER + INTRA:          -4.203
REMARK INTER:                  -4.019
REMARK INTRA:                  -0.184
REMARK UNBOUND:                -0.028
REMARK SMILES O=C([O-])CCC(=O)[O-]
REMARK SMILES IDX 4 1 2 2 1 3 3 4 5 5 6 6 7 7 8 8
REMARK H PARENT
REMARK Flexibility Score: inf
ROOT
ATOM      1  C   UNL     1     -18.124  35.863 -22.260  1.00  0.00     0.059 C 
ENDROOT
BRANCH   1   2
ATOM      2  C   UNL     1     -16.799  36.118 -21.614  1.00  0.00     0.042 C 
ATOM      3  O   UNL     1     -15.795  36.405 -22.317  1.00  0.00    -0.550 OA
ATOM      4  O   UNL     1     -16.662  35.992 -20.237  1.00  0.00    -0.550 OA
ENDBRANCH   1   2
BRANCH   1   5
ATOM      5  C   UNL     1     -18.043  34.649 -23.187  1.00  0.00     0.059 C 
BRANCH   5   6
ATOM      6  C   UNL     1     -17.696  33.419 -22.409  1.00  0.00     0.042 C 
ATOM      7  O   UNL     1     -16.680  32.741 -22.714  1.00  0.00    -0.550 OA
ATOM      8  O   UNL     1     -18.466  33.049 -21.313  1.00  0.00    -0.550 OA
ENDBRANCH   5   6
ENDBRANCH   1   5
TORSDOF 3
ENDMDL
MODEL 8
REMARK VINA RESULT:    -3.547      2.068      3.577
REMARK INTER + INTRA:          -4.196
REMARK INTER:                  -4.034
REMARK INTRA:                  -0.162
REMARK UNBOUND:                -0.028
REMARK SMILES O=C([O-])CCC(=O)[O-]
REMARK SMILES IDX 4 1 2 2 1 3 3 4 5 5 6 6 7 7 8 8
REMARK H PARENT
REMARK Flexibility Score: inf
ROOT
ATOM      1  C   UNL     1     -18.075  34.784 -23.034  1.00  0.00     0.059 C 
ENDROOT
BRANCH   1   2
ATOM      2  C   UNL     1     -17.820  33.497 -22.316  1.00  0.00     0.042 C 
ATOM      3  O   UNL     1     -18.486  33.199 -21.291  1.00  0.00    -0.550 OA
ATOM      4  O   UNL     1     -16.811  32.646 -22.753  1.00  0.00    -0.550 OA
ENDBRANCH   1   2
BRANCH   1   5
ATOM      5  C   UNL     1     -17.753  35.974 -22.129  1.00  0.00     0.059 C 
BRANCH   5   6
ATOM      6  C   UNL     1     -16.298  35.989 -21.782  1.00  0.00     0.042 C 
ATOM      7  O   UNL     1     -15.446  36.351 -22.636  1.00  0.00    -0.550 OA
ATOM      8  O   UNL     1     -15.885  35.652 -20.498  1.00  0.00    -0.550 OA
ENDBRANCH   5   6
ENDBRANCH   1   5
TORSDOF 3
ENDMDL
MODEL 9
REMARK VINA RESULT:    -3.515      2.068      3.451
REMARK INTER + INTRA:          -4.159
REMARK INTER:                  -3.995
REMARK INTRA:                  -0.164
REMARK UNBOUND:                -0.028
REMARK SMILES O=C([O-])CCC(=O)[O-]
REMARK SMILES IDX 4 1 2 2 1 3 3 4 5 5 6 6 7 7 8 8
REMARK H PARENT
REMARK Flexibility Score: inf
ROOT
ATOM      1  C   UNL     1     -18.427  33.403 -21.713  1.00  0.00     0.059 C 
ENDROOT
BRANCH   1   2
ATOM      2  C   UNL     1     -17.689  32.888 -22.909  1.00  0.00     0.042 C 
ATOM      3  O   UNL     1     -16.540  32.391 -22.781  1.00  0.00    -0.550 OA
ATOM      4  O   UNL     1     -18.253  33.002 -24.175  1.00  0.00    -0.550 OA
ENDBRANCH   1   2
BRANCH   1   5
ATOM      5  C   UNL     1     -17.687  34.591 -21.099  1.00  0.00     0.059 C 
BRANCH   5   6
ATOM      6  C   UNL     1     -17.706  35.760 -22.033  1.00  0.00     0.042 C 
ATOM      7  O   UNL     1     -16.649  36.400 -22.271  1.00  0.00    -0.550 OA
ATOM      8  O   UNL     1     -18.884  36.112 -22.682  1.00  0.00    -0.550 OA
ENDBRANCH   5   6
ENDBRANCH   1   5
TORSDOF 3
ENDMDL
