MODEL 1
REMARK VINA RESULT:    -7.732      0.000      0.000
REMARK INTER + INTRA:         -14.447
REMARK INTER:                 -13.608
REMARK INTRA:                  -0.839
REMARK UNBOUND:                -0.839
REMARK SMILES CCCCCCCCCCCCCCC(=O)[O-]
REMARK SMILES IDX 9 1 10 2 11 3 12 4 13 5 14 6 15 7 16 8 17 9 8 10 7 11 6 12
REMARK SMILES IDX 5 13 4 14 3 15 2 16 1 17
REMARK H PARENT
REMARK Flexibility Score: inf
ROOT
ATOM      1  C   UNL     1       6.557  -2.453  20.438  1.00  0.00     0.000 C 
ENDROOT
BRANCH   1   2
ATOM      2  C   UNL     1       7.528  -3.644  20.360  1.00  0.00     0.000 C 
BRANCH   2   3
ATOM      3  C   UNL     1       6.827  -4.969  20.005  1.00  0.00     0.000 C 
BRANCH   3   4
ATOM      4  C   UNL     1       6.499  -5.873  21.208  1.00  0.00     0.000 C 
BRANCH   4   5
ATOM      5  C   UNL     1       7.685  -6.755  21.636  1.00  0.00     0.006 C 
BRANCH   5   6
ATOM      6  C   UNL     1       7.437  -8.239  21.340  1.00  0.00     0.053 C 
BRANCH   6   7
ATOM      7  C   UNL     1       6.962  -8.976  22.554  1.00  0.00     0.041 C 
ATOM      8  O   UNL     1       7.247  -8.552  23.705  1.00  0.00    -0.550 OA
ATOM      9  O   UNL     1       6.173 -10.112  22.416  1.00  0.00    -0.550 OA
ENDBRANCH   6   7
ENDBRANCH   5   6
ENDBRANCH   4   5
ENDBRANCH   3   4
ENDBRANCH   2   3
ENDBRANCH   1   2
BRANCH   1  10
ATOM     10  C   UNL     1       6.106  -2.155  21.884  1.00  0.00     0.000 C 
BRANCH  10  11
ATOM     11  C   UNL     1       4.714  -2.718  22.223  1.00  0.00    -0.000 C 
BRANCH  11  12
ATOM     12  C   UNL     1       3.534  -1.865  21.722  1.00  0.00    -0.000 C 
BRANCH  12  13
ATOM     13  C   UNL     1       3.007  -2.234  20.320  1.00  0.00    -0.000 C 
BRANCH  13  14
ATOM     14  C   UNL     1       3.103  -1.117  19.265  1.00  0.00    -0.000 C 
BRANCH  14  15
ATOM     15  C   UNL     1       1.786  -0.342  19.091  1.00  0.00    -0.000 C 
BRANCH  15  16
ATOM     16  C   UNL     1       2.015   1.127  18.705  1.00  0.00    -0.003 C 
ATOM     17  C   UNL     1       1.276   1.527  17.428  1.00  0.00     0.004 C 
ENDBRANCH  15  16
ENDBRANCH  14  15
ENDBRANCH  13  14
ENDBRANCH  12  13
ENDBRANCH  11  12
ENDBRANCH  10  11
ENDBRANCH   1  10
TORSDOF 13
ENDMDL
MODEL 2
REMARK VINA RESULT:    -7.595      3.854      8.116
REMARK INTER + INTRA:         -14.207
REMARK INTER:                 -13.108
REMARK INTRA:                  -1.099
REMARK UNBOUND:                -0.839
REMARK SMILES CCCCCCCCCCCCCCC(=O)[O-]
REMARK SMILES IDX 9 1 10 2 11 3 12 4 13 5 14 6 15 7 16 8 17 9 8 10 7 11 6 12
REMARK SMILES IDX 5 13 4 14 3 15 2 16 1 17
REMARK H PARENT
REMARK Flexibility Score: inf
ROOT
ATOM      1  C   UNL     1       6.559  -2.195  20.523  1.00  0.00     0.000 C 
ENDROOT
BRANCH   1   2
ATOM      2  C   UNL     1       5.771  -1.820  21.790  1.00  0.00     0.000 C 
BRANCH   2   3
ATOM      3  C   UNL     1       4.461  -2.615  21.941  1.00  0.00     0.000 C 
BRANCH   3   4
ATOM      4  C   UNL     1       3.180  -1.826  21.615  1.00  0.00     0.000 C 
BRANCH   4   5
ATOM      5  C   UNL     1       2.771  -1.931  20.136  1.00  0.00     0.006 C 
BRANCH   5   6
ATOM      6  C   UNL     1       2.259  -0.595  19.581  1.00  0.00     0.053 C 
BRANCH   6   7
ATOM      7  C   UNL     1       3.283   0.076  18.718  1.00  0.00     0.041 C 
ATOM      8  O   UNL     1       2.981   0.457  17.557  1.00  0.00    -0.550 OA
ATOM      9  O   UNL     1       4.561   0.314  19.210  1.00  0.00    -0.550 OA
ENDBRANCH   6   7
ENDBRANCH   5   6
ENDBRANCH   4   5
ENDBRANCH   3   4
ENDBRANCH   2   3
ENDBRANCH   1   2
BRANCH   1  10
ATOM     10  C   UNL     1       5.928  -3.385  19.769  1.00  0.00     0.000 C 
BRANCH  10  11
ATOM     11  C   UNL     1       6.835  -4.627  19.708  1.00  0.00    -0.000 C 
BRANCH  11  12
ATOM     12  C   UNL     1       7.997  -4.627  20.720  1.00  0.00    -0.000 C 
BRANCH  12  13
ATOM     13  C   UNL     1       8.103  -5.893  21.596  1.00  0.00    -0.000 C 
BRANCH  13  14
ATOM     14  C   UNL     1       6.923  -6.875  21.480  1.00  0.00    -0.000 C 
BRANCH  14  15
ATOM     15  C   UNL     1       7.366  -8.308  21.142  1.00  0.00    -0.000 C 
BRANCH  15  16
ATOM     16  C   UNL     1       6.900  -9.330  22.191  1.00  0.00    -0.003 C 
ATOM     17  C   UNL     1       6.861  -8.751  23.605  1.00  0.00     0.004 C 
ENDBRANCH  15  16
ENDBRANCH  14  15
ENDBRANCH  13  14
ENDBRANCH  12  13
ENDBRANCH  11  12
ENDBRANCH  10  11
ENDBRANCH   1  10
TORSDOF 13
ENDMDL
MODEL 3
REMARK VINA RESULT:    -7.581      4.564      8.492
REMARK INTER + INTRA:         -14.182
REMARK INTER:                 -13.131
REMARK INTRA:                  -1.051
REMARK UNBOUND:                -0.839
REMARK SMILES CCCCCCCCCCCCCCC(=O)[O-]
REMARK SMILES IDX 9 1 10 2 11 3 12 4 13 5 14 6 15 7 16 8 17 9 8 10 7 11 6 12
REMARK SMILES IDX 5 13 4 14 3 15 2 16 1 17
REMARK H PARENT
REMARK Flexibility Score: inf
ROOT
ATOM      1  C   UNL     1       6.052  -1.070  20.416  1.00  0.00     0.000 C 
ENDROOT
BRANCH   1   2
ATOM      2  C   UNL     1       4.720  -0.839  19.682  1.00  0.00     0.000 C 
BRANCH   2   3
ATOM      3  C   UNL     1       3.825  -2.091  19.650  1.00  0.00     0.000 C 
BRANCH   3   4
ATOM      4  C   UNL     1       2.320  -1.810  19.482  1.00  0.00     0.000 C 
BRANCH   4   5
ATOM      5  C   UNL     1       1.980  -0.311  19.545  1.00  0.00     0.006 C 
BRANCH   5   6
ATOM      6  C   UNL     1       1.051   0.119  18.402  1.00  0.00     0.053 C 
BRANCH   6   7
ATOM      7  C   UNL     1       1.746   1.023  17.431  1.00  0.00     0.041 C 
ATOM      8  O   UNL     1       1.249   2.143  17.141  1.00  0.00    -0.550 OA
ATOM      9  O   UNL     1       2.961   0.644  16.875  1.00  0.00    -0.550 OA
ENDBRANCH   6   7
ENDBRANCH   5   6
ENDBRANCH   4   5
ENDBRANCH   3   4
ENDBRANCH   2   3
ENDBRANCH   1   2
BRANCH   1  10
ATOM     10  C   UNL     1       5.853  -1.685  21.818  1.00  0.00     0.000 C 
BRANCH  10  11
ATOM     11  C   UNL     1       6.538  -3.053  21.994  1.00  0.00    -0.000 C 
BRANCH  11  12
ATOM     12  C   UNL     1       7.248  -3.585  20.735  1.00  0.00    -0.000 C 
BRANCH  12  13
ATOM     13  C   UNL     1       6.664  -4.890  20.156  1.00  0.00    -0.000 C 
BRANCH  13  14
ATOM     14  C   UNL     1       6.460  -6.029  21.172  1.00  0.00    -0.000 C 
BRANCH  14  15
ATOM     15  C   UNL     1       7.736  -6.855  21.411  1.00  0.00    -0.000 C 
BRANCH  15  16
ATOM     16  C   UNL     1       7.480  -8.367  21.328  1.00  0.00    -0.003 C 
ATOM     17  C   UNL     1       6.540  -8.870  22.423  1.00  0.00     0.004 C 
ENDBRANCH  15  16
ENDBRANCH  14  15
ENDBRANCH  13  14
ENDBRANCH  12  13
ENDBRANCH  11  12
ENDBRANCH  10  11
ENDBRANCH   1  10
TORSDOF 13
ENDMDL
MODEL 4
REMARK VINA RESULT:    -7.412      3.082      7.623
REMARK INTER + INTRA:         -13.884
REMARK INTER:                 -12.816
REMARK INTRA:                  -1.068
REMARK UNBOUND:                -0.839
REMARK SMILES CCCCCCCCCCCCCCC(=O)[O-]
REMARK SMILES IDX 9 1 10 2 11 3 12 4 13 5 14 6 15 7 16 8 17 9 8 10 7 11 6 12
REMARK SMILES IDX 5 13 4 14 3 15 2 16 1 17
REMARK H PARENT
REMARK Flexibility Score: inf
ROOT
ATOM      1  C   UNL     1       6.509  -1.844  20.673  1.00  0.00     0.000 C 
ENDROOT
BRANCH   1   2
ATOM      2  C   UNL     1       6.117  -0.388  20.973  1.00  0.00     0.000 C 
BRANCH   2   3
ATOM      3  C   UNL     1       5.763   0.414  19.707  1.00  0.00     0.000 C 
BRANCH   3   4
ATOM      4  C   UNL     1       4.645  -0.197  18.842  1.00  0.00     0.000 C 
BRANCH   4   5
ATOM      5  C   UNL     1       3.250   0.347  19.195  1.00  0.00     0.006 C 
BRANCH   5   6
ATOM      6  C   UNL     1       2.223  -0.776  19.387  1.00  0.00     0.053 C 
BRANCH   6   7
ATOM      7  C   UNL     1       2.796  -1.928  20.155  1.00  0.00     0.041 C 
ATOM      8  O   UNL     1       3.175  -2.965  19.550  1.00  0.00    -0.550 OA
ATOM      9  O   UNL     1       2.945  -1.841  21.533  1.00  0.00    -0.550 OA
ENDBRANCH   6   7
ENDBRANCH   5   6
ENDBRANCH   4   5
ENDBRANCH   3   4
ENDBRANCH   2   3
ENDBRANCH   1   2
BRANCH   1  10
ATOM     10  C   UNL     1       6.279  -2.778  21.881  1.00  0.00     0.000 C 
BRANCH  10  11
ATOM     11  C   UNL     1       5.651  -4.132  21.503  1.00  0.00    -0.000 C 
BRANCH  11  12
ATOM     12  C   UNL     1       6.527  -5.017  20.596  1.00  0.00    -0.000 C 
BRANCH  12  13
ATOM     13  C   UNL     1       7.921  -5.358  21.161  1.00  0.00    -0.000 C 
BRANCH  13  14
ATOM     14  C   UNL     1       8.025  -6.713  21.884  1.00  0.00    -0.000 C 
BRANCH  14  15
ATOM     15  C   UNL     1       7.289  -7.844  21.145  1.00  0.00    -0.000 C 
BRANCH  15  16
ATOM     16  C   UNL     1       6.926  -9.013  22.074  1.00  0.00    -0.003 C 
ATOM     17  C   UNL     1       6.948  -8.625  23.552  1.00  0.00     0.004 C 
ENDBRANCH  15  16
ENDBRANCH  14  15
ENDBRANCH  13  14
ENDBRANCH  12  13
ENDBRANCH  11  12
ENDBRANCH  10  11
ENDBRANCH   1  10
TORSDOF 13
ENDMDL
MODEL 5
REMARK VINA RESULT:    -7.321      0.898      1.396
REMARK INTER + INTRA:         -13.724
REMARK INTER:                 -13.124
REMARK INTRA:                  -0.600
REMARK UNBOUND:                -0.839
REMARK SMILES CCCCCCCCCCCCCCC(=O)[O-]
REMARK SMILES IDX 9 1 10 2 11 3 12 4 13 5 14 6 15 7 16 8 17 9 8 10 7 11 6 12
REMARK SMILES IDX 5 13 4 14 3 15 2 16 1 17
REMARK H PARENT
REMARK Flexibility Score: inf
ROOT
ATOM      1  C   UNL     1       6.477  -1.968  20.994  1.00  0.00     0.000 C 
ENDROOT
BRANCH   1   2
ATOM      2  C   UNL     1       6.874  -3.345  21.550  1.00  0.00     0.000 C 
BRANCH   2   3
ATOM      3  C   UNL     1       7.575  -4.236  20.506  1.00  0.00     0.000 C 
BRANCH   3   4
ATOM      4  C   UNL     1       6.938  -5.623  20.304  1.00  0.00     0.000 C 
BRANCH   4   5
ATOM      5  C   UNL     1       6.953  -6.482  21.580  1.00  0.00     0.006 C 
BRANCH   5   6
ATOM      6  C   UNL     1       7.254  -7.957  21.281  1.00  0.00     0.053 C 
BRANCH   6   7
ATOM      7  C   UNL     1       6.955  -8.834  22.457  1.00  0.00     0.041 C 
ATOM      8  O   UNL     1       7.267  -8.463  23.619  1.00  0.00    -0.550 OA
ATOM      9  O   UNL     1       6.300 -10.045  22.274  1.00  0.00    -0.550 OA
ENDBRANCH   6   7
ENDBRANCH   5   6
ENDBRANCH   4   5
ENDBRANCH   3   4
ENDBRANCH   2   3
ENDBRANCH   1   2
BRANCH   1  10
ATOM     10  C   UNL     1       4.963  -1.693  21.128  1.00  0.00     0.000 C 
BRANCH  10  11
ATOM     11  C   UNL     1       4.140  -2.182  19.922  1.00  0.00    -0.000 C 
BRANCH  11  12
ATOM     12  C   UNL     1       2.614  -2.067  20.095  1.00  0.00    -0.000 C 
BRANCH  12  13
ATOM     13  C   UNL     1       1.909  -1.128  19.093  1.00  0.00    -0.000 C 
BRANCH  13  14
ATOM     14  C   UNL     1       2.561   0.256  18.918  1.00  0.00    -0.000 C 
BRANCH  14  15
ATOM     15  C   UNL     1       2.330   0.854  17.520  1.00  0.00    -0.000 C 
BRANCH  15  16
ATOM     16  C   UNL     1       0.968   1.555  17.399  1.00  0.00    -0.003 C 
ATOM     17  C   UNL     1       1.052   3.060  17.648  1.00  0.00     0.004 C 
ENDBRANCH  15  16
ENDBRANCH  14  15
ENDBRANCH  13  14
ENDBRANCH  12  13
ENDBRANCH  11  12
ENDBRANCH  10  11
ENDBRANCH   1  10
TORSDOF 13
ENDMDL
MODEL 6
REMARK VINA RESULT:    -6.782      1.284      2.477
REMARK INTER + INTRA:         -12.775
REMARK INTER:                 -11.602
REMARK INTRA:                  -1.173
REMARK UNBOUND:                -0.839
REMARK SMILES CCCCCCCCCCCCCCC(=O)[O-]
REMARK SMILES IDX 9 1 10 2 11 3 12 4 13 5 14 6 15 7 16 8 17 9 8 10 7 11 6 12
REMARK SMILES IDX 5 13 4 14 3 15 2 16 1 17
REMARK H PARENT
REMARK Flexibility Score: inf
ROOT
ATOM      1  C   UNL     1       6.897  -2.447  20.666  1.00  0.00     0.000 C 
ENDROOT
BRANCH   1   2
ATOM      2  C   UNL     1       6.813  -3.556  21.728  1.00  0.00     0.000 C 
BRANCH   2   3
ATOM      3  C   UNL     1       5.914  -4.732  21.300  1.00  0.00     0.000 C 
BRANCH   3   4
ATOM      4  C   UNL     1       6.661  -5.926  20.678  1.00  0.00     0.000 C 
BRANCH   4   5
ATOM      5  C   UNL     1       7.595  -6.635  21.674  1.00  0.00     0.006 C 
BRANCH   5   6
ATOM      6  C   UNL     1       7.620  -8.154  21.464  1.00  0.00     0.053 C 
BRANCH   6   7
ATOM      7  C   UNL     1       6.948  -8.882  22.587  1.00  0.00     0.041 C 
ATOM      8  O   UNL     1       6.136  -9.813  22.343  1.00  0.00    -0.550 OA
ATOM      9  O   UNL     1       7.245  -8.556  23.905  1.00  0.00    -0.550 OA
ENDBRANCH   6   7
ENDBRANCH   5   6
ENDBRANCH   4   5
ENDBRANCH   3   4
ENDBRANCH   2   3
ENDBRANCH   1   2
BRANCH   1  10
ATOM     10  C   UNL     1       6.176  -1.154  21.108  1.00  0.00     0.000 C 
BRANCH  10  11
ATOM     11  C   UNL     1       6.234  -0.028  20.059  1.00  0.00    -0.000 C 
BRANCH  11  12
ATOM     12  C   UNL     1       4.889   0.672  19.790  1.00  0.00    -0.000 C 
BRANCH  12  13
ATOM     13  C   UNL     1       4.205   0.287  18.461  1.00  0.00    -0.000 C 
BRANCH  13  14
ATOM     14  C   UNL     1       2.921  -0.552  18.601  1.00  0.00    -0.000 C 
BRANCH  14  15
ATOM     15  C   UNL     1       2.608  -0.931  20.058  1.00  0.00    -0.000 C 
BRANCH  15  16
ATOM     16  C   UNL     1       2.901  -2.409  20.357  1.00  0.00    -0.003 C 
ATOM     17  C   UNL     1       3.681  -3.097  19.237  1.00  0.00     0.004 C 
ENDBRANCH  15  16
ENDBRANCH  14  15
ENDBRANCH  13  14
ENDBRANCH  12  13
ENDBRANCH  11  12
ENDBRANCH  10  11
ENDBRANCH   1  10
TORSDOF 13
ENDMDL
MODEL 7
REMARK VINA RESULT:    -6.728      1.330      2.082
REMARK INTER + INTRA:         -12.680
REMARK INTER:                 -12.359
REMARK INTRA:                  -0.321
REMARK UNBOUND:                -0.839
REMARK SMILES CCCCCCCCCCCCCCC(=O)[O-]
REMARK SMILES IDX 9 1 10 2 11 3 12 4 13 5 14 6 15 7 16 8 17 9 8 10 7 11 6 12
REMARK SMILES IDX 5 13 4 14 3 15 2 16 1 17
REMARK H PARENT
REMARK Flexibility Score: inf
ROOT
ATOM      1  C   UNL     1       6.489  -1.393  20.395  1.00  0.00     0.000 C 
ENDROOT
BRANCH   1   2
ATOM      2  C   UNL     1       6.035  -1.893  21.777  1.00  0.00     0.000 C 
BRANCH   2   3
ATOM      3  C   UNL     1       5.942  -3.428  21.861  1.00  0.00     0.000 C 
BRANCH   3   4
ATOM      4  C   UNL     1       7.084  -4.187  21.159  1.00  0.00     0.000 C 
BRANCH   4   5
ATOM      5  C   UNL     1       6.751  -5.667  20.902  1.00  0.00     0.006 C 
BRANCH   5   6
ATOM      6  C   UNL     1       7.690  -6.612  21.662  1.00  0.00     0.053 C 
BRANCH   6   7
ATOM      7  C   UNL     1       7.135  -8.001  21.742  1.00  0.00     0.041 C 
ATOM      8  O   UNL     1       6.235  -8.276  22.578  1.00  0.00    -0.550 OA
ATOM      9  O   UNL     1       7.586  -8.982  20.868  1.00  0.00    -0.550 OA
ENDBRANCH   6   7
ENDBRANCH   5   6
ENDBRANCH   4   5
ENDBRANCH   3   4
ENDBRANCH   2   3
ENDBRANCH   1   2
BRANCH   1  10
ATOM     10  C   UNL     1       6.051   0.062  20.123  1.00  0.00     0.000 C 
BRANCH  10  11
ATOM     11  C   UNL     1       4.693   0.173  19.406  1.00  0.00    -0.000 C 
BRANCH  11  12
ATOM     12  C   UNL     1       3.782  -1.059  19.559  1.00  0.00    -0.000 C 
BRANCH  12  13
ATOM     13  C   UNL     1       2.315  -0.749  19.922  1.00  0.00    -0.000 C 
BRANCH  13  14
ATOM     14  C   UNL     1       1.290  -1.008  18.802  1.00  0.00    -0.000 C 
BRANCH  14  15
ATOM     15  C   UNL     1       0.878   0.274  18.058  1.00  0.00    -0.000 C 
BRANCH  15  16
ATOM     16  C   UNL     1       1.756   1.478  18.433  1.00  0.00    -0.003 C 
ATOM     17  C   UNL     1       1.252   2.790  17.830  1.00  0.00     0.004 C 
ENDBRANCH  15  16
ENDBRANCH  14  15
ENDBRANCH  13  14
ENDBRANCH  12  13
ENDBRANCH  11  12
ENDBRANCH  10  11
ENDBRANCH   1  10
TORSDOF 13
ENDMDL
MODEL 8
REMARK VINA RESULT:    -6.612      6.244     10.273
REMARK INTER + INTRA:         -12.475
REMARK INTER:                 -11.705
REMARK INTRA:                  -0.771
REMARK UNBOUND:                -0.839
REMARK SMILES CCCCCCCCCCCCCCC(=O)[O-]
REMARK SMILES IDX 9 1 10 2 11 3 12 4 13 5 14 6 15 7 16 8 17 9 8 10 7 11 6 12
REMARK SMILES IDX 5 13 4 14 3 15 2 16 1 17
REMARK H PARENT
REMARK Flexibility Score: inf
ROOT
ATOM      1  C   UNL     1       3.143   0.148  18.489  1.00  0.00     0.000 C 
ENDROOT
BRANCH   1   2
ATOM      2  C   UNL     1       1.626   0.108  18.737  1.00  0.00     0.000 C 
BRANCH   2   3
ATOM      3  C   UNL     1       0.875   1.270  18.060  1.00  0.00     0.000 C 
BRANCH   3   4
ATOM      4  C   UNL     1       1.769   2.424  17.570  1.00  0.00     0.000 C 
BRANCH   4   5
ATOM      5  C   UNL     1       1.030   3.771  17.510  1.00  0.00     0.006 C 
BRANCH   5   6
ATOM      6  C   UNL     1       1.936   4.946  17.901  1.00  0.00     0.053 C 
BRANCH   6   7
ATOM      7  C   UNL     1       1.943   6.015  16.852  1.00  0.00     0.041 C 
ATOM      8  O   UNL     1       1.058   6.910  16.853  1.00  0.00    -0.550 OA
ATOM      9  O   UNL     1       2.950   6.044  15.895  1.00  0.00    -0.550 OA
ENDBRANCH   6   7
ENDBRANCH   5   6
ENDBRANCH   4   5
ENDBRANCH   3   4
ENDBRANCH   2   3
ENDBRANCH   1   2
BRANCH   1  10
ATOM     10  C   UNL     1       3.942  -0.545  19.614  1.00  0.00     0.000 C 
BRANCH  10  11
ATOM     11  C   UNL     1       3.157  -1.657  20.332  1.00  0.00    -0.000 C 
BRANCH  11  12
ATOM     12  C   UNL     1       3.571  -1.897  21.796  1.00  0.00    -0.000 C 
BRANCH  12  13
ATOM     13  C   UNL     1       4.732  -2.894  21.993  1.00  0.00    -0.000 C 
BRANCH  13  14
ATOM     14  C   UNL     1       6.143  -2.305  21.812  1.00  0.00    -0.000 C 
BRANCH  14  15
ATOM     15  C   UNL     1       7.028  -3.146  20.876  1.00  0.00    -0.000 C 
BRANCH  15  16
ATOM     16  C   UNL     1       6.308  -4.400  20.357  1.00  0.00    -0.003 C 
ATOM     17  C   UNL     1       6.882  -5.694  20.935  1.00  0.00     0.004 C 
ENDBRANCH  15  16
ENDBRANCH  14  15
ENDBRANCH  13  14
ENDBRANCH  12  13
ENDBRANCH  11  12
ENDBRANCH  10  11
ENDBRANCH   1  10
TORSDOF 13
ENDMDL
MODEL 9
REMARK VINA RESULT:    -6.392      2.582      4.788
REMARK INTER + INTRA:         -12.089
REMARK INTER:                 -11.616
REMARK INTRA:                  -0.473
REMARK UNBOUND:                -0.839
REMARK SMILES CCCCCCCCCCCCCCC(=O)[O-]
REMARK SMILES IDX 9 1 10 2 11 3 12 4 13 5 14 6 15 7 16 8 17 9 8 10 7 11 6 12
REMARK SMILES IDX 5 13 4 14 3 15 2 16 1 17
REMARK H PARENT
REMARK Flexibility Score: inf
ROOT
ATOM      1  C   UNL     1       3.302  -0.327  19.410  1.00  0.00     0.000 C 
ENDROOT
BRANCH   1   2
ATOM      2  C   UNL     1       4.076  -1.225  20.389  1.00  0.00     0.000 C 
BRANCH   2   3
ATOM      3  C   UNL     1       5.604  -1.115  20.227  1.00  0.00     0.000 C 
BRANCH   3   4
ATOM      4  C   UNL     1       6.410  -2.254  20.877  1.00  0.00     0.000 C 
BRANCH   4   5
ATOM      5  C   UNL     1       6.260  -3.593  20.136  1.00  0.00     0.006 C 
BRANCH   5   6
ATOM      6  C   UNL     1       5.924  -4.748  21.089  1.00  0.00     0.053 C 
BRANCH   6   7
ATOM      7  C   UNL     1       7.054  -5.725  21.196  1.00  0.00     0.041 C 
ATOM      8  O   UNL     1       8.233  -5.315  21.362  1.00  0.00    -0.550 OA
ATOM      9  O   UNL     1       6.800  -7.091  21.150  1.00  0.00    -0.550 OA
ENDBRANCH   6   7
ENDBRANCH   5   6
ENDBRANCH   4   5
ENDBRANCH   3   4
ENDBRANCH   2   3
ENDBRANCH   1   2
BRANCH   1  10
ATOM     10  C   UNL     1       1.827  -0.756  19.258  1.00  0.00     0.000 C 
BRANCH  10  11
ATOM     11  C   UNL     1       1.015   0.149  18.314  1.00  0.00    -0.000 C 
BRANCH  11  12
ATOM     12  C   UNL     1       1.790   1.358  17.757  1.00  0.00    -0.000 C 
BRANCH  12  13
ATOM     13  C   UNL     1       0.921   2.580  17.389  1.00  0.00    -0.000 C 
BRANCH  13  14
ATOM     14  C   UNL     1       1.440   3.935  17.903  1.00  0.00    -0.000 C 
BRANCH  14  15
ATOM     15  C   UNL     1       1.041   5.112  16.997  1.00  0.00    -0.000 C 
BRANCH  15  16
ATOM     16  C   UNL     1       2.245   5.975  16.589  1.00  0.00    -0.003 C 
ATOM     17  C   UNL     1       1.881   7.062  15.578  1.00  0.00     0.004 C 
ENDBRANCH  15  16
ENDBRANCH  14  15
ENDBRANCH  13  14
ENDBRANCH  12  13
ENDBRANCH  11  12
ENDBRANCH  10  11
ENDBRANCH   1  10
TORSDOF 13
ENDMDL
