MODEL 1
REMARK VINA RESULT:    -6.325      0.000      0.000
REMARK INTER + INTRA:          -7.732
REMARK INTER:                  -7.435
REMARK INTRA:                  -0.297
REMARK UNBOUND:                -0.297
REMARK SMILES O=c1cc(-c2ccc(O)c(O)c2)oc2cc(O)cc(O)c12
REMARK SMILES IDX 4 1 3 2 2 3 1 4 21 5 19 6 18 7 16 8 15 9 14 10 13 11 5 12
REMARK SMILES IDX 6 13 7 14 8 15 12 16 10 17 9 18 11 20 20 22 17 24
REMARK H PARENT 9 19 11 21 20 23 17 25
REMARK Flexibility Score: inf
ROOT
ATOM      1  C   UNL     1       7.300  15.484  21.763  1.00  0.00     0.138 A 
ATOM      2  C   UNL     1       8.505  15.390  21.052  1.00  0.00     0.100 A 
ATOM      3  C   UNL     1       9.021  16.520  20.418  1.00  0.00     0.197 A 
ATOM      4  O   UNL     1      10.071  16.390  19.736  1.00  0.00    -0.289 OA
ATOM      5  C   UNL     1       8.342  17.757  20.521  1.00  0.00     0.107 A 
ATOM      6  C   UNL     1       8.797  18.984  19.951  1.00  0.00     0.134 A 
ATOM      7  C   UNL     1       7.981  20.121  20.021  1.00  0.00     0.093 A 
ATOM      8  C   UNL     1       6.757  20.090  20.692  1.00  0.00     0.123 A 
ATOM      9  C   UNL     1       6.330  18.911  21.300  1.00  0.00     0.094 A 
ATOM     10  C   UNL     1       7.104  17.751  21.218  1.00  0.00     0.146 A 
ATOM     11  O   UNL     1       6.654  16.644  21.799  1.00  0.00    -0.456 OA
ENDROOT
BRANCH   1  12
ATOM     12  C   UNL     1       6.706  14.313  22.457  1.00  0.00     0.021 A 
ATOM     13  C   UNL     1       6.750  13.049  21.844  1.00  0.00     0.016 A 
ATOM     14  C   UNL     1       6.193  11.934  22.472  1.00  0.00     0.051 A 
ATOM     15  C   UNL     1       5.571  12.061  23.717  1.00  0.00     0.157 A 
ATOM     16  C   UNL     1       6.067  14.439  23.706  1.00  0.00     0.062 A 
ATOM     17  C   UNL     1       5.504  13.320  24.337  1.00  0.00     0.158 A 
BRANCH  15  18
ATOM     18  O   UNL     1       5.025  10.929  24.321  1.00  0.00    -0.504 OA
ATOM     19  H   UNL     1       5.538  10.058  24.396  1.00  0.00     0.293 HD
ENDBRANCH  15  18
BRANCH  17  20
ATOM     20  O   UNL     1       4.875  13.455  25.574  1.00  0.00    -0.504 OA
ATOM     21  H   UNL     1       3.887  13.669  25.647  1.00  0.00     0.293 HD
ENDBRANCH  17  20
ENDBRANCH   1  12
BRANCH   6  22
ATOM     22  O   UNL     1      10.040  19.144  19.332  1.00  0.00    -0.507 OA
ATOM     23  H   UNL     1      10.496  18.447  18.764  1.00  0.00     0.293 HD
ENDBRANCH   6  22
BRANCH   8  24
ATOM     24  O   UNL     1       5.960  21.230  20.770  1.00  0.00    -0.508 OA
ATOM     25  H   UNL     1       5.660  21.725  19.939  1.00  0.00     0.293 HD
ENDBRANCH   8  24
TORSDOF 5
ENDMDL
MODEL 2
REMARK VINA RESULT:    -5.603      2.114      7.158
REMARK INTER + INTRA:          -6.883
REMARK INTER:                  -6.587
REMARK INTRA:                  -0.297
REMARK UNBOUND:                -0.297
REMARK SMILES O=c1cc(-c2ccc(O)c(O)c2)oc2cc(O)cc(O)c12
REMARK SMILES IDX 4 1 3 2 2 3 1 4 21 5 19 6 18 7 16 8 15 9 14 10 13 11 5 12
REMARK SMILES IDX 6 13 7 14 8 15 12 16 10 17 9 18 11 20 20 22 17 24
REMARK H PARENT 9 19 11 21 20 23 17 25
REMARK Flexibility Score: inf
ROOT
ATOM      1  C   UNL     1       8.009  17.343  21.055  1.00  0.00     0.138 A 
ATOM      2  C   UNL     1       7.309  16.937  19.911  1.00  0.00     0.100 A 
ATOM      3  C   UNL     1       6.572  15.753  19.936  1.00  0.00     0.197 A 
ATOM      4  O   UNL     1       6.004  15.384  18.875  1.00  0.00    -0.289 OA
ATOM      5  C   UNL     1       6.511  14.987  21.125  1.00  0.00     0.107 A 
ATOM      6  C   UNL     1       5.757  13.785  21.279  1.00  0.00     0.134 A 
ATOM      7  C   UNL     1       5.867  13.051  22.467  1.00  0.00     0.093 A 
ATOM      8  C   UNL     1       6.655  13.507  23.527  1.00  0.00     0.123 A 
ATOM      9  C   UNL     1       7.352  14.707  23.405  1.00  0.00     0.094 A 
ATOM     10  C   UNL     1       7.290  15.446  22.221  1.00  0.00     0.146 A 
ATOM     11  O   UNL     1       7.981  16.577  22.141  1.00  0.00    -0.456 OA
ENDROOT
BRANCH   1  12
ATOM     12  C   UNL     1       8.809  18.593  21.083  1.00  0.00     0.021 A 
ATOM     13  C   UNL     1       9.461  18.972  22.269  1.00  0.00     0.016 A 
ATOM     14  C   UNL     1      10.213  20.147  22.324  1.00  0.00     0.051 A 
ATOM     15  C   UNL     1      10.319  20.971  21.200  1.00  0.00     0.157 A 
ATOM     16  C   UNL     1       8.908  19.434  19.956  1.00  0.00     0.062 A 
ATOM     17  C   UNL     1       9.661  20.616  20.011  1.00  0.00     0.158 A 
BRANCH  15  18
ATOM     18  O   UNL     1      11.078  22.138  21.284  1.00  0.00    -0.504 OA
ATOM     19  H   UNL     1      12.090  22.120  21.319  1.00  0.00     0.293 HD
ENDBRANCH  15  18
BRANCH  17  20
ATOM     20  O   UNL     1       9.753  21.440  18.890  1.00  0.00    -0.504 OA
ATOM     21  H   UNL     1      10.646  21.660  18.463  1.00  0.00     0.293 HD
ENDBRANCH  17  20
ENDBRANCH   1  12
BRANCH   6  22
ATOM     22  O   UNL     1       4.876  13.287  20.316  1.00  0.00    -0.507 OA
ATOM     23  H   UNL     1       4.056  12.736  20.514  1.00  0.00     0.293 HD
ENDBRANCH   6  22
BRANCH   8  24
ATOM     24  O   UNL     1       6.745  12.777  24.710  1.00  0.00    -0.508 OA
ATOM     25  H   UNL     1       5.997  12.780  25.393  1.00  0.00     0.293 HD
ENDBRANCH   8  24
TORSDOF 5
ENDMDL
MODEL 3
REMARK VINA RESULT:    -5.559      1.434      2.418
REMARK INTER + INTRA:          -6.832
REMARK INTER:                  -6.566
REMARK INTRA:                  -0.265
REMARK UNBOUND:                -0.297
REMARK SMILES O=c1cc(-c2ccc(O)c(O)c2)oc2cc(O)cc(O)c12
REMARK SMILES IDX 4 1 3 2 2 3 1 4 21 5 19 6 18 7 16 8 15 9 14 10 13 11 5 12
REMARK SMILES IDX 6 13 7 14 8 15 12 16 10 17 9 18 11 20 20 22 17 24
REMARK H PARENT 9 19 11 21 20 23 17 25
REMARK Flexibility Score: inf
ROOT
ATOM      1  C   UNL     1       6.570  16.245  21.539  1.00  0.00     0.138 A 
ATOM      2  C   UNL     1       5.652  16.916  20.718  1.00  0.00     0.100 A 
ATOM      3  C   UNL     1       5.997  18.147  20.162  1.00  0.00     0.197 A 
ATOM      4  O   UNL     1       5.130  18.755  19.481  1.00  0.00    -0.289 OA
ATOM      5  C   UNL     1       7.280  18.695  20.404  1.00  0.00     0.107 A 
ATOM      6  C   UNL     1       7.756  19.924  19.855  1.00  0.00     0.134 A 
ATOM      7  C   UNL     1       9.001  20.422  20.259  1.00  0.00     0.093 A 
ATOM      8  C   UNL     1       9.812  19.707  21.144  1.00  0.00     0.123 A 
ATOM      9  C   UNL     1       9.379  18.480  21.642  1.00  0.00     0.094 A 
ATOM     10  C   UNL     1       8.128  17.972  21.286  1.00  0.00     0.146 A 
ATOM     11  O   UNL     1       7.746  16.806  21.795  1.00  0.00    -0.456 OA
ENDROOT
BRANCH   1  12
ATOM     12  C   UNL     1       6.255  14.931  22.156  1.00  0.00     0.021 A 
ATOM     13  C   UNL     1       6.442  13.754  21.412  1.00  0.00     0.016 A 
ATOM     14  C   UNL     1       6.146  12.507  21.966  1.00  0.00     0.051 A 
ATOM     15  C   UNL     1       5.648  12.413  23.269  1.00  0.00     0.157 A 
ATOM     16  C   UNL     1       5.740  14.832  23.464  1.00  0.00     0.062 A 
ATOM     17  C   UNL     1       5.441  13.580  24.021  1.00  0.00     0.158 A 
BRANCH  15  18
ATOM     18  O   UNL     1       5.363  11.153  23.796  1.00  0.00    -0.504 OA
ATOM     19  H   UNL     1       4.501  10.665  23.585  1.00  0.00     0.293 HD
ENDBRANCH  15  18
BRANCH  17  20
ATOM     20  O   UNL     1       4.933  13.494  25.317  1.00  0.00    -0.504 OA
ATOM     21  H   UNL     1       4.356  12.714  25.611  1.00  0.00     0.293 HD
ENDBRANCH  17  20
ENDBRANCH   1  12
BRANCH   6  22
ATOM     22  O   UNL     1       7.062  20.673  18.901  1.00  0.00    -0.507 OA
ATOM     23  H   UNL     1       6.058  20.733  18.833  1.00  0.00     0.293 HD
ENDBRANCH   6  22
BRANCH   8  24
ATOM     24  O   UNL     1      11.056  20.204  21.527  1.00  0.00    -0.508 OA
ATOM     25  H   UNL     1      11.653  19.698  22.169  1.00  0.00     0.293 HD
ENDBRANCH   8  24
TORSDOF 5
ENDMDL
MODEL 4
REMARK VINA RESULT:    -5.413      3.993      6.098
REMARK INTER + INTRA:          -6.659
REMARK INTER:                  -6.368
REMARK INTRA:                  -0.292
REMARK UNBOUND:                -0.297
REMARK SMILES O=c1cc(-c2ccc(O)c(O)c2)oc2cc(O)cc(O)c12
REMARK SMILES IDX 4 1 3 2 2 3 1 4 21 5 19 6 18 7 16 8 15 9 14 10 13 11 5 12
REMARK SMILES IDX 6 13 7 14 8 15 12 16 10 17 9 18 11 20 20 22 17 24
REMARK H PARENT 9 19 11 21 20 23 17 25
REMARK Flexibility Score: inf
ROOT
ATOM      1  C   UNL     1       9.237  19.820  22.035  1.00  0.00     0.138 A 
ATOM      2  C   UNL     1      10.311  20.708  21.884  1.00  0.00     0.100 A 
ATOM      3  C   UNL     1      10.376  21.852  22.678  1.00  0.00     0.197 A 
ATOM      4  O   UNL     1      11.319  22.662  22.476  1.00  0.00    -0.289 OA
ATOM      5  C   UNL     1       9.377  22.092  23.650  1.00  0.00     0.107 A 
ATOM      6  C   UNL     1       9.364  23.205  24.545  1.00  0.00     0.134 A 
ATOM      7  C   UNL     1       8.261  23.400  25.386  1.00  0.00     0.093 A 
ATOM      8  C   UNL     1       7.201  22.490  25.408  1.00  0.00     0.123 A 
ATOM      9  C   UNL     1       7.231  21.372  24.578  1.00  0.00     0.094 A 
ATOM     10  C   UNL     1       8.300  21.167  23.703  1.00  0.00     0.146 A 
ATOM     11  O   UNL     1       8.283  20.096  22.917  1.00  0.00    -0.456 OA
ENDROOT
BRANCH   1  12
ATOM     12  C   UNL     1       9.118  18.587  21.216  1.00  0.00     0.021 A 
ATOM     13  C   UNL     1       7.861  17.977  21.062  1.00  0.00     0.016 A 
ATOM     14  C   UNL     1       7.723  16.813  20.303  1.00  0.00     0.051 A 
ATOM     15  C   UNL     1       8.838  16.230  19.694  1.00  0.00     0.157 A 
ATOM     16  C   UNL     1      10.241  17.988  20.611  1.00  0.00     0.062 A 
ATOM     17  C   UNL     1      10.105  16.817  19.851  1.00  0.00     0.158 A 
BRANCH  15  18
ATOM     18  O   UNL     1       8.670  15.068  18.942  1.00  0.00    -0.504 OA
ATOM     19  H   UNL     1       8.351  14.200  19.357  1.00  0.00     0.293 HD
ENDBRANCH  15  18
BRANCH  17  20
ATOM     20  O   UNL     1      11.222  16.234  19.257  1.00  0.00    -0.504 OA
ATOM     21  H   UNL     1      11.846  16.766  18.660  1.00  0.00     0.293 HD
ENDBRANCH  17  20
ENDBRANCH   1  12
BRANCH   6  22
ATOM     22  O   UNL     1      10.409  24.125  24.662  1.00  0.00    -0.507 OA
ATOM     23  H   UNL     1      10.579  24.890  24.028  1.00  0.00     0.293 HD
ENDBRANCH   6  22
BRANCH   8  24
ATOM     24  O   UNL     1       6.116  22.684  26.260  1.00  0.00    -0.508 OA
ATOM     25  H   UNL     1       5.907  23.593  26.654  1.00  0.00     0.293 HD
ENDBRANCH   8  24
TORSDOF 5
ENDMDL
MODEL 5
REMARK VINA RESULT:    -5.365      4.694      7.115
REMARK INTER + INTRA:          -6.604
REMARK INTER:                  -6.290
REMARK INTRA:                  -0.314
REMARK UNBOUND:                -0.297
REMARK SMILES O=c1cc(-c2ccc(O)c(O)c2)oc2cc(O)cc(O)c12
REMARK SMILES IDX 4 1 3 2 2 3 1 4 21 5 19 6 18 7 16 8 15 9 14 10 13 11 5 12
REMARK SMILES IDX 6 13 7 14 8 15 12 16 10 17 9 18 11 20 20 22 17 24
REMARK H PARENT 9 19 11 21 20 23 17 25
REMARK Flexibility Score: inf
ROOT
ATOM      1  C   UNL     1       8.189  21.737  23.746  1.00  0.00     0.138 A 
ATOM      2  C   UNL     1       8.992  22.685  23.096  1.00  0.00     0.100 A 
ATOM      3  C   UNL     1       9.424  22.445  21.792  1.00  0.00     0.197 A 
ATOM      4  O   UNL     1      10.195  23.285  21.258  1.00  0.00    -0.289 OA
ATOM      5  C   UNL     1       9.024  21.264  21.124  1.00  0.00     0.107 A 
ATOM      6  C   UNL     1       9.370  20.934  19.779  1.00  0.00     0.134 A 
ATOM      7  C   UNL     1       9.013  19.682  19.262  1.00  0.00     0.093 A 
ATOM      8  C   UNL     1       8.271  18.774  20.021  1.00  0.00     0.123 A 
ATOM      9  C   UNL     1       7.882  19.109  21.317  1.00  0.00     0.094 A 
ATOM     10  C   UNL     1       8.252  20.336  21.872  1.00  0.00     0.146 A 
ATOM     11  O   UNL     1       7.873  20.611  23.116  1.00  0.00    -0.456 OA
ENDROOT
BRANCH   1  12
ATOM     12  C   UNL     1       7.701  21.941  25.133  1.00  0.00     0.021 A 
ATOM     13  C   UNL     1       8.299  22.926  25.939  1.00  0.00     0.016 A 
ATOM     14  C   UNL     1       7.864  23.133  27.249  1.00  0.00     0.051 A 
ATOM     15  C   UNL     1       6.832  22.355  27.783  1.00  0.00     0.157 A 
ATOM     16  C   UNL     1       6.671  21.151  25.680  1.00  0.00     0.062 A 
ATOM     17  C   UNL     1       6.234  21.357  26.997  1.00  0.00     0.158 A 
BRANCH  15  18
ATOM     18  O   UNL     1       6.419  22.586  29.095  1.00  0.00    -0.504 OA
ATOM     19  H   UNL     1       6.003  23.465  29.381  1.00  0.00     0.293 HD
ENDBRANCH  15  18
BRANCH  17  20
ATOM     20  O   UNL     1       5.213  20.570  27.527  1.00  0.00    -0.504 OA
ATOM     21  H   UNL     1       4.415  20.289  26.970  1.00  0.00     0.293 HD
ENDBRANCH  17  20
ENDBRANCH   1  12
BRANCH   6  22
ATOM     22  O   UNL     1      10.036  21.802  18.908  1.00  0.00    -0.507 OA
ATOM     23  H   UNL     1       9.857  22.791  18.831  1.00  0.00     0.293 HD
ENDBRANCH   6  22
BRANCH   8  24
ATOM     24  O   UNL     1       7.906  17.537  19.493  1.00  0.00    -0.508 OA
ATOM     25  H   UNL     1       8.053  17.314  18.516  1.00  0.00     0.293 HD
ENDBRANCH   8  24
TORSDOF 5
ENDMDL
MODEL 6
REMARK VINA RESULT:    -5.250      2.717      7.020
REMARK INTER + INTRA:          -6.468
REMARK INTER:                  -6.173
REMARK INTRA:                  -0.295
REMARK UNBOUND:                -0.297
REMARK SMILES O=c1cc(-c2ccc(O)c(O)c2)oc2cc(O)cc(O)c12
REMARK SMILES IDX 4 1 3 2 2 3 1 4 21 5 19 6 18 7 16 8 15 9 14 10 13 11 5 12
REMARK SMILES IDX 6 13 7 14 8 15 12 16 10 17 9 18 11 20 20 22 17 24
REMARK H PARENT 9 19 11 21 20 23 17 25
REMARK Flexibility Score: inf
ROOT
ATOM      1  C   UNL     1       9.049  18.422  21.357  1.00  0.00     0.138 A 
ATOM      2  C   UNL     1       9.808  17.791  20.361  1.00  0.00     0.100 A 
ATOM      3  C   UNL     1       9.420  16.538  19.888  1.00  0.00     0.197 A 
ATOM      4  O   UNL     1      10.156  15.969  19.040  1.00  0.00    -0.289 OA
ATOM      5  C   UNL     1       8.247  15.927  20.393  1.00  0.00     0.107 A 
ATOM      6  C   UNL     1       7.732  14.670  19.955  1.00  0.00     0.134 A 
ATOM      7  C   UNL     1       6.627  14.112  20.609  1.00  0.00     0.093 A 
ATOM      8  C   UNL     1       5.983  14.792  21.646  1.00  0.00     0.123 A 
ATOM      9  C   UNL     1       6.445  16.045  22.044  1.00  0.00     0.094 A 
ATOM     10  C   UNL     1       7.566  16.613  21.433  1.00  0.00     0.146 A 
ATOM     11  O   UNL     1       7.983  17.803  21.853  1.00  0.00    -0.456 OA
ENDROOT
BRANCH   1  12
ATOM     12  C   UNL     1       9.417  19.756  21.896  1.00  0.00     0.021 A 
ATOM     13  C   UNL     1       8.762  20.244  23.040  1.00  0.00     0.016 A 
ATOM     14  C   UNL     1       9.084  21.498  23.563  1.00  0.00     0.051 A 
ATOM     15  C   UNL     1      10.056  22.292  22.948  1.00  0.00     0.157 A 
ATOM     16  C   UNL     1      10.387  20.565  21.273  1.00  0.00     0.062 A 
ATOM     17  C   UNL     1      10.709  21.826  21.795  1.00  0.00     0.158 A 
BRANCH  15  18
ATOM     18  O   UNL     1      10.357  23.540  23.493  1.00  0.00    -0.504 OA
ATOM     19  H   UNL     1      10.801  24.271  22.951  1.00  0.00     0.293 HD
ENDBRANCH  15  18
BRANCH  17  20
ATOM     20  O   UNL     1      11.672  22.618  21.170  1.00  0.00    -0.504 OA
ATOM     21  H   UNL     1      12.444  22.209  20.656  1.00  0.00     0.293 HD
ENDBRANCH  17  20
ENDBRANCH   1  12
BRANCH   6  22
ATOM     22  O   UNL     1       8.249  13.948  18.875  1.00  0.00    -0.507 OA
ATOM     23  H   UNL     1       8.874  14.321  18.177  1.00  0.00     0.293 HD
ENDBRANCH   6  22
BRANCH   8  24
ATOM     24  O   UNL     1       4.875  14.236  22.280  1.00  0.00    -0.508 OA
ATOM     25  H   UNL     1       4.848  14.107  23.285  1.00  0.00     0.293 HD
ENDBRANCH   8  24
TORSDOF 5
ENDMDL
MODEL 7
REMARK VINA RESULT:    -5.223      1.925      2.648
REMARK INTER + INTRA:          -6.436
REMARK INTER:                  -6.126
REMARK INTRA:                  -0.310
REMARK UNBOUND:                -0.297
REMARK SMILES O=c1cc(-c2ccc(O)c(O)c2)oc2cc(O)cc(O)c12
REMARK SMILES IDX 4 1 3 2 2 3 1 4 21 5 19 6 18 7 16 8 15 9 14 10 13 11 5 12
REMARK SMILES IDX 6 13 7 14 8 15 12 16 10 17 9 18 11 20 20 22 17 24
REMARK H PARENT 9 19 11 21 20 23 17 25
REMARK Flexibility Score: inf
ROOT
ATOM      1  C   UNL     1       7.351  16.775  21.300  1.00  0.00     0.138 A 
ATOM      2  C   UNL     1       6.650  17.373  20.244  1.00  0.00     0.100 A 
ATOM      3  C   UNL     1       7.023  18.641  19.799  1.00  0.00     0.197 A 
ATOM      4  O   UNL     1       6.336  19.178  18.891  1.00  0.00    -0.289 OA
ATOM      5  C   UNL     1       8.124  19.301  20.396  1.00  0.00     0.107 A 
ATOM      6  C   UNL     1       8.620  20.578  19.996  1.00  0.00     0.134 A 
ATOM      7  C   UNL     1       9.643  21.183  20.737  1.00  0.00     0.093 A 
ATOM      8  C   UNL     1      10.228  20.530  21.825  1.00  0.00     0.123 A 
ATOM      9  C   UNL     1       9.788  19.260  22.189  1.00  0.00     0.094 A 
ATOM     10  C   UNL     1       8.746  18.644  21.491  1.00  0.00     0.146 A 
ATOM     11  O   UNL     1       8.345  17.438  21.880  1.00  0.00    -0.456 OA
ENDROOT
BRANCH   1  12
ATOM     12  C   UNL     1       6.996  15.427  21.813  1.00  0.00     0.021 A 
ATOM     13  C   UNL     1       6.304  14.531  20.981  1.00  0.00     0.016 A 
ATOM     14  C   UNL     1       5.952  13.260  21.441  1.00  0.00     0.051 A 
ATOM     15  C   UNL     1       6.275  12.865  22.742  1.00  0.00     0.157 A 
ATOM     16  C   UNL     1       7.308  15.029  23.128  1.00  0.00     0.062 A 
ATOM     17  C   UNL     1       6.953  13.754  23.592  1.00  0.00     0.158 A 
BRANCH  15  18
ATOM     18  O   UNL     1       5.911  11.590  23.173  1.00  0.00    -0.504 OA
ATOM     19  H   UNL     1       5.173  11.061  22.725  1.00  0.00     0.293 HD
ENDBRANCH  15  18
BRANCH  17  20
ATOM     20  O   UNL     1       7.268  13.371  24.895  1.00  0.00    -0.504 OA
ATOM     21  H   UNL     1       6.643  13.560  25.670  1.00  0.00     0.293 HD
ENDBRANCH  17  20
ENDBRANCH   1  12
BRANCH   6  22
ATOM     22  O   UNL     1       8.163  21.277  18.875  1.00  0.00    -0.507 OA
ATOM     23  H   UNL     1       8.076  22.280  18.816  1.00  0.00     0.293 HD
ENDBRANCH   6  22
BRANCH   8  24
ATOM     24  O   UNL     1      11.257  21.133  22.546  1.00  0.00    -0.508 OA
ATOM     25  H   UNL     1      11.846  21.846  22.133  1.00  0.00     0.293 HD
ENDBRANCH   8  24
TORSDOF 5
ENDMDL
MODEL 8
REMARK VINA RESULT:    -5.118      5.916      7.729
REMARK INTER + INTRA:          -6.313
REMARK INTER:                  -6.026
REMARK INTRA:                  -0.287
REMARK UNBOUND:                -0.297
REMARK SMILES O=c1cc(-c2ccc(O)c(O)c2)oc2cc(O)cc(O)c12
REMARK SMILES IDX 4 1 3 2 2 3 1 4 21 5 19 6 18 7 16 8 15 9 14 10 13 11 5 12
REMARK SMILES IDX 6 13 7 14 8 15 12 16 10 17 9 18 11 20 20 22 17 24
REMARK H PARENT 9 19 11 21 20 23 17 25
REMARK Flexibility Score: inf
ROOT
ATOM      1  C   UNL     1       7.732  21.951  24.650  1.00  0.00     0.138 A 
ATOM      2  C   UNL     1       7.127  21.185  23.645  1.00  0.00     0.100 A 
ATOM      3  C   UNL     1       7.773  21.020  22.420  1.00  0.00     0.197 A 
ATOM      4  O   UNL     1       7.177  20.378  21.515  1.00  0.00    -0.289 OA
ATOM      5  C   UNL     1       9.047  21.601  22.212  1.00  0.00     0.107 A 
ATOM      6  C   UNL     1       9.817  21.464  21.018  1.00  0.00     0.134 A 
ATOM      7  C   UNL     1      11.013  22.181  20.884  1.00  0.00     0.093 A 
ATOM      8  C   UNL     1      11.495  22.980  21.923  1.00  0.00     0.123 A 
ATOM      9  C   UNL     1      10.777  23.077  23.113  1.00  0.00     0.094 A 
ATOM     10  C   UNL     1       9.564  22.401  23.265  1.00  0.00     0.146 A 
ATOM     11  O   UNL     1       8.903  22.532  24.410  1.00  0.00    -0.456 OA
ENDROOT
BRANCH   1  12
ATOM     12  C   UNL     1       7.089  22.159  25.972  1.00  0.00     0.021 A 
ATOM     13  C   UNL     1       7.323  23.353  26.676  1.00  0.00     0.016 A 
ATOM     14  C   UNL     1       6.736  23.570  27.924  1.00  0.00     0.051 A 
ATOM     15  C   UNL     1       5.915  22.595  28.498  1.00  0.00     0.157 A 
ATOM     16  C   UNL     1       6.271  21.174  26.561  1.00  0.00     0.062 A 
ATOM     17  C   UNL     1       5.683  21.389  27.816  1.00  0.00     0.158 A 
BRANCH  15  18
ATOM     18  O   UNL     1       5.342  22.840  29.745  1.00  0.00    -0.504 OA
ATOM     19  H   UNL     1       5.139  23.779  30.069  1.00  0.00     0.293 HD
ENDBRANCH  15  18
BRANCH  17  20
ATOM     20  O   UNL     1       4.875  20.408  28.388  1.00  0.00    -0.504 OA
ATOM     21  H   UNL     1       5.197  19.840  29.163  1.00  0.00     0.293 HD
ENDBRANCH  17  20
ENDBRANCH   1  12
BRANCH   6  22
ATOM     22  O   UNL     1       9.468  20.627  19.955  1.00  0.00    -0.507 OA
ATOM     23  H   UNL     1      10.104  20.302  19.243  1.00  0.00     0.293 HD
ENDBRANCH   6  22
BRANCH   8  24
ATOM     24  O   UNL     1      12.694  23.677  21.786  1.00  0.00    -0.508 OA
ATOM     25  H   UNL     1      13.255  23.606  20.946  1.00  0.00     0.293 HD
ENDBRANCH   8  24
TORSDOF 5
ENDMDL
MODEL 9
REMARK VINA RESULT:    -5.051      2.619      4.519
REMARK INTER + INTRA:          -6.234
REMARK INTER:                  -5.953
REMARK INTRA:                  -0.281
REMARK UNBOUND:                -0.297
REMARK SMILES O=c1cc(-c2ccc(O)c(O)c2)oc2cc(O)cc(O)c12
REMARK SMILES IDX 4 1 3 2 2 3 1 4 21 5 19 6 18 7 16 8 15 9 14 10 13 11 5 12
REMARK SMILES IDX 6 13 7 14 8 15 12 16 10 17 9 18 11 20 20 22 17 24
REMARK H PARENT 9 19 11 21 20 23 17 25
REMARK Flexibility Score: inf
ROOT
ATOM      1  C   UNL     1       8.340  18.604  20.211  1.00  0.00     0.138 A 
ATOM      2  C   UNL     1       7.413  19.387  19.509  1.00  0.00     0.100 A 
ATOM      3  C   UNL     1       7.578  20.772  19.460  1.00  0.00     0.197 A 
ATOM      4  O   UNL     1       6.696  21.454  18.875  1.00  0.00    -0.289 OA
ATOM      5  C   UNL     1       8.694  21.371  20.091  1.00  0.00     0.107 A 
ATOM      6  C   UNL     1       8.986  22.768  20.070  1.00  0.00     0.134 A 
ATOM      7  C   UNL     1      10.057  23.259  20.828  1.00  0.00     0.093 A 
ATOM      8  C   UNL     1      10.881  22.397  21.557  1.00  0.00     0.123 A 
ATOM      9  C   UNL     1      10.636  21.026  21.538  1.00  0.00     0.094 A 
ATOM     10  C   UNL     1       9.556  20.508  20.820  1.00  0.00     0.146 A 
ATOM     11  O   UNL     1       9.348  19.196  20.841  1.00  0.00    -0.456 OA
ENDROOT
BRANCH   1  12
ATOM     12  C   UNL     1       8.213  17.127  20.295  1.00  0.00     0.021 A 
ATOM     13  C   UNL     1       8.151  16.369  19.113  1.00  0.00     0.016 A 
ATOM     14  C   UNL     1       8.024  14.979  19.165  1.00  0.00     0.051 A 
ATOM     15  C   UNL     1       7.945  14.322  20.396  1.00  0.00     0.157 A 
ATOM     16  C   UNL     1       8.119  16.461  21.533  1.00  0.00     0.062 A 
ATOM     17  C   UNL     1       7.989  15.065  21.587  1.00  0.00     0.158 A 
BRANCH  15  18
ATOM     18  O   UNL     1       7.819  12.933  20.416  1.00  0.00    -0.504 OA
ATOM     19  H   UNL     1       7.503  12.410  19.608  1.00  0.00     0.293 HD
ENDBRANCH  15  18
BRANCH  17  20
ATOM     20  O   UNL     1       7.899  14.417  22.817  1.00  0.00    -0.504 OA
ATOM     21  H   UNL     1       8.481  14.684  23.603  1.00  0.00     0.293 HD
ENDBRANCH  17  20
ENDBRANCH   1  12
BRANCH   6  22
ATOM     22  O   UNL     1       8.278  23.702  19.310  1.00  0.00    -0.507 OA
ATOM     23  H   UNL     1       8.286  23.752  18.303  1.00  0.00     0.293 HD
ENDBRANCH   6  22
BRANCH   8  24
ATOM     24  O   UNL     1      11.952  22.894  22.295  1.00  0.00    -0.508 OA
ATOM     25  H   UNL     1      11.969  22.841  23.306  1.00  0.00     0.293 HD
ENDBRANCH   8  24
TORSDOF 5
ENDMDL
