MODEL 1
REMARK VINA RESULT:    -5.900      0.000      0.000
REMARK INTER + INTRA:         -10.281
REMARK INTER:                  -8.659
REMARK INTRA:                  -1.622
REMARK UNBOUND:                -1.622
REMARK SMILES O=c1c(O[C@@H]2O[C@H](CO)[C@@H](O)[C@@H](O)[C@@H]2O)c(-c2ccc(O)c(O)c2)oc2cc(O)cc(O)c12
REMARK SMILES IDX 4 1 3 2 16 3 25 4 2 5 26 6 1 7 33 8 27 9 31 10 28 11 30 12
REMARK SMILES IDX 17 13 18 14 19 15 20 16 24 17 22 18 21 19 23 21 32 23 29 25
REMARK SMILES IDX 5 27 14 28 6 29 12 30 7 31 10 32 15 33 13 35 8 37 9 38 11 40
REMARK H PARENT 21 20 23 22 32 24 29 26 15 34 13 36 9 39 11 41
REMARK Flexibility Score: inf
ROOT
ATOM      1  O   UNL     1      14.078   0.189   2.623  1.00  0.00    -0.454 OA
ENDROOT
BRANCH   1   2
ATOM      2  C   UNL     1      13.037  -0.085   3.536  1.00  0.00     0.214 A 
ATOM      3  C   UNL     1      13.324   0.007   4.914  1.00  0.00     0.180 A 
ATOM      4  O   UNL     1      12.363  -0.174   5.813  1.00  0.00    -0.452 OA
ATOM      5  C   UNL     1      11.717  -0.413   3.152  1.00  0.00     0.239 A 
ATOM      6  C   UNL     1      11.110  -0.468   5.494  1.00  0.00     0.146 A 
ATOM      7  O   UNL     1      11.414  -0.523   1.935  1.00  0.00    -0.285 OA
ATOM      8  C   UNL     1      10.729  -0.616   4.141  1.00  0.00     0.111 A 
ATOM      9  C   UNL     1      10.169  -0.623   6.514  1.00  0.00     0.094 A 
ATOM     10  C   UNL     1       9.378  -0.926   3.838  1.00  0.00     0.134 A 
ATOM     11  C   UNL     1       8.834  -0.909   6.207  1.00  0.00     0.123 A 
ATOM     12  C   UNL     1       8.445  -1.067   4.875  1.00  0.00     0.093 A 
BRANCH   3  13
ATOM     13  C   UNL     1      14.683   0.323   5.415  1.00  0.00     0.025 A 
ATOM     14  C   UNL     1      15.577  -0.724   5.692  1.00  0.00     0.016 A 
ATOM     15  C   UNL     1      16.872  -0.451   6.139  1.00  0.00     0.051 A 
ATOM     16  C   UNL     1      17.302   0.870   6.297  1.00  0.00     0.157 A 
ATOM     17  C   UNL     1      15.123   1.652   5.558  1.00  0.00     0.062 A 
ATOM     18  C   UNL     1      16.426   1.928   6.002  1.00  0.00     0.158 A 
BRANCH  16  19
ATOM     19  O   UNL     1      18.599   1.112   6.748  1.00  0.00    -0.504 OA
ATOM     20  H   UNL     1      18.861   0.988   7.718  1.00  0.00     0.293 HD
ENDBRANCH  16  19
BRANCH  18  21
ATOM     21  O   UNL     1      16.849   3.247   6.154  1.00  0.00    -0.504 OA
ATOM     22  H   UNL     1      16.196   4.021   6.106  1.00  0.00     0.293 HD
ENDBRANCH  18  21
ENDBRANCH   3  13
BRANCH  10  23
ATOM     23  O   UNL     1       8.955  -1.086   2.518  1.00  0.00    -0.507 OA
ATOM     24  H   UNL     1       8.219  -1.739   2.266  1.00  0.00     0.293 HD
ENDBRANCH  10  23
BRANCH  11  25
ATOM     25  O   UNL     1       7.883  -1.031   7.219  1.00  0.00    -0.508 OA
ATOM     26  H   UNL     1       6.966  -0.609   7.137  1.00  0.00     0.293 HD
ENDBRANCH  11  25
ENDBRANCH   1   2
BRANCH   1  27
ATOM     27  C   UNL     1      14.246   1.354   1.816  1.00  0.00     0.339 C 
ATOM     28  C   UNL     1      14.029   0.982   0.315  1.00  0.00     0.214 C 
ATOM     29  O   UNL     1      13.343   2.359   2.266  1.00  0.00    -0.332 OA
ATOM     30  C   UNL     1      12.667   1.500  -0.180  1.00  0.00     0.180 C 
ATOM     31  C   UNL     1      13.315   3.447   1.357  1.00  0.00     0.179 C 
ATOM     32  C   UNL     1      12.526   3.026   0.087  1.00  0.00     0.177 C 
BRANCH  28  33
ATOM     33  O   UNL     1      14.112  -0.410   0.134  1.00  0.00    -0.384 OA
ATOM     34  H   UNL     1      13.344  -0.678  -0.435  1.00  0.00     0.211 HD
ENDBRANCH  28  33
BRANCH  30  35
ATOM     35  O   UNL     1      12.510   1.208  -1.545  1.00  0.00    -0.387 OA
ATOM     36  H   UNL     1      13.053   0.395  -1.724  1.00  0.00     0.211 HD
ENDBRANCH  30  35
BRANCH  31  37
ATOM     37  C   UNL     1      12.716   4.709   2.027  1.00  0.00     0.191 C 
BRANCH  37  38
ATOM     38  O   UNL     1      11.650   5.236   1.278  1.00  0.00    -0.394 OA
ATOM     39  H   UNL     1      11.243   4.472   0.792  1.00  0.00     0.210 HD
ENDBRANCH  37  38
ENDBRANCH  31  37
BRANCH  32  40
ATOM     40  O   UNL     1      12.931   3.792  -1.022  1.00  0.00    -0.387 OA
ATOM     41  H   UNL     1      13.347   3.174  -1.678  1.00  0.00     0.211 HD
ENDBRANCH  32  40
ENDBRANCH   1  27
TORSDOF 12
ENDMDL
MODEL 2
REMARK VINA RESULT:    -5.861      2.473      6.927
REMARK INTER + INTRA:         -10.224
REMARK INTER:                  -9.005
REMARK INTRA:                  -1.220
REMARK UNBOUND:                -1.622
REMARK SMILES O=c1c(O[C@@H]2O[C@H](CO)[C@@H](O)[C@@H](O)[C@@H]2O)c(-c2ccc(O)c(O)c2)oc2cc(O)cc(O)c12
REMARK SMILES IDX 4 1 3 2 16 3 25 4 2 5 26 6 1 7 33 8 27 9 31 10 28 11 30 12
REMARK SMILES IDX 17 13 18 14 19 15 20 16 24 17 22 18 21 19 23 21 32 23 29 25
REMARK SMILES IDX 5 27 14 28 6 29 12 30 7 31 10 32 15 33 13 35 8 37 9 38 11 40
REMARK H PARENT 21 20 23 22 32 24 29 26 15 34 13 36 9 39 11 41
REMARK Flexibility Score: inf
ROOT
ATOM      1  O   UNL     1      14.215   2.485   1.811  1.00  0.00    -0.454 OA
ENDROOT
BRANCH   1   2
ATOM      2  C   UNL     1      13.136   3.102   1.143  1.00  0.00     0.214 A 
ATOM      3  C   UNL     1      12.983   2.853  -0.237  1.00  0.00     0.180 A 
ATOM      4  O   UNL     1      11.945   3.354  -0.898  1.00  0.00    -0.452 OA
ATOM      5  C   UNL     1      12.182   3.928   1.780  1.00  0.00     0.239 A 
ATOM      6  C   UNL     1      11.021   4.119  -0.335  1.00  0.00     0.146 A 
ATOM      7  O   UNL     1      12.284   4.194   3.006  1.00  0.00    -0.285 OA
ATOM      8  C   UNL     1      11.104   4.457   1.035  1.00  0.00     0.111 A 
ATOM      9  C   UNL     1       9.959   4.584  -1.113  1.00  0.00     0.094 A 
ATOM     10  C   UNL     1      10.094   5.274   1.604  1.00  0.00     0.134 A 
ATOM     11  C   UNL     1       8.955   5.374  -0.541  1.00  0.00     0.123 A 
ATOM     12  C   UNL     1       9.029   5.722   0.809  1.00  0.00     0.093 A 
BRANCH   3  13
ATOM     13  C   UNL     1      13.944   2.018  -0.997  1.00  0.00     0.025 A 
ATOM     14  C   UNL     1      13.466   0.946  -1.768  1.00  0.00     0.016 A 
ATOM     15  C   UNL     1      14.349   0.162  -2.515  1.00  0.00     0.051 A 
ATOM     16  C   UNL     1      15.718   0.447  -2.521  1.00  0.00     0.157 A 
ATOM     17  C   UNL     1      15.320   2.314  -1.017  1.00  0.00     0.062 A 
ATOM     18  C   UNL     1      16.207   1.530  -1.771  1.00  0.00     0.158 A 
BRANCH  16  19
ATOM     19  O   UNL     1      16.575  -0.355  -3.272  1.00  0.00    -0.504 OA
ATOM     20  H   UNL     1      16.459  -0.476  -4.271  1.00  0.00     0.293 HD
ENDBRANCH  16  19
BRANCH  18  21
ATOM     21  O   UNL     1      17.570   1.822  -1.775  1.00  0.00    -0.504 OA
ATOM     22  H   UNL     1      18.233   1.258  -1.255  1.00  0.00     0.293 HD
ENDBRANCH  18  21
ENDBRANCH   3  13
BRANCH  10  23
ATOM     23  O   UNL     1      10.135   5.637   2.951  1.00  0.00    -0.507 OA
ATOM     24  H   UNL     1      10.076   4.949   3.695  1.00  0.00     0.293 HD
ENDBRANCH  10  23
BRANCH  11  25
ATOM     25  O   UNL     1       7.875   5.813  -1.305  1.00  0.00    -0.508 OA
ATOM     26  H   UNL     1       6.924   5.757  -0.958  1.00  0.00     0.293 HD
ENDBRANCH  11  25
ENDBRANCH   1   2
BRANCH   1  27
ATOM     27  C   UNL     1      14.207   1.251   2.528  1.00  0.00     0.339 C 
ATOM     28  C   UNL     1      14.975   1.427   3.875  1.00  0.00     0.214 C 
ATOM     29  O   UNL     1      12.856   0.840   2.719  1.00  0.00    -0.332 OA
ATOM     30  C   UNL     1      13.990   1.493   5.056  1.00  0.00     0.180 C 
ATOM     31  C   UNL     1      12.791  -0.256   3.615  1.00  0.00     0.179 C 
ATOM     32  C   UNL     1      13.048   0.255   5.059  1.00  0.00     0.177 C 
BRANCH  28  33
ATOM     33  O   UNL     1      15.770   2.587   3.843  1.00  0.00    -0.384 OA
ATOM     34  H   UNL     1      16.656   2.325   3.480  1.00  0.00     0.211 HD
ENDBRANCH  28  33
BRANCH  30  35
ATOM     35  O   UNL     1      14.697   1.595   6.265  1.00  0.00    -0.387 OA
ATOM     36  H   UNL     1      15.585   1.981   6.042  1.00  0.00     0.211 HD
ENDBRANCH  30  35
BRANCH  31  37
ATOM     37  C   UNL     1      11.434  -0.992   3.488  1.00  0.00     0.191 C 
BRANCH  37  38
ATOM     38  O   UNL     1      10.659  -0.855   4.653  1.00  0.00    -0.394 OA
ATOM     39  H   UNL     1      10.519   0.119   4.785  1.00  0.00     0.210 HD
ENDBRANCH  37  38
ENDBRANCH  31  37
BRANCH  32  40
ATOM     40  O   UNL     1      13.549  -0.782   5.868  1.00  0.00    -0.387 OA
ATOM     41  H   UNL     1      14.428  -0.489   6.223  1.00  0.00     0.211 HD
ENDBRANCH  32  40
ENDBRANCH   1  27
TORSDOF 12
ENDMDL
MODEL 3
REMARK VINA RESULT:    -5.773      2.399      5.559
REMARK INTER + INTRA:         -10.095
REMARK INTER:                  -8.676
REMARK INTRA:                  -1.419
REMARK UNBOUND:                -1.622
REMARK SMILES O=c1c(O[C@@H]2O[C@H](CO)[C@@H](O)[C@@H](O)[C@@H]2O)c(-c2ccc(O)c(O)c2)oc2cc(O)cc(O)c12
REMARK SMILES IDX 4 1 3 2 16 3 25 4 2 5 26 6 1 7 33 8 27 9 31 10 28 11 30 12
REMARK SMILES IDX 17 13 18 14 19 15 20 16 24 17 22 18 21 19 23 21 32 23 29 25
REMARK SMILES IDX 5 27 14 28 6 29 12 30 7 31 10 32 15 33 13 35 8 37 9 38 11 40
REMARK H PARENT 21 20 23 22 32 24 29 26 15 34 13 36 9 39 11 41
REMARK Flexibility Score: inf
ROOT
ATOM      1  O   UNL     1      12.054   1.186   2.136  1.00  0.00    -0.454 OA
ENDROOT
BRANCH   1   2
ATOM      2  C   UNL     1      13.114   0.957   3.038  1.00  0.00     0.214 A 
ATOM      3  C   UNL     1      14.384   1.476   2.712  1.00  0.00     0.180 A 
ATOM      4  O   UNL     1      15.399   1.346   3.560  1.00  0.00    -0.452 OA
ATOM      5  C   UNL     1      12.972   0.265   4.263  1.00  0.00     0.239 A 
ATOM      6  C   UNL     1      15.303   0.719   4.723  1.00  0.00     0.146 A 
ATOM      7  O   UNL     1      11.863  -0.231   4.591  1.00  0.00    -0.285 OA
ATOM      8  C   UNL     1      14.082   0.133   5.126  1.00  0.00     0.111 A 
ATOM      9  C   UNL     1      16.426   0.651   5.551  1.00  0.00     0.094 A 
ATOM     10  C   UNL     1      14.016  -0.525   6.380  1.00  0.00     0.134 A 
ATOM     11  C   UNL     1      16.349   0.017   6.796  1.00  0.00     0.123 A 
ATOM     12  C   UNL     1      15.151  -0.574   7.203  1.00  0.00     0.093 A 
BRANCH   3  13
ATOM     13  C   UNL     1      14.637   2.196   1.442  1.00  0.00     0.025 A 
ATOM     14  C   UNL     1      14.387   3.576   1.369  1.00  0.00     0.016 A 
ATOM     15  C   UNL     1      14.643   4.282   0.191  1.00  0.00     0.051 A 
ATOM     16  C   UNL     1      15.172   3.627  -0.925  1.00  0.00     0.157 A 
ATOM     17  C   UNL     1      15.185   1.542   0.322  1.00  0.00     0.062 A 
ATOM     18  C   UNL     1      15.448   2.251  -0.860  1.00  0.00     0.158 A 
BRANCH  16  19
ATOM     19  O   UNL     1      15.414   4.357  -2.088  1.00  0.00    -0.504 OA
ATOM     20  H   UNL     1      15.100   5.313  -2.197  1.00  0.00     0.293 HD
ENDBRANCH  16  19
BRANCH  18  21
ATOM     21  O   UNL     1      15.979   1.593  -1.969  1.00  0.00    -0.504 OA
ATOM     22  H   UNL     1      16.743   0.933  -1.876  1.00  0.00     0.293 HD
ENDBRANCH  18  21
ENDBRANCH   3  13
BRANCH  10  23
ATOM     23  O   UNL     1      12.834  -1.123   6.819  1.00  0.00    -0.507 OA
ATOM     24  H   UNL     1      12.521  -1.051   7.782  1.00  0.00     0.293 HD
ENDBRANCH  10  23
BRANCH  11  25
ATOM     25  O   UNL     1      17.456  -0.025   7.642  1.00  0.00    -0.508 OA
ATOM     26  H   UNL     1      18.188  -0.717   7.522  1.00  0.00     0.293 HD
ENDBRANCH  11  25
ENDBRANCH   1   2
BRANCH   1  27
ATOM     27  C   UNL     1      11.718   0.428   0.973  1.00  0.00     0.339 C 
ATOM     28  C   UNL     1      10.216   0.008   1.043  1.00  0.00     0.214 C 
ATOM     29  O   UNL     1      12.014   1.207  -0.183  1.00  0.00    -0.332 OA
ATOM     30  C   UNL     1       9.371   0.852   0.072  1.00  0.00     0.180 C 
ATOM     31  C   UNL     1      11.490   0.589  -1.347  1.00  0.00     0.179 C 
ATOM     32  C   UNL     1       9.949   0.778  -1.370  1.00  0.00     0.177 C 
BRANCH  28  33
ATOM     33  O   UNL     1       9.726   0.143   2.354  1.00  0.00    -0.384 OA
ATOM     34  H   UNL     1       9.024   0.844   2.334  1.00  0.00     0.211 HD
ENDBRANCH  28  33
BRANCH  30  35
ATOM     35  O   UNL     1       8.033   0.424   0.104  1.00  0.00    -0.387 OA
ATOM     36  H   UNL     1       7.478   1.220  -0.107  1.00  0.00     0.211 HD
ENDBRANCH  30  35
BRANCH  31  37
ATOM     37  C   UNL     1      12.169   1.151  -2.621  1.00  0.00     0.191 C 
BRANCH  37  38
ATOM     38  O   UNL     1      12.379   2.537  -2.526  1.00  0.00    -0.394 OA
ATOM     39  H   UNL     1      12.750   2.826  -3.401  1.00  0.00     0.210 HD
ENDBRANCH  37  38
ENDBRANCH  31  37
BRANCH  32  40
ATOM     40  O   UNL     1       9.338  -0.239  -2.128  1.00  0.00    -0.387 OA
ATOM     41  H   UNL     1       9.892  -1.057  -2.033  1.00  0.00     0.211 HD
ENDBRANCH  32  40
ENDBRANCH   1  27
TORSDOF 12
ENDMDL
MODEL 4
REMARK VINA RESULT:    -5.600      2.427      5.291
REMARK INTER + INTRA:          -9.841
REMARK INTER:                  -9.587
REMARK INTRA:                  -0.253
REMARK UNBOUND:                -1.622
REMARK SMILES O=c1c(O[C@@H]2O[C@H](CO)[C@@H](O)[C@@H](O)[C@@H]2O)c(-c2ccc(O)c(O)c2)oc2cc(O)cc(O)c12
REMARK SMILES IDX 4 1 3 2 16 3 25 4 2 5 26 6 1 7 33 8 27 9 31 10 28 11 30 12
REMARK SMILES IDX 17 13 18 14 19 15 20 16 24 17 22 18 21 19 23 21 32 23 29 25
REMARK SMILES IDX 5 27 14 28 6 29 12 30 7 31 10 32 15 33 13 35 8 37 9 38 11 40
REMARK H PARENT 21 20 23 22 32 24 29 26 15 34 13 36 9 39 11 41
REMARK Flexibility Score: inf
ROOT
ATOM      1  O   UNL     1      12.054   0.892   1.817  1.00  0.00    -0.454 OA
ENDROOT
BRANCH   1   2
ATOM      2  C   UNL     1      13.081   0.792   2.779  1.00  0.00     0.214 A 
ATOM      3  C   UNL     1      14.321   1.399   2.487  1.00  0.00     0.180 A 
ATOM      4  O   UNL     1      15.298   1.392   3.387  1.00  0.00    -0.452 OA
ATOM      5  C   UNL     1      12.932   0.149   4.029  1.00  0.00     0.239 A 
ATOM      6  C   UNL     1      15.194   0.815   4.575  1.00  0.00     0.146 A 
ATOM      7  O   UNL     1      11.851  -0.421   4.329  1.00  0.00    -0.285 OA
ATOM      8  C   UNL     1      14.004   0.149   4.949  1.00  0.00     0.111 A 
ATOM      9  C   UNL     1      16.274   0.877   5.457  1.00  0.00     0.094 A 
ATOM     10  C   UNL     1      13.927  -0.453   6.230  1.00  0.00     0.134 A 
ATOM     11  C   UNL     1      16.185   0.298   6.728  1.00  0.00     0.123 A 
ATOM     12  C   UNL     1      15.019  -0.370   7.107  1.00  0.00     0.093 A 
BRANCH   3  13
ATOM     13  C   UNL     1      14.580   2.077   1.195  1.00  0.00     0.025 A 
ATOM     14  C   UNL     1      14.451   3.473   1.111  1.00  0.00     0.016 A 
ATOM     15  C   UNL     1      14.716   4.138  -0.089  1.00  0.00     0.051 A 
ATOM     16  C   UNL     1      15.134   3.425  -1.216  1.00  0.00     0.157 A 
ATOM     17  C   UNL     1      15.017   1.363   0.064  1.00  0.00     0.062 A 
ATOM     18  C   UNL     1      15.289   2.030  -1.141  1.00  0.00     0.158 A 
BRANCH  16  19
ATOM     19  O   UNL     1      15.388   4.115  -2.400  1.00  0.00    -0.504 OA
ATOM     20  H   UNL     1      14.939   4.997  -2.614  1.00  0.00     0.293 HD
ENDBRANCH  16  19
BRANCH  18  21
ATOM     21  O   UNL     1      15.709   1.313  -2.260  1.00  0.00    -0.504 OA
ATOM     22  H   UNL     1      16.001   1.783  -3.110  1.00  0.00     0.293 HD
ENDBRANCH  18  21
ENDBRANCH   3  13
BRANCH  10  23
ATOM     23  O   UNL     1      12.776  -1.125   6.643  1.00  0.00    -0.507 OA
ATOM     24  H   UNL     1      12.294  -0.885   7.503  1.00  0.00     0.293 HD
ENDBRANCH  10  23
BRANCH  11  25
ATOM     25  O   UNL     1      17.248   0.387   7.625  1.00  0.00    -0.508 OA
ATOM     26  H   UNL     1      17.157   0.078   8.586  1.00  0.00     0.293 HD
ENDBRANCH  11  25
ENDBRANCH   1   2
BRANCH   1  27
ATOM     27  C   UNL     1      11.742   2.010   0.985  1.00  0.00     0.339 C 
ATOM     28  C   UNL     1      11.466   1.514  -0.469  1.00  0.00     0.214 C 
ATOM     29  O   UNL     1      10.631   2.703   1.545  1.00  0.00    -0.332 OA
ATOM     30  C   UNL     1       9.959   1.555  -0.780  1.00  0.00     0.180 C 
ATOM     31  C   UNL     1      10.147   3.681   0.641  1.00  0.00     0.179 C 
ATOM     32  C   UNL     1       9.378   2.972  -0.507  1.00  0.00     0.177 C 
BRANCH  28  33
ATOM     33  O   UNL     1      11.962   0.211  -0.650  1.00  0.00    -0.384 OA
ATOM     34  H   UNL     1      11.366  -0.243  -1.302  1.00  0.00     0.211 HD
ENDBRANCH  28  33
BRANCH  30  35
ATOM     35  O   UNL     1       9.732   1.161  -2.109  1.00  0.00    -0.387 OA
ATOM     36  H   UNL     1       9.779   1.987  -2.659  1.00  0.00     0.211 HD
ENDBRANCH  30  35
BRANCH  31  37
ATOM     37  C   UNL     1       9.268   4.724   1.377  1.00  0.00     0.191 C 
BRANCH  37  38
ATOM     38  O   UNL     1       7.967   4.771   0.847  1.00  0.00    -0.394 OA
ATOM     39  H   UNL     1       7.350   4.840   1.621  1.00  0.00     0.210 HD
ENDBRANCH  37  38
ENDBRANCH  31  37
BRANCH  32  40
ATOM     40  O   UNL     1       9.377   3.770  -1.667  1.00  0.00    -0.387 OA
ATOM     41  H   UNL     1      10.276   4.183  -1.748  1.00  0.00     0.211 HD
ENDBRANCH  32  40
ENDBRANCH   1  27
TORSDOF 12
ENDMDL
MODEL 5
REMARK VINA RESULT:    -5.301      1.300      2.468
REMARK INTER + INTRA:          -9.402
REMARK INTER:                  -8.596
REMARK INTRA:                  -0.806
REMARK UNBOUND:                -1.622
REMARK SMILES O=c1c(O[C@@H]2O[C@H](CO)[C@@H](O)[C@@H](O)[C@@H]2O)c(-c2ccc(O)c(O)c2)oc2cc(O)cc(O)c12
REMARK SMILES IDX 4 1 3 2 16 3 25 4 2 5 26 6 1 7 33 8 27 9 31 10 28 11 30 12
REMARK SMILES IDX 17 13 18 14 19 15 20 16 24 17 22 18 21 19 23 21 32 23 29 25
REMARK SMILES IDX 5 27 14 28 6 29 12 30 7 31 10 32 15 33 13 35 8 37 9 38 11 40
REMARK H PARENT 21 20 23 22 32 24 29 26 15 34 13 36 9 39 11 41
REMARK Flexibility Score: inf
ROOT
ATOM      1  O   UNL     1      13.882   0.691   2.517  1.00  0.00    -0.454 OA
ENDROOT
BRANCH   1   2
ATOM      2  C   UNL     1      12.880   0.300   3.429  1.00  0.00     0.214 A 
ATOM      3  C   UNL     1      13.226   0.208   4.794  1.00  0.00     0.180 A 
ATOM      4  O   UNL     1      12.302  -0.090   5.701  1.00  0.00    -0.452 OA
ATOM      5  C   UNL     1      11.543   0.025   3.062  1.00  0.00     0.239 A 
ATOM      6  C   UNL     1      11.036  -0.339   5.400  1.00  0.00     0.146 A 
ATOM      7  O   UNL     1      11.188   0.077   1.856  1.00  0.00    -0.285 OA
ATOM      8  C   UNL     1      10.597  -0.307   4.057  1.00  0.00     0.111 A 
ATOM      9  C   UNL     1      10.138  -0.628   6.430  1.00  0.00     0.094 A 
ATOM     10  C   UNL     1       9.233  -0.574   3.774  1.00  0.00     0.134 A 
ATOM     11  C   UNL     1       8.790  -0.870   6.146  1.00  0.00     0.123 A 
ATOM     12  C   UNL     1       8.344  -0.850   4.823  1.00  0.00     0.093 A 
BRANCH   3  13
ATOM     13  C   UNL     1      14.606   0.455   5.273  1.00  0.00     0.025 A 
ATOM     14  C   UNL     1      15.476  -0.632   5.460  1.00  0.00     0.016 A 
ATOM     15  C   UNL     1      16.791  -0.422   5.885  1.00  0.00     0.051 A 
ATOM     16  C   UNL     1      17.264   0.874   6.111  1.00  0.00     0.157 A 
ATOM     17  C   UNL     1      15.089   1.760   5.486  1.00  0.00     0.062 A 
ATOM     18  C   UNL     1      16.410   1.972   5.908  1.00  0.00     0.158 A 
BRANCH  16  19
ATOM     19  O   UNL     1      18.578   1.052   6.538  1.00  0.00    -0.504 OA
ATOM     20  H   UNL     1      19.220   1.671   6.059  1.00  0.00     0.293 HD
ENDBRANCH  16  19
BRANCH  18  21
ATOM     21  O   UNL     1      16.876   3.267   6.128  1.00  0.00    -0.504 OA
ATOM     22  H   UNL     1      16.448   3.873   6.820  1.00  0.00     0.293 HD
ENDBRANCH  18  21
ENDBRANCH   3  13
BRANCH  10  23
ATOM     23  O   UNL     1       8.753  -0.558   2.464  1.00  0.00    -0.507 OA
ATOM     24  H   UNL     1       9.367  -0.412   1.669  1.00  0.00     0.293 HD
ENDBRANCH  10  23
BRANCH  11  25
ATOM     25  O   UNL     1       7.882  -1.125   7.172  1.00  0.00    -0.508 OA
ATOM     26  H   UNL     1       7.711  -0.449   7.908  1.00  0.00     0.293 HD
ENDBRANCH  11  25
ENDBRANCH   1   2
BRANCH   1  27
ATOM     27  C   UNL     1      13.710   1.169   1.183  1.00  0.00     0.339 C 
ATOM     28  C   UNL     1      14.058   2.689   1.126  1.00  0.00     0.214 C 
ATOM     29  O   UNL     1      14.522   0.390   0.309  1.00  0.00    -0.332 OA
ATOM     30  C   UNL     1      15.422   2.910   0.450  1.00  0.00     0.180 C 
ATOM     31  C   UNL     1      14.557   0.969  -0.985  1.00  0.00     0.179 C 
ATOM     32  C   UNL     1      15.459   2.232  -0.950  1.00  0.00     0.177 C 
BRANCH  28  33
ATOM     33  O   UNL     1      14.064   3.243   2.419  1.00  0.00    -0.384 OA
ATOM     34  H   UNL     1      14.631   4.058   2.387  1.00  0.00     0.211 HD
ENDBRANCH  28  33
BRANCH  30  35
ATOM     35  O   UNL     1      15.695   4.284   0.355  1.00  0.00    -0.387 OA
ATOM     36  H   UNL     1      15.561   4.662   1.264  1.00  0.00     0.211 HD
ENDBRANCH  30  35
BRANCH  31  37
ATOM     37  C   UNL     1      15.035  -0.064  -2.037  1.00  0.00     0.191 C 
BRANCH  37  38
ATOM     38  O   UNL     1      16.095   0.439  -2.811  1.00  0.00    -0.394 OA
ATOM     39  H   UNL     1      16.320   1.330  -2.435  1.00  0.00     0.210 HD
ENDBRANCH  37  38
ENDBRANCH  31  37
BRANCH  32  40
ATOM     40  O   UNL     1      15.096   3.127  -1.975  1.00  0.00    -0.387 OA
ATOM     41  H   UNL     1      14.202   2.852  -2.310  1.00  0.00     0.211 HD
ENDBRANCH  32  40
ENDBRANCH   1  27
TORSDOF 12
ENDMDL
MODEL 6
REMARK VINA RESULT:    -5.277     14.721     17.672
REMARK INTER + INTRA:          -9.367
REMARK INTER:                  -7.755
REMARK INTRA:                  -1.612
REMARK UNBOUND:                -1.622
REMARK SMILES O=c1c(O[C@@H]2O[C@H](CO)[C@@H](O)[C@@H](O)[C@@H]2O)c(-c2ccc(O)c(O)c2)oc2cc(O)cc(O)c12
REMARK SMILES IDX 4 1 3 2 16 3 25 4 2 5 26 6 1 7 33 8 27 9 31 10 28 11 30 12
REMARK SMILES IDX 17 13 18 14 19 15 20 16 24 17 22 18 21 19 23 21 32 23 29 25
REMARK SMILES IDX 5 27 14 28 6 29 12 30 7 31 10 32 15 33 13 35 8 37 9 38 11 40
REMARK H PARENT 21 20 23 22 32 24 29 26 15 34 13 36 9 39 11 41
REMARK Flexibility Score: inf
ROOT
ATOM      1  O   UNL     1      24.777  11.500   7.699  1.00  0.00    -0.454 OA
ENDROOT
BRANCH   1   2
ATOM      2  C   UNL     1      25.466  10.291   7.929  1.00  0.00     0.214 A 
ATOM      3  C   UNL     1      26.374  10.242   9.008  1.00  0.00     0.180 A 
ATOM      4  O   UNL     1      26.997   9.107   9.310  1.00  0.00    -0.452 OA
ATOM      5  C   UNL     1      25.279   9.117   7.164  1.00  0.00     0.239 A 
ATOM      6  C   UNL     1      26.837   7.983   8.627  1.00  0.00     0.146 A 
ATOM      7  O   UNL     1      24.493   9.114   6.181  1.00  0.00    -0.285 OA
ATOM      8  C   UNL     1      25.977   7.938   7.506  1.00  0.00     0.111 A 
ATOM      9  C   UNL     1      27.526   6.839   9.034  1.00  0.00     0.094 A 
ATOM     10  C   UNL     1      25.827   6.715   6.804  1.00  0.00     0.134 A 
ATOM     11  C   UNL     1      27.359   5.630   8.348  1.00  0.00     0.123 A 
ATOM     12  C   UNL     1      26.519   5.574   7.235  1.00  0.00     0.093 A 
BRANCH   3  13
ATOM     13  C   UNL     1      26.654  11.426   9.855  1.00  0.00     0.025 A 
ATOM     14  C   UNL     1      27.850  12.138   9.669  1.00  0.00     0.016 A 
ATOM     15  C   UNL     1      28.125  13.273  10.436  1.00  0.00     0.051 A 
ATOM     16  C   UNL     1      27.203  13.728  11.384  1.00  0.00     0.157 A 
ATOM     17  C   UNL     1      25.720  11.894  10.798  1.00  0.00     0.062 A 
ATOM     18  C   UNL     1      25.992  13.037  11.565  1.00  0.00     0.158 A 
BRANCH  16  19
ATOM     19  O   UNL     1      27.506  14.861  12.137  1.00  0.00    -0.504 OA
ATOM     20  H   UNL     1      28.042  15.630  11.756  1.00  0.00     0.293 HD
ENDBRANCH  16  19
BRANCH  18  21
ATOM     21  O   UNL     1      25.067  13.486  12.506  1.00  0.00    -0.504 OA
ATOM     22  H   UNL     1      24.577  12.841  13.116  1.00  0.00     0.293 HD
ENDBRANCH  18  21
ENDBRANCH   3  13
BRANCH  10  23
ATOM     23  O   UNL     1      24.993   6.622   5.689  1.00  0.00    -0.507 OA
ATOM     24  H   UNL     1      24.917   5.769   5.145  1.00  0.00     0.293 HD
ENDBRANCH  10  23
BRANCH  11  25
ATOM     25  O   UNL     1      28.018   4.477   8.771  1.00  0.00    -0.508 OA
ATOM     26  H   UNL     1      29.011   4.478   8.972  1.00  0.00     0.293 HD
ENDBRANCH  11  25
ENDBRANCH   1   2
BRANCH   1  27
ATOM     27  C   UNL     1      25.170  12.581   6.852  1.00  0.00     0.339 C 
ATOM     28  C   UNL     1      24.002  12.928   5.877  1.00  0.00     0.214 C 
ATOM     29  O   UNL     1      25.549  13.687   7.666  1.00  0.00    -0.332 OA
ATOM     30  C   UNL     1      23.306  14.232   6.305  1.00  0.00     0.180 C 
ATOM     31  C   UNL     1      25.729  14.849   6.874  1.00  0.00     0.179 C 
ATOM     32  C   UNL     1      24.338  15.388   6.442  1.00  0.00     0.177 C 
BRANCH  28  33
ATOM     33  O   UNL     1      23.069  11.876   5.828  1.00  0.00    -0.384 OA
ATOM     34  H   UNL     1      23.488  11.091   6.269  1.00  0.00     0.211 HD
ENDBRANCH  28  33
BRANCH  30  35
ATOM     35  O   UNL     1      22.295  14.561   5.388  1.00  0.00    -0.387 OA
ATOM     36  H   UNL     1      22.549  14.138   4.525  1.00  0.00     0.211 HD
ENDBRANCH  30  35
BRANCH  31  37
ATOM     37  C   UNL     1      26.558  15.912   7.637  1.00  0.00     0.191 C 
BRANCH  37  38
ATOM     38  O   UNL     1      25.877  17.139   7.719  1.00  0.00    -0.394 OA
ATOM     39  H   UNL     1      26.114  17.647   6.900  1.00  0.00     0.210 HD
ENDBRANCH  37  38
ENDBRANCH  31  37
BRANCH  32  40
ATOM     40  O   UNL     1      24.445  16.138   5.256  1.00  0.00    -0.387 OA
ATOM     41  H   UNL     1      25.236  16.731   5.346  1.00  0.00     0.211 HD
ENDBRANCH  32  40
ENDBRANCH   1  27
TORSDOF 12
ENDMDL
MODEL 7
REMARK VINA RESULT:    -5.173      2.349      5.682
REMARK INTER + INTRA:          -9.215
REMARK INTER:                  -7.959
REMARK INTRA:                  -1.256
REMARK UNBOUND:                -1.622
REMARK SMILES O=c1c(O[C@@H]2O[C@H](CO)[C@@H](O)[C@@H](O)[C@@H]2O)c(-c2ccc(O)c(O)c2)oc2cc(O)cc(O)c12
REMARK SMILES IDX 4 1 3 2 16 3 25 4 2 5 26 6 1 7 33 8 27 9 31 10 28 11 30 12
REMARK SMILES IDX 17 13 18 14 19 15 20 16 24 17 22 18 21 19 23 21 32 23 29 25
REMARK SMILES IDX 5 27 14 28 6 29 12 30 7 31 10 32 15 33 13 35 8 37 9 38 11 40
REMARK H PARENT 21 20 23 22 32 24 29 26 15 34 13 36 9 39 11 41
REMARK Flexibility Score: inf
ROOT
ATOM      1  O   UNL     1      11.723  -0.575   1.585  1.00  0.00    -0.454 OA
ENDROOT
BRANCH   1   2
ATOM      2  C   UNL     1      12.685  -0.056   2.478  1.00  0.00     0.214 A 
ATOM      3  C   UNL     1      13.907   0.401   1.941  1.00  0.00     0.180 A 
ATOM      4  O   UNL     1      14.818   0.962   2.729  1.00  0.00    -0.452 OA
ATOM      5  C   UNL     1      12.485   0.063   3.872  1.00  0.00     0.239 A 
ATOM      6  C   UNL     1      14.662   1.106   4.037  1.00  0.00     0.146 A 
ATOM      7  O   UNL     1      11.419  -0.345   4.402  1.00  0.00    -0.285 OA
ATOM      8  C   UNL     1      13.488   0.648   4.677  1.00  0.00     0.111 A 
ATOM      9  C   UNL     1      15.673   1.723   4.776  1.00  0.00     0.094 A 
ATOM     10  C   UNL     1      13.355   0.824   6.078  1.00  0.00     0.134 A 
ATOM     11  C   UNL     1      15.527   1.912   6.155  1.00  0.00     0.123 A 
ATOM     12  C   UNL     1      14.376   1.456   6.801  1.00  0.00     0.093 A 
BRANCH   3  13
ATOM     13  C   UNL     1      14.218   0.299   0.495  1.00  0.00     0.025 A 
ATOM     14  C   UNL     1      14.221  -0.963  -0.121  1.00  0.00     0.016 A 
ATOM     15  C   UNL     1      14.485  -1.083  -1.488  1.00  0.00     0.051 A 
ATOM     16  C   UNL     1      14.729   0.054  -2.264  1.00  0.00     0.157 A 
ATOM     17  C   UNL     1      14.448   1.443  -0.291  1.00  0.00     0.062 A 
ATOM     18  C   UNL     1      14.708   1.325  -1.665  1.00  0.00     0.158 A 
BRANCH  16  19
ATOM     19  O   UNL     1      14.993  -0.097  -3.625  1.00  0.00    -0.504 OA
ATOM     20  H   UNL     1      14.803   0.638  -4.293  1.00  0.00     0.293 HD
ENDBRANCH  16  19
BRANCH  18  21
ATOM     21  O   UNL     1      14.947   2.463  -2.434  1.00  0.00    -0.504 OA
ATOM     22  H   UNL     1      15.794   3.008  -2.322  1.00  0.00     0.293 HD
ENDBRANCH  18  21
ENDBRANCH   3  13
BRANCH  10  23
ATOM     23  O   UNL     1      12.216   0.385   6.754  1.00  0.00    -0.507 OA
ATOM     24  H   UNL     1      11.747  -0.482   6.509  1.00  0.00     0.293 HD
ENDBRANCH  10  23
BRANCH  11  25
ATOM     25  O   UNL     1      16.518   2.558   6.893  1.00  0.00    -0.508 OA
ATOM     26  H   UNL     1      17.438   2.732   6.505  1.00  0.00     0.293 HD
ENDBRANCH  11  25
ENDBRANCH   1   2
BRANCH   1  27
ATOM     27  C   UNL     1      10.726   0.145   0.861  1.00  0.00     0.339 C 
ATOM     28  C   UNL     1       9.383   0.115   1.656  1.00  0.00     0.214 C 
ATOM     29  O   UNL     1      11.194   1.470   0.630  1.00  0.00    -0.332 OA
ATOM     30  C   UNL     1       9.113   1.478   2.316  1.00  0.00     0.180 C 
ATOM     31  C   UNL     1      10.153   2.283   0.115  1.00  0.00     0.179 C 
ATOM     32  C   UNL     1       9.161   2.622   1.262  1.00  0.00     0.177 C 
BRANCH  28  33
ATOM     33  O   UNL     1       9.408  -0.898   2.631  1.00  0.00    -0.384 OA
ATOM     34  H   UNL     1      10.207  -0.739   3.199  1.00  0.00     0.211 HD
ENDBRANCH  28  33
BRANCH  30  35
ATOM     35  O   UNL     1       7.875   1.454   2.979  1.00  0.00    -0.387 OA
ATOM     36  H   UNL     1       7.613   0.498   3.052  1.00  0.00     0.211 HD
ENDBRANCH  30  35
BRANCH  31  37
ATOM     37  C   UNL     1      10.729   3.556  -0.555  1.00  0.00     0.191 C 
BRANCH  37  38
ATOM     38  O   UNL     1       9.830   4.103  -1.486  1.00  0.00    -0.394 OA
ATOM     39  H   UNL     1       9.551   4.984  -1.124  1.00  0.00     0.210 HD
ENDBRANCH  37  38
ENDBRANCH  31  37
BRANCH  32  40
ATOM     40  O   UNL     1       7.886   2.910   0.741  1.00  0.00    -0.387 OA
ATOM     41  H   UNL     1       7.635   2.166   0.133  1.00  0.00     0.211 HD
ENDBRANCH  32  40
ENDBRANCH   1  27
TORSDOF 12
ENDMDL
MODEL 8
REMARK VINA RESULT:    -4.861      2.678      5.679
REMARK INTER + INTRA:          -8.757
REMARK INTER:                  -7.494
REMARK INTRA:                  -1.263
REMARK UNBOUND:                -1.622
REMARK SMILES O=c1c(O[C@@H]2O[C@H](CO)[C@@H](O)[C@@H](O)[C@@H]2O)c(-c2ccc(O)c(O)c2)oc2cc(O)cc(O)c12
REMARK SMILES IDX 4 1 3 2 16 3 25 4 2 5 26 6 1 7 33 8 27 9 31 10 28 11 30 12
REMARK SMILES IDX 17 13 18 14 19 15 20 16 24 17 22 18 21 19 23 21 32 23 29 25
REMARK SMILES IDX 5 27 14 28 6 29 12 30 7 31 10 32 15 33 13 35 8 37 9 38 11 40
REMARK H PARENT 21 20 23 22 32 24 29 26 15 34 13 36 9 39 11 41
REMARK Flexibility Score: inf
ROOT
ATOM      1  O   UNL     1      14.650   2.619   1.162  1.00  0.00    -0.454 OA
ENDROOT
BRANCH   1   2
ATOM      2  C   UNL     1      14.614   1.912   2.383  1.00  0.00     0.214 A 
ATOM      3  C   UNL     1      13.807   0.758   2.456  1.00  0.00     0.180 A 
ATOM      4  O   UNL     1      13.792   0.019   3.560  1.00  0.00    -0.452 OA
ATOM      5  C   UNL     1      15.363   2.274   3.526  1.00  0.00     0.239 A 
ATOM      6  C   UNL     1      14.490   0.315   4.647  1.00  0.00     0.146 A 
ATOM      7  O   UNL     1      16.085   3.305   3.517  1.00  0.00    -0.285 OA
ATOM      8  C   UNL     1      15.302   1.472   4.687  1.00  0.00     0.111 A 
ATOM      9  C   UNL     1      14.418  -0.535   5.752  1.00  0.00     0.094 A 
ATOM     10  C   UNL     1      16.039   1.753   5.865  1.00  0.00     0.134 A 
ATOM     11  C   UNL     1      15.163  -0.262   6.905  1.00  0.00     0.123 A 
ATOM     12  C   UNL     1      15.963   0.881   6.961  1.00  0.00     0.093 A 
BRANCH   3  13
ATOM     13  C   UNL     1      12.970   0.310   1.318  1.00  0.00     0.025 A 
ATOM     14  C   UNL     1      13.588  -0.219   0.173  1.00  0.00     0.016 A 
ATOM     15  C   UNL     1      12.819  -0.673  -0.902  1.00  0.00     0.051 A 
ATOM     16  C   UNL     1      11.422  -0.625  -0.843  1.00  0.00     0.157 A 
ATOM     17  C   UNL     1      11.564   0.342   1.382  1.00  0.00     0.062 A 
ATOM     18  C   UNL     1      10.790  -0.118   0.305  1.00  0.00     0.158 A 
BRANCH  16  19
ATOM     19  O   UNL     1      10.682  -1.081  -1.932  1.00  0.00    -0.504 OA
ATOM     20  H   UNL     1      10.359  -0.457  -2.660  1.00  0.00     0.293 HD
ENDBRANCH  16  19
BRANCH  18  21
ATOM     21  O   UNL     1       9.399  -0.070   0.372  1.00  0.00    -0.504 OA
ATOM     22  H   UNL     1       8.821  -0.395  -0.396  1.00  0.00     0.293 HD
ENDBRANCH  18  21
ENDBRANCH   3  13
BRANCH  10  23
ATOM     23  O   UNL     1      16.851   2.885   5.954  1.00  0.00    -0.507 OA
ATOM     24  H   UNL     1      17.225   3.210   6.840  1.00  0.00     0.293 HD
ENDBRANCH  10  23
BRANCH  11  25
ATOM     25  O   UNL     1      15.122  -1.125   7.998  1.00  0.00    -0.508 OA
ATOM     26  H   UNL     1      15.316  -2.115   7.900  1.00  0.00     0.293 HD
ENDBRANCH  11  25
ENDBRANCH   1   2
BRANCH   1  27
ATOM     27  C   UNL     1      13.738   3.619   0.706  1.00  0.00     0.339 C 
ATOM     28  C   UNL     1      13.594   3.522  -0.845  1.00  0.00     0.214 C 
ATOM     29  O   UNL     1      12.496   3.450   1.382  1.00  0.00    -0.332 OA
ATOM     30  C   UNL     1      12.243   2.890  -1.226  1.00  0.00     0.180 C 
ATOM     31  C   UNL     1      11.498   4.273   0.802  1.00  0.00     0.179 C 
ATOM     32  C   UNL     1      11.067   3.661  -0.560  1.00  0.00     0.177 C 
BRANCH  28  33
ATOM     33  O   UNL     1      14.649   2.772  -1.394  1.00  0.00    -0.384 OA
ATOM     34  H   UNL     1      15.487   3.278  -1.227  1.00  0.00     0.211 HD
ENDBRANCH  28  33
BRANCH  30  35
ATOM     35  O   UNL     1      12.103   2.862  -2.623  1.00  0.00    -0.387 OA
ATOM     36  H   UNL     1      12.976   2.560  -2.988  1.00  0.00     0.211 HD
ENDBRANCH  30  35
BRANCH  31  37
ATOM     37  C   UNL     1      10.300   4.451   1.769  1.00  0.00     0.191 C 
BRANCH  37  38
ATOM     38  O   UNL     1       9.436   5.472   1.340  1.00  0.00    -0.394 OA
ATOM     39  H   UNL     1       8.595   5.029   1.055  1.00  0.00     0.210 HD
ENDBRANCH  37  38
ENDBRANCH  31  37
BRANCH  32  40
ATOM     40  O   UNL     1      10.547   4.658  -1.406  1.00  0.00    -0.387 OA
ATOM     41  H   UNL     1      10.898   4.489  -2.320  1.00  0.00     0.211 HD
ENDBRANCH  32  40
ENDBRANCH   1  27
TORSDOF 12
ENDMDL
MODEL 9
REMARK VINA RESULT:    -4.698      2.319      5.570
REMARK INTER + INTRA:          -8.518
REMARK INTER:                  -8.063
REMARK INTRA:                  -0.455
REMARK UNBOUND:                -1.622
REMARK SMILES O=c1c(O[C@@H]2O[C@H](CO)[C@@H](O)[C@@H](O)[C@@H]2O)c(-c2ccc(O)c(O)c2)oc2cc(O)cc(O)c12
REMARK SMILES IDX 4 1 3 2 16 3 25 4 2 5 26 6 1 7 33 8 27 9 31 10 28 11 30 12
REMARK SMILES IDX 17 13 18 14 19 15 20 16 24 17 22 18 21 19 23 21 32 23 29 25
REMARK SMILES IDX 5 27 14 28 6 29 12 30 7 31 10 32 15 33 13 35 8 37 9 38 11 40
REMARK H PARENT 21 20 23 22 32 24 29 26 15 34 13 36 9 39 11 41
REMARK Flexibility Score: inf
ROOT
ATOM      1  O   UNL     1      13.510   0.589   1.854  1.00  0.00    -0.454 OA
ENDROOT
BRANCH   1   2
ATOM      2  C   UNL     1      12.768   0.333   3.026  1.00  0.00     0.214 A 
ATOM      3  C   UNL     1      11.398   0.026   2.889  1.00  0.00     0.180 A 
ATOM      4  O   UNL     1      10.671  -0.289   3.956  1.00  0.00    -0.452 OA
ATOM      5  C   UNL     1      13.323   0.335   4.327  1.00  0.00     0.239 A 
ATOM      6  C   UNL     1      11.157  -0.314   5.189  1.00  0.00     0.146 A 
ATOM      7  O   UNL     1      14.536   0.618   4.504  1.00  0.00    -0.285 OA
ATOM      8  C   UNL     1      12.509   0.013   5.436  1.00  0.00     0.111 A 
ATOM      9  C   UNL     1      10.314  -0.674   6.242  1.00  0.00     0.094 A 
ATOM     10  C   UNL     1      12.994  -0.030   6.768  1.00  0.00     0.134 A 
ATOM     11  C   UNL     1      10.803  -0.733   7.552  1.00  0.00     0.123 A 
ATOM     12  C   UNL     1      12.135  -0.405   7.811  1.00  0.00     0.093 A 
BRANCH   3  13
ATOM     13  C   UNL     1      10.722   0.021   1.570  1.00  0.00     0.025 A 
ATOM     14  C   UNL     1      10.879  -1.084   0.719  1.00  0.00     0.016 A 
ATOM     15  C   UNL     1      10.230  -1.125  -0.518  1.00  0.00     0.051 A 
ATOM     16  C   UNL     1       9.398  -0.074  -0.915  1.00  0.00     0.157 A 
ATOM     17  C   UNL     1       9.871   1.071   1.176  1.00  0.00     0.062 A 
ATOM     18  C   UNL     1       9.214   1.029  -0.064  1.00  0.00     0.158 A 
BRANCH  16  19
ATOM     19  O   UNL     1       8.766  -0.140  -2.156  1.00  0.00    -0.504 OA
ATOM     20  H   UNL     1       7.992   0.466  -2.397  1.00  0.00     0.293 HD
ENDBRANCH  16  19
BRANCH  18  21
ATOM     21  O   UNL     1       8.383   2.079  -0.452  1.00  0.00    -0.504 OA
ATOM     22  H   UNL     1       7.553   2.320   0.078  1.00  0.00     0.293 HD
ENDBRANCH  18  21
ENDBRANCH   3  13
BRANCH  10  23
ATOM     23  O   UNL     1      14.321   0.288   7.062  1.00  0.00    -0.507 OA
ATOM     24  H   UNL     1      14.631   1.248   7.173  1.00  0.00     0.293 HD
ENDBRANCH  10  23
BRANCH  11  25
ATOM     25  O   UNL     1       9.976  -1.125   8.603  1.00  0.00    -0.508 OA
ATOM     26  H   UNL     1      10.288  -1.787   9.304  1.00  0.00     0.293 HD
ENDBRANCH  11  25
ENDBRANCH   1   2
BRANCH   1  27
ATOM     27  C   UNL     1      13.192   1.500   0.802  1.00  0.00     0.339 C 
ATOM     28  C   UNL     1      13.881   2.873   1.078  1.00  0.00     0.214 C 
ATOM     29  O   UNL     1      13.595   0.928  -0.439  1.00  0.00    -0.332 OA
ATOM     30  C   UNL     1      15.091   3.070   0.148  1.00  0.00     0.180 C 
ATOM     31  C   UNL     1      13.506   1.884  -1.481  1.00  0.00     0.179 C 
ATOM     32  C   UNL     1      14.677   2.895  -1.341  1.00  0.00     0.177 C 
BRANCH  28  33
ATOM     33  O   UNL     1      14.285   2.962   2.423  1.00  0.00    -0.384 OA
ATOM     34  H   UNL     1      13.852   3.769   2.807  1.00  0.00     0.211 HD
ENDBRANCH  28  33
BRANCH  30  35
ATOM     35  O   UNL     1      15.666   4.332   0.369  1.00  0.00    -0.387 OA
ATOM     36  H   UNL     1      15.966   4.344   1.316  1.00  0.00     0.211 HD
ENDBRANCH  30  35
BRANCH  31  37
ATOM     37  C   UNL     1      13.495   1.190  -2.866  1.00  0.00     0.191 C 
BRANCH  37  38
ATOM     38  O   UNL     1      12.658   1.861  -3.775  1.00  0.00    -0.394 OA
ATOM     39  H   UNL     1      13.254   2.391  -4.367  1.00  0.00     0.210 HD
ENDBRANCH  37  38
ENDBRANCH  31  37
BRANCH  32  40
ATOM     40  O   UNL     1      14.343   4.124  -1.940  1.00  0.00    -0.387 OA
ATOM     41  H   UNL     1      15.189   4.567  -2.210  1.00  0.00     0.211 HD
ENDBRANCH  32  40
ENDBRANCH   1  27
TORSDOF 12
ENDMDL
