MODEL 1
REMARK VINA RESULT:    -6.555      0.000      0.000
REMARK INTER + INTRA:          -9.267
REMARK INTER:                  -8.855
REMARK INTRA:                  -0.413
REMARK UNBOUND:                -0.413
REMARK SMILES COc1ccc(-c2cc(=O)c3c(OC)c(OC)c(OC)c(OC)c3o2)cc1
REMARK SMILES IDX 7 1 8 2 9 3 10 4 11 5 24 6 25 7 21 8 18 9 15 10 12 11 6 12
REMARK SMILES IDX 3 13 4 14 27 15 5 16 26 17 2 18 1 19 22 20 23 21 13 22 14 23
REMARK SMILES IDX 19 24 20 25 16 26 17 27
REMARK H PARENT
REMARK Flexibility Score: inf
ROOT
ATOM      1  C   UNL     1       7.981  11.212 -14.549  1.00  0.00     0.138 A 
ATOM      2  C   UNL     1       8.775  12.299 -14.153  1.00  0.00     0.100 A 
ATOM      3  C   UNL     1       9.145  13.256 -15.095  1.00  0.00     0.197 A 
ATOM      4  O   UNL     1       9.861  14.226 -14.726  1.00  0.00    -0.289 OA
ATOM      5  C   UNL     1       8.724  13.117 -16.436  1.00  0.00     0.115 A 
ATOM      6  C   UNL     1       7.933  11.995 -16.761  1.00  0.00     0.188 A 
ATOM      7  O   UNL     1       7.607  11.111 -15.822  1.00  0.00    -0.452 OA
ATOM      8  C   UNL     1       7.469  11.792 -18.066  1.00  0.00     0.209 A 
ATOM      9  C   UNL     1       7.821  12.707 -19.092  1.00  0.00     0.211 A 
ATOM     10  C   UNL     1       8.656  13.810 -18.778  1.00  0.00     0.208 A 
ATOM     11  C   UNL     1       9.048  14.049 -17.443  1.00  0.00     0.179 A 
ENDROOT
BRANCH   1  12
ATOM     12  C   UNL     1       7.558  10.156 -13.594  1.00  0.00     0.018 A 
ATOM     13  C   UNL     1       6.739   8.113 -11.822  1.00  0.00     0.118 A 
ATOM     14  C   UNL     1       7.042   7.815 -13.164  1.00  0.00     0.047 A 
ATOM     15  C   UNL     1       6.837   9.437 -11.381  1.00  0.00     0.047 A 
ATOM     16  C   UNL     1       7.444   8.828 -14.038  1.00  0.00     0.016 A 
ATOM     17  C   UNL     1       7.237  10.452 -12.256  1.00  0.00     0.016 A 
BRANCH  13  18
ATOM     18  O   UNL     1       6.336   7.132 -10.905  1.00  0.00    -0.497 OA
ATOM     19  C   UNL     1       6.541   7.215  -9.498  1.00  0.00     0.278 C 
ENDBRANCH  13  18
ENDBRANCH   1  12
BRANCH   8  20
ATOM     20  O   UNL     1       6.660  10.654 -18.271  1.00  0.00    -0.490 OA
ATOM     21  C   UNL     1       7.098   9.311 -18.443  1.00  0.00     0.278 C 
ENDBRANCH   8  20
BRANCH  11  22
ATOM     22  O   UNL     1       9.756  15.211 -17.110  1.00  0.00    -0.492 OA
ATOM     23  C   UNL     1      11.118  15.410 -17.474  1.00  0.00     0.278 C 
ENDBRANCH  11  22
BRANCH   9  24
ATOM     24  O   UNL     1       7.337  12.473 -20.392  1.00  0.00    -0.490 OA
ATOM     25  C   UNL     1       6.019  12.712 -20.876  1.00  0.00     0.279 C 
ENDBRANCH   9  24
BRANCH  10  26
ATOM     26  O   UNL     1       9.111  14.655 -19.793  1.00  0.00    -0.490 OA
ATOM     27  C   UNL     1       8.342  15.754 -20.273  1.00  0.00     0.278 C 
ENDBRANCH  10  26
TORSDOF 6
ENDMDL
MODEL 2
REMARK VINA RESULT:    -6.281      1.000      3.469
REMARK INTER + INTRA:          -8.896
REMARK INTER:                  -8.585
REMARK INTRA:                  -0.311
REMARK UNBOUND:                -0.413
REMARK SMILES COc1ccc(-c2cc(=O)c3c(OC)c(OC)c(OC)c(OC)c3o2)cc1
REMARK SMILES IDX 7 1 8 2 9 3 10 4 11 5 24 6 25 7 21 8 18 9 15 10 12 11 6 12
REMARK SMILES IDX 3 13 4 14 27 15 5 16 26 17 2 18 1 19 22 20 23 21 13 22 14 23
REMARK SMILES IDX 19 24 20 25 16 26 17 27
REMARK H PARENT
REMARK Flexibility Score: inf
ROOT
ATOM      1  C   UNL     1       7.350  10.269 -15.647  1.00  0.00     0.138 A 
ATOM      2  C   UNL     1       6.571   9.880 -16.747  1.00  0.00     0.100 A 
ATOM      3  C   UNL     1       6.725  10.541 -17.963  1.00  0.00     0.197 A 
ATOM      4  O   UNL     1       6.017  10.183 -18.943  1.00  0.00    -0.289 OA
ATOM      5  C   UNL     1       7.656  11.598 -18.072  1.00  0.00     0.115 A 
ATOM      6  C   UNL     1       8.399  11.937 -16.921  1.00  0.00     0.188 A 
ATOM      7  O   UNL     1       8.213  11.272 -15.784  1.00  0.00    -0.452 OA
ATOM      8  C   UNL     1       9.348  12.966 -16.952  1.00  0.00     0.209 A 
ATOM      9  C   UNL     1       9.550  13.707 -18.145  1.00  0.00     0.211 A 
ATOM     10  C   UNL     1       8.770  13.399 -19.290  1.00  0.00     0.208 A 
ATOM     11  C   UNL     1       7.877  12.306 -19.271  1.00  0.00     0.179 A 
ENDROOT
BRANCH   1  12
ATOM     12  C   UNL     1       7.228   9.608 -14.323  1.00  0.00     0.018 A 
ATOM     13  C   UNL     1       6.977   8.302 -11.829  1.00  0.00     0.118 A 
ATOM     14  C   UNL     1       7.043   7.557 -13.021  1.00  0.00     0.047 A 
ATOM     15  C   UNL     1       7.025   9.699 -11.896  1.00  0.00     0.047 A 
ATOM     16  C   UNL     1       7.165   8.206 -14.253  1.00  0.00     0.016 A 
ATOM     17  C   UNL     1       7.144  10.349 -13.128  1.00  0.00     0.016 A 
BRANCH  13  18
ATOM     18  O   UNL     1       6.860   7.699 -10.569  1.00  0.00    -0.497 OA
ATOM     19  C   UNL     1       7.381   8.248  -9.363  1.00  0.00     0.278 C 
ENDBRANCH  13  18
ENDBRANCH   1  12
BRANCH   8  20
ATOM     20  O   UNL     1      10.054  13.199 -15.753  1.00  0.00    -0.490 OA
ATOM     21  C   UNL     1       9.854  14.267 -14.834  1.00  0.00     0.278 C 
ENDBRANCH   8  20
BRANCH  11  22
ATOM     22  O   UNL     1       7.210  11.916 -20.439  1.00  0.00    -0.492 OA
ATOM     23  C   UNL     1       6.004  12.534 -20.875  1.00  0.00     0.278 C 
ENDBRANCH  11  22
BRANCH   9  24
ATOM     24  O   UNL     1      10.511  14.734 -18.141  1.00  0.00    -0.490 OA
ATOM     25  C   UNL     1      10.280  16.129 -17.984  1.00  0.00     0.279 C 
ENDBRANCH   9  24
BRANCH  10  26
ATOM     26  O   UNL     1       8.867  14.191 -20.436  1.00  0.00    -0.490 OA
ATOM     27  C   UNL     1       8.119  15.392 -20.601  1.00  0.00     0.278 C 
ENDBRANCH  10  26
TORSDOF 6
ENDMDL
MODEL 3
REMARK VINA RESULT:    -5.931      1.962      7.832
REMARK INTER + INTRA:          -8.424
REMARK INTER:                  -8.142
REMARK INTRA:                  -0.283
REMARK UNBOUND:                -0.413
REMARK SMILES COc1ccc(-c2cc(=O)c3c(OC)c(OC)c(OC)c(OC)c3o2)cc1
REMARK SMILES IDX 7 1 8 2 9 3 10 4 11 5 24 6 25 7 21 8 18 9 15 10 12 11 6 12
REMARK SMILES IDX 3 13 4 14 27 15 5 16 26 17 2 18 1 19 22 20 23 21 13 22 14 23
REMARK SMILES IDX 19 24 20 25 16 26 17 27
REMARK H PARENT
REMARK Flexibility Score: inf
ROOT
ATOM      1  C   UNL     1       8.466  13.757 -18.337  1.00  0.00     0.138 A 
ATOM      2  C   UNL     1       8.886  14.263 -17.098  1.00  0.00     0.100 A 
ATOM      3  C   UNL     1       8.777  13.466 -15.961  1.00  0.00     0.197 A 
ATOM      4  O   UNL     1       9.156  13.933 -14.853  1.00  0.00    -0.289 OA
ATOM      5  C   UNL     1       8.239  12.164 -16.067  1.00  0.00     0.115 A 
ATOM      6  C   UNL     1       7.832  11.726 -17.345  1.00  0.00     0.188 A 
ATOM      7  O   UNL     1       7.959  12.528 -18.400  1.00  0.00    -0.452 OA
ATOM      8  C   UNL     1       7.298  10.446 -17.534  1.00  0.00     0.209 A 
ATOM      9  C   UNL     1       7.130   9.579 -16.424  1.00  0.00     0.211 A 
ATOM     10  C   UNL     1       7.494  10.035 -15.130  1.00  0.00     0.208 A 
ATOM     11  C   UNL     1       8.108  11.295 -14.965  1.00  0.00     0.179 A 
ENDROOT
BRANCH   1  12
ATOM     12  C   UNL     1       8.550  14.558 -19.585  1.00  0.00     0.018 A 
ATOM     13  C   UNL     1       8.722  16.035 -21.988  1.00  0.00     0.118 A 
ATOM     14  C   UNL     1       8.498  14.646 -22.019  1.00  0.00     0.047 A 
ATOM     15  C   UNL     1       8.871  16.673 -20.752  1.00  0.00     0.047 A 
ATOM     16  C   UNL     1       8.416  13.918 -20.828  1.00  0.00     0.016 A 
ATOM     17  C   UNL     1       8.791  15.945 -19.560  1.00  0.00     0.016 A 
BRANCH  13  18
ATOM     18  O   UNL     1       8.807  16.810 -23.153  1.00  0.00    -0.497 OA
ATOM     19  C   UNL     1       9.547  16.440 -24.312  1.00  0.00     0.278 C 
ENDBRANCH  13  18
ENDBRANCH   1  12
BRANCH   8  20
ATOM     20  O   UNL     1       6.954  10.103 -18.858  1.00  0.00    -0.490 OA
ATOM     21  C   UNL     1       5.875  10.625 -19.627  1.00  0.00     0.278 C 
ENDBRANCH   8  20
BRANCH  11  22
ATOM     22  O   UNL     1       8.594  11.688 -13.711  1.00  0.00    -0.492 OA
ATOM     23  C   UNL     1       7.733  12.002 -12.621  1.00  0.00     0.278 C 
ENDBRANCH  11  22
BRANCH   9  24
ATOM     24  O   UNL     1       6.591   8.300 -16.649  1.00  0.00    -0.490 OA
ATOM     25  C   UNL     1       7.304   7.072 -16.761  1.00  0.00     0.279 C 
ENDBRANCH   9  24
BRANCH  10  26
ATOM     26  O   UNL     1       7.228   9.244 -14.009  1.00  0.00    -0.490 OA
ATOM     27  C   UNL     1       8.156   8.281 -13.517  1.00  0.00     0.278 C 
ENDBRANCH  10  26
TORSDOF 6
ENDMDL
MODEL 4
REMARK VINA RESULT:    -5.801      2.375      3.114
REMARK INTER + INTRA:          -8.248
REMARK INTER:                  -7.812
REMARK INTRA:                  -0.436
REMARK UNBOUND:                -0.413
REMARK SMILES COc1ccc(-c2cc(=O)c3c(OC)c(OC)c(OC)c(OC)c3o2)cc1
REMARK SMILES IDX 7 1 8 2 9 3 10 4 11 5 24 6 25 7 21 8 18 9 15 10 12 11 6 12
REMARK SMILES IDX 3 13 4 14 27 15 5 16 26 17 2 18 1 19 22 20 23 21 13 22 14 23
REMARK SMILES IDX 19 24 20 25 16 26 17 27
REMARK H PARENT
REMARK Flexibility Score: inf
ROOT
ATOM      1  C   UNL     1       7.940   9.570 -15.802  1.00  0.00     0.138 A 
ATOM      2  C   UNL     1       8.366  10.321 -14.697  1.00  0.00     0.100 A 
ATOM      3  C   UNL     1       8.565  11.693 -14.838  1.00  0.00     0.197 A 
ATOM      4  O   UNL     1       8.950  12.357 -13.838  1.00  0.00    -0.289 OA
ATOM      5  C   UNL     1       8.341  12.308 -16.090  1.00  0.00     0.115 A 
ATOM      6  C   UNL     1       7.920  11.486 -17.157  1.00  0.00     0.188 A 
ATOM      7  O   UNL     1       7.745  10.180 -16.968  1.00  0.00    -0.452 OA
ATOM      8  C   UNL     1       7.669  12.021 -18.425  1.00  0.00     0.209 A 
ATOM      9  C   UNL     1       7.870  13.406 -18.661  1.00  0.00     0.211 A 
ATOM     10  C   UNL     1       8.340  14.226 -17.603  1.00  0.00     0.208 A 
ATOM     11  C   UNL     1       8.509  13.690 -16.308  1.00  0.00     0.179 A 
ENDROOT
BRANCH   1  12
ATOM     12  C   UNL     1       7.717   8.104 -15.718  1.00  0.00     0.018 A 
ATOM     13  C   UNL     1       7.241   5.322 -15.584  1.00  0.00     0.118 A 
ATOM     14  C   UNL     1       6.542   6.121 -16.508  1.00  0.00     0.047 A 
ATOM     15  C   UNL     1       8.166   5.924 -14.725  1.00  0.00     0.047 A 
ATOM     16  C   UNL     1       6.778   7.497 -16.569  1.00  0.00     0.016 A 
ATOM     17  C   UNL     1       8.401   7.302 -14.784  1.00  0.00     0.016 A 
BRANCH  13  18
ATOM     18  O   UNL     1       7.044   3.937 -15.487  1.00  0.00    -0.497 OA
ATOM     19  C   UNL     1       7.047   3.044 -16.597  1.00  0.00     0.278 C 
ENDBRANCH  13  18
ENDBRANCH   1  12
BRANCH   8  20
ATOM     20  O   UNL     1       7.222  11.114 -19.409  1.00  0.00    -0.490 OA
ATOM     21  C   UNL     1       5.875  10.872 -19.804  1.00  0.00     0.278 C 
ENDBRANCH   8  20
BRANCH  11  22
ATOM     22  O   UNL     1       8.839  14.526 -15.233  1.00  0.00    -0.492 OA
ATOM     23  C   UNL     1      10.181  14.891 -14.930  1.00  0.00     0.278 C 
ENDBRANCH  11  22
BRANCH   9  24
ATOM     24  O   UNL     1       7.607  13.911 -19.947  1.00  0.00    -0.490 OA
ATOM     25  C   UNL     1       8.472  13.881 -21.078  1.00  0.00     0.279 C 
ENDBRANCH   9  24
BRANCH  10  26
ATOM     26  O   UNL     1       8.657  15.565 -17.843  1.00  0.00    -0.490 OA
ATOM     27  C   UNL     1       9.918  15.969 -18.369  1.00  0.00     0.278 C 
ENDBRANCH  10  26
TORSDOF 6
ENDMDL
MODEL 5
REMARK VINA RESULT:    -5.679      2.344      8.065
REMARK INTER + INTRA:          -8.083
REMARK INTER:                  -7.933
REMARK INTRA:                  -0.150
REMARK UNBOUND:                -0.413
REMARK SMILES COc1ccc(-c2cc(=O)c3c(OC)c(OC)c(OC)c(OC)c3o2)cc1
REMARK SMILES IDX 7 1 8 2 9 3 10 4 11 5 24 6 25 7 21 8 18 9 15 10 12 11 6 12
REMARK SMILES IDX 3 13 4 14 27 15 5 16 26 17 2 18 1 19 22 20 23 21 13 22 14 23
REMARK SMILES IDX 19 24 20 25 16 26 17 27
REMARK H PARENT
REMARK Flexibility Score: inf
ROOT
ATOM      1  C   UNL     1       7.944  13.776 -18.313  1.00  0.00     0.138 A 
ATOM      2  C   UNL     1       7.092  14.288 -17.324  1.00  0.00     0.100 A 
ATOM      3  C   UNL     1       6.847  13.536 -16.177  1.00  0.00     0.197 A 
ATOM      4  O   UNL     1       6.077  14.006 -15.296  1.00  0.00    -0.289 OA
ATOM      5  C   UNL     1       7.452  12.268 -16.028  1.00  0.00     0.115 A 
ATOM      6  C   UNL     1       8.292  11.818 -17.068  1.00  0.00     0.188 A 
ATOM      7  O   UNL     1       8.493  12.577 -18.143  1.00  0.00    -0.452 OA
ATOM      8  C   UNL     1       8.935  10.577 -16.991  1.00  0.00     0.209 A 
ATOM      9  C   UNL     1       8.720   9.738 -15.867  1.00  0.00     0.211 A 
ATOM     10  C   UNL     1       7.838  10.168 -14.842  1.00  0.00     0.208 A 
ATOM     11  C   UNL     1       7.261  11.455 -14.892  1.00  0.00     0.179 A 
ENDROOT
BRANCH   1  12
ATOM     12  C   UNL     1       8.241  14.526 -19.561  1.00  0.00     0.018 A 
ATOM     13  C   UNL     1       8.789  16.001 -21.908  1.00  0.00     0.118 A 
ATOM     14  C   UNL     1       8.735  16.645 -20.658  1.00  0.00     0.047 A 
ATOM     15  C   UNL     1       8.557  14.623 -21.975  1.00  0.00     0.047 A 
ATOM     16  C   UNL     1       8.461  15.912 -19.499  1.00  0.00     0.016 A 
ATOM     17  C   UNL     1       8.280  13.890 -20.817  1.00  0.00     0.016 A 
BRANCH  13  18
ATOM     18  O   UNL     1       9.066  16.690 -23.098  1.00  0.00    -0.497 OA
ATOM     19  C   UNL     1       9.738  16.122 -24.217  1.00  0.00     0.278 C 
ENDBRANCH  13  18
ENDBRANCH   1  12
BRANCH   8  20
ATOM     20  O   UNL     1       9.776  10.242 -18.073  1.00  0.00    -0.490 OA
ATOM     21  C   UNL     1      11.026   9.563 -18.009  1.00  0.00     0.278 C 
ENDBRANCH   8  20
BRANCH  11  22
ATOM     22  O   UNL     1       6.502  11.934 -13.816  1.00  0.00    -0.492 OA
ATOM     23  C   UNL     1       7.073  12.221 -12.544  1.00  0.00     0.278 C 
ENDBRANCH  11  22
BRANCH   9  24
ATOM     24  O   UNL     1       9.383   8.498 -15.821  1.00  0.00    -0.490 OA
ATOM     25  C   UNL     1      10.293   8.044 -14.825  1.00  0.00     0.279 C 
ENDBRANCH   9  24
BRANCH  10  26
ATOM     26  O   UNL     1       7.520   9.310 -13.787  1.00  0.00    -0.490 OA
ATOM     27  C   UNL     1       6.462   8.359 -13.868  1.00  0.00     0.278 C 
ENDBRANCH  10  26
TORSDOF 6
ENDMDL
MODEL 6
REMARK VINA RESULT:    -5.631      2.158      7.988
REMARK INTER + INTRA:          -8.019
REMARK INTER:                  -7.485
REMARK INTRA:                  -0.534
REMARK UNBOUND:                -0.413
REMARK SMILES COc1ccc(-c2cc(=O)c3c(OC)c(OC)c(OC)c(OC)c3o2)cc1
REMARK SMILES IDX 7 1 8 2 9 3 10 4 11 5 24 6 25 7 21 8 18 9 15 10 12 11 6 12
REMARK SMILES IDX 3 13 4 14 27 15 5 16 26 17 2 18 1 19 22 20 23 21 13 22 14 23
REMARK SMILES IDX 19 24 20 25 16 26 17 27
REMARK H PARENT
REMARK Flexibility Score: inf
ROOT
ATOM      1  C   UNL     1       7.820  12.910 -18.173  1.00  0.00     0.138 A 
ATOM      2  C   UNL     1       7.113  12.237 -19.180  1.00  0.00     0.100 A 
ATOM      3  C   UNL     1       6.780  10.896 -19.004  1.00  0.00     0.197 A 
ATOM      4  O   UNL     1       6.146  10.303 -19.918  1.00  0.00    -0.289 OA
ATOM      5  C   UNL     1       7.163  10.230 -17.819  1.00  0.00     0.115 A 
ATOM      6  C   UNL     1       7.878  10.970 -16.854  1.00  0.00     0.188 A 
ATOM      7  O   UNL     1       8.170  12.250 -17.072  1.00  0.00    -0.452 OA
ATOM      8  C   UNL     1       8.285  10.383 -15.650  1.00  0.00     0.209 A 
ATOM      9  C   UNL     1       8.008   9.015 -15.401  1.00  0.00     0.211 A 
ATOM     10  C   UNL     1       7.331   8.255 -16.390  1.00  0.00     0.208 A 
ATOM     11  C   UNL     1       6.853   8.879 -17.563  1.00  0.00     0.179 A 
ENDROOT
BRANCH   1  12
ATOM     12  C   UNL     1       8.210  14.337 -18.304  1.00  0.00     0.018 A 
ATOM     13  C   UNL     1       8.902  17.063 -18.581  1.00  0.00     0.118 A 
ATOM     14  C   UNL     1       7.563  16.651 -18.707  1.00  0.00     0.047 A 
ATOM     15  C   UNL     1       9.888  16.103 -18.328  1.00  0.00     0.047 A 
ATOM     16  C   UNL     1       7.224  15.302 -18.572  1.00  0.00     0.016 A 
ATOM     17  C   UNL     1       9.551  14.753 -18.196  1.00  0.00     0.016 A 
BRANCH  13  18
ATOM     18  O   UNL     1       9.292  18.404 -18.702  1.00  0.00    -0.497 OA
ATOM     19  C   UNL     1       8.475  19.514 -18.345  1.00  0.00     0.278 C 
ENDBRANCH  13  18
ENDBRANCH   1  12
BRANCH   8  20
ATOM     20  O   UNL     1       8.966  11.225 -14.744  1.00  0.00    -0.490 OA
ATOM     21  C   UNL     1       8.391  12.007 -13.703  1.00  0.00     0.278 C 
ENDBRANCH   8  20
BRANCH  11  22
ATOM     22  O   UNL     1       6.066   8.163 -18.475  1.00  0.00    -0.492 OA
ATOM     23  C   UNL     1       6.595   7.126 -19.295  1.00  0.00     0.278 C 
ENDBRANCH  11  22
BRANCH   9  24
ATOM     24  O   UNL     1       8.430   8.457 -14.180  1.00  0.00    -0.490 OA
ATOM     25  C   UNL     1       7.682   8.357 -12.974  1.00  0.00     0.279 C 
ENDBRANCH   9  24
BRANCH  10  26
ATOM     26  O   UNL     1       7.153   6.881 -16.217  1.00  0.00    -0.490 OA
ATOM     27  C   UNL     1       6.012   6.336 -15.560  1.00  0.00     0.278 C 
ENDBRANCH  10  26
TORSDOF 6
ENDMDL
MODEL 7
REMARK VINA RESULT:    -5.574      2.311      4.506
REMARK INTER + INTRA:          -7.942
REMARK INTER:                  -7.400
REMARK INTRA:                  -0.543
REMARK UNBOUND:                -0.413
REMARK SMILES COc1ccc(-c2cc(=O)c3c(OC)c(OC)c(OC)c(OC)c3o2)cc1
REMARK SMILES IDX 7 1 8 2 9 3 10 4 11 5 24 6 25 7 21 8 18 9 15 10 12 11 6 12
REMARK SMILES IDX 3 13 4 14 27 15 5 16 26 17 2 18 1 19 22 20 23 21 13 22 14 23
REMARK SMILES IDX 19 24 20 25 16 26 17 27
REMARK H PARENT
REMARK Flexibility Score: inf
ROOT
ATOM      1  C   UNL     1       7.374   9.726 -17.406  1.00  0.00     0.138 A 
ATOM      2  C   UNL     1       6.874  10.100 -18.662  1.00  0.00     0.100 A 
ATOM      3  C   UNL     1       7.039  11.412 -19.102  1.00  0.00     0.197 A 
ATOM      4  O   UNL     1       6.582  11.735 -20.231  1.00  0.00    -0.289 OA
ATOM      5  C   UNL     1       7.701  12.348 -18.277  1.00  0.00     0.115 A 
ATOM      6  C   UNL     1       8.171  11.900 -17.025  1.00  0.00     0.188 A 
ATOM      7  O   UNL     1       7.988  10.635 -16.654  1.00  0.00    -0.452 OA
ATOM      8  C   UNL     1       8.845  12.766 -16.155  1.00  0.00     0.209 A 
ATOM      9  C   UNL     1       9.035  14.124 -16.516  1.00  0.00     0.211 A 
ATOM     10  C   UNL     1       8.520  14.589 -17.754  1.00  0.00     0.208 A 
ATOM     11  C   UNL     1       7.916  13.688 -18.658  1.00  0.00     0.179 A 
ENDROOT
BRANCH   1  12
ATOM     12  C   UNL     1       7.225   8.346 -16.878  1.00  0.00     0.018 A 
ATOM     13  C   UNL     1       6.986   5.729 -15.839  1.00  0.00     0.118 A 
ATOM     14  C   UNL     1       7.694   6.716 -15.129  1.00  0.00     0.047 A 
ATOM     15  C   UNL     1       6.412   6.057 -17.072  1.00  0.00     0.047 A 
ATOM     16  C   UNL     1       7.812   8.009 -15.647  1.00  0.00     0.016 A 
ATOM     17  C   UNL     1       6.532   7.349 -17.592  1.00  0.00     0.016 A 
BRANCH  13  18
ATOM     18  O   UNL     1       6.834   4.420 -15.359  1.00  0.00    -0.497 OA
ATOM     19  C   UNL     1       7.048   3.249 -16.140  1.00  0.00     0.278 C 
ENDBRANCH  13  18
ENDBRANCH   1  12
BRANCH   8  20
ATOM     20  O   UNL     1       9.300  12.203 -14.943  1.00  0.00    -0.490 OA
ATOM     21  C   UNL     1       8.593  12.141 -13.709  1.00  0.00     0.278 C 
ENDBRANCH   8  20
BRANCH  11  22
ATOM     22  O   UNL     1       7.533  14.117 -19.935  1.00  0.00    -0.492 OA
ATOM     23  C   UNL     1       8.461  14.256 -21.006  1.00  0.00     0.278 C 
ENDBRANCH  11  22
BRANCH   9  24
ATOM     24  O   UNL     1       9.717  14.967 -15.619  1.00  0.00    -0.490 OA
ATOM     25  C   UNL     1      11.108  14.956 -15.316  1.00  0.00     0.279 C 
ENDBRANCH   9  24
BRANCH  10  26
ATOM     26  O   UNL     1       8.591  15.946 -18.076  1.00  0.00    -0.490 OA
ATOM     27  C   UNL     1       9.780  16.552 -18.575  1.00  0.00     0.278 C 
ENDBRANCH  10  26
TORSDOF 6
ENDMDL
MODEL 8
REMARK VINA RESULT:    -5.407      2.847      7.748
REMARK INTER + INTRA:          -7.716
REMARK INTER:                  -7.188
REMARK INTRA:                  -0.528
REMARK UNBOUND:                -0.413
REMARK SMILES COc1ccc(-c2cc(=O)c3c(OC)c(OC)c(OC)c(OC)c3o2)cc1
REMARK SMILES IDX 7 1 8 2 9 3 10 4 11 5 24 6 25 7 21 8 18 9 15 10 12 11 6 12
REMARK SMILES IDX 3 13 4 14 27 15 5 16 26 17 2 18 1 19 22 20 23 21 13 22 14 23
REMARK SMILES IDX 19 24 20 25 16 26 17 27
REMARK H PARENT
REMARK Flexibility Score: inf
ROOT
ATOM      1  C   UNL     1       8.382  14.243 -17.469  1.00  0.00     0.138 A 
ATOM      2  C   UNL     1       9.039  13.494 -18.456  1.00  0.00     0.100 A 
ATOM      3  C   UNL     1       9.365  12.163 -18.201  1.00  0.00     0.197 A 
ATOM      4  O   UNL     1       9.958  11.501 -19.095  1.00  0.00    -0.289 OA
ATOM      5  C   UNL     1       9.037  11.588 -16.953  1.00  0.00     0.115 A 
ATOM      6  C   UNL     1       8.381  12.406 -16.008  1.00  0.00     0.188 A 
ATOM      7  O   UNL     1       8.092  13.671 -16.303  1.00  0.00    -0.452 OA
ATOM      8  C   UNL     1       8.015  11.907 -14.753  1.00  0.00     0.209 A 
ATOM      9  C   UNL     1       8.330  10.569 -14.404  1.00  0.00     0.211 A 
ATOM     10  C   UNL     1       9.032   9.759 -15.334  1.00  0.00     0.208 A 
ATOM     11  C   UNL     1       9.322  10.247 -16.627  1.00  0.00     0.179 A 
ENDROOT
BRANCH   1  12
ATOM     12  C   UNL     1       8.014  15.667 -17.676  1.00  0.00     0.018 A 
ATOM     13  C   UNL     1       7.262  18.366 -18.044  1.00  0.00     0.118 A 
ATOM     14  C   UNL     1       6.648  17.584 -17.048  1.00  0.00     0.047 A 
ATOM     15  C   UNL     1       8.241  17.785 -18.858  1.00  0.00     0.047 A 
ATOM     16  C   UNL     1       7.021  16.249 -16.871  1.00  0.00     0.016 A 
ATOM     17  C   UNL     1       8.612  16.449 -18.683  1.00  0.00     0.016 A 
BRANCH  13  18
ATOM     18  O   UNL     1       6.928  19.711 -18.258  1.00  0.00    -0.497 OA
ATOM     19  C   UNL     1       6.520  20.611 -17.233  1.00  0.00     0.278 C 
ENDBRANCH  13  18
ENDBRANCH   1  12
BRANCH   8  20
ATOM     20  O   UNL     1       7.336  12.803 -13.899  1.00  0.00    -0.490 OA
ATOM     21  C   UNL     1       5.928  12.961 -13.767  1.00  0.00     0.278 C 
ENDBRANCH   8  20
BRANCH  11  22
ATOM     22  O   UNL     1       9.890   9.405 -17.591  1.00  0.00    -0.492 OA
ATOM     23  C   UNL     1      11.276   9.079 -17.603  1.00  0.00     0.278 C 
ENDBRANCH  11  22
BRANCH   9  24
ATOM     24  O   UNL     1       7.947  10.099 -13.134  1.00  0.00    -0.490 OA
ATOM     25  C   UNL     1       6.723   9.461 -12.786  1.00  0.00     0.279 C 
ENDBRANCH   9  24
BRANCH  10  26
ATOM     26  O   UNL     1       9.457   8.480 -14.968  1.00  0.00    -0.490 OA
ATOM     27  C   UNL     1       8.620   7.334 -15.090  1.00  0.00     0.278 C 
ENDBRANCH  10  26
TORSDOF 6
ENDMDL
