MODEL 1
REMARK VINA RESULT:   132.992      0.000      0.000
REMARK INTER + INTRA:         145.153
REMARK INTER:                 144.654
REMARK INTRA:                   0.498
REMARK UNBOUND:                 0.498
REMARK SMILES C[C@@H]1[C@H]2C3=CC[C@@H]4[C@]5(C)CC[C@H](O)C(C)(C)[C@@H]5CC[C@]4(C)[C@@]3(C)CC[C@]2(C(=O)[O-])CC[C@@H]1C
REMARK SMILES IDX 26 1 30 2 25 3 3 4 31 5 24 6 4 7 2 8 32 9 22 10 5 11 1 12
REMARK SMILES IDX 33 13 23 14 20 15 6 16 7 17 19 18 21 19 8 20 18 21 17 22
REMARK SMILES IDX 10 23 9 24 14 25 11 26 12 27 15 28 16 29 27 30 28 31 29 32
REMARK SMILES IDX 13 33
REMARK H PARENT 13 34
REMARK Flexibility Score: inf
ROOT
ATOM      1  C   UNL     1      -0.804  -1.730   0.199  1.00  0.00     0.017 C 
ATOM      2  C   UNL     1      -2.316  -1.553  -0.094  1.00  0.00     0.014 C 
ATOM      3  C   UNL     1      -0.011  -1.495  -1.122  1.00  0.00     0.014 C 
ATOM      4  C   UNL     1      -0.336  -0.638   1.219  1.00  0.00     0.030 C 
ATOM      5  C   UNL     1      -3.160  -1.543   1.188  1.00  0.00     0.004 C 
ATOM      6  C   UNL     1       1.528  -1.475  -0.930  1.00  0.00     0.013 C 
ATOM      7  C   UNL     1       1.183  -0.781   1.418  1.00  0.00    -0.063 C 
ATOM      8  C   UNL     1      -1.227  -0.522   2.503  1.00  0.00    -0.003 C 
ATOM      9  C   UNL     1      -2.741  -0.413   2.150  1.00  0.00    -0.011 C 
ATOM     10  C   UNL     1       2.060  -0.495   0.188  1.00  0.00    -0.006 C 
ATOM     11  C   UNL     1       1.651  -1.493   2.458  1.00  0.00    -0.027 C 
ATOM     12  C   UNL     1      -0.772   0.647   3.399  1.00  0.00     0.008 C 
ATOM     13  C   UNL     1      -3.174   0.966   1.611  1.00  0.00     0.008 C 
ATOM     14  C   UNL     1       1.805   0.984  -0.267  1.00  0.00     0.017 C 
ATOM     15  C   UNL     1       3.646  -0.702   0.467  1.00  0.00    -0.020 C 
ATOM     16  C   UNL     1       3.068  -1.912   2.637  1.00  0.00     0.032 C 
ATOM     17  C   UNL     1       3.914  -1.984   1.335  1.00  0.00     0.006 C 
ATOM     18  C   UNL     1       4.249   0.517   1.251  1.00  0.00     0.008 C 
ATOM     19  C   UNL     1       4.357  -0.822  -0.929  1.00  0.00     0.012 C 
ATOM     20  C   UNL     1       5.482  -2.302   1.606  1.00  0.00    -0.025 C 
ATOM     21  C   UNL     1       5.500   0.243   2.131  1.00  0.00     0.005 C 
ATOM     22  C   UNL     1       6.362  -0.965   1.681  1.00  0.00     0.003 C 
ATOM     23  C   UNL     1       5.643  -3.147   2.923  1.00  0.00     0.010 C 
ATOM     24  C   UNL     1       5.989  -3.204   0.429  1.00  0.00     0.012 C 
ATOM     25  C   UNL     1       7.780  -1.081   2.417  1.00  0.00    -0.006 C 
ATOM     26  C   UNL     1       7.076  -3.323   3.419  1.00  0.00     0.033 C 
ATOM     27  C   UNL     1       7.718  -1.964   3.697  1.00  0.00     0.120 C 
ATOM     28  C   UNL     1       8.842  -1.669   1.441  1.00  0.00     0.014 C 
ATOM     29  C   UNL     1       8.352   0.307   2.821  1.00  0.00     0.014 C 
ENDROOT
BRANCH   1  30
ATOM     30  C   UNL     1      -0.571  -3.167   0.670  1.00  0.00     0.048 C 
ATOM     31  O   UNL     1      -0.697  -4.125  -0.144  1.00  0.00    -0.550 OA
ATOM     32  O   UNL     1      -0.351  -3.470   2.006  1.00  0.00    -0.550 OA
ENDBRANCH   1  30
BRANCH  27  33
ATOM     33  O   UNL     1       6.996  -1.318   4.720  1.00  0.00    -0.393 OA
ATOM     34  H   UNL     1       6.693  -2.013   5.360  1.00  0.00     0.210 HD
ENDBRANCH  27  33
TORSDOF 2
ENDMDL
MODEL 2
REMARK VINA RESULT:   133.096      8.732     14.640
REMARK INTER + INTRA:         145.266
REMARK INTER:                 143.726
REMARK INTRA:                   1.540
REMARK UNBOUND:                 0.498
REMARK SMILES C[C@@H]1[C@H]2C3=CC[C@@H]4[C@]5(C)CC[C@H](O)C(C)(C)[C@@H]5CC[C@]4(C)[C@@]3(C)CC[C@]2(C(=O)[O-])CC[C@@H]1C
REMARK SMILES IDX 26 1 30 2 25 3 3 4 31 5 24 6 4 7 2 8 32 9 22 10 5 11 1 12
REMARK SMILES IDX 33 13 23 14 20 15 6 16 7 17 19 18 21 19 8 20 18 21 17 22
REMARK SMILES IDX 10 23 9 24 14 25 11 26 12 27 15 28 16 29 27 30 28 31 29 32
REMARK SMILES IDX 13 33
REMARK H PARENT 13 34
REMARK Flexibility Score: inf
ROOT
ATOM      1  C   UNL     1      13.701  -2.045  13.387  1.00  0.00     0.017 C 
ATOM      2  C   UNL     1      14.532  -1.777  14.668  1.00  0.00     0.014 C 
ATOM      3  C   UNL     1      12.197  -2.147  13.783  1.00  0.00     0.014 C 
ATOM      4  C   UNL     1      13.839  -0.832  12.408  1.00  0.00     0.030 C 
ATOM      5  C   UNL     1      15.995  -1.438  14.352  1.00  0.00     0.004 C 
ATOM      6  C   UNL     1      11.238  -2.245  12.568  1.00  0.00     0.013 C 
ATOM      7  C   UNL     1      12.933  -1.086  11.191  1.00  0.00    -0.063 C 
ATOM      8  C   UNL     1      15.316  -0.384  12.130  1.00  0.00    -0.003 C 
ATOM      9  C   UNL     1      16.122  -0.193  13.450  1.00  0.00    -0.011 C 
ATOM     10  C   UNL     1      11.421  -1.129  11.466  1.00  0.00    -0.006 C 
ATOM     11  C   UNL     1      13.455  -1.630  10.077  1.00  0.00    -0.027 C 
ATOM     12  C   UNL     1      15.363   0.883  11.253  1.00  0.00     0.008 C 
ATOM     13  C   UNL     1      15.779   1.095  14.228  1.00  0.00     0.008 C 
ATOM     14  C   UNL     1      10.989   0.254  12.066  1.00  0.00     0.017 C 
ATOM     15  C   UNL     1      10.534  -1.437  10.142  1.00  0.00    -0.020 C 
ATOM     16  C   UNL     1      12.664  -2.147   8.928  1.00  0.00     0.032 C 
ATOM     17  C   UNL     1      11.198  -2.551   9.253  1.00  0.00     0.006 C 
ATOM     18  C   UNL     1      10.392  -0.158   9.243  1.00  0.00     0.008 C 
ATOM     19  C   UNL     1       9.111  -1.892  10.624  1.00  0.00     0.012 C 
ATOM     20  C   UNL     1      10.341  -2.966   7.939  1.00  0.00    -0.025 C 
ATOM     21  C   UNL     1      10.163  -0.384   7.723  1.00  0.00     0.005 C 
ATOM     22  C   UNL     1       9.497  -1.736   7.357  1.00  0.00     0.003 C 
ATOM     23  C   UNL     1      11.295  -3.557   6.836  1.00  0.00     0.010 C 
ATOM     24  C   UNL     1       9.370  -4.123   8.358  1.00  0.00     0.012 C 
ATOM     25  C   UNL     1       9.022  -1.850   5.832  1.00  0.00    -0.006 C 
ATOM     26  C   UNL     1      10.657  -3.778   5.466  1.00  0.00     0.033 C 
ATOM     27  C   UNL     1      10.114  -2.463   4.908  1.00  0.00     0.120 C 
ATOM     28  C   UNL     1       7.730  -2.717   5.740  1.00  0.00     0.014 C 
ATOM     29  C   UNL     1       8.608  -0.475   5.235  1.00  0.00     0.014 C 
ENDROOT
BRANCH   1  30
ATOM     30  C   UNL     1      14.152  -3.382  12.794  1.00  0.00     0.048 C 
ATOM     31  O   UNL     1      15.023  -4.074  13.392  1.00  0.00    -0.550 OA
ATOM     32  O   UNL     1      13.725  -3.806  11.544  1.00  0.00    -0.550 OA
ENDBRANCH   1  30
BRANCH  27  33
ATOM     33  O   UNL     1      11.186  -1.564   4.733  1.00  0.00    -0.393 OA
ATOM     34  H   UNL     1      11.207  -0.963   5.523  1.00  0.00     0.210 HD
ENDBRANCH  27  33
TORSDOF 2
ENDMDL
MODEL 3
REMARK VINA RESULT:   133.234      2.929      7.811
REMARK INTER + INTRA:         145.415
REMARK INTER:                 144.948
REMARK INTRA:                   0.468
REMARK UNBOUND:                 0.498
REMARK SMILES C[C@@H]1[C@H]2C3=CC[C@@H]4[C@]5(C)CC[C@H](O)C(C)(C)[C@@H]5CC[C@]4(C)[C@@]3(C)CC[C@]2(C(=O)[O-])CC[C@@H]1C
REMARK SMILES IDX 26 1 30 2 25 3 3 4 31 5 24 6 4 7 2 8 32 9 22 10 5 11 1 12
REMARK SMILES IDX 33 13 23 14 20 15 6 16 7 17 19 18 21 19 8 20 18 21 17 22
REMARK SMILES IDX 10 23 9 24 14 25 11 26 12 27 15 28 16 29 27 30 28 31 29 32
REMARK SMILES IDX 13 33
REMARK H PARENT 13 34
REMARK Flexibility Score: inf
ROOT
ATOM      1  C   UNL     1       3.842  -2.122  -0.087  1.00  0.00     0.017 C 
ATOM      2  C   UNL     1       5.005  -3.132   0.089  1.00  0.00     0.014 C 
ATOM      3  C   UNL     1       2.542  -2.915  -0.423  1.00  0.00     0.014 C 
ATOM      4  C   UNL     1       3.589  -1.371   1.263  1.00  0.00     0.030 C 
ATOM      5  C   UNL     1       6.273  -2.467   0.642  1.00  0.00     0.004 C 
ATOM      6  C   UNL     1       1.266  -2.033  -0.457  1.00  0.00     0.013 C 
ATOM      7  C   UNL     1       2.373  -0.446   1.083  1.00  0.00    -0.063 C 
ATOM      8  C   UNL     1       4.874  -0.759   1.918  1.00  0.00    -0.003 C 
ATOM      9  C   UNL     1       6.031  -1.799   2.010  1.00  0.00    -0.011 C 
ATOM     10  C   UNL     1       1.025  -1.138   0.821  1.00  0.00    -0.006 C 
ATOM     11  C   UNL     1       2.565   0.848   0.772  1.00  0.00    -0.027 C 
ATOM     12  C   UNL     1       4.562  -0.140   3.296  1.00  0.00     0.008 C 
ATOM     13  C   UNL     1       5.854  -2.855   3.122  1.00  0.00     0.008 C 
ATOM     14  C   UNL     1       0.703  -2.069   2.042  1.00  0.00     0.017 C 
ATOM     15  C   UNL     1      -0.202  -0.097   0.605  1.00  0.00    -0.020 C 
ATOM     16  C   UNL     1       1.497   1.788   0.337  1.00  0.00     0.032 C 
ATOM     17  C   UNL     1       0.233   1.126  -0.281  1.00  0.00     0.006 C 
ATOM     18  C   UNL     1      -0.701   0.484   1.975  1.00  0.00     0.008 C 
ATOM     19  C   UNL     1      -1.373  -0.886  -0.080  1.00  0.00     0.012 C 
ATOM     20  C   UNL     1      -0.954   2.185  -0.600  1.00  0.00    -0.025 C 
ATOM     21  C   UNL     1      -1.368   1.887   1.947  1.00  0.00     0.005 C 
ATOM     22  C   UNL     1      -2.019   2.273   0.593  1.00  0.00     0.003 C 
ATOM     23  C   UNL     1      -0.346   3.603  -0.908  1.00  0.00     0.010 C 
ATOM     24  C   UNL     1      -1.667   1.709  -1.912  1.00  0.00     0.012 C 
ATOM     25  C   UNL     1      -2.931   3.589   0.645  1.00  0.00    -0.006 C 
ATOM     26  C   UNL     1      -1.357   4.744  -1.002  1.00  0.00     0.033 C 
ATOM     27  C   UNL     1      -2.134   4.882   0.307  1.00  0.00     0.120 C 
ATOM     28  C   UNL     1      -4.124   3.451  -0.347  1.00  0.00     0.014 C 
ATOM     29  C   UNL     1      -3.602   3.790   2.033  1.00  0.00     0.014 C 
ENDROOT
BRANCH   1  30
ATOM     30  C   UNL     1       4.181  -1.201  -1.261  1.00  0.00     0.048 C 
ATOM     31  O   UNL     1       5.116  -0.360  -1.152  1.00  0.00    -0.550 OA
ATOM     32  O   UNL     1       3.403  -1.169  -2.410  1.00  0.00    -0.550 OA
ENDBRANCH   1  30
BRANCH  27  33
ATOM     33  O   UNL     1      -1.233   5.203   1.342  1.00  0.00    -0.393 OA
ATOM     34  H   UNL     1      -0.314   5.055   0.998  1.00  0.00     0.210 HD
ENDBRANCH  27  33
TORSDOF 2
ENDMDL
MODEL 4
REMARK VINA RESULT:   135.381      2.125      4.002
REMARK INTER + INTRA:         147.750
REMARK INTER:                 146.678
REMARK INTRA:                   1.073
REMARK UNBOUND:                 0.498
REMARK SMILES C[C@@H]1[C@H]2C3=CC[C@@H]4[C@]5(C)CC[C@H](O)C(C)(C)[C@@H]5CC[C@]4(C)[C@@]3(C)CC[C@]2(C(=O)[O-])CC[C@@H]1C
REMARK SMILES IDX 26 1 30 2 25 3 3 4 31 5 24 6 4 7 2 8 32 9 22 10 5 11 1 12
REMARK SMILES IDX 33 13 23 14 20 15 6 16 7 17 19 18 21 19 8 20 18 21 17 22
REMARK SMILES IDX 10 23 9 24 14 25 11 26 12 27 15 28 16 29 27 30 28 31 29 32
REMARK SMILES IDX 13 33
REMARK H PARENT 13 34
REMARK Flexibility Score: inf
ROOT
ATOM      1  C   UNL     1      -1.304  -1.056  -0.706  1.00  0.00     0.017 C 
ATOM      2  C   UNL     1      -2.657  -1.223  -1.445  1.00  0.00     0.014 C 
ATOM      3  C   UNL     1      -1.585  -0.939   0.823  1.00  0.00     0.014 C 
ATOM      4  C   UNL     1      -0.428  -2.335  -0.918  1.00  0.00     0.030 C 
ATOM      5  C   UNL     1      -2.470  -1.570  -2.928  1.00  0.00     0.004 C 
ATOM      6  C   UNL     1      -0.301  -0.938   1.694  1.00  0.00     0.013 C 
ATOM      7  C   UNL     1       0.865  -2.178  -0.100  1.00  0.00    -0.063 C 
ATOM      8  C   UNL     1      -0.289  -2.788  -2.412  1.00  0.00    -0.003 C 
ATOM      9  C   UNL     1      -1.673  -2.876  -3.124  1.00  0.00    -0.011 C 
ATOM     10  C   UNL     1       0.700  -2.129   1.428  1.00  0.00    -0.006 C 
ATOM     11  C   UNL     1       1.975  -1.711  -0.697  1.00  0.00    -0.027 C 
ATOM     12  C   UNL     1       0.489  -4.114  -2.527  1.00  0.00     0.008 C 
ATOM     13  C   UNL     1      -2.515  -4.107  -2.732  1.00  0.00     0.008 C 
ATOM     14  C   UNL     1       0.034  -3.470   1.896  1.00  0.00     0.017 C 
ATOM     15  C   UNL     1       2.103  -1.926   2.220  1.00  0.00    -0.020 C 
ATOM     16  C   UNL     1       3.212  -1.286   0.013  1.00  0.00     0.032 C 
ATOM     17  C   UNL     1       3.021  -0.873   1.500  1.00  0.00     0.006 C 
ATOM     18  C   UNL     1       2.914  -3.268   2.293  1.00  0.00     0.008 C 
ATOM     19  C   UNL     1       1.756  -1.451   3.676  1.00  0.00     0.012 C 
ATOM     20  C   UNL     1       4.419  -0.562   2.263  1.00  0.00    -0.025 C 
ATOM     21  C   UNL     1       4.459  -3.154   2.414  1.00  0.00     0.005 C 
ATOM     22  C   UNL     1       4.968  -1.839   3.059  1.00  0.00     0.003 C 
ATOM     23  C   UNL     1       5.492  -0.043   1.236  1.00  0.00     0.010 C 
ATOM     24  C   UNL     1       4.155   0.613   3.266  1.00  0.00     0.012 C 
ATOM     25  C   UNL     1       6.527  -1.839   3.425  1.00  0.00    -0.006 C 
ATOM     26  C   UNL     1       6.916   0.073   1.777  1.00  0.00     0.033 C 
ATOM     27  C   UNL     1       7.413  -1.285   2.272  1.00  0.00     0.120 C 
ATOM     28  C   UNL     1       6.773  -0.993   4.710  1.00  0.00     0.014 C 
ATOM     29  C   UNL     1       7.050  -3.257   3.790  1.00  0.00     0.014 C 
ENDROOT
BRANCH   1  30
ATOM     30  C   UNL     1      -0.650   0.240  -1.191  1.00  0.00     0.048 C 
ATOM     31  O   UNL     1       0.248   0.791  -0.495  1.00  0.00    -0.550 OA
ATOM     32  O   UNL     1      -1.103   0.906  -2.321  1.00  0.00    -0.550 OA
ENDBRANCH   1  30
BRANCH  27  33
ATOM     33  O   UNL     1       7.447  -2.183   1.188  1.00  0.00    -0.393 OA
ATOM     34  H   UNL     1       6.903  -1.792   0.455  1.00  0.00     0.210 HD
ENDBRANCH  27  33
TORSDOF 2
ENDMDL
