MODEL 1
REMARK VINA RESULT:    -4.298      0.000      0.000
REMARK INTER + INTRA:          -5.296
REMARK INTER:                  -5.178
REMARK INTRA:                  -0.118
REMARK UNBOUND:                -0.118
REMARK SMILES NC(=O)C[C@H]([NH3+])C(=O)[O-]
REMARK SMILES IDX 4 1 5 2 6 3 7 7 8 8 9 9 2 10 3 11 1 12
REMARK H PARENT 6 4 6 5 6 6 1 13 1 14
REMARK Flexibility Score: inf
ROOT
ATOM      1  C   UNL     1      22.920 -25.935  24.127  1.00  0.00     0.171 C 
ENDROOT
BRANCH   1   2
ATOM      2  C   UNL     1      23.446 -25.039  22.986  1.00  0.00     0.237 C 
BRANCH   2   3
ATOM      3  N   UNL     1      23.729 -25.814  21.771  1.00  0.00    -0.350 N 
ATOM      4  H   UNL     1      24.691 -25.587  21.427  1.00  0.00     0.345 HD
ATOM      5  H   UNL     1      23.046 -25.560  21.020  1.00  0.00     0.345 HD
ATOM      6  H   UNL     1      23.670 -26.842  21.954  1.00  0.00     0.345 HD
ENDBRANCH   2   3
BRANCH   2   7
ATOM      7  C   UNL     1      24.653 -24.247  23.420  1.00  0.00     0.100 C 
ATOM      8  O   UNL     1      25.764 -24.821  23.562  1.00  0.00    -0.544 OA
ATOM      9  O   UNL     1      24.566 -22.873  23.616  1.00  0.00    -0.544 OA
ENDBRANCH   2   7
ENDBRANCH   1   2
BRANCH   1  10
ATOM     10  C   UNL     1      21.871 -25.269  24.973  1.00  0.00     0.223 C 
ATOM     11  O   UNL     1      21.407 -24.149  24.628  1.00  0.00    -0.275 OA
ATOM     12  N   UNL     1      21.411 -25.884  26.176  1.00  0.00    -0.369 N 
ATOM     13  H   UNL     1      20.690 -25.412  26.766  1.00  0.00     0.159 HD
ATOM     14  H   UNL     1      21.791 -26.807  26.481  1.00  0.00     0.159 HD
ENDBRANCH   1  10
TORSDOF 4
ENDMDL
MODEL 2
REMARK VINA RESULT:    -4.271      1.618      3.488
REMARK INTER + INTRA:          -5.263
REMARK INTER:                  -4.896
REMARK INTRA:                  -0.367
REMARK UNBOUND:                -0.118
REMARK SMILES NC(=O)C[C@H]([NH3+])C(=O)[O-]
REMARK SMILES IDX 4 1 5 2 6 3 7 7 8 8 9 9 2 10 3 11 1 12
REMARK H PARENT 6 4 6 5 6 6 1 13 1 14
REMARK Flexibility Score: inf
ROOT
ATOM      1  C   UNL     1      23.612 -25.602  24.297  1.00  0.00     0.171 C 
ENDROOT
BRANCH   1   2
ATOM      2  C   UNL     1      22.306 -25.405  25.096  1.00  0.00     0.237 C 
BRANCH   2   3
ATOM      3  N   UNL     1      21.151 -25.202  24.211  1.00  0.00    -0.350 N 
ATOM      4  H   UNL     1      21.152 -25.930  23.460  1.00  0.00     0.345 HD
ATOM      5  H   UNL     1      21.215 -24.262  23.755  1.00  0.00     0.345 HD
ATOM      6  H   UNL     1      20.251 -25.264  24.741  1.00  0.00     0.345 HD
ENDBRANCH   2   3
BRANCH   2   7
ATOM      7  C   UNL     1      22.434 -24.278  26.090  1.00  0.00     0.100 C 
ATOM      8  O   UNL     1      21.421 -23.876  26.718  1.00  0.00    -0.544 OA
ATOM      9  O   UNL     1      23.674 -23.711  26.361  1.00  0.00    -0.544 OA
ENDBRANCH   2   7
ENDBRANCH   1   2
BRANCH   1  10
ATOM     10  C   UNL     1      23.551 -25.034  22.906  1.00  0.00     0.223 C 
ATOM     11  O   UNL     1      23.399 -23.794  22.743  1.00  0.00    -0.275 OA
ATOM     12  N   UNL     1      23.641 -25.891  21.768  1.00  0.00    -0.369 N 
ATOM     13  H   UNL     1      23.587 -25.493  20.804  1.00  0.00     0.159 HD
ATOM     14  H   UNL     1      23.758 -26.922  21.885  1.00  0.00     0.159 HD
ENDBRANCH   1  10
TORSDOF 4
ENDMDL
MODEL 3
REMARK VINA RESULT:    -4.236      1.843      3.545
REMARK INTER + INTRA:          -5.221
REMARK INTER:                  -4.719
REMARK INTRA:                  -0.502
REMARK UNBOUND:                -0.118
REMARK SMILES NC(=O)C[C@H]([NH3+])C(=O)[O-]
REMARK SMILES IDX 4 1 5 2 6 3 7 7 8 8 9 9 2 10 3 11 1 12
REMARK H PARENT 6 4 6 5 6 6 1 13 1 14
REMARK Flexibility Score: inf
ROOT
ATOM      1  C   UNL     1      24.207 -24.894  24.321  1.00  0.00     0.171 C 
ENDROOT
BRANCH   1   2
ATOM      2  C   UNL     1      22.957 -25.217  25.168  1.00  0.00     0.237 C 
BRANCH   2   3
ATOM      3  N   UNL     1      21.948 -25.951  24.393  1.00  0.00    -0.350 N 
ATOM      4  H   UNL     1      21.062 -25.396  24.358  1.00  0.00     0.345 HD
ATOM      5  H   UNL     1      21.742 -26.867  24.855  1.00  0.00     0.345 HD
ATOM      6  H   UNL     1      22.275 -26.128  23.415  1.00  0.00     0.345 HD
ENDBRANCH   2   3
BRANCH   2   7
ATOM      7  C   UNL     1      22.372 -23.971  25.783  1.00  0.00     0.100 C 
ATOM      8  O   UNL     1      21.441 -24.064  26.625  1.00  0.00    -0.544 OA
ATOM      9  O   UNL     1      22.885 -22.718  25.469  1.00  0.00    -0.544 OA
ENDBRANCH   2   7
ENDBRANCH   1   2
BRANCH   1  10
ATOM     10  C   UNL     1      23.897 -24.665  22.867  1.00  0.00     0.223 C 
ATOM     11  O   UNL     1      23.971 -25.624  22.053  1.00  0.00    -0.275 OA
ATOM     12  N   UNL     1      23.543 -23.365  22.398  1.00  0.00    -0.369 N 
ATOM     13  H   UNL     1      23.340 -23.208  21.386  1.00  0.00     0.159 HD
ATOM     14  H   UNL     1      23.486 -22.557  23.057  1.00  0.00     0.159 HD
ENDBRANCH   1  10
TORSDOF 4
ENDMDL
MODEL 4
REMARK VINA RESULT:    -4.226      1.453      3.934
REMARK INTER + INTRA:          -5.209
REMARK INTER:                  -5.092
REMARK INTRA:                  -0.117
REMARK UNBOUND:                -0.118
REMARK SMILES NC(=O)C[C@H]([NH3+])C(=O)[O-]
REMARK SMILES IDX 4 1 5 2 6 3 7 7 8 8 9 9 2 10 3 11 1 12
REMARK H PARENT 6 4 6 5 6 6 1 13 1 14
REMARK Flexibility Score: inf
ROOT
ATOM      1  C   UNL     1      22.836 -26.025  24.113  1.00  0.00     0.171 C 
ENDROOT
BRANCH   1   2
ATOM      2  C   UNL     1      23.063 -25.404  25.508  1.00  0.00     0.237 C 
BRANCH   2   3
ATOM      3  N   UNL     1      23.586 -26.390  26.464  1.00  0.00    -0.350 N 
ATOM      4  H   UNL     1      22.841 -27.091  26.687  1.00  0.00     0.345 HD
ATOM      5  H   UNL     1      23.860 -25.911  27.352  1.00  0.00     0.345 HD
ATOM      6  H   UNL     1      24.417 -26.892  26.075  1.00  0.00     0.345 HD
ENDBRANCH   2   3
BRANCH   2   7
ATOM      7  C   UNL     1      21.809 -24.751  26.031  1.00  0.00     0.100 C 
ATOM      8  O   UNL     1      20.860 -24.494  25.245  1.00  0.00    -0.544 OA
ATOM      9  O   UNL     1      21.666 -24.474  27.385  1.00  0.00    -0.544 OA
ENDBRANCH   2   7
ENDBRANCH   1   2
BRANCH   1  10
ATOM     10  C   UNL     1      23.685 -25.404  23.039  1.00  0.00     0.223 C 
ATOM     11  O   UNL     1      24.424 -24.421  23.315  1.00  0.00    -0.275 OA
ATOM     12  N   UNL     1      23.643 -25.903  21.702  1.00  0.00    -0.369 N 
ATOM     13  H   UNL     1      24.226 -25.461  20.957  1.00  0.00     0.159 HD
ATOM     14  H   UNL     1      23.030 -26.711  21.454  1.00  0.00     0.159 HD
ENDBRANCH   1  10
TORSDOF 4
ENDMDL
MODEL 5
REMARK VINA RESULT:    -4.223      1.762      3.742
REMARK INTER + INTRA:          -5.205
REMARK INTER:                  -4.816
REMARK INTRA:                  -0.389
REMARK UNBOUND:                -0.118
REMARK SMILES NC(=O)C[C@H]([NH3+])C(=O)[O-]
REMARK SMILES IDX 4 1 5 2 6 3 7 7 8 8 9 9 2 10 3 11 1 12
REMARK H PARENT 6 4 6 5 6 6 1 13 1 14
REMARK Flexibility Score: inf
ROOT
ATOM      1  C   UNL     1      23.090 -23.757  23.061  1.00  0.00     0.171 C 
ENDROOT
BRANCH   1   2
ATOM      2  C   UNL     1      22.799 -23.652  24.574  1.00  0.00     0.237 C 
BRANCH   2   3
ATOM      3  N   UNL     1      24.005 -23.310  25.338  1.00  0.00    -0.350 N 
ATOM      4  H   UNL     1      24.784 -23.078  24.679  1.00  0.00     0.345 HD
ATOM      5  H   UNL     1      24.301 -24.128  25.919  1.00  0.00     0.345 HD
ATOM      6  H   UNL     1      23.837 -22.489  25.965  1.00  0.00     0.345 HD
ENDBRANCH   2   3
BRANCH   2   7
ATOM      7  C   UNL     1      22.161 -24.913  25.100  1.00  0.00     0.100 C 
ATOM      8  O   UNL     1      22.776 -25.628  25.933  1.00  0.00    -0.544 OA
ATOM      9  O   UNL     1      20.874 -25.270  24.714  1.00  0.00    -0.544 OA
ENDBRANCH   2   7
ENDBRANCH   1   2
BRANCH   1  10
ATOM     10  C   UNL     1      24.019 -24.887  22.711  1.00  0.00     0.223 C 
ATOM     11  O   UNL     1      25.157 -24.951  23.248  1.00  0.00    -0.275 OA
ATOM     12  N   UNL     1      23.630 -25.875  21.757  1.00  0.00    -0.369 N 
ATOM     13  H   UNL     1      24.283 -26.651  21.508  1.00  0.00     0.159 HD
ATOM     14  H   UNL     1      22.695 -25.832  21.296  1.00  0.00     0.159 HD
ENDBRANCH   1  10
TORSDOF 4
ENDMDL
MODEL 6
REMARK VINA RESULT:    -4.137      1.954      2.387
REMARK INTER + INTRA:          -5.102
REMARK INTER:                  -4.709
REMARK INTRA:                  -0.393
REMARK UNBOUND:                -0.118
REMARK SMILES NC(=O)C[C@H]([NH3+])C(=O)[O-]
REMARK SMILES IDX 4 1 5 2 6 3 7 7 8 8 9 9 2 10 3 11 1 12
REMARK H PARENT 6 4 6 5 6 6 1 13 1 14
REMARK Flexibility Score: inf
ROOT
ATOM      1  C   UNL     1      21.239 -24.997  24.839  1.00  0.00     0.171 C 
ENDROOT
BRANCH   1   2
ATOM      2  C   UNL     1      22.612 -25.634  24.537  1.00  0.00     0.237 C 
BRANCH   2   3
ATOM      3  N   UNL     1      23.190 -26.273  25.726  1.00  0.00    -0.350 N 
ATOM      4  H   UNL     1      23.512 -27.238  25.485  1.00  0.00     0.345 HD
ATOM      5  H   UNL     1      22.464 -26.349  26.476  1.00  0.00     0.345 HD
ATOM      6  H   UNL     1      24.004 -25.727  26.093  1.00  0.00     0.345 HD
ENDBRANCH   2   3
BRANCH   2   7
ATOM      7  C   UNL     1      23.565 -24.630  23.940  1.00  0.00     0.100 C 
ATOM      8  O   UNL     1      24.746 -24.554  24.368  1.00  0.00    -0.544 OA
ATOM      9  O   UNL     1      23.170 -23.820  22.882  1.00  0.00    -0.544 OA
ENDBRANCH   2   7
ENDBRANCH   1   2
BRANCH   1  10
ATOM     10  C   UNL     1      21.303 -23.908  25.874  1.00  0.00     0.223 C 
ATOM     11  O   UNL     1      21.525 -24.202  27.079  1.00  0.00    -0.275 OA
ATOM     12  N   UNL     1      21.092 -22.545  25.506  1.00  0.00    -0.369 N 
ATOM     13  H   UNL     1      21.126 -21.793  26.230  1.00  0.00     0.159 HD
ATOM     14  H   UNL     1      20.898 -22.285  24.514  1.00  0.00     0.159 HD
ENDBRANCH   1  10
TORSDOF 4
ENDMDL
MODEL 7
REMARK VINA RESULT:    -4.136      1.408      1.834
REMARK INTER + INTRA:          -5.101
REMARK INTER:                  -4.914
REMARK INTRA:                  -0.187
REMARK UNBOUND:                -0.118
REMARK SMILES NC(=O)C[C@H]([NH3+])C(=O)[O-]
REMARK SMILES IDX 4 1 5 2 6 3 7 7 8 8 9 9 2 10 3 11 1 12
REMARK H PARENT 6 4 6 5 6 6 1 13 1 14
REMARK Flexibility Score: inf
ROOT
ATOM      1  C   UNL     1      22.135 -23.778  24.285  1.00  0.00     0.171 C 
ENDROOT
BRANCH   1   2
ATOM      2  C   UNL     1      23.190 -23.596  23.173  1.00  0.00     0.237 C 
BRANCH   2   3
ATOM      3  N   UNL     1      23.435 -24.848  22.444  1.00  0.00    -0.350 N 
ATOM      4  H   UNL     1      23.777 -25.579  23.109  1.00  0.00     0.345 HD
ATOM      5  H   UNL     1      24.172 -24.697  21.717  1.00  0.00     0.345 HD
ATOM      6  H   UNL     1      22.564 -25.194  21.980  1.00  0.00     0.345 HD
ENDBRANCH   2   3
BRANCH   2   7
ATOM      7  C   UNL     1      24.474 -23.025  23.720  1.00  0.00     0.100 C 
ATOM      8  O   UNL     1      24.457 -21.940  24.358  1.00  0.00    -0.544 OA
ATOM      9  O   UNL     1      25.674 -23.711  23.572  1.00  0.00    -0.544 OA
ENDBRANCH   2   7
ENDBRANCH   1   2
BRANCH   1  10
ATOM     10  C   UNL     1      22.232 -25.104  24.986  1.00  0.00     0.223 C 
ATOM     11  O   UNL     1      23.357 -25.653  25.137  1.00  0.00    -0.275 OA
ATOM     12  N   UNL     1      21.057 -25.759  25.464  1.00  0.00    -0.369 N 
ATOM     13  H   UNL     1      21.128 -26.686  25.940  1.00  0.00     0.159 HD
ATOM     14  H   UNL     1      20.117 -25.323  25.340  1.00  0.00     0.159 HD
ENDBRANCH   1  10
TORSDOF 4
ENDMDL
MODEL 8
REMARK VINA RESULT:    -3.955      2.382      3.502
REMARK INTER + INTRA:          -4.883
REMARK INTER:                  -4.486
REMARK INTRA:                  -0.397
REMARK UNBOUND:                -0.118
REMARK SMILES NC(=O)C[C@H]([NH3+])C(=O)[O-]
REMARK SMILES IDX 4 1 5 2 6 3 7 7 8 8 9 9 2 10 3 11 1 12
REMARK H PARENT 6 4 6 5 6 6 1 13 1 14
REMARK Flexibility Score: inf
ROOT
ATOM      1  C   UNL     1      25.448 -24.483  23.622  1.00  0.00     0.171 C 
ENDROOT
BRANCH   1   2
ATOM      2  C   UNL     1      23.940 -24.491  23.291  1.00  0.00     0.237 C 
BRANCH   2   3
ATOM      3  N   UNL     1      23.546 -23.306  22.518  1.00  0.00    -0.350 N 
ATOM      4  H   UNL     1      22.662 -22.909  22.912  1.00  0.00     0.345 HD
ATOM      5  H   UNL     1      23.369 -23.575  21.522  1.00  0.00     0.345 HD
ATOM      6  H   UNL     1      24.289 -22.570  22.546  1.00  0.00     0.345 HD
ENDBRANCH   2   3
BRANCH   2   7
ATOM      7  C   UNL     1      23.104 -24.630  24.538  1.00  0.00     0.100 C 
ATOM      8  O   UNL     1      23.181 -25.677  25.233  1.00  0.00    -0.544 OA
ATOM      9  O   UNL     1      22.283 -23.591  24.960  1.00  0.00    -0.544 OA
ENDBRANCH   2   7
ENDBRANCH   1   2
BRANCH   1  10
ATOM     10  C   UNL     1      25.848 -23.373  24.553  1.00  0.00     0.223 C 
ATOM     11  O   UNL     1      25.575 -22.178  24.256  1.00  0.00    -0.275 OA
ATOM     12  N   UNL     1      26.553 -23.657  25.760  1.00  0.00    -0.369 N 
ATOM     13  H   UNL     1      26.839 -22.882  26.399  1.00  0.00     0.159 HD
ATOM     14  H   UNL     1      26.795 -24.640  26.018  1.00  0.00     0.159 HD
ENDBRANCH   1  10
TORSDOF 4
ENDMDL
MODEL 9
REMARK VINA RESULT:    -3.863      8.084      8.836
REMARK INTER + INTRA:          -4.771
REMARK INTER:                  -4.269
REMARK INTRA:                  -0.503
REMARK UNBOUND:                -0.118
REMARK SMILES NC(=O)C[C@H]([NH3+])C(=O)[O-]
REMARK SMILES IDX 4 1 5 2 6 3 7 7 8 8 9 9 2 10 3 11 1 12
REMARK H PARENT 6 4 6 5 6 6 1 13 1 14
REMARK Flexibility Score: inf
ROOT
ATOM      1  C   UNL     1      29.875 -19.635  23.695  1.00  0.00     0.171 C 
ENDROOT
BRANCH   1   2
ATOM      2  C   UNL     1      30.632 -19.143  22.443  1.00  0.00     0.237 C 
BRANCH   2   3
ATOM      3  N   UNL     1      30.348 -17.731  22.154  1.00  0.00    -0.350 N 
ATOM      4  H   UNL     1      29.515 -17.662  21.526  1.00  0.00     0.345 HD
ATOM      5  H   UNL     1      31.165 -17.299  21.662  1.00  0.00     0.345 HD
ATOM      6  H   UNL     1      30.155 -17.196  23.032  1.00  0.00     0.345 HD
ENDBRANCH   2   3
BRANCH   2   7
ATOM      7  C   UNL     1      30.339 -20.013  21.246  1.00  0.00     0.100 C 
ATOM      8  O   UNL     1      29.184 -20.027  20.747  1.00  0.00    -0.544 OA
ATOM      9  O   UNL     1      31.347 -20.763  20.652  1.00  0.00    -0.544 OA
ENDBRANCH   2   7
ENDBRANCH   1   2
BRANCH   1  10
ATOM     10  C   UNL     1      28.565 -18.930  23.914  1.00  0.00     0.223 C 
ATOM     11  O   UNL     1      28.501 -17.964  24.720  1.00  0.00    -0.275 OA
ATOM     12  N   UNL     1      27.387 -19.361  23.232  1.00  0.00    -0.369 N 
ATOM     13  H   UNL     1      26.477 -18.876  23.396  1.00  0.00     0.159 HD
ATOM     14  H   UNL     1      27.420 -20.165  22.567  1.00  0.00     0.159 HD
ENDBRANCH   1  10
TORSDOF 4
ENDMDL
