MODEL 1
REMARK VINA RESULT:    -4.791      0.000      0.000
REMARK INTER + INTRA:          -9.476
REMARK INTER:                  -8.431
REMARK INTRA:                  -1.045
REMARK UNBOUND:                -1.045
REMARK SMILES CCCCCCCCCCCCCCC(=O)[O-]
REMARK SMILES IDX 9 1 10 2 11 3 12 4 13 5 14 6 15 7 16 8 17 9 8 10 7 11 6 12
REMARK SMILES IDX 5 13 4 14 3 15 2 16 1 17
REMARK H PARENT
REMARK Flexibility Score: inf
ROOT
ATOM      1  C   UNL     1      10.532  33.207  23.184  1.00  0.00     0.000 C 
ENDROOT
BRANCH   1   2
ATOM      2  C   UNL     1       9.291  34.061  22.866  1.00  0.00     0.000 C 
BRANCH   2   3
ATOM      3  C   UNL     1       9.649  35.473  22.367  1.00  0.00     0.000 C 
BRANCH   3   4
ATOM      4  C   UNL     1       8.610  36.525  22.787  1.00  0.00     0.000 C 
BRANCH   4   5
ATOM      5  C   UNL     1       9.164  37.530  23.812  1.00  0.00     0.006 C 
BRANCH   5   6
ATOM      6  C   UNL     1       8.090  38.514  24.296  1.00  0.00     0.053 C 
BRANCH   6   7
ATOM      7  C   UNL     1       8.483  39.176  25.582  1.00  0.00     0.041 C 
ATOM      8  O   UNL     1       8.205  38.635  26.683  1.00  0.00    -0.550 OA
ATOM      9  O   UNL     1       9.125  40.408  25.562  1.00  0.00    -0.550 OA
ENDBRANCH   6   7
ENDBRANCH   5   6
ENDBRANCH   4   5
ENDBRANCH   3   4
ENDBRANCH   2   3
ENDBRANCH   1   2
BRANCH   1  10
ATOM     10  C   UNL     1      10.704  32.829  24.667  1.00  0.00     0.000 C 
BRANCH  10  11
ATOM     11  C   UNL     1      11.448  33.901  25.478  1.00  0.00    -0.000 C 
BRANCH  11  12
ATOM     12  C   UNL     1      12.769  34.285  24.796  1.00  0.00    -0.000 C 
BRANCH  12  13
ATOM     13  C   UNL     1      12.670  35.603  24.011  1.00  0.00    -0.000 C 
BRANCH  13  14
ATOM     14  C   UNL     1      12.988  35.429  22.518  1.00  0.00    -0.000 C 
BRANCH  14  15
ATOM     15  C   UNL     1      13.067  36.788  21.812  1.00  0.00    -0.000 C 
BRANCH  15  16
ATOM     16  C   UNL     1      12.532  37.908  22.712  1.00  0.00    -0.003 C 
ATOM     17  C   UNL     1      13.629  38.911  23.056  1.00  0.00     0.004 C 
ENDBRANCH  15  16
ENDBRANCH  14  15
ENDBRANCH  13  14
ENDBRANCH  12  13
ENDBRANCH  11  12
ENDBRANCH  10  11
ENDBRANCH   1  10
TORSDOF 13
ENDMDL
MODEL 2
REMARK VINA RESULT:    -4.755     17.204     19.315
REMARK INTER + INTRA:          -9.413
REMARK INTER:                  -8.323
REMARK INTRA:                  -1.090
REMARK UNBOUND:                -1.045
REMARK SMILES CCCCCCCCCCCCCCC(=O)[O-]
REMARK SMILES IDX 9 1 10 2 11 3 12 4 13 5 14 6 15 7 16 8 17 9 8 10 7 11 6 12
REMARK SMILES IDX 5 13 4 14 3 15 2 16 1 17
REMARK H PARENT
REMARK Flexibility Score: inf
ROOT
ATOM      1  C   UNL     1      25.119  26.422  22.220  1.00  0.00     0.000 C 
ENDROOT
BRANCH   1   2
ATOM      2  C   UNL     1      24.391  25.250  21.537  1.00  0.00     0.000 C 
BRANCH   2   3
ATOM      3  C   UNL     1      24.589  23.912  22.272  1.00  0.00     0.000 C 
BRANCH   3   4
ATOM      4  C   UNL     1      25.228  22.839  21.375  1.00  0.00     0.000 C 
BRANCH   4   5
ATOM      5  C   UNL     1      26.747  22.717  21.584  1.00  0.00     0.006 C 
BRANCH   5   6
ATOM      6  C   UNL     1      27.528  22.893  20.274  1.00  0.00     0.053 C 
BRANCH   6   7
ATOM      7  C   UNL     1      27.374  24.276  19.718  1.00  0.00     0.041 C 
ATOM      8  O   UNL     1      27.989  25.241  20.241  1.00  0.00    -0.550 OA
ATOM      9  O   UNL     1      26.522  24.503  18.644  1.00  0.00    -0.550 OA
ENDBRANCH   6   7
ENDBRANCH   5   6
ENDBRANCH   4   5
ENDBRANCH   3   4
ENDBRANCH   2   3
ENDBRANCH   1   2
BRANCH   1  10
ATOM     10  C   UNL     1      26.348  26.029  23.060  1.00  0.00     0.000 C 
BRANCH  10  11
ATOM     11  C   UNL     1      27.164  27.240  23.535  1.00  0.00    -0.000 C 
BRANCH  11  12
ATOM     12  C   UNL     1      26.340  28.532  23.424  1.00  0.00    -0.000 C 
BRANCH  12  13
ATOM     13  C   UNL     1      26.694  29.557  24.514  1.00  0.00    -0.000 C 
BRANCH  13  14
ATOM     14  C   UNL     1      25.540  30.525  24.814  1.00  0.00    -0.000 C 
BRANCH  14  15
ATOM     15  C   UNL     1      26.062  31.820  25.450  1.00  0.00    -0.000 C 
BRANCH  15  16
ATOM     16  C   UNL     1      27.594  31.858  25.442  1.00  0.00    -0.003 C 
ATOM     17  C   UNL     1      28.111  33.160  24.839  1.00  0.00     0.004 C 
ENDBRANCH  15  16
ENDBRANCH  14  15
ENDBRANCH  13  14
ENDBRANCH  12  13
ENDBRANCH  11  12
ENDBRANCH  10  11
ENDBRANCH   1  10
TORSDOF 13
ENDMDL
MODEL 3
REMARK VINA RESULT:    -4.667      1.066      3.698
REMARK INTER + INTRA:          -9.258
REMARK INTER:                  -7.471
REMARK INTRA:                  -1.788
REMARK UNBOUND:                -1.045
REMARK SMILES CCCCCCCCCCCCCCC(=O)[O-]
REMARK SMILES IDX 9 1 10 2 11 3 12 4 13 5 14 6 15 7 16 8 17 9 8 10 7 11 6 12
REMARK SMILES IDX 5 13 4 14 3 15 2 16 1 17
REMARK H PARENT
REMARK Flexibility Score: inf
ROOT
ATOM      1  C   UNL     1      12.967  37.072  21.279  1.00  0.00     0.000 C 
ENDROOT
BRANCH   1   2
ATOM      2  C   UNL     1      13.374  38.151  22.300  1.00  0.00     0.000 C 
BRANCH   2   3
ATOM      3  C   UNL     1      12.705  37.958  23.673  1.00  0.00     0.000 C 
BRANCH   3   4
ATOM      4  C   UNL     1      11.342  38.663  23.765  1.00  0.00     0.000 C 
BRANCH   4   5
ATOM      5  C   UNL     1      10.251  37.770  24.380  1.00  0.00     0.006 C 
BRANCH   5   6
ATOM      6  C   UNL     1       8.884  38.466  24.415  1.00  0.00     0.053 C 
BRANCH   6   7
ATOM      7  C   UNL     1       8.700  39.265  25.669  1.00  0.00     0.041 C 
ATOM      8  O   UNL     1       8.169  38.740  26.682  1.00  0.00    -0.550 OA
ATOM      9  O   UNL     1       9.082  40.600  25.706  1.00  0.00    -0.550 OA
ENDBRANCH   6   7
ENDBRANCH   5   6
ENDBRANCH   4   5
ENDBRANCH   3   4
ENDBRANCH   2   3
ENDBRANCH   1   2
BRANCH   1  10
ATOM     10  C   UNL     1      13.448  35.646  21.606  1.00  0.00     0.000 C 
BRANCH  10  11
ATOM     11  C   UNL     1      12.297  34.636  21.724  1.00  0.00    -0.000 C 
BRANCH  11  12
ATOM     12  C   UNL     1      10.985  35.342  22.100  1.00  0.00    -0.000 C 
BRANCH  12  13
ATOM     13  C   UNL     1      10.134  34.525  23.085  1.00  0.00    -0.000 C 
BRANCH  13  14
ATOM     14  C   UNL     1      10.872  33.290  23.623  1.00  0.00    -0.000 C 
BRANCH  14  15
ATOM     15  C   UNL     1      10.959  33.328  25.155  1.00  0.00    -0.000 C 
BRANCH  15  16
ATOM     16  C   UNL     1      11.638  34.616  25.635  1.00  0.00    -0.003 C 
ATOM     17  C   UNL     1      13.116  34.634  25.258  1.00  0.00     0.004 C 
ENDBRANCH  15  16
ENDBRANCH  14  15
ENDBRANCH  13  14
ENDBRANCH  12  13
ENDBRANCH  11  12
ENDBRANCH  10  11
ENDBRANCH   1  10
TORSDOF 13
ENDMDL
MODEL 4
REMARK VINA RESULT:    -4.594     17.049     19.253
REMARK INTER + INTRA:          -9.130
REMARK INTER:                  -7.331
REMARK INTRA:                  -1.799
REMARK UNBOUND:                -1.045
REMARK SMILES CCCCCCCCCCCCCCC(=O)[O-]
REMARK SMILES IDX 9 1 10 2 11 3 12 4 13 5 14 6 15 7 16 8 17 9 8 10 7 11 6 12
REMARK SMILES IDX 5 13 4 14 3 15 2 16 1 17
REMARK H PARENT
REMARK Flexibility Score: inf
ROOT
ATOM      1  C   UNL     1      23.590  25.780  21.471  1.00  0.00     0.000 C 
ENDROOT
BRANCH   1   2
ATOM      2  C   UNL     1      24.546  26.746  22.193  1.00  0.00     0.000 C 
BRANCH   2   3
ATOM      3  C   UNL     1      25.995  26.229  22.243  1.00  0.00     0.000 C 
BRANCH   3   4
ATOM      4  C   UNL     1      26.628  26.387  23.634  1.00  0.00     0.000 C 
BRANCH   4   5
ATOM      5  C   UNL     1      27.845  27.328  23.631  1.00  0.00     0.006 C 
BRANCH   5   6
ATOM      6  C   UNL     1      27.450  28.784  23.344  1.00  0.00     0.053 C 
BRANCH   6   7
ATOM      7  C   UNL     1      26.712  29.396  24.495  1.00  0.00     0.041 C 
ATOM      8  O   UNL     1      25.467  29.562  24.432  1.00  0.00    -0.550 OA
ATOM      9  O   UNL     1      27.407  29.815  25.623  1.00  0.00    -0.550 OA
ENDBRANCH   6   7
ENDBRANCH   5   6
ENDBRANCH   4   5
ENDBRANCH   3   4
ENDBRANCH   2   3
ENDBRANCH   1   2
BRANCH   1  10
ATOM     10  C   UNL     1      24.142  24.360  21.245  1.00  0.00     0.000 C 
BRANCH  10  11
ATOM     11  C   UNL     1      23.588  23.334  22.244  1.00  0.00    -0.000 C 
BRANCH  11  12
ATOM     12  C   UNL     1      24.699  22.391  22.733  1.00  0.00    -0.000 C 
BRANCH  12  13
ATOM     13  C   UNL     1      26.020  22.586  21.971  1.00  0.00    -0.000 C 
BRANCH  13  14
ATOM     14  C   UNL     1      27.234  22.684  22.906  1.00  0.00    -0.000 C 
BRANCH  14  15
ATOM     15  C   UNL     1      26.791  22.801  24.370  1.00  0.00    -0.000 C 
BRANCH  15  16
ATOM     16  C   UNL     1      27.990  23.057  25.289  1.00  0.00    -0.003 C 
ATOM     17  C   UNL     1      27.687  24.162  26.296  1.00  0.00     0.004 C 
ENDBRANCH  15  16
ENDBRANCH  14  15
ENDBRANCH  13  14
ENDBRANCH  12  13
ENDBRANCH  11  12
ENDBRANCH  10  11
ENDBRANCH   1  10
TORSDOF 13
ENDMDL
MODEL 5
REMARK VINA RESULT:    -4.592      0.994      3.727
REMARK INTER + INTRA:          -9.127
REMARK INTER:                  -7.573
REMARK INTRA:                  -1.554
REMARK UNBOUND:                -1.045
REMARK SMILES CCCCCCCCCCCCCCC(=O)[O-]
REMARK SMILES IDX 9 1 10 2 11 3 12 4 13 5 14 6 15 7 16 8 17 9 8 10 7 11 6 12
REMARK SMILES IDX 5 13 4 14 3 15 2 16 1 17
REMARK H PARENT
REMARK Flexibility Score: inf
ROOT
ATOM      1  C   UNL     1      12.850  37.021  21.360  1.00  0.00     0.000 C 
ENDROOT
BRANCH   1   2
ATOM      2  C   UNL     1      13.490  38.101  22.252  1.00  0.00     0.000 C 
BRANCH   2   3
ATOM      3  C   UNL     1      12.544  38.599  23.360  1.00  0.00     0.000 C 
BRANCH   3   4
ATOM      4  C   UNL     1      11.154  37.949  23.280  1.00  0.00     0.000 C 
BRANCH   4   5
ATOM      5  C   UNL     1      10.449  37.885  24.646  1.00  0.00     0.006 C 
BRANCH   5   6
ATOM      6  C   UNL     1       9.017  38.434  24.585  1.00  0.00     0.053 C 
BRANCH   6   7
ATOM      7  C   UNL     1       8.709  39.313  25.759  1.00  0.00     0.041 C 
ATOM      8  O   UNL     1       8.029  38.870  26.720  1.00  0.00    -0.550 OA
ATOM      9  O   UNL     1       9.146  40.632  25.774  1.00  0.00    -0.550 OA
ENDBRANCH   6   7
ENDBRANCH   5   6
ENDBRANCH   4   5
ENDBRANCH   3   4
ENDBRANCH   2   3
ENDBRANCH   1   2
BRANCH   1  10
ATOM     10  C   UNL     1      13.487  35.623  21.465  1.00  0.00     0.000 C 
BRANCH  10  11
ATOM     11  C   UNL     1      12.563  34.589  22.125  1.00  0.00    -0.000 C 
BRANCH  11  12
ATOM     12  C   UNL     1      12.532  34.777  23.649  1.00  0.00    -0.000 C 
BRANCH  12  13
ATOM     13  C   UNL     1      11.248  34.223  24.289  1.00  0.00    -0.000 C 
BRANCH  13  14
ATOM     14  C   UNL     1      10.569  33.153  23.422  1.00  0.00    -0.000 C 
BRANCH  14  15
ATOM     15  C   UNL     1       9.179  33.616  22.967  1.00  0.00    -0.000 C 
BRANCH  15  16
ATOM     16  C   UNL     1       9.195  35.097  22.572  1.00  0.00    -0.003 C 
ATOM     17  C   UNL     1       8.088  35.413  21.571  1.00  0.00     0.004 C 
ENDBRANCH  15  16
ENDBRANCH  14  15
ENDBRANCH  13  14
ENDBRANCH  12  13
ENDBRANCH  11  12
ENDBRANCH  10  11
ENDBRANCH   1  10
TORSDOF 13
ENDMDL
MODEL 6
REMARK VINA RESULT:    -4.520     16.952     18.957
REMARK INTER + INTRA:          -9.000
REMARK INTER:                  -7.898
REMARK INTRA:                  -1.102
REMARK UNBOUND:                -1.045
REMARK SMILES CCCCCCCCCCCCCCC(=O)[O-]
REMARK SMILES IDX 9 1 10 2 11 3 12 4 13 5 14 6 15 7 16 8 17 9 8 10 7 11 6 12
REMARK SMILES IDX 5 13 4 14 3 15 2 16 1 17
REMARK H PARENT
REMARK Flexibility Score: inf
ROOT
ATOM      1  C   UNL     1      27.072  25.166  23.855  1.00  0.00     0.000 C 
ENDROOT
BRANCH   1   2
ATOM      2  C   UNL     1      27.310  23.823  23.139  1.00  0.00     0.000 C 
BRANCH   2   3
ATOM      3  C   UNL     1      26.783  22.618  23.939  1.00  0.00     0.000 C 
BRANCH   3   4
ATOM      4  C   UNL     1      25.414  22.134  23.436  1.00  0.00     0.000 C 
BRANCH   4   5
ATOM      5  C   UNL     1      25.089  22.636  22.018  1.00  0.00     0.006 C 
BRANCH   5   6
ATOM      6  C   UNL     1      23.896  23.601  22.005  1.00  0.00     0.053 C 
BRANCH   6   7
ATOM      7  C   UNL     1      24.114  24.740  21.056  1.00  0.00     0.041 C 
ATOM      8  O   UNL     1      23.200  25.582  20.856  1.00  0.00    -0.550 OA
ATOM      9  O   UNL     1      25.315  24.850  20.366  1.00  0.00    -0.550 OA
ENDBRANCH   6   7
ENDBRANCH   5   6
ENDBRANCH   4   5
ENDBRANCH   3   4
ENDBRANCH   2   3
ENDBRANCH   1   2
BRANCH   1  10
ATOM     10  C   UNL     1      27.217  26.416  22.966  1.00  0.00     0.000 C 
BRANCH  10  11
ATOM     11  C   UNL     1      25.924  27.240  22.874  1.00  0.00    -0.000 C 
BRANCH  11  12
ATOM     12  C   UNL     1      26.080  28.585  23.601  1.00  0.00    -0.000 C 
BRANCH  12  13
ATOM     13  C   UNL     1      27.454  28.739  24.274  1.00  0.00    -0.000 C 
BRANCH  13  14
ATOM     14  C   UNL     1      27.554  30.011  25.130  1.00  0.00    -0.000 C 
BRANCH  14  15
ATOM     15  C   UNL     1      26.233  30.791  25.110  1.00  0.00    -0.000 C 
BRANCH  15  16
ATOM     16  C   UNL     1      26.417  32.199  25.687  1.00  0.00    -0.003 C 
ATOM     17  C   UNL     1      27.783  32.771  25.320  1.00  0.00     0.004 C 
ENDBRANCH  15  16
ENDBRANCH  14  15
ENDBRANCH  13  14
ENDBRANCH  12  13
ENDBRANCH  11  12
ENDBRANCH  10  11
ENDBRANCH   1  10
TORSDOF 13
ENDMDL
MODEL 7
REMARK VINA RESULT:    -4.493     17.628     19.056
REMARK INTER + INTRA:          -8.953
REMARK INTER:                  -8.101
REMARK INTRA:                  -0.853
REMARK UNBOUND:                -1.045
REMARK SMILES CCCCCCCCCCCCCCC(=O)[O-]
REMARK SMILES IDX 9 1 10 2 11 3 12 4 13 5 14 6 15 7 16 8 17 9 8 10 7 11 6 12
REMARK SMILES IDX 5 13 4 14 3 15 2 16 1 17
REMARK H PARENT
REMARK Flexibility Score: inf
ROOT
ATOM      1  C   UNL     1      24.294  26.571  21.926  1.00  0.00     0.000 C 
ENDROOT
BRANCH   1   2
ATOM      2  C   UNL     1      23.581  25.406  21.213  1.00  0.00     0.000 C 
BRANCH   2   3
ATOM      3  C   UNL     1      23.916  24.035  21.827  1.00  0.00     0.000 C 
BRANCH   3   4
ATOM      4  C   UNL     1      24.986  23.278  21.024  1.00  0.00     0.000 C 
BRANCH   4   5
ATOM      5  C   UNL     1      25.585  22.093  21.802  1.00  0.00     0.006 C 
BRANCH   5   6
ATOM      6  C   UNL     1      25.261  22.161  23.301  1.00  0.00     0.053 C 
BRANCH   6   7
ATOM      7  C   UNL     1      26.463  22.539  24.111  1.00  0.00     0.041 C 
ATOM      8  O   UNL     1      26.554  22.179  25.313  1.00  0.00    -0.550 OA
ATOM      9  O   UNL     1      27.466  23.318  23.547  1.00  0.00    -0.550 OA
ENDBRANCH   6   7
ENDBRANCH   5   6
ENDBRANCH   4   5
ENDBRANCH   3   4
ENDBRANCH   2   3
ENDBRANCH   1   2
BRANCH   1  10
ATOM     10  C   UNL     1      25.740  26.281  22.368  1.00  0.00     0.000 C 
BRANCH  10  11
ATOM     11  C   UNL     1      26.307  27.354  23.309  1.00  0.00    -0.000 C 
BRANCH  11  12
ATOM     12  C   UNL     1      25.375  28.573  23.374  1.00  0.00    -0.000 C 
BRANCH  12  13
ATOM     13  C   UNL     1      25.898  29.669  24.318  1.00  0.00    -0.000 C 
BRANCH  13  14
ATOM     14  C   UNL     1      27.357  29.441  24.739  1.00  0.00    -0.000 C 
BRANCH  14  15
ATOM     15  C   UNL     1      27.804  30.496  25.760  1.00  0.00    -0.000 C 
BRANCH  15  16
ATOM     16  C   UNL     1      27.247  31.878  25.402  1.00  0.00    -0.003 C 
ATOM     17  C   UNL     1      26.976  32.705  26.655  1.00  0.00     0.004 C 
ENDBRANCH  15  16
ENDBRANCH  14  15
ENDBRANCH  13  14
ENDBRANCH  12  13
ENDBRANCH  11  12
ENDBRANCH  10  11
ENDBRANCH   1  10
TORSDOF 13
ENDMDL
MODEL 8
REMARK VINA RESULT:    -4.449     16.491     18.658
REMARK INTER + INTRA:          -8.875
REMARK INTER:                  -7.785
REMARK INTRA:                  -1.090
REMARK UNBOUND:                -1.045
REMARK SMILES CCCCCCCCCCCCCCC(=O)[O-]
REMARK SMILES IDX 9 1 10 2 11 3 12 4 13 5 14 6 15 7 16 8 17 9 8 10 7 11 6 12
REMARK SMILES IDX 5 13 4 14 3 15 2 16 1 17
REMARK H PARENT
REMARK Flexibility Score: inf
ROOT
ATOM      1  C   UNL     1      26.712  26.385  23.125  1.00  0.00     0.000 C 
ENDROOT
BRANCH   1   2
ATOM      2  C   UNL     1      27.208  27.423  24.149  1.00  0.00     0.000 C 
BRANCH   2   3
ATOM      3  C   UNL     1      26.972  28.874  23.692  1.00  0.00     0.000 C 
BRANCH   3   4
ATOM      4  C   UNL     1      25.602  29.413  24.133  1.00  0.00     0.000 C 
BRANCH   4   5
ATOM      5  C   UNL     1      25.706  30.740  24.905  1.00  0.00     0.006 C 
BRANCH   5   6
ATOM      6  C   UNL     1      27.114  30.972  25.470  1.00  0.00     0.053 C 
BRANCH   6   7
ATOM      7  C   UNL     1      27.360  32.420  25.769  1.00  0.00     0.041 C 
ATOM      8  O   UNL     1      27.982  33.139  24.946  1.00  0.00    -0.550 OA
ATOM      9  O   UNL     1      26.931  32.964  26.974  1.00  0.00    -0.550 OA
ENDBRANCH   6   7
ENDBRANCH   5   6
ENDBRANCH   4   5
ENDBRANCH   3   4
ENDBRANCH   2   3
ENDBRANCH   1   2
BRANCH   1  10
ATOM     10  C   UNL     1      27.148  24.934  23.400  1.00  0.00     0.000 C 
BRANCH  10  11
ATOM     11  C   UNL     1      27.737  24.239  22.164  1.00  0.00    -0.000 C 
BRANCH  11  12
ATOM     12  C   UNL     1      27.444  22.732  22.192  1.00  0.00    -0.000 C 
BRANCH  12  13
ATOM     13  C   UNL     1      26.115  22.399  22.891  1.00  0.00    -0.000 C 
BRANCH  13  14
ATOM     14  C   UNL     1      24.936  22.312  21.911  1.00  0.00    -0.000 C 
BRANCH  14  15
ATOM     15  C   UNL     1      23.883  23.384  22.223  1.00  0.00    -0.000 C 
BRANCH  15  16
ATOM     16  C   UNL     1      23.653  24.298  21.014  1.00  0.00    -0.003 C 
ATOM     17  C   UNL     1      23.584  25.762  21.435  1.00  0.00     0.004 C 
ENDBRANCH  15  16
ENDBRANCH  14  15
ENDBRANCH  13  14
ENDBRANCH  12  13
ENDBRANCH  11  12
ENDBRANCH  10  11
ENDBRANCH   1  10
TORSDOF 13
ENDMDL
MODEL 9
REMARK VINA RESULT:    -4.406     16.646     18.701
REMARK INTER + INTRA:          -8.799
REMARK INTER:                  -7.779
REMARK INTRA:                  -1.020
REMARK UNBOUND:                -1.045
REMARK SMILES CCCCCCCCCCCCCCC(=O)[O-]
REMARK SMILES IDX 9 1 10 2 11 3 12 4 13 5 14 6 15 7 16 8 17 9 8 10 7 11 6 12
REMARK SMILES IDX 5 13 4 14 3 15 2 16 1 17
REMARK H PARENT
REMARK Flexibility Score: inf
ROOT
ATOM      1  C   UNL     1      25.645  26.026  22.234  1.00  0.00     0.000 C 
ENDROOT
BRANCH   1   2
ATOM      2  C   UNL     1      26.418  26.725  23.367  1.00  0.00     0.000 C 
BRANCH   2   3
ATOM      3  C   UNL     1      27.571  27.604  22.851  1.00  0.00     0.000 C 
BRANCH   3   4
ATOM      4  C   UNL     1      28.080  28.589  23.916  1.00  0.00     0.000 C 
BRANCH   4   5
ATOM      5  C   UNL     1      26.948  29.414  24.552  1.00  0.00     0.006 C 
BRANCH   5   6
ATOM      6  C   UNL     1      27.469  30.385  25.621  1.00  0.00     0.053 C 
BRANCH   6   7
ATOM      7  C   UNL     1      26.599  31.599  25.739  1.00  0.00     0.041 C 
ATOM      8  O   UNL     1      25.532  31.680  25.077  1.00  0.00    -0.550 OA
ATOM      9  O   UNL     1      26.986  32.656  26.554  1.00  0.00    -0.550 OA
ENDBRANCH   6   7
ENDBRANCH   5   6
ENDBRANCH   4   5
ENDBRANCH   3   4
ENDBRANCH   2   3
ENDBRANCH   1   2
BRANCH   1  10
ATOM     10  C   UNL     1      24.234  26.582  21.964  1.00  0.00     0.000 C 
BRANCH  10  11
ATOM     11  C   UNL     1      23.334  25.596  21.204  1.00  0.00    -0.000 C 
BRANCH  11  12
ATOM     12  C   UNL     1      23.988  24.209  21.124  1.00  0.00    -0.000 C 
BRANCH  12  13
ATOM     13  C   UNL     1      23.634  23.316  22.325  1.00  0.00    -0.000 C 
BRANCH  13  14
ATOM     14  C   UNL     1      24.556  22.094  22.447  1.00  0.00    -0.000 C 
BRANCH  14  15
ATOM     15  C   UNL     1      25.920  22.369  21.802  1.00  0.00    -0.000 C 
BRANCH  15  16
ATOM     16  C   UNL     1      27.058  22.141  22.803  1.00  0.00    -0.003 C 
ATOM     17  C   UNL     1      26.859  22.975  24.064  1.00  0.00     0.004 C 
ENDBRANCH  15  16
ENDBRANCH  14  15
ENDBRANCH  13  14
ENDBRANCH  12  13
ENDBRANCH  11  12
ENDBRANCH  10  11
ENDBRANCH   1  10
TORSDOF 13
ENDMDL
