MODEL 1
REMARK VINA RESULT:    -4.439      0.000      0.000
REMARK INTER + INTRA:         -10.967
REMARK INTER:                  -8.591
REMARK INTRA:                  -2.376
REMARK UNBOUND:                -2.376
REMARK SMILES CCCCCC=CCC=CCCCCCCCCOC(C)=O
REMARK SMILES IDX 12 1 11 2 10 3 9 4 8 5 7 6 6 7 5 8 4 9 3 10 2 11 1 12 13 13
REMARK SMILES IDX 14 14 15 15 16 16 17 17 18 18 19 19 20 20 22 21 21 22
REMARK H PARENT
REMARK Flexibility Score: inf
ROOT
ATOM      1  C   UNL     1      67.083  51.235  18.141  1.00  0.00     0.004 C 
ENDROOT
BRANCH   1   2
ATOM      2  C   UNL     1      65.983  51.801  19.048  1.00  0.00     0.027 C 
BRANCH   2   3
ATOM      3  C   UNL     1      66.384  53.121  19.648  1.00  0.00    -0.031 C 
ATOM      4  C   UNL     1      65.623  53.741  20.564  1.00  0.00    -0.027 C 
BRANCH   4   5
ATOM      5  C   UNL     1      66.018  55.071  21.138  1.00  0.00     0.054 C 
BRANCH   5   6
ATOM      6  C   UNL     1      67.442  55.396  20.762  1.00  0.00    -0.027 C 
ATOM      7  C   UNL     1      68.514  55.150  21.536  1.00  0.00    -0.031 C 
BRANCH   7   8
ATOM      8  C   UNL     1      68.440  54.469  22.880  1.00  0.00     0.027 C 
BRANCH   8   9
ATOM      9  C   UNL     1      69.254  53.165  22.882  1.00  0.00     0.004 C 
BRANCH   9  10
ATOM     10  C   UNL     1      69.414  52.564  21.476  1.00  0.00     0.000 C 
BRANCH  10  11
ATOM     11  C   UNL     1      69.853  51.092  21.509  1.00  0.00    -0.003 C 
ATOM     12  C   UNL     1      68.650  50.159  21.407  1.00  0.00     0.004 C 
ENDBRANCH  10  11
ENDBRANCH   9  10
ENDBRANCH   8   9
ENDBRANCH   7   8
ENDBRANCH   5   6
ENDBRANCH   4   5
ENDBRANCH   2   3
ENDBRANCH   1   2
BRANCH   1  13
ATOM     13  C   UNL     1      67.905  52.347  17.467  1.00  0.00     0.000 C 
BRANCH  13  14
ATOM     14  C   UNL     1      69.410  52.229  17.754  1.00  0.00     0.000 C 
BRANCH  14  15
ATOM     15  C   UNL     1      70.106  53.596  17.848  1.00  0.00     0.000 C 
BRANCH  15  16
ATOM     16  C   UNL     1      71.624  53.429  18.018  1.00  0.00     0.003 C 
BRANCH  16  17
ATOM     17  C   UNL     1      72.428  54.191  16.953  1.00  0.00     0.042 C 
BRANCH  17  18
ATOM     18  C   UNL     1      71.614  54.482  15.690  1.00  0.00     0.233 C 
BRANCH  18  19
ATOM     19  O   UNL     1      72.087  55.684  15.088  1.00  0.00    -0.466 OA
BRANCH  19  20
ATOM     20  C   UNL     1      71.546  56.197  13.905  1.00  0.00     0.302 C 
ATOM     21  O   UNL     1      71.372  55.455  12.899  1.00  0.00    -0.253 OA
ATOM     22  C   UNL     1      71.220  57.649  13.815  1.00  0.00     0.139 C 
ENDBRANCH  19  20
ENDBRANCH  18  19
ENDBRANCH  17  18
ENDBRANCH  16  17
ENDBRANCH  15  16
ENDBRANCH  14  15
ENDBRANCH  13  14
ENDBRANCH   1  13
TORSDOF 16
ENDMDL
MODEL 2
REMARK VINA RESULT:    -4.337      4.253      7.459
REMARK INTER + INTRA:         -10.770
REMARK INTER:                  -8.076
REMARK INTRA:                  -2.693
REMARK UNBOUND:                -2.376
REMARK SMILES CCCCCC=CCC=CCCCCCCCCOC(C)=O
REMARK SMILES IDX 12 1 11 2 10 3 9 4 8 5 7 6 6 7 5 8 4 9 3 10 2 11 1 12 13 13
REMARK SMILES IDX 14 14 15 15 16 16 17 17 18 18 19 19 20 20 22 21 21 22
REMARK H PARENT
REMARK Flexibility Score: inf
ROOT
ATOM      1  C   UNL     1      66.358  56.278  20.633  1.00  0.00     0.004 C 
ENDROOT
BRANCH   1   2
ATOM      2  C   UNL     1      66.023  54.861  21.120  1.00  0.00     0.027 C 
BRANCH   2   3
ATOM      3  C   UNL     1      66.848  53.822  20.412  1.00  0.00    -0.031 C 
ATOM      4  C   UNL     1      66.285  52.874  19.646  1.00  0.00    -0.027 C 
BRANCH   4   5
ATOM      5  C   UNL     1      67.115  51.826  18.964  1.00  0.00     0.054 C 
BRANCH   5   6
ATOM      6  C   UNL     1      67.778  52.403  17.740  1.00  0.00    -0.027 C 
ATOM      7  C   UNL     1      69.107  52.537  17.579  1.00  0.00    -0.031 C 
BRANCH   7   8
ATOM      8  C   UNL     1      70.125  52.083  18.596  1.00  0.00     0.027 C 
BRANCH   8   9
ATOM      9  C   UNL     1      70.480  53.222  19.565  1.00  0.00     0.004 C 
BRANCH   9  10
ATOM     10  C   UNL     1      70.469  52.774  21.036  1.00  0.00     0.000 C 
BRANCH  10  11
ATOM     11  C   UNL     1      69.863  51.375  21.224  1.00  0.00    -0.003 C 
ATOM     12  C   UNL     1      69.246  51.227  22.612  1.00  0.00     0.004 C 
ENDBRANCH  10  11
ENDBRANCH   9  10
ENDBRANCH   8   9
ENDBRANCH   7   8
ENDBRANCH   5   6
ENDBRANCH   4   5
ENDBRANCH   2   3
ENDBRANCH   1   2
BRANCH   1  13
ATOM     13  C   UNL     1      66.356  57.300  21.783  1.00  0.00     0.000 C 
BRANCH  13  14
ATOM     14  C   UNL     1      65.637  56.780  23.038  1.00  0.00     0.000 C 
BRANCH  14  15
ATOM     15  C   UNL     1      65.948  57.615  24.290  1.00  0.00     0.000 C 
BRANCH  15  16
ATOM     16  C   UNL     1      65.913  56.742  25.554  1.00  0.00     0.003 C 
BRANCH  16  17
ATOM     17  C   UNL     1      67.051  57.069  26.533  1.00  0.00     0.042 C 
BRANCH  17  18
ATOM     18  C   UNL     1      67.993  55.886  26.765  1.00  0.00     0.233 C 
BRANCH  18  19
ATOM     19  O   UNL     1      67.851  54.950  25.700  1.00  0.00    -0.466 OA
BRANCH  19  20
ATOM     20  C   UNL     1      68.910  54.605  24.855  1.00  0.00     0.302 C 
ATOM     21  O   UNL     1      69.883  53.924  25.284  1.00  0.00    -0.253 OA
ATOM     22  C   UNL     1      68.914  55.090  23.445  1.00  0.00     0.139 C 
ENDBRANCH  19  20
ENDBRANCH  18  19
ENDBRANCH  17  18
ENDBRANCH  16  17
ENDBRANCH  15  16
ENDBRANCH  14  15
ENDBRANCH  13  14
ENDBRANCH   1  13
TORSDOF 16
ENDMDL
MODEL 3
REMARK VINA RESULT:    -4.336      1.529      3.689
REMARK INTER + INTRA:         -10.769
REMARK INTER:                  -7.744
REMARK INTRA:                  -3.025
REMARK UNBOUND:                -2.376
REMARK SMILES CCCCCC=CCC=CCCCCCCCCOC(C)=O
REMARK SMILES IDX 12 1 11 2 10 3 9 4 8 5 7 6 6 7 5 8 4 9 3 10 2 11 1 12 13 13
REMARK SMILES IDX 14 14 15 15 16 16 17 17 18 18 19 19 20 20 22 21 21 22
REMARK H PARENT
REMARK Flexibility Score: inf
ROOT
ATOM      1  C   UNL     1      66.263  55.521  21.071  1.00  0.00     0.004 C 
ENDROOT
BRANCH   1   2
ATOM      2  C   UNL     1      65.679  54.141  20.741  1.00  0.00     0.027 C 
BRANCH   2   3
ATOM      3  C   UNL     1      66.666  53.287  19.993  1.00  0.00    -0.031 C 
ATOM      4  C   UNL     1      66.280  52.461  19.007  1.00  0.00    -0.027 C 
BRANCH   4   5
ATOM      5  C   UNL     1      67.268  51.593  18.283  1.00  0.00     0.054 C 
BRANCH   5   6
ATOM      6  C   UNL     1      68.222  52.445  17.486  1.00  0.00    -0.027 C 
ATOM      7  C   UNL     1      69.524  52.616  17.778  1.00  0.00    -0.031 C 
BRANCH   7   8
ATOM      8  C   UNL     1      70.222  51.937  18.930  1.00  0.00     0.027 C 
BRANCH   8   9
ATOM      9  C   UNL     1      70.279  52.859  20.159  1.00  0.00     0.004 C 
BRANCH   9  10
ATOM     10  C   UNL     1      69.869  52.144  21.456  1.00  0.00     0.000 C 
BRANCH  10  11
ATOM     11  C   UNL     1      69.268  50.753  21.201  1.00  0.00    -0.003 C 
ATOM     12  C   UNL     1      69.421  49.857  22.427  1.00  0.00     0.004 C 
ENDBRANCH  10  11
ENDBRANCH   9  10
ENDBRANCH   8   9
ENDBRANCH   7   8
ENDBRANCH   5   6
ENDBRANCH   4   5
ENDBRANCH   2   3
ENDBRANCH   1   2
BRANCH   1  13
ATOM     13  C   UNL     1      67.650  55.420  21.730  1.00  0.00     0.000 C 
BRANCH  13  14
ATOM     14  C   UNL     1      68.722  56.229  20.983  1.00  0.00     0.000 C 
BRANCH  14  15
ATOM     15  C   UNL     1      68.556  56.169  19.457  1.00  0.00     0.000 C 
BRANCH  15  16
ATOM     16  C   UNL     1      69.919  56.248  18.752  1.00  0.00     0.003 C 
BRANCH  16  17
ATOM     17  C   UNL     1      69.889  57.137  17.499  1.00  0.00     0.042 C 
BRANCH  17  18
ATOM     18  C   UNL     1      71.040  56.844  16.535  1.00  0.00     0.233 C 
BRANCH  18  19
ATOM     19  O   UNL     1      72.067  56.136  17.224  1.00  0.00    -0.466 OA
BRANCH  19  20
ATOM     20  C   UNL     1      72.472  54.850  16.854  1.00  0.00     0.302 C 
ATOM     21  O   UNL     1      72.004  54.297  15.821  1.00  0.00    -0.253 OA
ATOM     22  C   UNL     1      73.431  54.104  17.720  1.00  0.00     0.139 C 
ENDBRANCH  19  20
ENDBRANCH  18  19
ENDBRANCH  17  18
ENDBRANCH  16  17
ENDBRANCH  15  16
ENDBRANCH  14  15
ENDBRANCH  13  14
ENDBRANCH   1  13
TORSDOF 16
ENDMDL
MODEL 4
REMARK VINA RESULT:    -4.322      2.101      2.796
REMARK INTER + INTRA:         -10.741
REMARK INTER:                  -7.851
REMARK INTRA:                  -2.890
REMARK UNBOUND:                -2.376
REMARK SMILES CCCCCC=CCC=CCCCCCCCCOC(C)=O
REMARK SMILES IDX 12 1 11 2 10 3 9 4 8 5 7 6 6 7 5 8 4 9 3 10 2 11 1 12 13 13
REMARK SMILES IDX 14 14 15 15 16 16 17 17 18 18 19 19 20 20 22 21 21 22
REMARK H PARENT
REMARK Flexibility Score: inf
ROOT
ATOM      1  C   UNL     1      67.509  51.610  18.238  1.00  0.00     0.004 C 
ENDROOT
BRANCH   1   2
ATOM      2  C   UNL     1      66.413  52.115  19.186  1.00  0.00     0.027 C 
BRANCH   2   3
ATOM      3  C   UNL     1      66.988  52.919  20.319  1.00  0.00    -0.031 C 
ATOM      4  C   UNL     1      66.883  54.257  20.359  1.00  0.00    -0.027 C 
BRANCH   4   5
ATOM      5  C   UNL     1      67.483  55.054  21.482  1.00  0.00     0.054 C 
BRANCH   5   6
ATOM      6  C   UNL     1      68.985  54.930  21.463  1.00  0.00    -0.027 C 
ATOM      7  C   UNL     1      69.700  54.149  22.294  1.00  0.00    -0.031 C 
BRANCH   7   8
ATOM      8  C   UNL     1      69.084  53.252  23.339  1.00  0.00     0.027 C 
BRANCH   8   9
ATOM      9  C   UNL     1      69.670  51.834  23.261  1.00  0.00     0.004 C 
BRANCH   9  10
ATOM     10  C   UNL     1      69.941  51.382  21.817  1.00  0.00     0.000 C 
BRANCH  10  11
ATOM     11  C   UNL     1      69.199  50.088  21.453  1.00  0.00    -0.003 C 
ATOM     12  C   UNL     1      68.750  49.343  22.706  1.00  0.00     0.004 C 
ENDBRANCH  10  11
ENDBRANCH   9  10
ENDBRANCH   8   9
ENDBRANCH   7   8
ENDBRANCH   5   6
ENDBRANCH   4   5
ENDBRANCH   2   3
ENDBRANCH   1   2
BRANCH   1  13
ATOM     13  C   UNL     1      67.896  52.664  17.187  1.00  0.00     0.000 C 
BRANCH  13  14
ATOM     14  C   UNL     1      69.372  53.081  17.279  1.00  0.00     0.000 C 
BRANCH  14  15
ATOM     15  C   UNL     1      70.098  52.434  18.468  1.00  0.00     0.000 C 
BRANCH  15  16
ATOM     16  C   UNL     1      71.278  53.304  18.930  1.00  0.00     0.003 C 
BRANCH  16  17
ATOM     17  C   UNL     1      71.349  54.649  18.190  1.00  0.00     0.042 C 
BRANCH  17  18
ATOM     18  C   UNL     1      72.561  54.754  17.262  1.00  0.00     0.233 C 
BRANCH  18  19
ATOM     19  O   UNL     1      73.565  53.837  17.689  1.00  0.00    -0.466 OA
BRANCH  19  20
ATOM     20  C   UNL     1      74.801  54.255  18.192  1.00  0.00     0.302 C 
ATOM     21  O   UNL     1      75.373  53.611  19.115  1.00  0.00    -0.253 OA
ATOM     22  C   UNL     1      75.423  55.505  17.669  1.00  0.00     0.139 C 
ENDBRANCH  19  20
ENDBRANCH  18  19
ENDBRANCH  17  18
ENDBRANCH  16  17
ENDBRANCH  15  16
ENDBRANCH  14  15
ENDBRANCH  13  14
ENDBRANCH   1  13
TORSDOF 16
ENDMDL
MODEL 5
REMARK VINA RESULT:    -4.198      3.717      6.875
REMARK INTER + INTRA:         -10.501
REMARK INTER:                  -7.607
REMARK INTRA:                  -2.894
REMARK UNBOUND:                -2.376
REMARK SMILES CCCCCC=CCC=CCCCCCCCCOC(C)=O
REMARK SMILES IDX 12 1 11 2 10 3 9 4 8 5 7 6 6 7 5 8 4 9 3 10 2 11 1 12 13 13
REMARK SMILES IDX 14 14 15 15 16 16 17 17 18 18 19 19 20 20 22 21 21 22
REMARK H PARENT
REMARK Flexibility Score: inf
ROOT
ATOM      1  C   UNL     1      67.243  51.306  19.639  1.00  0.00     0.004 C 
ENDROOT
BRANCH   1   2
ATOM      2  C   UNL     1      67.344  51.866  18.214  1.00  0.00     0.027 C 
BRANCH   2   3
ATOM      3  C   UNL     1      68.757  52.248  17.868  1.00  0.00    -0.031 C 
ATOM      4  C   UNL     1      69.051  53.431  17.305  1.00  0.00    -0.027 C 
BRANCH   4   5
ATOM      5  C   UNL     1      70.461  53.793  16.939  1.00  0.00     0.054 C 
BRANCH   5   6
ATOM      6  C   UNL     1      71.419  53.269  17.979  1.00  0.00    -0.027 C 
ATOM      7  C   UNL     1      71.736  53.909  19.119  1.00  0.00    -0.031 C 
BRANCH   7   8
ATOM      8  C   UNL     1      71.138  55.230  19.535  1.00  0.00     0.027 C 
BRANCH   8   9
ATOM      9  C   UNL     1      70.151  55.045  20.698  1.00  0.00     0.004 C 
BRANCH   9  10
ATOM     10  C   UNL     1      68.715  55.451  20.328  1.00  0.00     0.000 C 
BRANCH  10  11
ATOM     11  C   UNL     1      67.714  55.183  21.462  1.00  0.00    -0.003 C 
ATOM     12  C   UNL     1      66.351  54.779  20.905  1.00  0.00     0.004 C 
ENDBRANCH  10  11
ENDBRANCH   9  10
ENDBRANCH   8   9
ENDBRANCH   7   8
ENDBRANCH   5   6
ENDBRANCH   4   5
ENDBRANCH   2   3
ENDBRANCH   1   2
BRANCH   1  13
ATOM     13  C   UNL     1      68.450  51.707  20.505  1.00  0.00     0.000 C 
BRANCH  13  14
ATOM     14  C   UNL     1      69.091  50.509  21.221  1.00  0.00     0.000 C 
BRANCH  14  15
ATOM     15  C   UNL     1      69.335  50.770  22.715  1.00  0.00     0.000 C 
BRANCH  15  16
ATOM     16  C   UNL     1      69.505  52.272  22.989  1.00  0.00     0.003 C 
BRANCH  16  17
ATOM     17  C   UNL     1      70.733  52.581  23.860  1.00  0.00     0.042 C 
BRANCH  17  18
ATOM     18  C   UNL     1      70.819  54.055  24.263  1.00  0.00     0.233 C 
BRANCH  18  19
ATOM     19  O   UNL     1      69.510  54.553  24.524  1.00  0.00    -0.466 OA
BRANCH  19  20
ATOM     20  C   UNL     1      68.999  54.684  25.819  1.00  0.00     0.302 C 
ATOM     21  O   UNL     1      67.754  54.746  26.019  1.00  0.00    -0.253 OA
ATOM     22  C   UNL     1      69.937  54.805  26.971  1.00  0.00     0.139 C 
ENDBRANCH  19  20
ENDBRANCH  18  19
ENDBRANCH  17  18
ENDBRANCH  16  17
ENDBRANCH  15  16
ENDBRANCH  14  15
ENDBRANCH  13  14
ENDBRANCH   1  13
TORSDOF 16
ENDMDL
MODEL 6
REMARK VINA RESULT:    -4.198      4.693      8.238
REMARK INTER + INTRA:         -10.500
REMARK INTER:                  -8.576
REMARK INTRA:                  -1.925
REMARK UNBOUND:                -2.376
REMARK SMILES CCCCCC=CCC=CCCCCCCCCOC(C)=O
REMARK SMILES IDX 12 1 11 2 10 3 9 4 8 5 7 6 6 7 5 8 4 9 3 10 2 11 1 12 13 13
REMARK SMILES IDX 14 14 15 15 16 16 17 17 18 18 19 19 20 20 22 21 21 22
REMARK H PARENT
REMARK Flexibility Score: inf
ROOT
ATOM      1  C   UNL     1      66.037  56.568  20.732  1.00  0.00     0.004 C 
ENDROOT
BRANCH   1   2
ATOM      2  C   UNL     1      66.060  55.099  21.175  1.00  0.00     0.027 C 
BRANCH   2   3
ATOM      3  C   UNL     1      67.421  54.485  20.988  1.00  0.00    -0.031 C 
ATOM      4  C   UNL     1      68.236  54.246  22.027  1.00  0.00    -0.027 C 
BRANCH   4   5
ATOM      5  C   UNL     1      69.603  53.657  21.827  1.00  0.00     0.054 C 
BRANCH   5   6
ATOM      6  C   UNL     1      69.493  52.194  21.480  1.00  0.00    -0.027 C 
ATOM      7  C   UNL     1      69.725  51.677  20.260  1.00  0.00    -0.031 C 
BRANCH   7   8
ATOM      8  C   UNL     1      70.173  52.494  19.073  1.00  0.00     0.027 C 
BRANCH   8   9
ATOM      9  C   UNL     1      69.343  52.152  17.825  1.00  0.00     0.004 C 
BRANCH   9  10
ATOM     10  C   UNL     1      67.887  52.632  17.932  1.00  0.00     0.000 C 
BRANCH  10  11
ATOM     11  C   UNL     1      66.895  51.475  18.124  1.00  0.00    -0.003 C 
ATOM     12  C   UNL     1      65.664  51.932  18.902  1.00  0.00     0.004 C 
ENDBRANCH  10  11
ENDBRANCH   9  10
ENDBRANCH   8   9
ENDBRANCH   7   8
ENDBRANCH   5   6
ENDBRANCH   4   5
ENDBRANCH   2   3
ENDBRANCH   1   2
BRANCH   1  13
ATOM     13  C   UNL     1      66.051  57.534  21.930  1.00  0.00     0.000 C 
BRANCH  13  14
ATOM     14  C   UNL     1      65.499  56.895  23.213  1.00  0.00     0.000 C 
BRANCH  14  15
ATOM     15  C   UNL     1      65.805  57.725  24.469  1.00  0.00     0.000 C 
BRANCH  15  16
ATOM     16  C   UNL     1      65.912  56.825  25.710  1.00  0.00     0.003 C 
BRANCH  16  17
ATOM     17  C   UNL     1      67.142  57.148  26.573  1.00  0.00     0.042 C 
BRANCH  17  18
ATOM     18  C   UNL     1      68.459  56.753  25.901  1.00  0.00     0.233 C 
BRANCH  18  19
ATOM     19  O   UNL     1      69.478  56.630  26.890  1.00  0.00    -0.466 OA
BRANCH  19  20
ATOM     20  C   UNL     1      70.064  55.404  27.217  1.00  0.00     0.302 C 
ATOM     21  O   UNL     1      70.567  55.213  28.359  1.00  0.00    -0.253 OA
ATOM     22  C   UNL     1      70.143  54.327  26.188  1.00  0.00     0.139 C 
ENDBRANCH  19  20
ENDBRANCH  18  19
ENDBRANCH  17  18
ENDBRANCH  16  17
ENDBRANCH  15  16
ENDBRANCH  14  15
ENDBRANCH  13  14
ENDBRANCH   1  13
TORSDOF 16
ENDMDL
MODEL 7
REMARK VINA RESULT:    -4.180      3.604      6.159
REMARK INTER + INTRA:         -10.466
REMARK INTER:                  -7.760
REMARK INTRA:                  -2.706
REMARK UNBOUND:                -2.376
REMARK SMILES CCCCCC=CCC=CCCCCCCCCOC(C)=O
REMARK SMILES IDX 12 1 11 2 10 3 9 4 8 5 7 6 6 7 5 8 4 9 3 10 2 11 1 12 13 13
REMARK SMILES IDX 14 14 15 15 16 16 17 17 18 18 19 19 20 20 22 21 21 22
REMARK H PARENT
REMARK Flexibility Score: inf
ROOT
ATOM      1  C   UNL     1      66.200  55.229  21.288  1.00  0.00     0.004 C 
ENDROOT
BRANCH   1   2
ATOM      2  C   UNL     1      65.609  53.932  20.720  1.00  0.00     0.027 C 
BRANCH   2   3
ATOM      3  C   UNL     1      66.546  53.278  19.742  1.00  0.00    -0.031 C 
ATOM      4  C   UNL     1      66.251  52.106  19.157  1.00  0.00    -0.027 C 
BRANCH   4   5
ATOM      5  C   UNL     1      67.204  51.448  18.201  1.00  0.00     0.054 C 
BRANCH   5   6
ATOM      6  C   UNL     1      68.050  52.488  17.512  1.00  0.00    -0.027 C 
ATOM      7  C   UNL     1      69.349  52.716  17.776  1.00  0.00    -0.031 C 
BRANCH   7   8
ATOM      8  C   UNL     1      70.153  51.925  18.778  1.00  0.00     0.027 C 
BRANCH   8   9
ATOM      9  C   UNL     1      70.203  52.645  20.135  1.00  0.00     0.004 C 
BRANCH   9  10
ATOM     10  C   UNL     1      70.195  51.670  21.324  1.00  0.00     0.000 C 
BRANCH  10  11
ATOM     11  C   UNL     1      68.950  50.769  21.341  1.00  0.00    -0.003 C 
ATOM     12  C   UNL     1      69.214  49.487  22.125  1.00  0.00     0.004 C 
ENDBRANCH  10  11
ENDBRANCH   9  10
ENDBRANCH   8   9
ENDBRANCH   7   8
ENDBRANCH   5   6
ENDBRANCH   4   5
ENDBRANCH   2   3
ENDBRANCH   1   2
BRANCH   1  13
ATOM     13  C   UNL     1      67.708  55.348  21.009  1.00  0.00     0.000 C 
BRANCH  13  14
ATOM     14  C   UNL     1      68.545  55.425  22.295  1.00  0.00     0.000 C 
BRANCH  14  15
ATOM     15  C   UNL     1      68.424  54.162  23.160  1.00  0.00     0.000 C 
BRANCH  15  16
ATOM     16  C   UNL     1      68.486  54.511  24.655  1.00  0.00     0.003 C 
BRANCH  16  17
ATOM     17  C   UNL     1      69.923  54.558  25.195  1.00  0.00     0.042 C 
BRANCH  17  18
ATOM     18  C   UNL     1      70.890  53.689  24.388  1.00  0.00     0.233 C 
BRANCH  18  19
ATOM     19  O   UNL     1      71.948  54.499  23.884  1.00  0.00    -0.466 OA
BRANCH  19  20
ATOM     20  C   UNL     1      73.118  53.957  23.342  1.00  0.00     0.302 C 
ATOM     21  O   UNL     1      74.030  54.707  22.895  1.00  0.00    -0.253 OA
ATOM     22  C   UNL     1      73.267  52.477  23.244  1.00  0.00     0.139 C 
ENDBRANCH  19  20
ENDBRANCH  18  19
ENDBRANCH  17  18
ENDBRANCH  16  17
ENDBRANCH  15  16
ENDBRANCH  14  15
ENDBRANCH  13  14
ENDBRANCH   1  13
TORSDOF 16
ENDMDL
MODEL 8
REMARK VINA RESULT:    -4.146      4.328      7.350
REMARK INTER + INTRA:         -10.401
REMARK INTER:                  -7.316
REMARK INTRA:                  -3.084
REMARK UNBOUND:                -2.376
REMARK SMILES CCCCCC=CCC=CCCCCCCCCOC(C)=O
REMARK SMILES IDX 12 1 11 2 10 3 9 4 8 5 7 6 6 7 5 8 4 9 3 10 2 11 1 12 13 13
REMARK SMILES IDX 14 14 15 15 16 16 17 17 18 18 19 19 20 20 22 21 21 22
REMARK H PARENT
REMARK Flexibility Score: inf
ROOT
ATOM      1  C   UNL     1      66.346  55.443  21.591  1.00  0.00     0.004 C 
ENDROOT
BRANCH   1   2
ATOM      2  C   UNL     1      65.657  54.326  20.796  1.00  0.00     0.027 C 
BRANCH   2   3
ATOM      3  C   UNL     1      66.655  53.470  20.064  1.00  0.00    -0.031 C 
ATOM      4  C   UNL     1      66.275  52.407  19.337  1.00  0.00    -0.027 C 
BRANCH   4   5
ATOM      5  C   UNL     1      67.280  51.544  18.632  1.00  0.00     0.054 C 
BRANCH   5   6
ATOM      6  C   UNL     1      67.945  52.320  17.523  1.00  0.00    -0.027 C 
ATOM      7  C   UNL     1      69.245  52.665  17.502  1.00  0.00    -0.031 C 
BRANCH   7   8
ATOM      8  C   UNL     1      70.233  52.281  18.577  1.00  0.00     0.027 C 
BRANCH   8   9
ATOM      9  C   UNL     1      70.363  53.396  19.627  1.00  0.00     0.004 C 
BRANCH   9  10
ATOM     10  C   UNL     1      70.697  52.855  21.027  1.00  0.00     0.000 C 
BRANCH  10  11
ATOM     11  C   UNL     1      70.183  51.424  21.246  1.00  0.00    -0.003 C 
ATOM     12  C   UNL     1      68.878  51.427  22.038  1.00  0.00     0.004 C 
ENDBRANCH  10  11
ENDBRANCH   9  10
ENDBRANCH   8   9
ENDBRANCH   7   8
ENDBRANCH   5   6
ENDBRANCH   4   5
ENDBRANCH   2   3
ENDBRANCH   1   2
BRANCH   1  13
ATOM     13  C   UNL     1      67.880  55.333  21.533  1.00  0.00     0.000 C 
BRANCH  13  14
ATOM     14  C   UNL     1      68.547  55.623  22.886  1.00  0.00     0.000 C 
BRANCH  14  15
ATOM     15  C   UNL     1      68.434  54.448  23.869  1.00  0.00     0.000 C 
BRANCH  15  16
ATOM     16  C   UNL     1      69.425  54.608  25.032  1.00  0.00     0.003 C 
BRANCH  16  17
ATOM     17  C   UNL     1      68.729  54.904  26.369  1.00  0.00     0.042 C 
BRANCH  17  18
ATOM     18  C   UNL     1      68.771  56.387  26.745  1.00  0.00     0.233 C 
BRANCH  18  19
ATOM     19  O   UNL     1      67.453  56.927  26.690  1.00  0.00    -0.466 OA
BRANCH  19  20
ATOM     20  C   UNL     1      66.933  57.526  25.539  1.00  0.00     0.302 C 
ATOM     21  O   UNL     1      67.509  58.517  25.009  1.00  0.00    -0.253 OA
ATOM     22  C   UNL     1      65.655  57.020  24.960  1.00  0.00     0.139 C 
ENDBRANCH  19  20
ENDBRANCH  18  19
ENDBRANCH  17  18
ENDBRANCH  16  17
ENDBRANCH  15  16
ENDBRANCH  14  15
ENDBRANCH  13  14
ENDBRANCH   1  13
TORSDOF 16
ENDMDL
MODEL 9
REMARK VINA RESULT:    -4.058      1.578      3.247
REMARK INTER + INTRA:         -10.229
REMARK INTER:                  -6.908
REMARK INTRA:                  -3.321
REMARK UNBOUND:                -2.376
REMARK SMILES CCCCCC=CCC=CCCCCCCCCOC(C)=O
REMARK SMILES IDX 12 1 11 2 10 3 9 4 8 5 7 6 6 7 5 8 4 9 3 10 2 11 1 12 13 13
REMARK SMILES IDX 14 14 15 15 16 16 17 17 18 18 19 19 20 20 22 21 21 22
REMARK H PARENT
REMARK Flexibility Score: inf
ROOT
ATOM      1  C   UNL     1      67.422  52.721  18.575  1.00  0.00     0.004 C 
ENDROOT
BRANCH   1   2
ATOM      2  C   UNL     1      67.523  51.575  19.591  1.00  0.00     0.027 C 
BRANCH   2   3
ATOM      3  C   UNL     1      68.401  51.944  20.756  1.00  0.00    -0.031 C 
ATOM      4  C   UNL     1      69.691  51.578  20.812  1.00  0.00    -0.027 C 
BRANCH   4   5
ATOM      5  C   UNL     1      70.552  51.928  21.991  1.00  0.00     0.054 C 
BRANCH   5   6
ATOM      6  C   UNL     1      69.692  52.226  23.193  1.00  0.00    -0.027 C 
ATOM      7  C   UNL     1      69.490  53.453  23.705  1.00  0.00    -0.031 C 
BRANCH   7   8
ATOM      8  C   UNL     1      70.069  54.715  23.114  1.00  0.00     0.027 C 
BRANCH   8   9
ATOM      9  C   UNL     1      69.090  55.354  22.116  1.00  0.00     0.004 C 
BRANCH   9  10
ATOM     10  C   UNL     1      67.627  55.257  22.575  1.00  0.00     0.000 C 
BRANCH  10  11
ATOM     11  C   UNL     1      66.648  55.102  21.401  1.00  0.00    -0.003 C 
ATOM     12  C   UNL     1      66.985  56.076  20.275  1.00  0.00     0.004 C 
ENDBRANCH  10  11
ENDBRANCH   9  10
ENDBRANCH   8   9
ENDBRANCH   7   8
ENDBRANCH   5   6
ENDBRANCH   4   5
ENDBRANCH   2   3
ENDBRANCH   1   2
BRANCH   1  13
ATOM     13  C   UNL     1      68.283  52.465  17.326  1.00  0.00     0.000 C 
BRANCH  13  14
ATOM     14  C   UNL     1      69.655  53.153  17.401  1.00  0.00     0.000 C 
BRANCH  14  15
ATOM     15  C   UNL     1      69.632  54.433  18.249  1.00  0.00     0.000 C 
BRANCH  15  16
ATOM     16  C   UNL     1      70.942  54.593  19.037  1.00  0.00     0.003 C 
BRANCH  16  17
ATOM     17  C   UNL     1      71.407  56.055  19.125  1.00  0.00     0.042 C 
BRANCH  17  18
ATOM     18  C   UNL     1      72.634  56.342  18.257  1.00  0.00     0.233 C 
BRANCH  18  19
ATOM     19  O   UNL     1      72.601  55.509  17.101  1.00  0.00    -0.466 OA
BRANCH  19  20
ATOM     20  C   UNL     1      72.279  55.997  15.831  1.00  0.00     0.302 C 
ATOM     21  O   UNL     1      72.602  57.167  15.487  1.00  0.00    -0.253 OA
ATOM     22  C   UNL     1      71.499  55.141  14.891  1.00  0.00     0.139 C 
ENDBRANCH  19  20
ENDBRANCH  18  19
ENDBRANCH  17  18
ENDBRANCH  16  17
ENDBRANCH  15  16
ENDBRANCH  14  15
ENDBRANCH  13  14
ENDBRANCH   1  13
TORSDOF 16
ENDMDL
