MODEL 1
REMARK VINA RESULT:    -4.741      0.000      0.000
REMARK INTER + INTRA:          -7.224
REMARK INTER:                  -6.680
REMARK INTRA:                  -0.544
REMARK UNBOUND:                -0.544
REMARK SMILES CCCCCCCCC(=O)[O-]
REMARK SMILES IDX 6 1 7 2 8 3 9 4 10 5 11 6 5 7 4 8 3 9 2 10 1 11
REMARK H PARENT
REMARK Flexibility Score: inf
ROOT
ATOM      1  C   UNL     1      14.362   1.157  28.182  1.00  0.00     0.000 C 
ENDROOT
BRANCH   1   2
ATOM      2  C   UNL     1      13.131   0.691  28.978  1.00  0.00     0.006 C 
BRANCH   2   3
ATOM      3  C   UNL     1      13.488   0.211  30.392  1.00  0.00     0.053 C 
BRANCH   3   4
ATOM      4  C   UNL     1      14.721  -0.634  30.360  1.00  0.00     0.041 C 
ATOM      5  O   UNL     1      15.717  -0.328  31.069  1.00  0.00    -0.550 OA
ATOM      6  O   UNL     1      14.755  -1.787  29.588  1.00  0.00    -0.550 OA
ENDBRANCH   3   4
ENDBRANCH   2   3
ENDBRANCH   1   2
BRANCH   1   7
ATOM      7  C   UNL     1      14.241   0.849  26.679  1.00  0.00     0.000 C 
BRANCH   7   8
ATOM      8  C   UNL     1      14.091  -0.656  26.387  1.00  0.00    -0.000 C 
BRANCH   8   9
ATOM      9  C   UNL     1      12.687  -1.097  25.938  1.00  0.00    -0.000 C 
BRANCH   9  10
ATOM     10  C   UNL     1      11.806   0.077  25.485  1.00  0.00    -0.003 C 
ATOM     11  C   UNL     1      10.469   0.079  26.223  1.00  0.00     0.004 C 
ENDBRANCH   9  10
ENDBRANCH   8   9
ENDBRANCH   7   8
ENDBRANCH   1   7
TORSDOF 7
ENDMDL
MODEL 2
REMARK VINA RESULT:    -4.702      3.434      5.279
REMARK INTER + INTRA:          -7.170
REMARK INTER:                  -6.622
REMARK INTRA:                  -0.547
REMARK UNBOUND:                -0.544
REMARK SMILES CCCCCCCCC(=O)[O-]
REMARK SMILES IDX 6 1 7 2 8 3 9 4 10 5 11 6 5 7 4 8 3 9 2 10 1 11
REMARK H PARENT
REMARK Flexibility Score: inf
ROOT
ATOM      1  C   UNL     1      12.462  -1.128  26.193  1.00  0.00     0.000 C 
ENDROOT
BRANCH   1   2
ATOM      2  C   UNL     1      11.422  -0.053  26.550  1.00  0.00     0.006 C 
BRANCH   2   3
ATOM      3  C   UNL     1      10.476   0.267  25.384  1.00  0.00     0.053 C 
BRANCH   3   4
ATOM      4  C   UNL     1      11.253   0.739  24.196  1.00  0.00     0.041 C 
ATOM      5  O   UNL     1      10.978   0.305  23.046  1.00  0.00    -0.550 OA
ATOM      6  O   UNL     1      12.247   1.696  24.351  1.00  0.00    -0.550 OA
ENDBRANCH   3   4
ENDBRANCH   2   3
ENDBRANCH   1   2
BRANCH   1   7
ATOM      7  C   UNL     1      13.810  -0.900  26.899  1.00  0.00     0.000 C 
BRANCH   7   8
ATOM      8  C   UNL     1      13.841   0.400  27.724  1.00  0.00    -0.000 C 
BRANCH   8   9
ATOM      9  C   UNL     1      14.614   1.565  27.080  1.00  0.00    -0.000 C 
BRANCH   9  10
ATOM     10  C   UNL     1      15.441   1.132  25.860  1.00  0.00    -0.003 C 
ATOM     11  C   UNL     1      15.540   2.259  24.834  1.00  0.00     0.004 C 
ENDBRANCH   9  10
ENDBRANCH   8   9
ENDBRANCH   7   8
ENDBRANCH   1   7
TORSDOF 7
ENDMDL
MODEL 3
REMARK VINA RESULT:    -4.698      3.245      5.120
REMARK INTER + INTRA:          -7.164
REMARK INTER:                  -6.665
REMARK INTRA:                  -0.499
REMARK UNBOUND:                -0.544
REMARK SMILES CCCCCCCCC(=O)[O-]
REMARK SMILES IDX 6 1 7 2 8 3 9 4 10 5 11 6 5 7 4 8 3 9 2 10 1 11
REMARK H PARENT
REMARK Flexibility Score: inf
ROOT
ATOM      1  C   UNL     1      12.509  -1.220  25.926  1.00  0.00     0.000 C 
ENDROOT
BRANCH   1   2
ATOM      2  C   UNL     1      11.459  -0.237  26.471  1.00  0.00     0.006 C 
BRANCH   2   3
ATOM      3  C   UNL     1      10.492   0.258  25.388  1.00  0.00     0.053 C 
BRANCH   3   4
ATOM      4  C   UNL     1      11.250   0.751  24.197  1.00  0.00     0.041 C 
ATOM      5  O   UNL     1      12.199   1.567  24.344  1.00  0.00    -0.550 OA
ATOM      6  O   UNL     1      10.943   0.273  22.930  1.00  0.00    -0.550 OA
ENDBRANCH   3   4
ENDBRANCH   2   3
ENDBRANCH   1   2
BRANCH   1   7
ATOM      7  C   UNL     1      13.830  -1.166  26.714  1.00  0.00     0.000 C 
BRANCH   7   8
ATOM      8  C   UNL     1      14.590   0.159  26.520  1.00  0.00    -0.000 C 
BRANCH   8   9
ATOM      9  C   UNL     1      14.458   1.163  27.679  1.00  0.00    -0.000 C 
BRANCH   9  10
ATOM     10  C   UNL     1      14.258   0.482  29.041  1.00  0.00    -0.003 C 
ATOM     11  C   UNL     1      12.939   0.907  29.681  1.00  0.00     0.004 C 
ENDBRANCH   9  10
ENDBRANCH   8   9
ENDBRANCH   7   8
ENDBRANCH   1   7
TORSDOF 7
ENDMDL
MODEL 4
REMARK VINA RESULT:    -4.638      9.543     10.743
REMARK INTER + INTRA:          -7.079
REMARK INTER:                  -6.340
REMARK INTRA:                  -0.739
REMARK UNBOUND:                -0.544
REMARK SMILES CCCCCCCCC(=O)[O-]
REMARK SMILES IDX 6 1 7 2 8 3 9 4 10 5 11 6 5 7 4 8 3 9 2 10 1 11
REMARK H PARENT
REMARK Flexibility Score: inf
ROOT
ATOM      1  C   UNL     1      10.344   5.604  21.344  1.00  0.00     0.000 C 
ENDROOT
BRANCH   1   2
ATOM      2  C   UNL     1      11.640   6.333  21.737  1.00  0.00     0.006 C 
BRANCH   2   3
ATOM      3  C   UNL     1      11.631   7.814  21.335  1.00  0.00     0.053 C 
BRANCH   3   4
ATOM      4  C   UNL     1      13.020   8.368  21.357  1.00  0.00     0.041 C 
ATOM      5  O   UNL     1      13.634   8.496  22.449  1.00  0.00    -0.550 OA
ATOM      6  O   UNL     1      13.656   8.698  20.167  1.00  0.00    -0.550 OA
ENDBRANCH   3   4
ENDBRANCH   2   3
ENDBRANCH   1   2
BRANCH   1   7
ATOM      7  C   UNL     1      10.611   4.224  20.718  1.00  0.00     0.000 C 
BRANCH   7   8
ATOM      8  C   UNL     1      10.588   4.250  19.179  1.00  0.00    -0.000 C 
BRANCH   8   9
ATOM      9  C   UNL     1      11.963   4.411  18.507  1.00  0.00    -0.000 C 
BRANCH   9  10
ATOM     10  C   UNL     1      12.313   5.875  18.203  1.00  0.00    -0.003 C 
ATOM     11  C   UNL     1      11.066   6.675  17.834  1.00  0.00     0.004 C 
ENDBRANCH   9  10
ENDBRANCH   8   9
ENDBRANCH   7   8
ENDBRANCH   1   7
TORSDOF 7
ENDMDL
MODEL 5
REMARK VINA RESULT:    -4.603      8.233      9.412
REMARK INTER + INTRA:          -7.030
REMARK INTER:                  -6.203
REMARK INTRA:                  -0.827
REMARK UNBOUND:                -0.544
REMARK SMILES CCCCCCCCC(=O)[O-]
REMARK SMILES IDX 6 1 7 2 8 3 9 4 10 5 11 6 5 7 4 8 3 9 2 10 1 11
REMARK H PARENT
REMARK Flexibility Score: inf
ROOT
ATOM      1  C   UNL     1      16.155  -4.910  35.960  1.00  0.00     0.000 C 
ENDROOT
BRANCH   1   2
ATOM      2  C   UNL     1      15.430  -5.043  34.611  1.00  0.00     0.006 C 
BRANCH   2   3
ATOM      3  C   UNL     1      15.350  -6.496  34.122  1.00  0.00     0.053 C 
BRANCH   3   4
ATOM      4  C   UNL     1      15.675  -6.574  32.665  1.00  0.00     0.041 C 
ATOM      5  O   UNL     1      15.796  -7.695  32.102  1.00  0.00    -0.550 OA
ATOM      6  O   UNL     1      15.795  -5.411  31.915  1.00  0.00    -0.550 OA
ENDBRANCH   3   4
ENDBRANCH   2   3
ENDBRANCH   1   2
BRANCH   1   7
ATOM      7  C   UNL     1      17.244  -3.823  35.938  1.00  0.00     0.000 C 
BRANCH   7   8
ATOM      8  C   UNL     1      17.690  -3.450  34.512  1.00  0.00    -0.000 C 
BRANCH   8   9
ATOM      9  C   UNL     1      19.104  -3.917  34.126  1.00  0.00    -0.000 C 
BRANCH   9  10
ATOM     10  C   UNL     1      19.104  -4.959  32.998  1.00  0.00    -0.003 C 
ATOM     11  C   UNL     1      19.137  -6.379  33.559  1.00  0.00     0.004 C 
ENDBRANCH   9  10
ENDBRANCH   8   9
ENDBRANCH   7   8
ENDBRANCH   1   7
TORSDOF 7
ENDMDL
MODEL 6
REMARK VINA RESULT:    -4.571      9.462     10.897
REMARK INTER + INTRA:          -6.985
REMARK INTER:                  -6.141
REMARK INTRA:                  -0.844
REMARK UNBOUND:                -0.544
REMARK SMILES CCCCCCCCC(=O)[O-]
REMARK SMILES IDX 6 1 7 2 8 3 9 4 10 5 11 6 5 7 4 8 3 9 2 10 1 11
REMARK H PARENT
REMARK Flexibility Score: inf
ROOT
ATOM      1  C   UNL     1      11.525   4.516  21.612  1.00  0.00     0.000 C 
ENDROOT
BRANCH   1   2
ATOM      2  C   UNL     1      10.129   4.176  21.065  1.00  0.00     0.006 C 
BRANCH   2   3
ATOM      3  C   UNL     1      10.134   2.944  20.150  1.00  0.00     0.053 C 
BRANCH   3   4
ATOM      4  C   UNL     1       9.449   3.252  18.857  1.00  0.00     0.041 C 
ATOM      5  O   UNL     1       8.435   3.999  18.839  1.00  0.00    -0.550 OA
ATOM      6  O   UNL     1       9.958   2.755  17.664  1.00  0.00    -0.550 OA
ENDBRANCH   3   4
ENDBRANCH   2   3
ENDBRANCH   1   2
BRANCH   1   7
ATOM      7  C   UNL     1      11.735   6.029  21.792  1.00  0.00     0.000 C 
BRANCH   7   8
ATOM      8  C   UNL     1      11.002   6.866  20.727  1.00  0.00    -0.000 C 
BRANCH   8   9
ATOM      9  C   UNL     1      11.839   7.222  19.485  1.00  0.00    -0.000 C 
BRANCH   9  10
ATOM     10  C   UNL     1      11.534   6.322  18.279  1.00  0.00    -0.003 C 
ATOM     11  C   UNL     1      12.577   5.216  18.139  1.00  0.00     0.004 C 
ENDBRANCH   9  10
ENDBRANCH   8   9
ENDBRANCH   7   8
ENDBRANCH   1   7
TORSDOF 7
ENDMDL
MODEL 7
REMARK VINA RESULT:    -4.554      9.668     10.951
REMARK INTER + INTRA:          -6.961
REMARK INTER:                  -6.156
REMARK INTRA:                  -0.805
REMARK UNBOUND:                -0.544
REMARK SMILES CCCCCCCCC(=O)[O-]
REMARK SMILES IDX 6 1 7 2 8 3 9 4 10 5 11 6 5 7 4 8 3 9 2 10 1 11
REMARK H PARENT
REMARK Flexibility Score: inf
ROOT
ATOM      1  C   UNL     1      12.018   4.577  19.101  1.00  0.00     0.000 C 
ENDROOT
BRANCH   1   2
ATOM      2  C   UNL     1      12.181   5.912  18.355  1.00  0.00     0.006 C 
BRANCH   2   3
ATOM      3  C   UNL     1      11.431   7.065  19.035  1.00  0.00     0.053 C 
BRANCH   3   4
ATOM      4  C   UNL     1      12.207   7.572  20.209  1.00  0.00     0.041 C 
ATOM      5  O   UNL     1      11.861   7.261  21.379  1.00  0.00    -0.550 OA
ATOM      6  O   UNL     1      13.343   8.347  20.010  1.00  0.00    -0.550 OA
ENDBRANCH   3   4
ENDBRANCH   2   3
ENDBRANCH   1   2
BRANCH   1   7
ATOM      7  C   UNL     1      10.863   3.727  18.541  1.00  0.00     0.000 C 
BRANCH   7   8
ATOM      8  C   UNL     1       9.747   3.481  19.573  1.00  0.00    -0.000 C 
BRANCH   8   9
ATOM      9  C   UNL     1       9.932   4.201  20.920  1.00  0.00    -0.000 C 
BRANCH   9  10
ATOM     10  C   UNL     1       8.864   5.275  21.177  1.00  0.00    -0.003 C 
ATOM     11  C   UNL     1       8.042   5.546  19.920  1.00  0.00     0.004 C 
ENDBRANCH   9  10
ENDBRANCH   8   9
ENDBRANCH   7   8
ENDBRANCH   1   7
TORSDOF 7
ENDMDL
MODEL 8
REMARK VINA RESULT:    -4.519     10.019     10.907
REMARK INTER + INTRA:          -6.912
REMARK INTER:                  -6.114
REMARK INTRA:                  -0.798
REMARK UNBOUND:                -0.544
REMARK SMILES CCCCCCCCC(=O)[O-]
REMARK SMILES IDX 6 1 7 2 8 3 9 4 10 5 11 6 5 7 4 8 3 9 2 10 1 11
REMARK H PARENT
REMARK Flexibility Score: inf
ROOT
ATOM      1  C   UNL     1      11.960   5.700  18.371  1.00  0.00     0.000 C 
ENDROOT
BRANCH   1   2
ATOM      2  C   UNL     1      11.701   4.364  19.088  1.00  0.00     0.006 C 
BRANCH   2   3
ATOM      3  C   UNL     1      10.822   3.412  18.265  1.00  0.00     0.053 C 
BRANCH   3   4
ATOM      4  C   UNL     1       9.904   2.644  19.161  1.00  0.00     0.041 C 
ATOM      5  O   UNL     1      10.205   2.463  20.371  1.00  0.00    -0.550 OA
ATOM      6  O   UNL     1       8.692   2.171  18.675  1.00  0.00    -0.550 OA
ENDBRANCH   3   4
ENDBRANCH   2   3
ENDBRANCH   1   2
BRANCH   1   7
ATOM      7  C   UNL     1      11.705   6.915  19.281  1.00  0.00     0.000 C 
BRANCH   7   8
ATOM      8  C   UNL     1      11.234   6.518  20.692  1.00  0.00    -0.000 C 
BRANCH   8   9
ATOM      9  C   UNL     1       9.790   6.921  21.037  1.00  0.00    -0.000 C 
BRANCH   9  10
ATOM     10  C   UNL     1       8.829   5.724  21.088  1.00  0.00    -0.003 C 
ATOM     11  C   UNL     1       8.013   5.617  19.802  1.00  0.00     0.004 C 
ENDBRANCH   9  10
ENDBRANCH   8   9
ENDBRANCH   7   8
ENDBRANCH   1   7
TORSDOF 7
ENDMDL
MODEL 9
REMARK VINA RESULT:    -4.514      9.566     11.066
REMARK INTER + INTRA:          -6.905
REMARK INTER:                  -6.023
REMARK INTRA:                  -0.882
REMARK UNBOUND:                -0.544
REMARK SMILES CCCCCCCCC(=O)[O-]
REMARK SMILES IDX 6 1 7 2 8 3 9 4 10 5 11 6 5 7 4 8 3 9 2 10 1 11
REMARK H PARENT
REMARK Flexibility Score: inf
ROOT
ATOM      1  C   UNL     1      11.720   6.040  21.783  1.00  0.00     0.000 C 
ENDROOT
BRANCH   1   2
ATOM      2  C   UNL     1      11.080   6.990  20.758  1.00  0.00     0.006 C 
BRANCH   2   3
ATOM      3  C   UNL     1      12.038   7.366  19.620  1.00  0.00     0.053 C 
BRANCH   3   4
ATOM      4  C   UNL     1      11.682   6.625  18.372  1.00  0.00     0.041 C 
ATOM      5  O   UNL     1      12.245   5.530  18.103  1.00  0.00    -0.550 OA
ATOM      6  O   UNL     1      10.693   7.115  17.529  1.00  0.00    -0.550 OA
ENDBRANCH   3   4
ENDBRANCH   2   3
ENDBRANCH   1   2
BRANCH   1   7
ATOM      7  C   UNL     1      11.460   4.559  21.455  1.00  0.00     0.000 C 
BRANCH   7   8
ATOM      8  C   UNL     1       9.989   4.272  21.103  1.00  0.00    -0.000 C 
BRANCH   8   9
ATOM      9  C   UNL     1       9.767   3.546  19.764  1.00  0.00    -0.000 C 
BRANCH   9  10
ATOM     10  C   UNL     1       8.709   4.226  18.882  1.00  0.00    -0.003 C 
ATOM     11  C   UNL     1       7.963   5.311  19.654  1.00  0.00     0.004 C 
ENDBRANCH   9  10
ENDBRANCH   8   9
ENDBRANCH   7   8
ENDBRANCH   1   7
TORSDOF 7
ENDMDL
