MODEL 1
REMARK VINA RESULT:    -5.038      0.000      0.000
REMARK INTER + INTRA:          -5.760
REMARK INTER:                  -5.627
REMARK INTRA:                  -0.133
REMARK UNBOUND:                -0.133
REMARK SMILES O=C([O-])C=Cc1ccccc1
REMARK SMILES IDX 4 1 5 2 2 3 1 4 3 5 6 6 7 7 11 8 8 9 10 10 9 11
REMARK H PARENT
REMARK Flexibility Score: inf
ROOT
ATOM      1  C   UNL     1       1.780  29.447  20.551  1.00  0.00     0.025 C 
ATOM      2  C   UNL     1       2.858  28.803  21.023  1.00  0.00     0.010 C 
ENDROOT
BRANCH   1   3
ATOM      3  C   UNL     1       1.648  30.912  20.624  1.00  0.00     0.064 C 
ATOM      4  O   UNL     1       2.152  31.566  21.576  1.00  0.00    -0.545 OA
ATOM      5  O   UNL     1       0.956  31.585  19.626  1.00  0.00    -0.545 OA
ENDBRANCH   1   3
BRANCH   2   6
ATOM      6  C   UNL     1       3.053  27.327  20.980  1.00  0.00    -0.026 A 
ATOM      7  C   UNL     1       4.066  26.700  20.221  1.00  0.00     0.008 A 
ATOM      8  C   UNL     1       2.181  26.520  21.734  1.00  0.00     0.008 A 
ATOM      9  C   UNL     1       4.194  25.307  20.225  1.00  0.00     0.001 A 
ATOM     10  C   UNL     1       2.314  25.129  21.733  1.00  0.00     0.001 A 
ATOM     11  C   UNL     1       3.319  24.522  20.980  1.00  0.00     0.000 A 
ENDBRANCH   2   6
TORSDOF 2
ENDMDL
MODEL 2
REMARK VINA RESULT:    -5.009      4.500      6.294
REMARK INTER + INTRA:          -5.728
REMARK INTER:                  -5.602
REMARK INTRA:                  -0.126
REMARK UNBOUND:                -0.133
REMARK SMILES O=C([O-])C=Cc1ccccc1
REMARK SMILES IDX 4 1 5 2 2 3 1 4 3 5 6 6 7 7 11 8 8 9 10 10 9 11
REMARK H PARENT
REMARK Flexibility Score: inf
ROOT
ATOM      1  C   UNL     1       1.272  30.311  18.746  1.00  0.00     0.025 C 
ATOM      2  C   UNL     1       1.193  29.792  17.512  1.00  0.00     0.010 C 
ENDROOT
BRANCH   1   3
ATOM      3  C   UNL     1       0.650  29.660  19.912  1.00  0.00     0.064 C 
ATOM      4  O   UNL     1      -0.498  29.994  20.311  1.00  0.00    -0.545 OA
ATOM      5  O   UNL     1       1.340  28.659  20.582  1.00  0.00    -0.545 OA
ENDBRANCH   1   3
BRANCH   2   6
ATOM      6  C   UNL     1       1.798  30.398  16.294  1.00  0.00    -0.026 A 
ATOM      7  C   UNL     1       1.393  31.643  15.764  1.00  0.00     0.008 A 
ATOM      8  C   UNL     1       2.825  29.691  15.641  1.00  0.00     0.008 A 
ATOM      9  C   UNL     1       2.005  32.156  14.615  1.00  0.00     0.001 A 
ATOM     10  C   UNL     1       3.432  30.209  14.494  1.00  0.00     0.001 A 
ATOM     11  C   UNL     1       3.023  31.441  13.981  1.00  0.00     0.000 A 
ENDBRANCH   2   6
TORSDOF 2
ENDMDL
MODEL 3
REMARK VINA RESULT:    -4.992      4.454      6.174
REMARK INTER + INTRA:          -5.709
REMARK INTER:                  -5.579
REMARK INTRA:                  -0.130
REMARK UNBOUND:                -0.133
REMARK SMILES O=C([O-])C=Cc1ccccc1
REMARK SMILES IDX 4 1 5 2 2 3 1 4 3 5 6 6 7 7 11 8 8 9 10 10 9 11
REMARK H PARENT
REMARK Flexibility Score: inf
ROOT
ATOM      1  C   UNL     1       1.328  30.210  18.806  1.00  0.00     0.025 C 
ATOM      2  C   UNL     1       1.202  29.711  17.567  1.00  0.00     0.010 C 
ENDROOT
BRANCH   1   3
ATOM      3  C   UNL     1       0.678  29.585  19.971  1.00  0.00     0.064 C 
ATOM      4  O   UNL     1      -0.481  29.924  20.332  1.00  0.00    -0.545 OA
ATOM      5  O   UNL     1       1.355  28.606  20.685  1.00  0.00    -0.545 OA
ENDBRANCH   1   3
BRANCH   2   6
ATOM      6  C   UNL     1       1.831  30.292  16.349  1.00  0.00    -0.026 A 
ATOM      7  C   UNL     1       2.904  29.681  15.662  1.00  0.00     0.008 A 
ATOM      8  C   UNL     1       1.329  31.513  15.861  1.00  0.00     0.008 A 
ATOM      9  C   UNL     1       3.449  30.282  14.523  1.00  0.00     0.001 A 
ATOM     10  C   UNL     1       1.879  32.108  14.722  1.00  0.00     0.001 A 
ATOM     11  C   UNL     1       2.938  31.494  14.053  1.00  0.00     0.000 A 
ENDBRANCH   2   6
TORSDOF 2
ENDMDL
MODEL 4
REMARK VINA RESULT:    -4.924     12.443     13.690
REMARK INTER + INTRA:          -5.633
REMARK INTER:                  -5.501
REMARK INTRA:                  -0.132
REMARK UNBOUND:                -0.133
REMARK SMILES O=C([O-])C=Cc1ccccc1
REMARK SMILES IDX 4 1 5 2 2 3 1 4 3 5 6 6 7 7 11 8 8 9 10 10 9 11
REMARK H PARENT
REMARK Flexibility Score: inf
ROOT
ATOM      1  C   UNL     1      10.103  26.378   8.555  1.00  0.00     0.025 C 
ATOM      2  C   UNL     1      10.708  26.373   9.752  1.00  0.00     0.010 C 
ENDROOT
BRANCH   1   3
ATOM      3  C   UNL     1      10.826  26.061   7.311  1.00  0.00     0.064 C 
ATOM      4  O   UNL     1      11.245  24.895   7.078  1.00  0.00    -0.545 OA
ATOM      5  O   UNL     1      11.050  27.065   6.378  1.00  0.00    -0.545 OA
ENDBRANCH   1   3
BRANCH   2   6
ATOM      6  C   UNL     1      10.036  26.684  11.045  1.00  0.00    -0.026 A 
ATOM      7  C   UNL     1       9.903  25.749  12.094  1.00  0.00     0.008 A 
ATOM      8  C   UNL     1       9.509  27.977  11.224  1.00  0.00     0.008 A 
ATOM      9  C   UNL     1       9.259  26.107  13.284  1.00  0.00     0.001 A 
ATOM     10  C   UNL     1       8.867  28.328  12.415  1.00  0.00     0.001 A 
ATOM     11  C   UNL     1       8.742  27.394  13.444  1.00  0.00     0.000 A 
ENDBRANCH   2   6
TORSDOF 2
ENDMDL
MODEL 5
REMARK VINA RESULT:    -4.846     11.573     12.658
REMARK INTER + INTRA:          -5.546
REMARK INTER:                  -5.403
REMARK INTRA:                  -0.143
REMARK UNBOUND:                -0.133
REMARK SMILES O=C([O-])C=Cc1ccccc1
REMARK SMILES IDX 4 1 5 2 2 3 1 4 3 5 6 6 7 7 11 8 8 9 10 10 9 11
REMARK H PARENT
REMARK Flexibility Score: inf
ROOT
ATOM      1  C   UNL     1      -6.591  20.115  22.024  1.00  0.00     0.025 C 
ATOM      2  C   UNL     1      -7.065  21.346  21.780  1.00  0.00     0.010 C 
ENDROOT
BRANCH   1   3
ATOM      3  C   UNL     1      -6.529  19.078  20.979  1.00  0.00     0.064 C 
ATOM      4  O   UNL     1      -6.108  19.342  19.822  1.00  0.00    -0.545 OA
ATOM      5  O   UNL     1      -6.942  17.786  21.277  1.00  0.00    -0.545 OA
ENDBRANCH   1   3
BRANCH   2   6
ATOM      6  C   UNL     1      -7.155  22.437  22.789  1.00  0.00    -0.026 A 
ATOM      7  C   UNL     1      -8.094  23.490  22.712  1.00  0.00     0.008 A 
ATOM      8  C   UNL     1      -6.257  22.415  23.873  1.00  0.00     0.008 A 
ATOM      9  C   UNL     1      -8.124  24.485  23.696  1.00  0.00     0.001 A 
ATOM     10  C   UNL     1      -6.293  23.412  24.852  1.00  0.00     0.001 A 
ATOM     11  C   UNL     1      -7.225  24.446  24.764  1.00  0.00     0.000 A 
ENDBRANCH   2   6
TORSDOF 2
ENDMDL
MODEL 6
REMARK VINA RESULT:    -4.814     11.180     12.109
REMARK INTER + INTRA:          -5.511
REMARK INTER:                  -5.382
REMARK INTRA:                  -0.129
REMARK UNBOUND:                -0.133
REMARK SMILES O=C([O-])C=Cc1ccccc1
REMARK SMILES IDX 4 1 5 2 2 3 1 4 3 5 6 6 7 7 11 8 8 9 10 10 9 11
REMARK H PARENT
REMARK Flexibility Score: inf
ROOT
ATOM      1  C   UNL     1      -7.824  22.663  22.074  1.00  0.00     0.025 C 
ATOM      2  C   UNL     1      -6.848  21.841  22.489  1.00  0.00     0.010 C 
ENDROOT
BRANCH   1   3
ATOM      3  C   UNL     1      -7.774  24.117  22.305  1.00  0.00     0.064 C 
ATOM      4  O   UNL     1      -8.123  24.615  23.409  1.00  0.00    -0.545 OA
ATOM      5  O   UNL     1      -7.336  24.954  21.287  1.00  0.00    -0.545 OA
ENDBRANCH   1   3
BRANCH   2   6
ATOM      6  C   UNL     1      -6.837  20.366  22.287  1.00  0.00    -0.026 A 
ATOM      7  C   UNL     1      -7.125  19.440  23.314  1.00  0.00     0.008 A 
ATOM      8  C   UNL     1      -6.521  19.874  21.007  1.00  0.00     0.008 A 
ATOM      9  C   UNL     1      -7.096  18.065  23.057  1.00  0.00     0.001 A 
ATOM     10  C   UNL     1      -6.495  18.499  20.757  1.00  0.00     0.001 A 
ATOM     11  C   UNL     1      -6.782  17.595  21.780  1.00  0.00     0.000 A 
ENDBRANCH   2   6
TORSDOF 2
ENDMDL
MODEL 7
REMARK VINA RESULT:    -4.795     10.547     11.753
REMARK INTER + INTRA:          -5.490
REMARK INTER:                  -5.361
REMARK INTRA:                  -0.128
REMARK UNBOUND:                -0.133
REMARK SMILES O=C([O-])C=Cc1ccccc1
REMARK SMILES IDX 4 1 5 2 2 3 1 4 3 5 6 6 7 7 11 8 8 9 10 10 9 11
REMARK H PARENT
REMARK Flexibility Score: inf
ROOT
ATOM      1  C   UNL     1      -5.973  21.989  21.748  1.00  0.00     0.025 C 
ATOM      2  C   UNL     1      -6.773  20.914  21.675  1.00  0.00     0.010 C 
ENDROOT
BRANCH   1   3
ATOM      3  C   UNL     1      -6.439  23.277  22.289  1.00  0.00     0.064 C 
ATOM      4  O   UNL     1      -7.250  23.326  23.251  1.00  0.00    -0.545 OA
ATOM      5  O   UNL     1      -5.975  24.460  21.727  1.00  0.00    -0.545 OA
ENDBRANCH   1   3
BRANCH   2   6
ATOM      6  C   UNL     1      -6.365  19.585  21.140  1.00  0.00    -0.026 A 
ATOM      7  C   UNL     1      -5.873  19.394  19.830  1.00  0.00     0.008 A 
ATOM      8  C   UNL     1      -6.477  18.467  21.987  1.00  0.00     0.008 A 
ATOM      9  C   UNL     1      -5.507  18.117  19.391  1.00  0.00     0.001 A 
ATOM     10  C   UNL     1      -6.110  17.194  21.541  1.00  0.00     0.001 A 
ATOM     11  C   UNL     1      -5.625  17.019  20.245  1.00  0.00     0.000 A 
ENDBRANCH   2   6
TORSDOF 2
ENDMDL
MODEL 8
REMARK VINA RESULT:    -4.716      7.902      8.896
REMARK INTER + INTRA:          -5.401
REMARK INTER:                  -5.264
REMARK INTRA:                  -0.137
REMARK UNBOUND:                -0.133
REMARK SMILES O=C([O-])C=Cc1ccccc1
REMARK SMILES IDX 4 1 5 2 2 3 1 4 3 5 6 6 7 7 11 8 8 9 10 10 9 11
REMARK H PARENT
REMARK Flexibility Score: inf
ROOT
ATOM      1  C   UNL     1       4.817  29.374  12.789  1.00  0.00     0.025 C 
ATOM      2  C   UNL     1       5.682  29.017  13.750  1.00  0.00     0.010 C 
ENDROOT
BRANCH   1   3
ATOM      3  C   UNL     1       3.523  30.008  13.095  1.00  0.00     0.064 C 
ATOM      4  O   UNL     1       3.127  30.144  14.284  1.00  0.00    -0.545 OA
ATOM      5  O   UNL     1       2.724  30.465  12.055  1.00  0.00    -0.545 OA
ENDBRANCH   1   3
BRANCH   2   6
ATOM      6  C   UNL     1       7.003  28.374  13.508  1.00  0.00    -0.026 A 
ATOM      7  C   UNL     1       7.394  27.156  14.106  1.00  0.00     0.008 A 
ATOM      8  C   UNL     1       7.904  29.017  12.639  1.00  0.00     0.008 A 
ATOM      9  C   UNL     1       8.652  26.606  13.835  1.00  0.00     0.001 A 
ATOM     10  C   UNL     1       9.159  28.462  12.373  1.00  0.00     0.001 A 
ATOM     11  C   UNL     1       9.533  27.258  12.969  1.00  0.00     0.000 A 
ENDBRANCH   2   6
TORSDOF 2
ENDMDL
MODEL 9
REMARK VINA RESULT:    -4.706      4.216      5.423
REMARK INTER + INTRA:          -5.390
REMARK INTER:                  -5.262
REMARK INTRA:                  -0.128
REMARK UNBOUND:                -0.133
REMARK SMILES O=C([O-])C=Cc1ccccc1
REMARK SMILES IDX 4 1 5 2 2 3 1 4 3 5 6 6 7 7 11 8 8 9 10 10 9 11
REMARK H PARENT
REMARK Flexibility Score: inf
ROOT
ATOM      1  C   UNL     1       3.930  29.751  16.082  1.00  0.00     0.025 C 
ATOM      2  C   UNL     1       2.747  29.390  16.600  1.00  0.00     0.010 C 
ENDROOT
BRANCH   1   3
ATOM      3  C   UNL     1       4.214  29.661  14.639  1.00  0.00     0.064 C 
ATOM      4  O   UNL     1       5.339  29.281  14.217  1.00  0.00    -0.545 OA
ATOM      5  O   UNL     1       3.224  30.002  13.727  1.00  0.00    -0.545 OA
ENDBRANCH   1   3
BRANCH   2   6
ATOM      6  C   UNL     1       2.396  29.456  18.045  1.00  0.00    -0.026 A 
ATOM      7  C   UNL     1       3.121  28.780  19.051  1.00  0.00     0.008 A 
ATOM      8  C   UNL     1       1.285  30.233  18.423  1.00  0.00     0.008 A 
ATOM      9  C   UNL     1       2.736  28.885  20.393  1.00  0.00     0.001 A 
ATOM     10  C   UNL     1       0.907  30.334  19.765  1.00  0.00     0.001 A 
ATOM     11  C   UNL     1       1.631  29.661  20.749  1.00  0.00     0.000 A 
ENDBRANCH   2   6
TORSDOF 2
ENDMDL
