MODEL 1
REMARK VINA RESULT:    -4.171      0.000      0.000
REMARK INTER + INTRA:          -4.171
REMARK INTER:                  -4.171
REMARK INTRA:                   0.000
REMARK UNBOUND:                 0.000
REMARK SMILES CC1=CC(=O)[C@@H]2C[C@H]1C2(C)C
REMARK SMILES IDX 1 1 2 2 3 3 4 4 5 5 6 6 7 7 8 8 9 9 10 10 11 11
REMARK H PARENT
REMARK Flexibility Score: inf
ROOT
ATOM      1  C   UNL     1       4.510 -15.248 -32.650  1.00  0.00     0.040 C 
ATOM      2  C   UNL     1       4.925 -15.776 -33.986  1.00  0.00    -0.066 C 
ATOM      3  C   UNL     1       5.413 -17.040 -34.128  1.00  0.00     0.047 C 
ATOM      4  C   UNL     1       5.764 -17.463 -35.522  1.00  0.00     0.159 C 
ATOM      5  O   UNL     1       6.187 -18.619 -35.787  1.00  0.00    -0.295 OA
ATOM      6  C   UNL     1       5.572 -16.394 -36.598  1.00  0.00     0.067 C 
ATOM      7  C   UNL     1       6.193 -15.121 -35.980  1.00  0.00     0.021 C 
ATOM      8  C   UNL     1       4.839 -14.914 -35.263  1.00  0.00     0.022 C 
ATOM      9  C   UNL     1       4.175 -15.741 -36.402  1.00  0.00    -0.019 C 
ATOM     10  C   UNL     1       2.973 -16.659 -36.039  1.00  0.00     0.012 C 
ATOM     11  C   UNL     1       3.763 -14.858 -37.608  1.00  0.00     0.012 C 
ENDROOT
TORSDOF 0
ENDMDL
MODEL 2
REMARK VINA RESULT:    -4.094      5.740      7.135
REMARK INTER + INTRA:          -4.094
REMARK INTER:                  -4.094
REMARK INTRA:                   0.000
REMARK UNBOUND:                 0.000
REMARK SMILES CC1=CC(=O)[C@@H]2C[C@H]1C2(C)C
REMARK SMILES IDX 1 1 2 2 3 3 4 4 5 5 6 6 7 7 8 8 9 9 10 10 11 11
REMARK H PARENT
REMARK Flexibility Score: inf
ROOT
ATOM      1  C   UNL     1       9.758 -23.710 -34.855  1.00  0.00     0.040 C 
ATOM      2  C   UNL     1       9.303 -22.571 -35.710  1.00  0.00    -0.066 C 
ATOM      3  C   UNL     1      10.157 -21.940 -36.564  1.00  0.00     0.047 C 
ATOM      4  C   UNL     1       9.573 -20.834 -37.389  1.00  0.00     0.159 C 
ATOM      5  O   UNL     1      10.251 -20.202 -38.242  1.00  0.00    -0.295 OA
ATOM      6  C   UNL     1       8.098 -20.529 -37.125  1.00  0.00     0.067 C 
ATOM      7  C   UNL     1       7.988 -20.505 -35.585  1.00  0.00     0.021 C 
ATOM      8  C   UNL     1       7.854 -22.043 -35.657  1.00  0.00     0.022 C 
ATOM      9  C   UNL     1       7.312 -21.870 -37.105  1.00  0.00    -0.019 C 
ATOM     10  C   UNL     1       7.673 -22.955 -38.159  1.00  0.00     0.012 C 
ATOM     11  C   UNL     1       5.777 -21.654 -37.138  1.00  0.00     0.012 C 
ENDROOT
TORSDOF 0
ENDMDL
MODEL 3
REMARK VINA RESULT:    -4.020     10.631     12.062
REMARK INTER + INTRA:          -4.020
REMARK INTER:                  -4.020
REMARK INTRA:                   0.000
REMARK UNBOUND:                 0.000
REMARK SMILES CC1=CC(=O)[C@@H]2C[C@H]1C2(C)C
REMARK SMILES IDX 1 1 2 2 3 3 4 4 5 5 6 6 7 7 8 8 9 9 10 10 11 11
REMARK H PARENT
REMARK Flexibility Score: inf
ROOT
ATOM      1  C   UNL     1      11.659  -9.147 -44.301  1.00  0.00     0.040 C 
ATOM      2  C   UNL     1      11.823 -10.578 -43.900  1.00  0.00    -0.066 C 
ATOM      3  C   UNL     1      10.928 -11.188 -43.073  1.00  0.00     0.047 C 
ATOM      4  C   UNL     1      11.184 -12.633 -42.770  1.00  0.00     0.159 C 
ATOM      5  O   UNL     1      10.408 -13.317 -42.052  1.00  0.00    -0.295 OA
ATOM      6  C   UNL     1      12.451 -13.218 -43.395  1.00  0.00     0.067 C 
ATOM      7  C   UNL     1      13.534 -12.152 -43.121  1.00  0.00     0.021 C 
ATOM      8  C   UNL     1      13.017 -11.426 -44.384  1.00  0.00     0.022 C 
ATOM      9  C   UNL     1      12.501 -12.803 -44.893  1.00  0.00    -0.019 C 
ATOM     10  C   UNL     1      11.180 -12.835 -45.713  1.00  0.00     0.012 C 
ATOM     11  C   UNL     1      13.582 -13.582 -45.684  1.00  0.00     0.012 C 
ENDROOT
TORSDOF 0
ENDMDL
MODEL 4
REMARK VINA RESULT:    -3.929      6.592      8.149
REMARK INTER + INTRA:          -3.929
REMARK INTER:                  -3.929
REMARK INTRA:                   0.000
REMARK UNBOUND:                 0.000
REMARK SMILES CC1=CC(=O)[C@@H]2C[C@H]1C2(C)C
REMARK SMILES IDX 1 1 2 2 3 3 4 4 5 5 6 6 7 7 8 8 9 9 10 10 11 11
REMARK H PARENT
REMARK Flexibility Score: inf
ROOT
ATOM      1  C   UNL     1      10.935 -24.549 -37.429  1.00  0.00     0.040 C 
ATOM      2  C   UNL     1      10.366 -23.285 -36.870  1.00  0.00    -0.066 C 
ATOM      3  C   UNL     1      11.074 -22.120 -36.889  1.00  0.00     0.047 C 
ATOM      4  C   UNL     1      10.383 -20.915 -36.327  1.00  0.00     0.159 C 
ATOM      5  O   UNL     1      10.917 -19.775 -36.324  1.00  0.00    -0.295 OA
ATOM      6  C   UNL     1       8.985 -21.167 -35.760  1.00  0.00     0.067 C 
ATOM      7  C   UNL     1       9.147 -22.449 -34.913  1.00  0.00     0.021 C 
ATOM      8  C   UNL     1       8.963 -23.238 -36.229  1.00  0.00     0.022 C 
ATOM      9  C   UNL     1       8.180 -22.013 -36.786  1.00  0.00    -0.019 C 
ATOM     10  C   UNL     1       8.323 -21.675 -38.297  1.00  0.00     0.012 C 
ATOM     11  C   UNL     1       6.670 -22.074 -36.443  1.00  0.00     0.012 C 
ENDROOT
TORSDOF 0
ENDMDL
MODEL 5
REMARK VINA RESULT:    -3.918      5.697      7.497
REMARK INTER + INTRA:          -3.918
REMARK INTER:                  -3.918
REMARK INTRA:                   0.000
REMARK UNBOUND:                 0.000
REMARK SMILES CC1=CC(=O)[C@@H]2C[C@H]1C2(C)C
REMARK SMILES IDX 1 1 2 2 3 3 4 4 5 5 6 6 7 7 8 8 9 9 10 10 11 11
REMARK H PARENT
REMARK Flexibility Score: inf
ROOT
ATOM      1  C   UNL     1      10.511 -20.529 -38.728  1.00  0.00     0.040 C 
ATOM      2  C   UNL     1       9.784 -21.349 -37.711  1.00  0.00    -0.066 C 
ATOM      3  C   UNL     1      10.371 -21.700 -36.532  1.00  0.00     0.047 C 
ATOM      4  C   UNL     1       9.527 -22.496 -35.583  1.00  0.00     0.159 C 
ATOM      5  O   UNL     1       9.943 -22.846 -34.447  1.00  0.00    -0.295 OA
ATOM      6  C   UNL     1       8.129 -22.851 -36.089  1.00  0.00     0.067 C 
ATOM      7  C   UNL     1       8.365 -23.341 -37.535  1.00  0.00     0.021 C 
ATOM      8  C   UNL     1       8.345 -21.852 -37.951  1.00  0.00     0.022 C 
ATOM      9  C   UNL     1       7.480 -21.571 -36.688  1.00  0.00    -0.019 C 
ATOM     10  C   UNL     1       7.685 -20.220 -35.944  1.00  0.00     0.012 C 
ATOM     11  C   UNL     1       5.965 -21.750 -36.960  1.00  0.00     0.012 C 
ENDROOT
TORSDOF 0
ENDMDL
MODEL 6
REMARK VINA RESULT:    -3.913      1.577      3.360
REMARK INTER + INTRA:          -3.913
REMARK INTER:                  -3.913
REMARK INTRA:                   0.000
REMARK UNBOUND:                 0.000
REMARK SMILES CC1=CC(=O)[C@@H]2C[C@H]1C2(C)C
REMARK SMILES IDX 1 1 2 2 3 3 4 4 5 5 6 6 7 7 8 8 9 9 10 10 11 11
REMARK H PARENT
REMARK Flexibility Score: inf
ROOT
ATOM      1  C   UNL     1       7.125 -16.512 -37.702  1.00  0.00     0.040 C 
ATOM      2  C   UNL     1       5.877 -16.232 -36.927  1.00  0.00    -0.066 C 
ATOM      3  C   UNL     1       4.693 -16.822 -37.254  1.00  0.00     0.047 C 
ATOM      4  C   UNL     1       3.521 -16.484 -36.383  1.00  0.00     0.159 C 
ATOM      5  O   UNL     1       2.384 -16.996 -36.558  1.00  0.00    -0.295 OA
ATOM      6  C   UNL     1       3.804 -15.479 -35.267  1.00  0.00     0.067 C 
ATOM      7  C   UNL     1       4.617 -14.364 -35.961  1.00  0.00     0.021 C 
ATOM      8  C   UNL     1       5.862 -15.251 -35.736  1.00  0.00     0.022 C 
ATOM      9  C   UNL     1       5.111 -15.902 -34.539  1.00  0.00    -0.019 C 
ATOM     10  C   UNL     1       5.345 -17.414 -34.259  1.00  0.00     0.012 C 
ATOM     11  C   UNL     1       5.327 -15.125 -33.215  1.00  0.00     0.012 C 
ENDROOT
TORSDOF 0
ENDMDL
MODEL 7
REMARK VINA RESULT:    -3.898      5.551      7.565
REMARK INTER + INTRA:          -3.898
REMARK INTER:                  -3.898
REMARK INTRA:                   0.000
REMARK UNBOUND:                 0.000
REMARK SMILES CC1=CC(=O)[C@@H]2C[C@H]1C2(C)C
REMARK SMILES IDX 1 1 2 2 3 3 4 4 5 5 6 6 7 7 8 8 9 9 10 10 11 11
REMARK H PARENT
REMARK Flexibility Score: inf
ROOT
ATOM      1  C   UNL     1      10.703 -20.636 -38.804  1.00  0.00     0.040 C 
ATOM      2  C   UNL     1       9.761 -20.819 -37.658  1.00  0.00    -0.066 C 
ATOM      3  C   UNL     1       8.552 -20.193 -37.628  1.00  0.00     0.047 C 
ATOM      4  C   UNL     1       7.685 -20.482 -36.440  1.00  0.00     0.159 C 
ATOM      5  O   UNL     1       6.530 -19.995 -36.316  1.00  0.00    -0.295 OA
ATOM      6  C   UNL     1       8.299 -21.410 -35.392  1.00  0.00     0.067 C 
ATOM      7  C   UNL     1       9.735 -20.872 -35.207  1.00  0.00     0.021 C 
ATOM      8  C   UNL     1      10.116 -21.709 -36.449  1.00  0.00     0.022 C 
ATOM      9  C   UNL     1       8.913 -22.639 -36.119  1.00  0.00    -0.019 C 
ATOM     10  C   UNL     1       8.125 -23.268 -37.303  1.00  0.00     0.012 C 
ATOM     11  C   UNL     1       9.298 -23.774 -35.136  1.00  0.00     0.012 C 
ENDROOT
TORSDOF 0
ENDMDL
MODEL 8
REMARK VINA RESULT:    -3.834      5.626      7.294
REMARK INTER + INTRA:          -3.834
REMARK INTER:                  -3.834
REMARK INTRA:                   0.000
REMARK UNBOUND:                 0.000
REMARK SMILES CC1=CC(=O)[C@@H]2C[C@H]1C2(C)C
REMARK SMILES IDX 1 1 2 2 3 3 4 4 5 5 6 6 7 7 8 8 9 9 10 10 11 11
REMARK H PARENT
REMARK Flexibility Score: inf
ROOT
ATOM      1  C   UNL     1       6.367 -20.337 -36.759  1.00  0.00     0.040 C 
ATOM      2  C   UNL     1       7.632 -21.065 -36.436  1.00  0.00    -0.066 C 
ATOM      3  C   UNL     1       7.618 -22.366 -36.032  1.00  0.00     0.047 C 
ATOM      4  C   UNL     1       8.953 -22.993 -35.769  1.00  0.00     0.159 C 
ATOM      5  O   UNL     1       9.073 -24.199 -35.430  1.00  0.00    -0.295 OA
ATOM      6  C   UNL     1      10.157 -22.067 -35.944  1.00  0.00     0.067 C 
ATOM      7  C   UNL     1       9.741 -20.767 -35.221  1.00  0.00     0.021 C 
ATOM      8  C   UNL     1       9.011 -20.377 -36.526  1.00  0.00     0.022 C 
ATOM      9  C   UNL     1      10.002 -21.303 -37.289  1.00  0.00    -0.019 C 
ATOM     10  C   UNL     1       9.474 -22.084 -38.527  1.00  0.00     0.012 C 
ATOM     11  C   UNL     1      11.301 -20.564 -37.700  1.00  0.00     0.012 C 
ENDROOT
TORSDOF 0
ENDMDL
MODEL 9
REMARK VINA RESULT:    -3.824      6.162      7.746
REMARK INTER + INTRA:          -3.824
REMARK INTER:                  -3.824
REMARK INTRA:                   0.000
REMARK UNBOUND:                 0.000
REMARK SMILES CC1=CC(=O)[C@@H]2C[C@H]1C2(C)C
REMARK SMILES IDX 1 1 2 2 3 3 4 4 5 5 6 6 7 7 8 8 9 9 10 10 11 11
REMARK H PARENT
REMARK Flexibility Score: inf
ROOT
ATOM      1  C   UNL     1       5.605 -21.614 -37.222  1.00  0.00     0.040 C 
ATOM      2  C   UNL     1       7.085 -21.798 -37.327  1.00  0.00    -0.066 C 
ATOM      3  C   UNL     1       7.843 -20.999 -38.128  1.00  0.00     0.047 C 
ATOM      4  C   UNL     1       9.318 -21.263 -38.123  1.00  0.00     0.159 C 
ATOM      5  O   UNL     1      10.128 -20.567 -38.790  1.00  0.00    -0.295 OA
ATOM      6  C   UNL     1       9.770 -22.434 -37.251  1.00  0.00     0.067 C 
ATOM      7  C   UNL     1       8.769 -23.562 -37.585  1.00  0.00     0.021 C 
ATOM      8  C   UNL     1       7.822 -22.910 -36.551  1.00  0.00     0.022 C 
ATOM      9  C   UNL     1       9.082 -22.311 -35.862  1.00  0.00    -0.019 C 
ATOM     10  C   UNL     1       8.966 -20.900 -35.217  1.00  0.00     0.012 C 
ATOM     11  C   UNL     1       9.694 -23.275 -34.813  1.00  0.00     0.012 C 
ENDROOT
TORSDOF 0
ENDMDL
