MODEL 1
REMARK VINA RESULT:    -5.129      0.000      0.000
REMARK INTER + INTRA:          -6.109
REMARK INTER:                  -6.179
REMARK INTRA:                   0.070
REMARK UNBOUND:                 0.070
REMARK SMILES O=c1c(O)c(-c2ccc(O)c(O)c2)oc2cc(O)cc(O)c12
REMARK SMILES IDX 5 1 3 2 2 3 1 4 22 5 20 6 19 7 17 8 16 9 15 10 14 11 6 12
REMARK SMILES IDX 7 13 8 14 9 15 13 16 11 17 10 18 12 20 4 22 21 24 18 26
REMARK H PARENT 10 19 12 21 4 23 21 25 18 27
REMARK Flexibility Score: inf
ROOT
ATOM      1  C   UNL     1     144.265 141.752 146.305  1.00  0.00     0.180 A 
ATOM      2  C   UNL     1     144.022 142.295 145.029  1.00  0.00     0.208 A 
ATOM      3  C   UNL     1     145.050 142.267 144.073  1.00  0.00     0.238 A 
ATOM      4  O   UNL     1     144.847 142.760 142.930  1.00  0.00    -0.285 OA
ATOM      5  C   UNL     1     146.291 141.683 144.401  1.00  0.00     0.111 A 
ATOM      6  C   UNL     1     147.376 141.613 143.496  1.00  0.00     0.134 A 
ATOM      7  C   UNL     1     148.577 141.007 143.894  1.00  0.00     0.093 A 
ATOM      8  C   UNL     1     148.713 140.472 145.178  1.00  0.00     0.123 A 
ATOM      9  C   UNL     1     147.644 140.540 146.077  1.00  0.00     0.094 A 
ATOM     10  C   UNL     1     146.440 141.141 145.699  1.00  0.00     0.146 A 
ATOM     11  O   UNL     1     145.442 141.196 146.574  1.00  0.00    -0.452 OA
ENDROOT
BRANCH   1  12
ATOM     12  C   UNL     1     143.238 141.761 147.372  1.00  0.00     0.025 A 
ATOM     13  C   UNL     1     143.088 140.633 148.195  1.00  0.00     0.016 A 
ATOM     14  C   UNL     1     142.139 140.626 149.220  1.00  0.00     0.051 A 
ATOM     15  C   UNL     1     141.338 141.752 149.450  1.00  0.00     0.157 A 
ATOM     16  C   UNL     1     142.446 142.896 147.619  1.00  0.00     0.062 A 
ATOM     17  C   UNL     1     141.496 142.894 148.646  1.00  0.00     0.158 A 
BRANCH  15  18
ATOM     18  O   UNL     1     140.391 141.742 150.473  1.00  0.00    -0.504 OA
ATOM     19  H   UNL     1     140.652 141.903 151.439  1.00  0.00     0.293 HD
ENDBRANCH  15  18
BRANCH  17  20
ATOM     20  O   UNL     1     140.724 144.036 148.859  1.00  0.00    -0.504 OA
ATOM     21  H   UNL     1     139.712 144.008 148.872  1.00  0.00     0.293 HD
ENDBRANCH  17  20
ENDBRANCH   1  12
BRANCH   2  22
ATOM     22  O   UNL     1     142.767 142.823 144.713  1.00  0.00    -0.502 OA
ATOM     23  H   UNL     1     142.636 143.795 144.462  1.00  0.00     0.293 HD
ENDBRANCH   2  22
BRANCH   6  24
ATOM     24  O   UNL     1     147.272 142.137 142.206  1.00  0.00    -0.507 OA
ATOM     25  H   UNL     1     146.910 143.068 142.037  1.00  0.00     0.293 HD
ENDBRANCH   6  24
BRANCH   8  26
ATOM     26  O   UNL     1     149.916 139.875 145.549  1.00  0.00    -0.508 OA
ATOM     27  H   UNL     1     150.714 139.860 144.925  1.00  0.00     0.293 HD
ENDBRANCH   8  26
TORSDOF 6
ENDMDL
MODEL 2
REMARK VINA RESULT:    -5.039      7.907     12.194
REMARK INTER + INTRA:          -6.000
REMARK INTER:                  -5.704
REMARK INTRA:                  -0.296
REMARK UNBOUND:                 0.070
REMARK SMILES O=c1c(O)c(-c2ccc(O)c(O)c2)oc2cc(O)cc(O)c12
REMARK SMILES IDX 5 1 3 2 2 3 1 4 22 5 20 6 19 7 17 8 16 9 15 10 14 11 6 12
REMARK SMILES IDX 7 13 8 14 9 15 13 16 11 17 10 18 12 20 4 22 21 24 18 26
REMARK H PARENT 10 19 12 21 4 23 21 25 18 27
REMARK Flexibility Score: inf
ROOT
ATOM      1  C   UNL     1     141.764 145.533 155.179  1.00  0.00     0.180 A 
ATOM      2  C   UNL     1     142.893 145.260 155.975  1.00  0.00     0.208 A 
ATOM      3  C   UNL     1     143.286 146.199 156.941  1.00  0.00     0.238 A 
ATOM      4  O   UNL     1     144.303 145.970 157.652  1.00  0.00    -0.285 OA
ATOM      5  C   UNL     1     142.536 147.381 157.108  1.00  0.00     0.111 A 
ATOM      6  C   UNL     1     142.863 148.377 158.060  1.00  0.00     0.134 A 
ATOM      7  C   UNL     1     142.061 149.523 158.172  1.00  0.00     0.093 A 
ATOM      8  C   UNL     1     140.942 149.691 157.353  1.00  0.00     0.123 A 
ATOM      9  C   UNL     1     140.615 148.712 156.410  1.00  0.00     0.094 A 
ATOM     10  C   UNL     1     141.403 147.564 156.282  1.00  0.00     0.146 A 
ATOM     11  O   UNL     1     141.073 146.651 155.375  1.00  0.00    -0.452 OA
ENDROOT
BRANCH   1  12
ATOM     12  C   UNL     1     141.299 144.600 154.128  1.00  0.00     0.025 A 
ATOM     13  C   UNL     1     140.520 143.488 154.487  1.00  0.00     0.016 A 
ATOM     14  C   UNL     1     140.052 142.606 153.510  1.00  0.00     0.051 A 
ATOM     15  C   UNL     1     140.342 142.831 152.157  1.00  0.00     0.157 A 
ATOM     16  C   UNL     1     141.570 144.833 152.768  1.00  0.00     0.062 A 
ATOM     17  C   UNL     1     141.102 143.952 151.786  1.00  0.00     0.158 A 
BRANCH  15  18
ATOM     18  O   UNL     1     139.876 141.948 151.185  1.00  0.00    -0.504 OA
ATOM     19  H   UNL     1     140.273 141.022 151.074  1.00  0.00     0.293 HD
ENDBRANCH  15  18
BRANCH  17  20
ATOM     20  O   UNL     1     141.395 144.212 150.447  1.00  0.00    -0.504 OA
ATOM     21  H   UNL     1     140.969 143.691 149.691  1.00  0.00     0.293 HD
ENDBRANCH  17  20
ENDBRANCH   1  12
BRANCH   2  22
ATOM     22  O   UNL     1     143.590 144.057 155.823  1.00  0.00    -0.502 OA
ATOM     23  H   UNL     1     143.125 143.186 155.599  1.00  0.00     0.293 HD
ENDBRANCH   2  22
BRANCH   6  24
ATOM     24  O   UNL     1     143.974 148.237 158.893  1.00  0.00    -0.507 OA
ATOM     25  H   UNL     1     144.769 148.863 158.831  1.00  0.00     0.293 HD
ENDBRANCH   6  24
BRANCH   8  26
ATOM     26  O   UNL     1     140.162 150.838 157.485  1.00  0.00    -0.508 OA
ATOM     27  H   UNL     1     139.436 150.907 158.189  1.00  0.00     0.293 HD
ENDBRANCH   8  26
TORSDOF 6
ENDMDL
MODEL 3
REMARK VINA RESULT:    -5.034      2.310      4.046
REMARK INTER + INTRA:          -5.994
REMARK INTER:                  -5.887
REMARK INTRA:                  -0.108
REMARK UNBOUND:                 0.070
REMARK SMILES O=c1c(O)c(-c2ccc(O)c(O)c2)oc2cc(O)cc(O)c12
REMARK SMILES IDX 5 1 3 2 2 3 1 4 22 5 20 6 19 7 17 8 16 9 15 10 14 11 6 12
REMARK SMILES IDX 7 13 8 14 9 15 13 16 11 17 10 18 12 20 4 22 21 24 18 26
REMARK H PARENT 10 19 12 21 4 23 21 25 18 27
REMARK Flexibility Score: inf
ROOT
ATOM      1  C   UNL     1     146.148 141.211 144.374  1.00  0.00     0.180 A 
ATOM      2  C   UNL     1     147.082 140.531 145.181  1.00  0.00     0.208 A 
ATOM      3  C   UNL     1     148.425 140.491 144.777  1.00  0.00     0.238 A 
ATOM      4  O   UNL     1     149.268 139.875 145.486  1.00  0.00    -0.285 OA
ATOM      5  C   UNL     1     148.815 141.143 143.590  1.00  0.00     0.111 A 
ATOM      6  C   UNL     1     150.149 141.153 143.114  1.00  0.00     0.134 A 
ATOM      7  C   UNL     1     150.460 141.834 141.928  1.00  0.00     0.093 A 
ATOM      8  C   UNL     1     149.466 142.504 141.210  1.00  0.00     0.123 A 
ATOM      9  C   UNL     1     148.147 142.496 141.674  1.00  0.00     0.094 A 
ATOM     10  C   UNL     1     147.817 141.822 142.854  1.00  0.00     0.146 A 
ATOM     11  O   UNL     1     146.555 141.828 143.270  1.00  0.00    -0.452 OA
ENDROOT
BRANCH   1  12
ATOM     12  C   UNL     1     144.711 141.281 144.724  1.00  0.00     0.025 A 
ATOM     13  C   UNL     1     143.974 140.094 144.857  1.00  0.00     0.016 A 
ATOM     14  C   UNL     1     142.622 140.135 145.206  1.00  0.00     0.051 A 
ATOM     15  C   UNL     1     141.990 141.363 145.444  1.00  0.00     0.157 A 
ATOM     16  C   UNL     1     144.078 142.510 144.983  1.00  0.00     0.062 A 
ATOM     17  C   UNL     1     142.725 142.555 145.335  1.00  0.00     0.158 A 
BRANCH  15  18
ATOM     18  O   UNL     1     140.641 141.401 145.790  1.00  0.00    -0.504 OA
ATOM     19  H   UNL     1     140.101 142.257 145.730  1.00  0.00     0.293 HD
ENDBRANCH  15  18
BRANCH  17  20
ATOM     20  O   UNL     1     142.129 143.793 145.579  1.00  0.00    -0.504 OA
ATOM     21  H   UNL     1     142.221 144.571 144.938  1.00  0.00     0.293 HD
ENDBRANCH  17  20
ENDBRANCH   1  12
BRANCH   2  22
ATOM     22  O   UNL     1     146.677 139.934 146.379  1.00  0.00    -0.502 OA
ATOM     23  H   UNL     1     146.048 139.141 146.403  1.00  0.00     0.293 HD
ENDBRANCH   2  22
BRANCH   6  24
ATOM     24  O   UNL     1     151.164 140.494 143.809  1.00  0.00    -0.507 OA
ATOM     25  H   UNL     1     151.140 139.493 143.966  1.00  0.00     0.293 HD
ENDBRANCH   6  24
BRANCH   8  26
ATOM     26  O   UNL     1     149.802 143.173 140.035  1.00  0.00    -0.508 OA
ATOM     27  H   UNL     1     149.091 143.550 139.419  1.00  0.00     0.293 HD
ENDBRANCH   8  26
TORSDOF 6
ENDMDL
MODEL 4
REMARK VINA RESULT:    -4.997      8.981     12.146
REMARK INTER + INTRA:          -5.950
REMARK INTER:                  -5.635
REMARK INTRA:                  -0.315
REMARK UNBOUND:                 0.070
REMARK SMILES O=c1c(O)c(-c2ccc(O)c(O)c2)oc2cc(O)cc(O)c12
REMARK SMILES IDX 5 1 3 2 2 3 1 4 22 5 20 6 19 7 17 8 16 9 15 10 14 11 6 12
REMARK SMILES IDX 7 13 8 14 9 15 13 16 11 17 10 18 12 20 4 22 21 24 18 26
REMARK H PARENT 10 19 12 21 4 23 21 25 18 27
REMARK Flexibility Score: inf
ROOT
ATOM      1  C   UNL     1     140.799 146.645 154.427  1.00  0.00     0.180 A 
ATOM      2  C   UNL     1     140.598 147.428 153.274  1.00  0.00     0.208 A 
ATOM      3  C   UNL     1     140.401 148.810 153.418  1.00  0.00     0.238 A 
ATOM      4  O   UNL     1     140.208 149.519 152.392  1.00  0.00    -0.285 OA
ATOM      5  C   UNL     1     140.426 149.387 154.704  1.00  0.00     0.111 A 
ATOM      6  C   UNL     1     140.239 150.771 154.935  1.00  0.00     0.134 A 
ATOM      7  C   UNL     1     140.288 151.271 156.245  1.00  0.00     0.093 A 
ATOM      8  C   UNL     1     140.520 150.416 157.325  1.00  0.00     0.123 A 
ATOM      9  C   UNL     1     140.705 149.048 157.103  1.00  0.00     0.094 A 
ATOM     10  C   UNL     1     140.658 148.530 155.805  1.00  0.00     0.146 A 
ATOM     11  O   UNL     1     140.832 147.226 155.622  1.00  0.00    -0.452 OA
ENDROOT
BRANCH   1  12
ATOM     12  C   UNL     1     140.996 145.179 154.358  1.00  0.00     0.025 A 
ATOM     13  C   UNL     1     139.876 144.336 154.278  1.00  0.00     0.016 A 
ATOM     14  C   UNL     1     140.038 142.951 154.191  1.00  0.00     0.051 A 
ATOM     15  C   UNL     1     141.321 142.389 154.167  1.00  0.00     0.157 A 
ATOM     16  C   UNL     1     142.282 144.613 154.313  1.00  0.00     0.062 A 
ATOM     17  C   UNL     1     142.448 143.226 154.225  1.00  0.00     0.158 A 
BRANCH  15  18
ATOM     18  O   UNL     1     141.480 141.007 154.082  1.00  0.00    -0.504 OA
ATOM     19  H   UNL     1     141.929 140.572 153.284  1.00  0.00     0.293 HD
ENDBRANCH  15  18
BRANCH  17  20
ATOM     20  O   UNL     1     143.739 142.699 154.189  1.00  0.00    -0.504 OA
ATOM     21  H   UNL     1     144.021 141.922 154.774  1.00  0.00     0.293 HD
ENDBRANCH  17  20
ENDBRANCH   1  12
BRANCH   2  22
ATOM     22  O   UNL     1     140.627 146.838 152.007  1.00  0.00    -0.502 OA
ATOM     23  H   UNL     1     140.792 145.848 151.873  1.00  0.00     0.293 HD
ENDBRANCH   2  22
BRANCH   6  24
ATOM     24  O   UNL     1     140.006 151.651 153.877  1.00  0.00    -0.507 OA
ATOM     25  H   UNL     1     140.761 152.005 153.302  1.00  0.00     0.293 HD
ENDBRANCH   6  24
BRANCH   8  26
ATOM     26  O   UNL     1     140.565 150.938 158.616  1.00  0.00    -0.508 OA
ATOM     27  H   UNL     1     141.389 151.412 158.967  1.00  0.00     0.293 HD
ENDBRANCH   8  26
TORSDOF 6
ENDMDL
MODEL 5
REMARK VINA RESULT:    -4.947      3.508      6.009
REMARK INTER + INTRA:          -5.889
REMARK INTER:                  -5.565
REMARK INTRA:                  -0.324
REMARK UNBOUND:                 0.070
REMARK SMILES O=c1c(O)c(-c2ccc(O)c(O)c2)oc2cc(O)cc(O)c12
REMARK SMILES IDX 5 1 3 2 2 3 1 4 22 5 20 6 19 7 17 8 16 9 15 10 14 11 6 12
REMARK SMILES IDX 7 13 8 14 9 15 13 16 11 17 10 18 12 20 4 22 21 24 18 26
REMARK H PARENT 10 19 12 21 4 23 21 25 18 27
REMARK Flexibility Score: inf
ROOT
ATOM      1  C   UNL     1     142.266 142.211 150.784  1.00  0.00     0.180 A 
ATOM      2  C   UNL     1     143.527 141.585 150.765  1.00  0.00     0.208 A 
ATOM      3  C   UNL     1     143.983 141.012 149.568  1.00  0.00     0.238 A 
ATOM      4  O   UNL     1     145.106 140.439 149.542  1.00  0.00    -0.285 OA
ATOM      5  C   UNL     1     143.183 141.092 148.409  1.00  0.00     0.111 A 
ATOM      6  C   UNL     1     143.571 140.544 147.163  1.00  0.00     0.134 A 
ATOM      7  C   UNL     1     142.723 140.673 146.052  1.00  0.00     0.093 A 
ATOM      8  C   UNL     1     141.499 141.337 146.164  1.00  0.00     0.123 A 
ATOM      9  C   UNL     1     141.111 141.879 147.393  1.00  0.00     0.094 A 
ATOM     10  C   UNL     1     141.941 141.760 148.512  1.00  0.00     0.146 A 
ATOM     11  O   UNL     1     141.546 142.280 149.669  1.00  0.00    -0.452 OA
ENDROOT
BRANCH   1  12
ATOM     12  C   UNL     1     141.709 142.821 152.013  1.00  0.00     0.025 A 
ATOM     13  C   UNL     1     140.980 142.023 152.910  1.00  0.00     0.016 A 
ATOM     14  C   UNL     1     140.462 142.572 154.085  1.00  0.00     0.051 A 
ATOM     15  C   UNL     1     140.679 143.922 154.391  1.00  0.00     0.157 A 
ATOM     16  C   UNL     1     141.942 144.170 152.333  1.00  0.00     0.062 A 
ATOM     17  C   UNL     1     141.426 144.723 153.511  1.00  0.00     0.158 A 
BRANCH  15  18
ATOM     18  O   UNL     1     140.160 144.468 155.564  1.00  0.00    -0.504 OA
ATOM     19  H   UNL     1     139.798 145.414 155.594  1.00  0.00     0.293 HD
ENDBRANCH  15  18
BRANCH  17  20
ATOM     20  O   UNL     1     141.672 146.067 153.793  1.00  0.00    -0.504 OA
ATOM     21  H   UNL     1     142.582 146.488 153.653  1.00  0.00     0.293 HD
ENDBRANCH  17  20
ENDBRANCH   1  12
BRANCH   2  22
ATOM     22  O   UNL     1     144.322 141.563 151.916  1.00  0.00    -0.502 OA
ATOM     23  H   UNL     1     144.377 142.349 152.551  1.00  0.00     0.293 HD
ENDBRANCH   2  22
BRANCH   6  24
ATOM     24  O   UNL     1     144.787 139.875 147.019  1.00  0.00    -0.507 OA
ATOM     25  H   UNL     1     145.511 139.926 147.726  1.00  0.00     0.293 HD
ENDBRANCH   6  24
BRANCH   8  26
ATOM     26  O   UNL     1     140.676 141.452 145.046  1.00  0.00    -0.508 OA
ATOM     27  H   UNL     1     141.054 141.439 144.106  1.00  0.00     0.293 HD
ENDBRANCH   8  26
TORSDOF 6
ENDMDL
MODEL 6
REMARK VINA RESULT:    -4.932     11.148     14.211
REMARK INTER + INTRA:          -5.871
REMARK INTER:                  -5.630
REMARK INTRA:                  -0.240
REMARK UNBOUND:                 0.070
REMARK SMILES O=c1c(O)c(-c2ccc(O)c(O)c2)oc2cc(O)cc(O)c12
REMARK SMILES IDX 5 1 3 2 2 3 1 4 22 5 20 6 19 7 17 8 16 9 15 10 14 11 6 12
REMARK SMILES IDX 7 13 8 14 9 15 13 16 11 17 10 18 12 20 4 22 21 24 18 26
REMARK H PARENT 10 19 12 21 4 23 21 25 18 27
REMARK Flexibility Score: inf
ROOT
ATOM      1  C   UNL     1     153.991 140.782 154.782  1.00  0.00     0.180 A 
ATOM      2  C   UNL     1     153.183 140.436 153.682  1.00  0.00     0.208 A 
ATOM      3  C   UNL     1     151.808 140.242 153.886  1.00  0.00     0.238 A 
ATOM      4  O   UNL     1     151.075 139.921 152.910  1.00  0.00    -0.285 OA
ATOM      5  C   UNL     1     151.263 140.416 155.174  1.00  0.00     0.111 A 
ATOM      6  C   UNL     1     149.888 140.243 155.463  1.00  0.00     0.134 A 
ATOM      7  C   UNL     1     149.420 140.445 156.771  1.00  0.00     0.093 A 
ATOM      8  C   UNL     1     150.299 140.814 157.792  1.00  0.00     0.123 A 
ATOM      9  C   UNL     1     151.658 140.985 157.513  1.00  0.00     0.094 A 
ATOM     10  C   UNL     1     152.144 140.788 156.216  1.00  0.00     0.146 A 
ATOM     11  O   UNL     1     153.440 140.953 155.979  1.00  0.00    -0.452 OA
ENDROOT
BRANCH   1  12
ATOM     12  C   UNL     1     155.452 140.985 154.651  1.00  0.00     0.025 A 
ATOM     13  C   UNL     1     156.287 139.875 154.444  1.00  0.00     0.016 A 
ATOM     14  C   UNL     1     157.666 140.044 154.297  1.00  0.00     0.051 A 
ATOM     15  C   UNL     1     158.230 141.326 154.338  1.00  0.00     0.157 A 
ATOM     16  C   UNL     1     156.020 142.272 154.670  1.00  0.00     0.062 A 
ATOM     17  C   UNL     1     157.400 142.445 154.522  1.00  0.00     0.158 A 
BRANCH  15  18
ATOM     18  O   UNL     1     159.606 141.492 154.192  1.00  0.00    -0.504 OA
ATOM     19  H   UNL     1     159.994 142.235 153.623  1.00  0.00     0.293 HD
ENDBRANCH  15  18
BRANCH  17  20
ATOM     20  O   UNL     1     157.928 143.736 154.552  1.00  0.00    -0.504 OA
ATOM     21  H   UNL     1     158.924 143.912 154.489  1.00  0.00     0.293 HD
ENDBRANCH  17  20
ENDBRANCH   1  12
BRANCH   2  22
ATOM     22  O   UNL     1     153.740 140.318 152.406  1.00  0.00    -0.502 OA
ATOM     23  H   UNL     1     154.375 141.009 152.026  1.00  0.00     0.293 HD
ENDBRANCH   2  22
BRANCH   6  24
ATOM     24  O   UNL     1     148.985 139.875 154.465  1.00  0.00    -0.507 OA
ATOM     25  H   UNL     1     149.285 139.393 153.626  1.00  0.00     0.293 HD
ENDBRANCH   6  24
BRANCH   8  26
ATOM     26  O   UNL     1     149.809 141.009 159.081  1.00  0.00    -0.508 OA
ATOM     27  H   UNL     1     149.984 141.867 159.590  1.00  0.00     0.293 HD
ENDBRANCH   8  26
TORSDOF 6
ENDMDL
MODEL 7
REMARK VINA RESULT:    -4.897      2.302      7.784
REMARK INTER + INTRA:          -5.829
REMARK INTER:                  -5.593
REMARK INTRA:                  -0.236
REMARK UNBOUND:                 0.070
REMARK SMILES O=c1c(O)c(-c2ccc(O)c(O)c2)oc2cc(O)cc(O)c12
REMARK SMILES IDX 5 1 3 2 2 3 1 4 22 5 20 6 19 7 17 8 16 9 15 10 14 11 6 12
REMARK SMILES IDX 7 13 8 14 9 15 13 16 11 17 10 18 12 20 4 22 21 24 18 26
REMARK H PARENT 10 19 12 21 4 23 21 25 18 27
REMARK Flexibility Score: inf
ROOT
ATOM      1  C   UNL     1     147.149 141.212 144.236  1.00  0.00     0.180 A 
ATOM      2  C   UNL     1     147.565 140.691 145.477  1.00  0.00     0.208 A 
ATOM      3  C   UNL     1     146.597 140.409 146.453  1.00  0.00     0.238 A 
ATOM      4  O   UNL     1     146.959 139.953 147.572  1.00  0.00    -0.285 OA
ATOM      5  C   UNL     1     145.234 140.633 146.168  1.00  0.00     0.111 A 
ATOM      6  C   UNL     1     144.197 140.373 147.095  1.00  0.00     0.134 A 
ATOM      7  C   UNL     1     142.863 140.613 146.733  1.00  0.00     0.093 A 
ATOM      8  C   UNL     1     142.547 141.107 145.465  1.00  0.00     0.123 A 
ATOM      9  C   UNL     1     143.568 141.368 144.546  1.00  0.00     0.094 A 
ATOM     10  C   UNL     1     144.904 141.136 144.888  1.00  0.00     0.146 A 
ATOM     11  O   UNL     1     145.854 141.396 143.998  1.00  0.00    -0.452 OA
ENDROOT
BRANCH   1  12
ATOM     12  C   UNL     1     148.111 141.552 143.164  1.00  0.00     0.025 A 
ATOM     13  C   UNL     1     148.404 142.900 142.901  1.00  0.00     0.016 A 
ATOM     14  C   UNL     1     149.324 143.244 141.908  1.00  0.00     0.051 A 
ATOM     15  C   UNL     1     149.978 142.246 141.173  1.00  0.00     0.157 A 
ATOM     16  C   UNL     1     148.785 140.553 142.438  1.00  0.00     0.062 A 
ATOM     17  C   UNL     1     149.708 140.894 141.444  1.00  0.00     0.158 A 
BRANCH  15  18
ATOM     18  O   UNL     1     150.895 142.592 140.182  1.00  0.00    -0.504 OA
ATOM     19  H   UNL     1     150.614 142.701 139.214  1.00  0.00     0.293 HD
ENDBRANCH  15  18
BRANCH  17  20
ATOM     20  O   UNL     1     150.353 139.877 140.740  1.00  0.00    -0.504 OA
ATOM     21  H   UNL     1     150.068 138.908 140.812  1.00  0.00     0.293 HD
ENDBRANCH  17  20
ENDBRANCH   1  12
BRANCH   2  22
ATOM     22  O   UNL     1     148.918 140.432 145.716  1.00  0.00    -0.502 OA
ATOM     23  H   UNL     1     149.229 139.629 146.249  1.00  0.00     0.293 HD
ENDBRANCH   2  22
BRANCH   6  24
ATOM     24  O   UNL     1     144.479 139.878 148.370  1.00  0.00    -0.507 OA
ATOM     25  H   UNL     1     144.590 140.492 149.167  1.00  0.00     0.293 HD
ENDBRANCH   6  24
BRANCH   8  26
ATOM     26  O   UNL     1     141.215 141.336 145.130  1.00  0.00    -0.508 OA
ATOM     27  H   UNL     1     140.554 141.700 145.806  1.00  0.00     0.293 HD
ENDBRANCH   8  26
TORSDOF 6
ENDMDL
MODEL 8
REMARK VINA RESULT:    -4.887     12.966     15.853
REMARK INTER + INTRA:          -5.817
REMARK INTER:                  -5.488
REMARK INTRA:                  -0.329
REMARK UNBOUND:                 0.070
REMARK SMILES O=c1c(O)c(-c2ccc(O)c(O)c2)oc2cc(O)cc(O)c12
REMARK SMILES IDX 5 1 3 2 2 3 1 4 22 5 20 6 19 7 17 8 16 9 15 10 14 11 6 12
REMARK SMILES IDX 7 13 8 14 9 15 13 16 11 17 10 18 12 20 4 22 21 24 18 26
REMARK H PARENT 10 19 12 21 4 23 21 25 18 27
REMARK Flexibility Score: inf
ROOT
ATOM      1  C   UNL     1     155.587 142.471 155.674  1.00  0.00     0.180 A 
ATOM      2  C   UNL     1     156.187 143.521 156.396  1.00  0.00     0.208 A 
ATOM      3  C   UNL     1     155.495 144.081 157.481  1.00  0.00     0.238 A 
ATOM      4  O   UNL     1     156.018 145.030 158.127  1.00  0.00    -0.285 OA
ATOM      5  C   UNL     1     154.229 143.573 157.837  1.00  0.00     0.111 A 
ATOM      6  C   UNL     1     153.468 144.079 158.918  1.00  0.00     0.134 A 
ATOM      7  C   UNL     1     152.219 143.513 159.216  1.00  0.00     0.093 A 
ATOM      8  C   UNL     1     151.719 142.453 158.456  1.00  0.00     0.123 A 
ATOM      9  C   UNL     1     152.466 141.950 157.386  1.00  0.00     0.094 A 
ATOM     10  C   UNL     1     153.712 142.502 157.072  1.00  0.00     0.146 A 
ATOM     11  O   UNL     1     154.399 142.007 156.048  1.00  0.00    -0.452 OA
ENDROOT
BRANCH   1  12
ATOM     12  C   UNL     1     156.246 141.842 154.507  1.00  0.00     0.025 A 
ATOM     13  C   UNL     1     157.084 140.732 154.703  1.00  0.00     0.016 A 
ATOM     14  C   UNL     1     157.699 140.109 153.615  1.00  0.00     0.051 A 
ATOM     15  C   UNL     1     157.474 140.575 152.313  1.00  0.00     0.157 A 
ATOM     16  C   UNL     1     156.006 142.293 153.197  1.00  0.00     0.062 A 
ATOM     17  C   UNL     1     156.620 141.671 152.104  1.00  0.00     0.158 A 
BRANCH  15  18
ATOM     18  O   UNL     1     158.091 139.953 151.229  1.00  0.00    -0.504 OA
ATOM     19  H   UNL     1     158.160 138.944 151.165  1.00  0.00     0.293 HD
ENDBRANCH  15  18
BRANCH  17  20
ATOM     20  O   UNL     1     156.364 142.150 150.820  1.00  0.00    -0.504 OA
ATOM     21  H   UNL     1     157.108 142.390 150.176  1.00  0.00     0.293 HD
ENDBRANCH  17  20
ENDBRANCH   1  12
BRANCH   2  22
ATOM     22  O   UNL     1     157.465 143.974 156.053  1.00  0.00    -0.502 OA
ATOM     23  H   UNL     1     157.869 144.811 156.454  1.00  0.00     0.293 HD
ENDBRANCH   2  22
BRANCH   6  24
ATOM     24  O   UNL     1     153.941 145.137 159.697  1.00  0.00    -0.507 OA
ATOM     25  H   UNL     1     153.321 145.690 160.277  1.00  0.00     0.293 HD
ENDBRANCH   6  24
BRANCH   8  26
ATOM     26  O   UNL     1     150.477 141.908 158.772  1.00  0.00    -0.508 OA
ATOM     27  H   UNL     1     150.206 141.730 159.732  1.00  0.00     0.293 HD
ENDBRANCH   8  26
TORSDOF 6
ENDMDL
MODEL 9
REMARK VINA RESULT:    -4.815      2.682      7.674
REMARK INTER + INTRA:          -5.731
REMARK INTER:                  -5.433
REMARK INTRA:                  -0.298
REMARK UNBOUND:                 0.070
REMARK SMILES O=c1c(O)c(-c2ccc(O)c(O)c2)oc2cc(O)cc(O)c12
REMARK SMILES IDX 5 1 3 2 2 3 1 4 22 5 20 6 19 7 17 8 16 9 15 10 14 11 6 12
REMARK SMILES IDX 7 13 8 14 9 15 13 16 11 17 10 18 12 20 4 22 21 24 18 26
REMARK H PARENT 10 19 12 21 4 23 21 25 18 27
REMARK Flexibility Score: inf
ROOT
ATOM      1  C   UNL     1     141.975 142.706 148.498  1.00  0.00     0.180 A 
ATOM      2  C   UNL     1     141.459 144.011 148.394  1.00  0.00     0.208 A 
ATOM      3  C   UNL     1     140.932 144.626 149.540  1.00  0.00     0.238 A 
ATOM      4  O   UNL     1     140.456 145.791 149.457  1.00  0.00    -0.285 OA
ATOM      5  C   UNL     1     140.947 143.936 150.770  1.00  0.00     0.111 A 
ATOM      6  C   UNL     1     140.438 144.484 151.971  1.00  0.00     0.134 A 
ATOM      7  C   UNL     1     140.498 143.738 153.158  1.00  0.00     0.093 A 
ATOM      8  C   UNL     1     141.056 142.457 153.166  1.00  0.00     0.123 A 
ATOM      9  C   UNL     1     141.558 141.909 151.981  1.00  0.00     0.094 A 
ATOM     10  C   UNL     1     141.506 142.637 150.788  1.00  0.00     0.146 A 
ATOM     11  O   UNL     1     141.987 142.092 149.677  1.00  0.00    -0.452 OA
ENDROOT
BRANCH   1  12
ATOM     12  C   UNL     1     142.531 141.985 147.330  1.00  0.00     0.025 A 
ATOM     13  C   UNL     1     141.658 141.375 146.415  1.00  0.00     0.016 A 
ATOM     14  C   UNL     1     142.158 140.707 145.296  1.00  0.00     0.051 A 
ATOM     15  C   UNL     1     143.539 140.652 145.064  1.00  0.00     0.157 A 
ATOM     16  C   UNL     1     143.915 141.945 147.083  1.00  0.00     0.062 A 
ATOM     17  C   UNL     1     144.421 141.278 145.961  1.00  0.00     0.158 A 
BRANCH  15  18
ATOM     18  O   UNL     1     144.036 139.983 143.946  1.00  0.00    -0.504 OA
ATOM     19  H   UNL     1     145.029 139.816 143.826  1.00  0.00     0.293 HD
ENDBRANCH  15  18
BRANCH  17  20
ATOM     20  O   UNL     1     145.799 141.254 145.751  1.00  0.00    -0.504 OA
ATOM     21  H   UNL     1     146.259 140.485 145.279  1.00  0.00     0.293 HD
ENDBRANCH  17  20
ENDBRANCH   1  12
BRANCH   2  22
ATOM     22  O   UNL     1     141.501 144.692 147.173  1.00  0.00    -0.502 OA
ATOM     23  H   UNL     1     142.277 144.602 146.529  1.00  0.00     0.293 HD
ENDBRANCH   2  22
BRANCH   6  24
ATOM     24  O   UNL     1     139.876 145.762 151.997  1.00  0.00    -0.507 OA
ATOM     25  H   UNL     1     140.441 146.590 152.148  1.00  0.00     0.293 HD
ENDBRANCH   6  24
BRANCH   8  26
ATOM     26  O   UNL     1     141.104 141.737 154.357  1.00  0.00    -0.508 OA
ATOM     27  H   UNL     1     141.771 141.962 155.085  1.00  0.00     0.293 HD
ENDBRANCH   8  26
TORSDOF 6
ENDMDL
