MODEL 1
REMARK VINA RESULT:    39.110      0.000      0.000
REMARK INTER + INTRA:          42.563
REMARK INTER:                  42.539
REMARK INTRA:                   0.023
REMARK UNBOUND:                 0.023
REMARK SMILES CC(C)c1cc2c(cc1O)[C@]1(C)CCCC(C)(C)[C@@H]1CC2=O
REMARK SMILES IDX 4 1 9 2 8 3 7 4 6 5 5 6 21 7 22 8 20 9 19 10 11 11 13 12
REMARK SMILES IDX 14 13 15 14 16 15 17 16 18 17 12 18 2 19 1 20 3 21 10 22
REMARK H PARENT 10 23
REMARK Flexibility Score: inf
ROOT
ATOM      1  C   UNL     1      35.627  15.166  43.210  1.00  0.00    -0.003 A 
ATOM      2  C   UNL     1      35.903  13.943  43.849  1.00  0.00     0.119 A 
ATOM      3  C   UNL     1      35.433  12.745  43.299  1.00  0.00     0.051 A 
ATOM      4  C   UNL     1      34.659  12.721  42.115  1.00  0.00    -0.027 A 
ATOM      5  C   UNL     1      34.462  13.943  41.437  1.00  0.00     0.022 A 
ATOM      6  C   UNL     1      34.920  15.148  41.996  1.00  0.00     0.020 A 
ATOM      7  C   UNL     1      33.842  13.949  40.110  1.00  0.00     0.163 C 
ATOM      8  O   UNL     1      33.485  15.031  39.567  1.00  0.00    -0.294 OA
ATOM      9  C   UNL     1      33.703  12.669  39.365  1.00  0.00     0.086 C 
ATOM     10  C   UNL     1      33.174  11.548  40.296  1.00  0.00     0.013 C 
ATOM     11  C   UNL     1      34.122  11.370  41.569  1.00  0.00    -0.003 C 
ATOM     12  C   UNL     1      35.373  10.523  41.180  1.00  0.00     0.012 C 
ATOM     13  C   UNL     1      35.052   9.211  40.458  1.00  0.00     0.001 C 
ATOM     14  C   UNL     1      34.207   9.444  39.207  1.00  0.00     0.007 C 
ATOM     15  C   UNL     1      32.886  10.200  39.495  1.00  0.00    -0.031 C 
ATOM     16  C   UNL     1      31.900   9.279  40.264  1.00  0.00     0.011 C 
ATOM     17  C   UNL     1      32.199  10.477  38.128  1.00  0.00     0.011 C 
ATOM     18  C   UNL     1      33.321  10.682  42.728  1.00  0.00     0.017 C 
ENDROOT
BRANCH   1  19
ATOM     19  C   UNL     1      36.123  16.483  43.791  1.00  0.00     0.017 C 
ATOM     20  C   UNL     1      35.841  17.646  42.833  1.00  0.00     0.012 C 
ATOM     21  C   UNL     1      35.511  16.746  45.173  1.00  0.00     0.012 C 
ENDBRANCH   1  19
BRANCH   2  22
ATOM     22  O   UNL     1      36.643  13.913  45.031  1.00  0.00    -0.508 OA
ATOM     23  H   UNL     1      36.610  13.121  45.662  1.00  0.00     0.293 HD
ENDBRANCH   2  22
TORSDOF 2
ENDMDL
MODEL 2
REMARK VINA RESULT:    41.364      1.780      2.714
REMARK INTER + INTRA:          45.015
REMARK INTER:                  44.689
REMARK INTRA:                   0.325
REMARK UNBOUND:                 0.023
REMARK SMILES CC(C)c1cc2c(cc1O)[C@]1(C)CCCC(C)(C)[C@@H]1CC2=O
REMARK SMILES IDX 4 1 9 2 8 3 7 4 6 5 5 6 21 7 22 8 20 9 19 10 11 11 13 12
REMARK SMILES IDX 14 13 15 14 16 15 17 16 18 17 12 18 2 19 1 20 3 21 10 22
REMARK H PARENT 10 23
REMARK Flexibility Score: inf
ROOT
ATOM      1  C   UNL     1      36.044  13.968  42.835  1.00  0.00    -0.003 A 
ATOM      2  C   UNL     1      34.672  14.218  43.019  1.00  0.00     0.119 A 
ATOM      3  C   UNL     1      33.722  13.453  42.333  1.00  0.00     0.051 A 
ATOM      4  C   UNL     1      34.101  12.433  41.427  1.00  0.00    -0.027 A 
ATOM      5  C   UNL     1      35.475  12.134  41.316  1.00  0.00     0.022 A 
ATOM      6  C   UNL     1      36.429  12.912  41.993  1.00  0.00     0.020 A 
ATOM      7  C   UNL     1      35.907  10.963  40.549  1.00  0.00     0.163 C 
ATOM      8  O   UNL     1      37.125  10.780  40.277  1.00  0.00    -0.294 OA
ATOM      9  C   UNL     1      34.901   9.940  40.153  1.00  0.00     0.086 C 
ATOM     10  C   UNL     1      33.623  10.616  39.594  1.00  0.00     0.013 C 
ATOM     11  C   UNL     1      33.010  11.642  40.654  1.00  0.00    -0.003 C 
ATOM     12  C   UNL     1      32.188  10.863  41.726  1.00  0.00     0.012 C 
ATOM     13  C   UNL     1      31.163   9.882  41.150  1.00  0.00     0.001 C 
ATOM     14  C   UNL     1      31.811   8.876  40.201  1.00  0.00     0.007 C 
ATOM     15  C   UNL     1      32.582   9.546  39.036  1.00  0.00    -0.031 C 
ATOM     16  C   UNL     1      31.584  10.188  38.035  1.00  0.00     0.011 C 
ATOM     17  C   UNL     1      33.289   8.417  38.235  1.00  0.00     0.011 C 
ATOM     18  C   UNL     1      32.110  12.690  39.912  1.00  0.00     0.017 C 
ENDROOT
BRANCH   1  19
ATOM     19  C   UNL     1      37.096  14.790  43.567  1.00  0.00     0.017 C 
ATOM     20  C   UNL     1      36.879  16.290  43.337  1.00  0.00     0.012 C 
ATOM     21  C   UNL     1      37.117  14.459  45.065  1.00  0.00     0.012 C 
ENDBRANCH   1  19
BRANCH   2  22
ATOM     22  O   UNL     1      34.246  15.227  43.884  1.00  0.00    -0.508 OA
ATOM     23  H   UNL     1      33.498  15.863  43.635  1.00  0.00     0.293 HD
ENDBRANCH   2  22
TORSDOF 2
ENDMDL
MODEL 3
REMARK VINA RESULT:    41.670      3.269      7.330
REMARK INTER + INTRA:          45.348
REMARK INTER:                  44.959
REMARK INTRA:                   0.389
REMARK UNBOUND:                 0.023
REMARK SMILES CC(C)c1cc2c(cc1O)[C@]1(C)CCCC(C)(C)[C@@H]1CC2=O
REMARK SMILES IDX 4 1 9 2 8 3 7 4 6 5 5 6 21 7 22 8 20 9 19 10 11 11 13 12
REMARK SMILES IDX 14 13 15 14 16 15 17 16 18 17 12 18 2 19 1 20 3 21 10 22
REMARK H PARENT 10 23
REMARK Flexibility Score: inf
ROOT
ATOM      1  C   UNL     1      30.673   7.160  41.078  1.00  0.00    -0.003 A 
ATOM      2  C   UNL     1      29.981   8.367  41.279  1.00  0.00     0.119 A 
ATOM      3  C   UNL     1      30.675   9.583  41.270  1.00  0.00     0.051 A 
ATOM      4  C   UNL     1      32.077   9.638  41.084  1.00  0.00    -0.027 A 
ATOM      5  C   UNL     1      32.747   8.430  40.799  1.00  0.00     0.022 A 
ATOM      6  C   UNL     1      32.054   7.209  40.823  1.00  0.00     0.020 A 
ATOM      7  C   UNL     1      34.158   8.455  40.404  1.00  0.00     0.163 C 
ATOM      8  O   UNL     1      34.827   7.389  40.326  1.00  0.00    -0.294 OA
ATOM      9  C   UNL     1      34.783   9.748  40.016  1.00  0.00     0.086 C 
ATOM     10  C   UNL     1      34.396  10.866  41.018  1.00  0.00     0.013 C 
ATOM     11  C   UNL     1      32.809  11.007  41.129  1.00  0.00    -0.003 C 
ATOM     12  C   UNL     1      32.269  11.835  39.922  1.00  0.00     0.012 C 
ATOM     13  C   UNL     1      32.994  13.163  39.687  1.00  0.00     0.001 C 
ATOM     14  C   UNL     1      34.498  12.965  39.513  1.00  0.00     0.007 C 
ATOM     15  C   UNL     1      35.159  12.231  40.707  1.00  0.00    -0.031 C 
ATOM     16  C   UNL     1      35.197  13.159  41.951  1.00  0.00     0.011 C 
ATOM     17  C   UNL     1      36.649  11.987  40.338  1.00  0.00     0.011 C 
ATOM     18  C   UNL     1      32.436  11.694  42.487  1.00  0.00     0.017 C 
ENDROOT
BRANCH   1  19
ATOM     19  C   UNL     1      29.941   5.825  41.088  1.00  0.00     0.017 C 
ATOM     20  C   UNL     1      30.931   4.655  41.131  1.00  0.00     0.012 C 
ATOM     21  C   UNL     1      28.944   5.747  42.252  1.00  0.00     0.012 C 
ENDBRANCH   1  19
BRANCH   2  22
ATOM     22  O   UNL     1      28.601   8.366  41.489  1.00  0.00    -0.508 OA
ATOM     23  H   UNL     1      28.184   8.812  42.297  1.00  0.00     0.293 HD
ENDBRANCH   2  22
TORSDOF 2
ENDMDL
MODEL 4
REMARK VINA RESULT:    41.758      1.314      3.362
REMARK INTER + INTRA:          45.443
REMARK INTER:                  45.523
REMARK INTRA:                  -0.080
REMARK UNBOUND:                 0.023
REMARK SMILES CC(C)c1cc2c(cc1O)[C@]1(C)CCCC(C)(C)[C@@H]1CC2=O
REMARK SMILES IDX 4 1 9 2 8 3 7 4 6 5 5 6 21 7 22 8 20 9 19 10 11 11 13 12
REMARK SMILES IDX 14 13 15 14 16 15 17 16 18 17 12 18 2 19 1 20 3 21 10 22
REMARK H PARENT 10 23
REMARK Flexibility Score: inf
ROOT
ATOM      1  C   UNL     1      34.848  16.492  42.729  1.00  0.00    -0.003 A 
ATOM      2  C   UNL     1      34.287  16.519  41.439  1.00  0.00     0.119 A 
ATOM      3  C   UNL     1      34.127  15.329  40.720  1.00  0.00     0.051 A 
ATOM      4  C   UNL     1      34.539  14.081  41.244  1.00  0.00    -0.027 A 
ATOM      5  C   UNL     1      35.020  14.055  42.569  1.00  0.00     0.022 A 
ATOM      6  C   UNL     1      35.195  15.250  43.287  1.00  0.00     0.020 A 
ATOM      7  C   UNL     1      35.272  12.771  43.229  1.00  0.00     0.163 C 
ATOM      8  O   UNL     1      35.874  12.718  44.336  1.00  0.00    -0.294 OA
ATOM      9  C   UNL     1      34.740  11.522  42.619  1.00  0.00     0.086 C 
ATOM     10  C   UNL     1      35.006  11.503  41.092  1.00  0.00     0.013 C 
ATOM     11  C   UNL     1      34.384  12.795  40.388  1.00  0.00    -0.003 C 
ATOM     12  C   UNL     1      32.852  12.590  40.173  1.00  0.00     0.012 C 
ATOM     13  C   UNL     1      32.477  11.272  39.490  1.00  0.00     0.001 C 
ATOM     14  C   UNL     1      33.033  10.065  40.244  1.00  0.00     0.007 C 
ATOM     15  C   UNL     1      34.570  10.118  40.432  1.00  0.00    -0.031 C 
ATOM     16  C   UNL     1      35.284   9.884  39.073  1.00  0.00     0.011 C 
ATOM     17  C   UNL     1      34.974   8.906  41.317  1.00  0.00     0.011 C 
ATOM     18  C   UNL     1      35.109  13.050  39.022  1.00  0.00     0.017 C 
ENDROOT
BRANCH   1  19
ATOM     19  C   UNL     1      35.036  17.774  43.530  1.00  0.00     0.017 C 
ATOM     20  C   UNL     1      35.344  17.463  44.998  1.00  0.00     0.012 C 
ATOM     21  C   UNL     1      36.125  18.660  42.912  1.00  0.00     0.012 C 
ENDBRANCH   1  19
BRANCH   2  22
ATOM     22  O   UNL     1      33.885  17.727  40.867  1.00  0.00    -0.508 OA
ATOM     23  H   UNL     1      34.094  18.619  41.302  1.00  0.00     0.293 HD
ENDBRANCH   2  22
TORSDOF 2
ENDMDL
