MODEL 1
REMARK VINA RESULT:    -3.888      0.000      0.000
REMARK INTER + INTRA:          -8.252
REMARK INTER:                  -6.615
REMARK INTRA:                  -1.637
REMARK UNBOUND:                -1.637
REMARK SMILES CCCCCCCCCCCCCC(=O)[O-]
REMARK SMILES IDX 8 1 9 2 10 3 11 4 12 5 13 6 14 7 15 8 16 9 7 10 6 11 5 12
REMARK SMILES IDX 4 13 3 14 2 15 1 16
REMARK H PARENT
REMARK Flexibility Score: inf
ROOT
ATOM      1  C   UNL     1      26.852  -0.932  -8.174  1.00  0.00     0.000 C 
ENDROOT
BRANCH   1   2
ATOM      2  C   UNL     1      25.698  -0.454  -9.071  1.00  0.00     0.000 C 
BRANCH   2   3
ATOM      3  C   UNL     1      24.473  -1.382  -9.001  1.00  0.00     0.000 C 
BRANCH   3   4
ATOM      4  C   UNL     1      23.791  -1.578 -10.366  1.00  0.00     0.000 C 
BRANCH   4   5
ATOM      5  C   UNL     1      24.640  -1.186 -11.591  1.00  0.00     0.006 C 
BRANCH   5   6
ATOM      6  C   UNL     1      24.030  -0.059 -12.445  1.00  0.00     0.053 C 
BRANCH   6   7
ATOM      7  C   UNL     1      25.003   0.509 -13.434  1.00  0.00     0.041 C 
ATOM      8  O   UNL     1      24.973   1.734 -13.724  1.00  0.00    -0.550 OA
ATOM      9  O   UNL     1      25.916  -0.324 -14.069  1.00  0.00    -0.550 OA
ENDBRANCH   6   7
ENDBRANCH   5   6
ENDBRANCH   4   5
ENDBRANCH   3   4
ENDBRANCH   2   3
ENDBRANCH   1   2
BRANCH   1  10
ATOM     10  C   UNL     1      27.385  -2.316  -8.584  1.00  0.00     0.000 C 
BRANCH  10  11
ATOM     11  C   UNL     1      27.473  -3.290  -7.396  1.00  0.00    -0.000 C 
BRANCH  11  12
ATOM     12  C   UNL     1      26.142  -4.014  -7.125  1.00  0.00    -0.000 C 
BRANCH  12  13
ATOM     13  C   UNL     1      25.780  -5.015  -8.233  1.00  0.00    -0.000 C 
BRANCH  13  14
ATOM     14  C   UNL     1      24.276  -5.021  -8.561  1.00  0.00    -0.000 C 
BRANCH  14  15
ATOM     15  C   UNL     1      24.003  -5.144 -10.067  1.00  0.00    -0.003 C 
ATOM     16  C   UNL     1      25.245  -4.873 -10.915  1.00  0.00     0.004 C 
ENDBRANCH  14  15
ENDBRANCH  13  14
ENDBRANCH  12  13
ENDBRANCH  11  12
ENDBRANCH  10  11
ENDBRANCH   1  10
TORSDOF 12
ENDMDL
MODEL 2
REMARK VINA RESULT:    -3.810      2.908      5.592
REMARK INTER + INTRA:          -8.119
REMARK INTER:                  -6.494
REMARK INTRA:                  -1.625
REMARK UNBOUND:                -1.637
REMARK SMILES CCCCCCCCCCCCCC(=O)[O-]
REMARK SMILES IDX 8 1 9 2 10 3 11 4 12 5 13 6 14 7 15 8 16 9 7 10 6 11 5 12
REMARK SMILES IDX 4 13 3 14 2 15 1 16
REMARK H PARENT
REMARK Flexibility Score: inf
ROOT
ATOM      1  C   UNL     1      25.941  -4.339 -10.699  1.00  0.00     0.000 C 
ENDROOT
BRANCH   1   2
ATOM      2  C   UNL     1      24.533  -4.664 -10.173  1.00  0.00     0.000 C 
BRANCH   2   3
ATOM      3  C   UNL     1      24.443  -4.581  -8.639  1.00  0.00     0.000 C 
BRANCH   3   4
ATOM      4  C   UNL     1      24.971  -3.249  -8.080  1.00  0.00     0.000 C 
BRANCH   4   5
ATOM      5  C   UNL     1      26.208  -3.360  -7.167  1.00  0.00     0.006 C 
BRANCH   5   6
ATOM      6  C   UNL     1      27.486  -2.735  -7.760  1.00  0.00     0.053 C 
BRANCH   6   7
ATOM      7  C   UNL     1      27.795  -1.389  -7.177  1.00  0.00     0.041 C 
ATOM      8  O   UNL     1      27.345  -0.344  -7.717  1.00  0.00    -0.550 OA
ATOM      9  O   UNL     1      28.615  -1.286  -6.061  1.00  0.00    -0.550 OA
ENDBRANCH   6   7
ENDBRANCH   5   6
ENDBRANCH   4   5
ENDBRANCH   3   4
ENDBRANCH   2   3
ENDBRANCH   1   2
BRANCH   1  10
ATOM     10  C   UNL     1      25.944  -3.165 -11.694  1.00  0.00     0.000 C 
BRANCH  10  11
ATOM     11  C   UNL     1      26.628  -1.911 -11.124  1.00  0.00    -0.000 C 
BRANCH  11  12
ATOM     12  C   UNL     1      25.622  -0.820 -10.718  1.00  0.00    -0.000 C 
BRANCH  12  13
ATOM     13  C   UNL     1      24.243  -1.019 -11.367  1.00  0.00    -0.000 C 
BRANCH  13  14
ATOM     14  C   UNL     1      23.933   0.041 -12.440  1.00  0.00    -0.000 C 
BRANCH  14  15
ATOM     15  C   UNL     1      24.513  -0.326 -13.814  1.00  0.00    -0.003 C 
ATOM     16  C   UNL     1      25.168   0.865 -14.514  1.00  0.00     0.004 C 
ENDBRANCH  14  15
ENDBRANCH  13  14
ENDBRANCH  12  13
ENDBRANCH  11  12
ENDBRANCH  10  11
ENDBRANCH   1  10
TORSDOF 12
ENDMDL
MODEL 3
REMARK VINA RESULT:    -3.808      3.295      5.615
REMARK INTER + INTRA:          -8.116
REMARK INTER:                  -6.878
REMARK INTRA:                  -1.238
REMARK UNBOUND:                -1.637
REMARK SMILES CCCCCCCCCCCCCC(=O)[O-]
REMARK SMILES IDX 8 1 9 2 10 3 11 4 12 5 13 6 14 7 15 8 16 9 7 10 6 11 5 12
REMARK SMILES IDX 4 13 3 14 2 15 1 16
REMARK H PARENT
REMARK Flexibility Score: inf
ROOT
ATOM      1  C   UNL     1      27.489  -1.014  -7.858  1.00  0.00     0.000 C 
ENDROOT
BRANCH   1   2
ATOM      2  C   UNL     1      26.889  -2.407  -7.600  1.00  0.00     0.000 C 
BRANCH   2   3
ATOM      3  C   UNL     1      27.421  -3.468  -8.580  1.00  0.00     0.000 C 
BRANCH   3   4
ATOM      4  C   UNL     1      26.298  -4.234  -9.299  1.00  0.00     0.000 C 
BRANCH   4   5
ATOM      5  C   UNL     1      24.965  -4.331  -8.530  1.00  0.00     0.006 C 
BRANCH   5   6
ATOM      6  C   UNL     1      23.736  -4.564  -9.428  1.00  0.00     0.053 C 
BRANCH   6   7
ATOM      7  C   UNL     1      23.364  -6.012  -9.534  1.00  0.00     0.041 C 
ATOM      8  O   UNL     1      22.187  -6.346  -9.834  1.00  0.00    -0.550 OA
ATOM      9  O   UNL     1      24.307  -6.995  -9.259  1.00  0.00    -0.550 OA
ENDBRANCH   6   7
ENDBRANCH   5   6
ENDBRANCH   4   5
ENDBRANCH   3   4
ENDBRANCH   2   3
ENDBRANCH   1   2
BRANCH   1  10
ATOM     10  C   UNL     1      26.439   0.001  -8.344  1.00  0.00     0.000 C 
BRANCH  10  11
ATOM     11  C   UNL     1      25.275  -0.667  -9.094  1.00  0.00    -0.000 C 
BRANCH  11  12
ATOM     12  C   UNL     1      25.472  -0.657 -10.621  1.00  0.00    -0.000 C 
BRANCH  12  13
ATOM     13  C   UNL     1      24.222  -1.132 -11.379  1.00  0.00    -0.000 C 
BRANCH  13  14
ATOM     14  C   UNL     1      24.216  -0.687 -12.852  1.00  0.00    -0.000 C 
BRANCH  14  15
ATOM     15  C   UNL     1      24.582   0.795 -13.021  1.00  0.00    -0.003 C 
ATOM     16  C   UNL     1      25.248   1.088 -14.365  1.00  0.00     0.004 C 
ENDBRANCH  14  15
ENDBRANCH  13  14
ENDBRANCH  12  13
ENDBRANCH  11  12
ENDBRANCH  10  11
ENDBRANCH   1  10
TORSDOF 12
ENDMDL
MODEL 4
REMARK VINA RESULT:    -3.803      1.662      2.776
REMARK INTER + INTRA:          -8.108
REMARK INTER:                  -6.420
REMARK INTRA:                  -1.688
REMARK UNBOUND:                -1.637
REMARK SMILES CCCCCCCCCCCCCC(=O)[O-]
REMARK SMILES IDX 8 1 9 2 10 3 11 4 12 5 13 6 14 7 15 8 16 9 7 10 6 11 5 12
REMARK SMILES IDX 4 13 3 14 2 15 1 16
REMARK H PARENT
REMARK Flexibility Score: inf
ROOT
ATOM      1  C   UNL     1      25.622  -0.673 -10.760  1.00  0.00     0.000 C 
ENDROOT
BRANCH   1   2
ATOM      2  C   UNL     1      24.345  -1.201 -11.437  1.00  0.00     0.000 C 
BRANCH   2   3
ATOM      3  C   UNL     1      23.796  -0.232 -12.498  1.00  0.00     0.000 C 
BRANCH   3   4
ATOM      4  C   UNL     1      24.830   0.816 -12.943  1.00  0.00     0.000 C 
BRANCH   4   5
ATOM      5  C   UNL     1      25.118   0.859 -14.457  1.00  0.00     0.006 C 
BRANCH   5   6
ATOM      6  C   UNL     1      25.317  -0.527 -15.099  1.00  0.00     0.053 C 
BRANCH   6   7
ATOM      7  C   UNL     1      26.640  -1.140 -14.752  1.00  0.00     0.041 C 
ATOM      8  O   UNL     1      26.700  -2.110 -13.951  1.00  0.00    -0.550 OA
ATOM      9  O   UNL     1      27.812  -0.613 -15.280  1.00  0.00    -0.550 OA
ENDBRANCH   6   7
ENDBRANCH   5   6
ENDBRANCH   4   5
ENDBRANCH   3   4
ENDBRANCH   2   3
ENDBRANCH   1   2
BRANCH   1  10
ATOM     10  C   UNL     1      25.639  -0.935  -9.244  1.00  0.00     0.000 C 
BRANCH  10  11
ATOM     11  C   UNL     1      24.450  -1.793  -8.780  1.00  0.00    -0.000 C 
BRANCH  11  12
ATOM     12  C   UNL     1      24.859  -2.869  -7.759  1.00  0.00    -0.000 C 
BRANCH  12  13
ATOM     13  C   UNL     1      24.819  -4.287  -8.351  1.00  0.00    -0.000 C 
BRANCH  13  14
ATOM     14  C   UNL     1      24.023  -4.361  -9.666  1.00  0.00    -0.000 C 
BRANCH  14  15
ATOM     15  C   UNL     1      24.857  -4.921 -10.827  1.00  0.00    -0.003 C 
ATOM     16  C   UNL     1      26.279  -4.361 -10.856  1.00  0.00     0.004 C 
ENDBRANCH  14  15
ENDBRANCH  13  14
ENDBRANCH  12  13
ENDBRANCH  11  12
ENDBRANCH  10  11
ENDBRANCH   1  10
TORSDOF 12
ENDMDL
MODEL 5
REMARK VINA RESULT:    -3.783     16.658     18.800
REMARK INTER + INTRA:          -8.074
REMARK INTER:                  -7.242
REMARK INTRA:                  -0.832
REMARK UNBOUND:                -1.637
REMARK SMILES CCCCCCCCCCCCCC(=O)[O-]
REMARK SMILES IDX 8 1 9 2 10 3 11 4 12 5 13 6 14 7 15 8 16 9 7 10 6 11 5 12
REMARK SMILES IDX 4 13 3 14 2 15 1 16
REMARK H PARENT
REMARK Flexibility Score: inf
ROOT
ATOM      1  C   UNL     1      10.859   7.566  -6.526  1.00  0.00     0.000 C 
ENDROOT
BRANCH   1   2
ATOM      2  C   UNL     1      11.125   6.071  -6.773  1.00  0.00     0.000 C 
BRANCH   2   3
ATOM      3  C   UNL     1      11.963   5.428  -5.655  1.00  0.00     0.000 C 
BRANCH   3   4
ATOM      4  C   UNL     1      11.118   5.001  -4.443  1.00  0.00     0.000 C 
BRANCH   4   5
ATOM      5  C   UNL     1      11.461   5.704  -3.115  1.00  0.00     0.006 C 
BRANCH   5   6
ATOM      6  C   UNL     1      10.621   6.965  -2.836  1.00  0.00     0.053 C 
BRANCH   6   7
ATOM      7  C   UNL     1      11.445   8.217  -2.824  1.00  0.00     0.041 C 
ATOM      8  O   UNL     1      11.073   9.229  -3.475  1.00  0.00    -0.550 OA
ATOM      9  O   UNL     1      12.647   8.253  -2.129  1.00  0.00    -0.550 OA
ENDBRANCH   6   7
ENDBRANCH   5   6
ENDBRANCH   4   5
ENDBRANCH   3   4
ENDBRANCH   2   3
ENDBRANCH   1   2
BRANCH   1  10
ATOM     10  C   UNL     1       9.976   8.197  -7.617  1.00  0.00     0.000 C 
BRANCH  10  11
ATOM     11  C   UNL     1      10.506   9.562  -8.087  1.00  0.00    -0.000 C 
BRANCH  11  12
ATOM     12  C   UNL     1      11.968   9.805  -7.672  1.00  0.00    -0.000 C 
BRANCH  12  13
ATOM     13  C   UNL     1      12.767  10.561  -8.745  1.00  0.00    -0.000 C 
BRANCH  13  14
ATOM     14  C   UNL     1      11.893  11.019  -9.926  1.00  0.00    -0.000 C 
BRANCH  14  15
ATOM     15  C   UNL     1      12.696  11.777 -10.993  1.00  0.00    -0.003 C 
ATOM     16  C   UNL     1      13.208  10.862 -12.105  1.00  0.00     0.004 C 
ENDBRANCH  14  15
ENDBRANCH  13  14
ENDBRANCH  12  13
ENDBRANCH  11  12
ENDBRANCH  10  11
ENDBRANCH   1  10
TORSDOF 12
ENDMDL
MODEL 6
REMARK VINA RESULT:    -3.774      1.218      3.063
REMARK INTER + INTRA:          -8.059
REMARK INTER:                  -6.313
REMARK INTRA:                  -1.746
REMARK UNBOUND:                -1.637
REMARK SMILES CCCCCCCCCCCCCC(=O)[O-]
REMARK SMILES IDX 8 1 9 2 10 3 11 4 12 5 13 6 14 7 15 8 16 9 7 10 6 11 5 12
REMARK SMILES IDX 4 13 3 14 2 15 1 16
REMARK H PARENT
REMARK Flexibility Score: inf
ROOT
ATOM      1  C   UNL     1      24.857  -2.744  -7.982  1.00  0.00     0.000 C 
ENDROOT
BRANCH   1   2
ATOM      2  C   UNL     1      24.364  -1.600  -8.885  1.00  0.00     0.000 C 
BRANCH   2   3
ATOM      3  C   UNL     1      25.509  -0.689  -9.361  1.00  0.00     0.000 C 
BRANCH   3   4
ATOM      4  C   UNL     1      25.923  -0.960 -10.817  1.00  0.00     0.000 C 
BRANCH   4   5
ATOM      5  C   UNL     1      24.781  -1.386 -11.761  1.00  0.00     0.006 C 
BRANCH   5   6
ATOM      6  C   UNL     1      23.978  -0.209 -12.347  1.00  0.00     0.053 C 
BRANCH   6   7
ATOM      7  C   UNL     1      24.621   0.380 -13.566  1.00  0.00     0.041 C 
ATOM      8  O   UNL     1      24.900   1.608 -13.607  1.00  0.00    -0.550 OA
ATOM      9  O   UNL     1      24.875  -0.418 -14.674  1.00  0.00    -0.550 OA
ENDBRANCH   6   7
ENDBRANCH   5   6
ENDBRANCH   4   5
ENDBRANCH   3   4
ENDBRANCH   2   3
ENDBRANCH   1   2
BRANCH   1  10
ATOM     10  C   UNL     1      24.731  -4.123  -8.653  1.00  0.00     0.000 C 
BRANCH  10  11
ATOM     11  C   UNL     1      25.999  -4.977  -8.489  1.00  0.00    -0.000 C 
BRANCH  11  12
ATOM     12  C   UNL     1      27.040  -4.710  -9.591  1.00  0.00    -0.000 C 
BRANCH  12  13
ATOM     13  C   UNL     1      28.406  -4.296  -9.022  1.00  0.00    -0.000 C 
BRANCH  13  14
ATOM     14  C   UNL     1      28.492  -2.789  -8.719  1.00  0.00    -0.000 C 
BRANCH  14  15
ATOM     15  C   UNL     1      28.499  -2.493  -7.212  1.00  0.00    -0.003 C 
ATOM     16  C   UNL     1      28.385  -1.000  -6.905  1.00  0.00     0.004 C 
ENDBRANCH  14  15
ENDBRANCH  13  14
ENDBRANCH  12  13
ENDBRANCH  11  12
ENDBRANCH  10  11
ENDBRANCH   1  10
TORSDOF 12
ENDMDL
MODEL 7
REMARK VINA RESULT:    -3.772      3.678      5.184
REMARK INTER + INTRA:          -8.054
REMARK INTER:                  -6.436
REMARK INTRA:                  -1.618
REMARK UNBOUND:                -1.637
REMARK SMILES CCCCCCCCCCCCCC(=O)[O-]
REMARK SMILES IDX 8 1 9 2 10 3 11 4 12 5 13 6 14 7 15 8 16 9 7 10 6 11 5 12
REMARK SMILES IDX 4 13 3 14 2 15 1 16
REMARK H PARENT
REMARK Flexibility Score: inf
ROOT
ATOM      1  C   UNL     1      26.342  -1.403  -9.035  1.00  0.00     0.000 C 
ENDROOT
BRANCH   1   2
ATOM      2  C   UNL     1      24.926  -1.934  -8.753  1.00  0.00     0.000 C 
BRANCH   2   3
ATOM      3  C   UNL     1      24.911  -3.031  -7.675  1.00  0.00     0.000 C 
BRANCH   3   4
ATOM      4  C   UNL     1      24.846  -4.450  -8.264  1.00  0.00     0.000 C 
BRANCH   4   5
ATOM      5  C   UNL     1      23.909  -4.620  -9.476  1.00  0.00     0.006 C 
BRANCH   5   6
ATOM      6  C   UNL     1      22.899  -5.775  -9.333  1.00  0.00     0.053 C 
BRANCH   6   7
ATOM      7  C   UNL     1      23.324  -7.008 -10.073  1.00  0.00     0.041 C 
ATOM      8  O   UNL     1      22.568  -8.014 -10.118  1.00  0.00    -0.550 OA
ATOM      9  O   UNL     1      24.573  -7.061 -10.679  1.00  0.00    -0.550 OA
ENDBRANCH   6   7
ENDBRANCH   5   6
ENDBRANCH   4   5
ENDBRANCH   3   4
ENDBRANCH   2   3
ENDBRANCH   1   2
BRANCH   1  10
ATOM     10  C   UNL     1      26.819  -0.399  -7.970  1.00  0.00     0.000 C 
BRANCH  10  11
ATOM     11  C   UNL     1      28.294  -0.605  -7.585  1.00  0.00    -0.000 C 
BRANCH  11  12
ATOM     12  C   UNL     1      28.465  -1.550  -6.382  1.00  0.00    -0.000 C 
BRANCH  12  13
ATOM     13  C   UNL     1      29.220  -2.838  -6.748  1.00  0.00    -0.000 C 
BRANCH  13  14
ATOM     14  C   UNL     1      28.331  -4.092  -6.664  1.00  0.00    -0.000 C 
BRANCH  14  15
ATOM     15  C   UNL     1      28.476  -4.999  -7.896  1.00  0.00    -0.003 C 
ATOM     16  C   UNL     1      28.661  -4.208  -9.191  1.00  0.00     0.004 C 
ENDBRANCH  14  15
ENDBRANCH  13  14
ENDBRANCH  12  13
ENDBRANCH  11  12
ENDBRANCH  10  11
ENDBRANCH   1  10
TORSDOF 12
ENDMDL
MODEL 8
REMARK VINA RESULT:    -3.760      1.090      1.808
REMARK INTER + INTRA:          -8.034
REMARK INTER:                  -6.531
REMARK INTRA:                  -1.503
REMARK UNBOUND:                -1.637
REMARK SMILES CCCCCCCCCCCCCC(=O)[O-]
REMARK SMILES IDX 8 1 9 2 10 3 11 4 12 5 13 6 14 7 15 8 16 9 7 10 6 11 5 12
REMARK SMILES IDX 4 13 3 14 2 15 1 16
REMARK H PARENT
REMARK Flexibility Score: inf
ROOT
ATOM      1  C   UNL     1      25.854  -0.601  -8.992  1.00  0.00     0.000 C 
ENDROOT
BRANCH   1   2
ATOM      2  C   UNL     1      24.540  -1.395  -9.083  1.00  0.00     0.000 C 
BRANCH   2   3
ATOM      3  C   UNL     1      23.961  -1.417 -10.508  1.00  0.00     0.000 C 
BRANCH   3   4
ATOM      4  C   UNL     1      24.787  -0.584 -11.503  1.00  0.00     0.000 C 
BRANCH   4   5
ATOM      5  C   UNL     1      23.986   0.057 -12.653  1.00  0.00     0.006 C 
BRANCH   5   6
ATOM      6  C   UNL     1      24.781   1.089 -13.475  1.00  0.00     0.053 C 
BRANCH   6   7
ATOM      7  C   UNL     1      25.324   0.517 -14.750  1.00  0.00     0.041 C 
ATOM      8  O   UNL     1      25.003  -0.645 -15.113  1.00  0.00    -0.550 OA
ATOM      9  O   UNL     1      26.219   1.253 -15.517  1.00  0.00    -0.550 OA
ENDBRANCH   6   7
ENDBRANCH   5   6
ENDBRANCH   4   5
ENDBRANCH   3   4
ENDBRANCH   2   3
ENDBRANCH   1   2
BRANCH   1  10
ATOM     10  C   UNL     1      26.977  -1.392  -8.299  1.00  0.00     0.000 C 
BRANCH  10  11
ATOM     11  C   UNL     1      26.509  -2.773  -7.808  1.00  0.00    -0.000 C 
BRANCH  11  12
ATOM     12  C   UNL     1      27.271  -3.929  -8.479  1.00  0.00    -0.000 C 
BRANCH  12  13
ATOM     13  C   UNL     1      26.865  -4.130  -9.947  1.00  0.00    -0.000 C 
BRANCH  13  14
ATOM     14  C   UNL     1      25.960  -5.358 -10.151  1.00  0.00    -0.000 C 
BRANCH  14  15
ATOM     15  C   UNL     1      24.481  -4.979 -10.312  1.00  0.00    -0.003 C 
ATOM     16  C   UNL     1      23.705  -5.061  -8.998  1.00  0.00     0.004 C 
ENDBRANCH  14  15
ENDBRANCH  13  14
ENDBRANCH  12  13
ENDBRANCH  11  12
ENDBRANCH  10  11
ENDBRANCH   1  10
TORSDOF 12
ENDMDL
MODEL 9
REMARK VINA RESULT:    -3.754      3.422      6.223
REMARK INTER + INTRA:          -8.025
REMARK INTER:                  -6.989
REMARK INTRA:                  -1.036
REMARK UNBOUND:                -1.637
REMARK SMILES CCCCCCCCCCCCCC(=O)[O-]
REMARK SMILES IDX 8 1 9 2 10 3 11 4 12 5 13 6 14 7 15 8 16 9 7 10 6 11 5 12
REMARK SMILES IDX 4 13 3 14 2 15 1 16
REMARK H PARENT
REMARK Flexibility Score: inf
ROOT
ATOM      1  C   UNL     1      25.471  -0.885  -9.198  1.00  0.00     0.000 C 
ENDROOT
BRANCH   1   2
ATOM      2  C   UNL     1      26.066  -1.954  -8.265  1.00  0.00     0.000 C 
BRANCH   2   3
ATOM      3  C   UNL     1      24.998  -2.911  -7.708  1.00  0.00     0.000 C 
BRANCH   3   4
ATOM      4  C   UNL     1      25.355  -4.392  -7.913  1.00  0.00     0.000 C 
BRANCH   4   5
ATOM      5  C   UNL     1      24.980  -4.978  -9.289  1.00  0.00     0.006 C 
BRANCH   5   6
ATOM      6  C   UNL     1      23.463  -5.055  -9.547  1.00  0.00     0.053 C 
BRANCH   6   7
ATOM      7  C   UNL     1      22.986  -6.459  -9.772  1.00  0.00     0.041 C 
ATOM      8  O   UNL     1      21.753  -6.716  -9.789  1.00  0.00    -0.550 OA
ATOM      9  O   UNL     1      23.904  -7.491  -9.920  1.00  0.00    -0.550 OA
ENDBRANCH   6   7
ENDBRANCH   5   6
ENDBRANCH   4   5
ENDBRANCH   3   4
ENDBRANCH   2   3
ENDBRANCH   1   2
BRANCH   1  10
ATOM     10  C   UNL     1      24.241  -1.393  -9.970  1.00  0.00     0.000 C 
BRANCH  10  11
ATOM     11  C   UNL     1      24.549  -1.675 -11.450  1.00  0.00    -0.000 C 
BRANCH  11  12
ATOM     12  C   UNL     1      24.041  -0.561 -12.383  1.00  0.00    -0.000 C 
BRANCH  12  13
ATOM     13  C   UNL     1      25.056   0.581 -12.545  1.00  0.00    -0.000 C 
BRANCH  13  14
ATOM     14  C   UNL     1      24.867   1.363 -13.857  1.00  0.00    -0.000 C 
BRANCH  14  15
ATOM     15  C   UNL     1      25.161   0.508 -15.099  1.00  0.00    -0.003 C 
ATOM     16  C   UNL     1      26.540  -0.148 -15.050  1.00  0.00     0.004 C 
ENDBRANCH  14  15
ENDBRANCH  13  14
ENDBRANCH  12  13
ENDBRANCH  11  12
ENDBRANCH  10  11
ENDBRANCH   1  10
TORSDOF 12
ENDMDL
