MODEL 1
REMARK VINA RESULT:    -4.030      0.000      0.000
REMARK INTER + INTRA:          -4.030
REMARK INTER:                  -4.030
REMARK INTRA:                   0.000
REMARK UNBOUND:                 0.000
REMARK SMILES CC1=CC[C@@H]2[C@H](C1)C2(C)C
REMARK SMILES IDX 1 1 2 2 3 3 4 4 5 5 6 6 7 7 8 8 9 9 10 10
REMARK H PARENT
REMARK Flexibility Score: inf
ROOT
ATOM      1  C   UNL     1     134.728 135.181 134.576  1.00  0.00     0.039 C 
ATOM      2  C   UNL     1     134.286 135.429 133.159  1.00  0.00    -0.077 C 
ATOM      3  C   UNL     1     133.252 136.253 132.923  1.00  0.00    -0.028 C 
ATOM      4  C   UNL     1     132.775 136.540 131.528  1.00  0.00     0.031 C 
ATOM      5  C   UNL     1     132.841 135.288 130.629  1.00  0.00     0.003 C 
ATOM      6  C   UNL     1     134.031 134.336 130.888  1.00  0.00     0.003 C 
ATOM      7  C   UNL     1     135.005 134.758 132.011  1.00  0.00     0.034 C 
ATOM      8  C   UNL     1     133.955 135.139 129.578  1.00  0.00    -0.029 C 
ATOM      9  C   UNL     1     134.938 136.297 129.319  1.00  0.00     0.012 C 
ATOM     10  C   UNL     1     133.564 134.316 128.347  1.00  0.00     0.012 C 
ENDROOT
TORSDOF 0
ENDMDL
MODEL 2
REMARK VINA RESULT:    -4.028      2.064      3.449
REMARK INTER + INTRA:          -4.028
REMARK INTER:                  -4.028
REMARK INTRA:                   0.000
REMARK UNBOUND:                 0.000
REMARK SMILES CC1=CC[C@@H]2[C@H](C1)C2(C)C
REMARK SMILES IDX 1 1 2 2 3 3 4 4 5 5 6 6 7 7 8 8 9 9 10 10
REMARK H PARENT
REMARK Flexibility Score: inf
ROOT
ATOM      1  C   UNL     1     134.761 140.245 130.355  1.00  0.00     0.039 C 
ATOM      2  C   UNL     1     134.365 138.904 130.910  1.00  0.00    -0.077 C 
ATOM      3  C   UNL     1     133.703 138.842 132.077  1.00  0.00    -0.028 C 
ATOM      4  C   UNL     1     133.277 137.530 132.673  1.00  0.00     0.031 C 
ATOM      5  C   UNL     1     134.335 136.428 132.452  1.00  0.00     0.003 C 
ATOM      6  C   UNL     1     135.098 136.488 131.109  1.00  0.00     0.003 C 
ATOM      7  C   UNL     1     134.705 137.639 130.156  1.00  0.00     0.034 C 
ATOM      8  C   UNL     1     134.116 135.337 131.390  1.00  0.00    -0.029 C 
ATOM      9  C   UNL     1     132.781 135.252 130.627  1.00  0.00     0.012 C 
ATOM     10  C   UNL     1     134.781 133.995 131.709  1.00  0.00     0.012 C 
ENDROOT
TORSDOF 0
ENDMDL
MODEL 3
REMARK VINA RESULT:    -4.007      4.001      4.816
REMARK INTER + INTRA:          -4.007
REMARK INTER:                  -4.007
REMARK INTRA:                   0.000
REMARK UNBOUND:                 0.000
REMARK SMILES CC1=CC[C@@H]2[C@H](C1)C2(C)C
REMARK SMILES IDX 1 1 2 2 3 3 4 4 5 5 6 6 7 7 8 8 9 9 10 10
REMARK H PARENT
REMARK Flexibility Score: inf
ROOT
ATOM      1  C   UNL     1     135.158 138.835 134.510  1.00  0.00     0.039 C 
ATOM      2  C   UNL     1     135.398 139.323 133.107  1.00  0.00    -0.077 C 
ATOM      3  C   UNL     1     136.174 140.401 132.907  1.00  0.00    -0.028 C 
ATOM      4  C   UNL     1     136.452 140.926 131.526  1.00  0.00     0.031 C 
ATOM      5  C   UNL     1     135.213 140.822 130.612  1.00  0.00     0.003 C 
ATOM      6  C   UNL     1     134.318 139.581 130.831  1.00  0.00     0.003 C 
ATOM      7  C   UNL     1     134.775 138.601 131.935  1.00  0.00     0.034 C 
ATOM      8  C   UNL     1     135.130 139.728 129.533  1.00  0.00    -0.029 C 
ATOM      9  C   UNL     1     136.336 138.809 129.263  1.00  0.00     0.012 C 
ATOM     10  C   UNL     1     134.301 140.110 128.302  1.00  0.00     0.012 C 
ENDROOT
TORSDOF 0
ENDMDL
MODEL 4
REMARK VINA RESULT:    -4.003      5.272      6.609
REMARK INTER + INTRA:          -4.003
REMARK INTER:                  -4.003
REMARK INTRA:                   0.000
REMARK UNBOUND:                 0.000
REMARK SMILES CC1=CC[C@@H]2[C@H](C1)C2(C)C
REMARK SMILES IDX 1 1 2 2 3 3 4 4 5 5 6 6 7 7 8 8 9 9 10 10
REMARK H PARENT
REMARK Flexibility Score: inf
ROOT
ATOM      1  C   UNL     1     138.965 133.625 130.485  1.00  0.00     0.039 C 
ATOM      2  C   UNL     1     139.355 134.991 130.977  1.00  0.00    -0.077 C 
ATOM      3  C   UNL     1     140.165 135.102 132.043  1.00  0.00    -0.028 C 
ATOM      4  C   UNL     1     140.591 136.443 132.573  1.00  0.00     0.031 C 
ATOM      5  C   UNL     1     139.451 137.480 132.496  1.00  0.00     0.003 C 
ATOM      6  C   UNL     1     138.518 137.364 131.269  1.00  0.00     0.003 C 
ATOM      7  C   UNL     1     138.844 136.228 130.275  1.00  0.00     0.034 C 
ATOM      8  C   UNL     1     139.461 138.571 131.411  1.00  0.00    -0.029 C 
ATOM      9  C   UNL     1     140.674 138.724 130.474  1.00  0.00     0.012 C 
ATOM     10  C   UNL     1     138.769 139.877 131.815  1.00  0.00     0.012 C 
ENDROOT
TORSDOF 0
ENDMDL
MODEL 5
REMARK VINA RESULT:    -3.978      4.778      5.985
REMARK INTER + INTRA:          -3.978
REMARK INTER:                  -3.978
REMARK INTRA:                   0.000
REMARK UNBOUND:                 0.000
REMARK SMILES CC1=CC[C@@H]2[C@H](C1)C2(C)C
REMARK SMILES IDX 1 1 2 2 3 3 4 4 5 5 6 6 7 7 8 8 9 9 10 10
REMARK H PARENT
REMARK Flexibility Score: inf
ROOT
ATOM      1  C   UNL     1     140.277 138.845 130.351  1.00  0.00     0.039 C 
ATOM      2  C   UNL     1     138.943 139.292 130.883  1.00  0.00    -0.077 C 
ATOM      3  C   UNL     1     138.893 140.035 132.001  1.00  0.00    -0.028 C 
ATOM      4  C   UNL     1     137.588 140.513 132.572  1.00  0.00     0.031 C 
ATOM      5  C   UNL     1     136.475 139.454 132.430  1.00  0.00     0.003 C 
ATOM      6  C   UNL     1     136.520 138.599 131.143  1.00  0.00     0.003 C 
ATOM      7  C   UNL     1     137.671 138.913 130.160  1.00  0.00     0.034 C 
ATOM      8  C   UNL     1     135.381 139.610 131.360  1.00  0.00    -0.029 C 
ATOM      9  C   UNL     1     135.305 140.890 130.507  1.00  0.00     0.012 C 
ATOM     10  C   UNL     1     134.034 138.982 131.730  1.00  0.00     0.012 C 
ENDROOT
TORSDOF 0
ENDMDL
MODEL 6
REMARK VINA RESULT:    -3.974      2.556      3.980
REMARK INTER + INTRA:          -3.974
REMARK INTER:                  -3.974
REMARK INTRA:                   0.000
REMARK UNBOUND:                 0.000
REMARK SMILES CC1=CC[C@@H]2[C@H](C1)C2(C)C
REMARK SMILES IDX 1 1 2 2 3 3 4 4 5 5 6 6 7 7 8 8 9 9 10 10
REMARK H PARENT
REMARK Flexibility Score: inf
ROOT
ATOM      1  C   UNL     1     133.047 134.758 130.260  1.00  0.00     0.039 C 
ATOM      2  C   UNL     1     133.476 136.046 130.908  1.00  0.00    -0.077 C 
ATOM      3  C   UNL     1     132.749 136.552 131.918  1.00  0.00    -0.028 C 
ATOM      4  C   UNL     1     133.136 137.831 132.604  1.00  0.00     0.031 C 
ATOM      5  C   UNL     1     133.701 138.868 131.611  1.00  0.00     0.003 C 
ATOM      6  C   UNL     1     134.545 138.296 130.449  1.00  0.00     0.003 C 
ATOM      7  C   UNL     1     134.718 136.761 130.429  1.00  0.00     0.034 C 
ATOM      8  C   UNL     1     135.214 139.142 131.546  1.00  0.00    -0.029 C 
ATOM      9  C   UNL     1     136.167 138.485 132.562  1.00  0.00     0.012 C 
ATOM     10  C   UNL     1     135.586 140.565 131.116  1.00  0.00     0.012 C 
ENDROOT
TORSDOF 0
ENDMDL
MODEL 7
REMARK VINA RESULT:    -3.968      5.125      6.486
REMARK INTER + INTRA:          -3.968
REMARK INTER:                  -3.968
REMARK INTRA:                   0.000
REMARK UNBOUND:                 0.000
REMARK SMILES CC1=CC[C@@H]2[C@H](C1)C2(C)C
REMARK SMILES IDX 1 1 2 2 3 3 4 4 5 5 6 6 7 7 8 8 9 9 10 10
REMARK H PARENT
REMARK Flexibility Score: inf
ROOT
ATOM      1  C   UNL     1     134.736 140.648 130.278  1.00  0.00     0.039 C 
ATOM      2  C   UNL     1     136.025 140.224 130.929  1.00  0.00    -0.077 C 
ATOM      3  C   UNL     1     136.485 140.906 131.990  1.00  0.00    -0.028 C 
ATOM      4  C   UNL     1     137.763 140.521 132.681  1.00  0.00     0.031 C 
ATOM      5  C   UNL     1     138.838 140.049 131.680  1.00  0.00     0.003 C 
ATOM      6  C   UNL     1     138.319 139.257 130.458  1.00  0.00     0.003 C 
ATOM      7  C   UNL     1     136.791 139.036 130.393  1.00  0.00     0.034 C 
ATOM      8  C   UNL     1     139.164 138.553 131.532  1.00  0.00    -0.029 C 
ATOM      9  C   UNL     1     138.519 137.520 132.475  1.00  0.00     0.012 C 
ATOM     10  C   UNL     1     140.607 138.253 131.113  1.00  0.00     0.012 C 
ENDROOT
TORSDOF 0
ENDMDL
MODEL 8
REMARK VINA RESULT:    -3.968      4.894      6.373
REMARK INTER + INTRA:          -3.968
REMARK INTER:                  -3.968
REMARK INTRA:                   0.000
REMARK UNBOUND:                 0.000
REMARK SMILES CC1=CC[C@@H]2[C@H](C1)C2(C)C
REMARK SMILES IDX 1 1 2 2 3 3 4 4 5 5 6 6 7 7 8 8 9 9 10 10
REMARK H PARENT
REMARK Flexibility Score: inf
ROOT
ATOM      1  C   UNL     1     140.712 138.876 130.308  1.00  0.00     0.039 C 
ATOM      2  C   UNL     1     140.227 137.599 130.938  1.00  0.00    -0.077 C 
ATOM      3  C   UNL     1     140.837 137.132 132.040  1.00  0.00    -0.028 C 
ATOM      4  C   UNL     1     140.389 135.865 132.713  1.00  0.00     0.031 C 
ATOM      5  C   UNL     1     139.956 134.793 131.690  1.00  0.00     0.003 C 
ATOM      6  C   UNL     1     139.246 135.320 130.423  1.00  0.00     0.003 C 
ATOM      7  C   UNL     1     139.058 136.852 130.339  1.00  0.00     0.034 C 
ATOM      8  C   UNL     1     138.466 134.493 131.458  1.00  0.00    -0.029 C 
ATOM      9  C   UNL     1     137.392 135.163 132.337  1.00  0.00     0.012 C 
ATOM     10  C   UNL     1     138.164 133.054 131.028  1.00  0.00     0.012 C 
ENDROOT
TORSDOF 0
ENDMDL
MODEL 9
REMARK VINA RESULT:    -3.968      4.119      4.954
REMARK INTER + INTRA:          -3.968
REMARK INTER:                  -3.968
REMARK INTRA:                   0.000
REMARK UNBOUND:                 0.000
REMARK SMILES CC1=CC[C@@H]2[C@H](C1)C2(C)C
REMARK SMILES IDX 1 1 2 2 3 3 4 4 5 5 6 6 7 7 8 8 9 9 10 10
REMARK H PARENT
REMARK Flexibility Score: inf
ROOT
ATOM      1  C   UNL     1     138.301 134.952 134.339  1.00  0.00     0.039 C 
ATOM      2  C   UNL     1     138.186 134.400 132.944  1.00  0.00    -0.077 C 
ATOM      3  C   UNL     1     137.564 133.225 132.748  1.00  0.00    -0.028 C 
ATOM      4  C   UNL     1     137.415 132.632 131.376  1.00  0.00     0.031 C 
ATOM      5  C   UNL     1     138.667 132.871 130.507  1.00  0.00     0.003 C 
ATOM      6  C   UNL     1     139.386 134.223 130.721  1.00  0.00     0.003 C 
ATOM      7  C   UNL     1     138.760 135.164 131.774  1.00  0.00     0.034 C 
ATOM      8  C   UNL     1     138.656 133.937 129.398  1.00  0.00    -0.029 C 
ATOM      9  C   UNL     1     137.354 134.684 129.052  1.00  0.00     0.012 C 
ATOM     10  C   UNL     1     139.578 133.634 128.213  1.00  0.00     0.012 C 
ENDROOT
TORSDOF 0
ENDMDL
