MODEL 1
REMARK VINA RESULT:    -5.725      0.000      0.000
REMARK INTER + INTRA:          -5.725
REMARK INTER:                  -5.725
REMARK INTRA:                   0.000
REMARK UNBOUND:                 0.000
REMARK SMILES C=C1CCC[C@@]2(C)CC(=O)C(=C(C)C)C[C@H]12
REMARK SMILES IDX 13 1 12 2 11 3 15 4 16 5 2 6 1 7 3 8 4 9 5 10 6 11 8 12 9 13
REMARK SMILES IDX 10 14 7 15 14 16
REMARK H PARENT
REMARK Flexibility Score: inf
ROOT
ATOM      1  C   UNL     1      16.136  32.766  29.325  1.00  0.00     0.039 C 
ATOM      2  C   UNL     1      17.639  32.773  29.484  1.00  0.00    -0.070 C 
ATOM      3  C   UNL     1      18.354  31.610  29.520  1.00  0.00    -0.006 C 
ATOM      4  C   UNL     1      17.667  30.258  29.378  1.00  0.00     0.047 C 
ATOM      5  C   UNL     1      18.573  29.192  28.713  1.00  0.00     0.025 C 
ATOM      6  C   UNL     1      17.951  27.802  28.580  1.00  0.00    -0.073 C 
ATOM      7  C   UNL     1      16.713  27.486  29.007  1.00  0.00     0.008 C 
ATOM      8  C   UNL     1      18.790  26.758  27.883  1.00  0.00     0.031 C 
ATOM      9  C   UNL     1      20.173  26.665  28.533  1.00  0.00     0.005 C 
ATOM     10  C   UNL     1      20.844  28.045  28.639  1.00  0.00     0.008 C 
ATOM     11  C   UNL     1      19.973  29.092  29.398  1.00  0.00    -0.018 C 
ATOM     12  C   UNL     1      20.674  30.469  29.295  1.00  0.00     0.088 C 
ATOM     13  C   UNL     1      19.815  31.583  29.822  1.00  0.00     0.159 C 
ATOM     14  O   UNL     1      20.354  32.475  30.530  1.00  0.00    -0.295 OA
ATOM     15  C   UNL     1      19.857  28.685  30.894  1.00  0.00     0.012 C 
ATOM     16  C   UNL     1      18.312  34.125  29.564  1.00  0.00     0.039 C 
ENDROOT
TORSDOF 0
ENDMDL
MODEL 2
REMARK VINA RESULT:    -5.687      2.339      5.681
REMARK INTER + INTRA:          -5.687
REMARK INTER:                  -5.687
REMARK INTRA:                   0.000
REMARK UNBOUND:                 0.000
REMARK SMILES C=C1CCC[C@@]2(C)CC(=O)C(=C(C)C)C[C@H]12
REMARK SMILES IDX 13 1 12 2 11 3 15 4 16 5 2 6 1 7 3 8 4 9 5 10 6 11 8 12 9 13
REMARK SMILES IDX 10 14 7 15 14 16
REMARK H PARENT
REMARK Flexibility Score: inf
ROOT
ATOM      1  C   UNL     1      19.122  26.063  27.864  1.00  0.00     0.039 C 
ATOM      2  C   UNL     1      17.683  26.299  28.259  1.00  0.00    -0.070 C 
ATOM      3  C   UNL     1      17.294  27.460  28.866  1.00  0.00    -0.006 C 
ATOM      4  C   UNL     1      18.295  28.574  29.147  1.00  0.00     0.047 C 
ATOM      5  C   UNL     1      17.649  29.981  29.114  1.00  0.00     0.025 C 
ATOM      6  C   UNL     1      18.598  31.138  29.431  1.00  0.00    -0.073 C 
ATOM      7  C   UNL     1      19.901  30.984  29.731  1.00  0.00     0.008 C 
ATOM      8  C   UNL     1      18.008  32.526  29.347  1.00  0.00     0.031 C 
ATOM      9  C   UNL     1      16.744  32.620  30.206  1.00  0.00     0.005 C 
ATOM     10  C   UNL     1      15.750  31.494  29.878  1.00  0.00     0.008 C 
ATOM     11  C   UNL     1      16.373  30.071  30.010  1.00  0.00    -0.018 C 
ATOM     12  C   UNL     1      15.337  29.040  29.499  1.00  0.00     0.088 C 
ATOM     13  C   UNL     1      15.914  27.658  29.396  1.00  0.00     0.159 C 
ATOM     14  O   UNL     1      15.214  26.683  29.781  1.00  0.00    -0.295 OA
ATOM     15  C   UNL     1      16.693  29.780  31.503  1.00  0.00     0.012 C 
ATOM     16  C   UNL     1      16.692  25.208  27.918  1.00  0.00     0.039 C 
ENDROOT
TORSDOF 0
ENDMDL
MODEL 3
REMARK VINA RESULT:    -5.581      2.369      5.080
REMARK INTER + INTRA:          -5.581
REMARK INTER:                  -5.581
REMARK INTRA:                   0.000
REMARK UNBOUND:                 0.000
REMARK SMILES C=C1CCC[C@@]2(C)CC(=O)C(=C(C)C)C[C@H]12
REMARK SMILES IDX 13 1 12 2 11 3 15 4 16 5 2 6 1 7 3 8 4 9 5 10 6 11 8 12 9 13
REMARK SMILES IDX 10 14 7 15 14 16
REMARK H PARENT
REMARK Flexibility Score: inf
ROOT
ATOM      1  C   UNL     1      16.390  27.615  29.517  1.00  0.00     0.039 C 
ATOM      2  C   UNL     1      15.644  28.928  29.573  1.00  0.00    -0.070 C 
ATOM      3  C   UNL     1      16.293  30.103  29.829  1.00  0.00    -0.006 C 
ATOM      4  C   UNL     1      17.800  30.138  30.046  1.00  0.00     0.047 C 
ATOM      5  C   UNL     1      18.440  31.472  29.588  1.00  0.00     0.025 C 
ATOM      6  C   UNL     1      19.948  31.582  29.819  1.00  0.00    -0.073 C 
ATOM      7  C   UNL     1      20.696  30.617  30.386  1.00  0.00     0.008 C 
ATOM      8  C   UNL     1      20.608  32.848  29.327  1.00  0.00     0.031 C 
ATOM      9  C   UNL     1      19.889  34.077  29.891  1.00  0.00     0.005 C 
ATOM     10  C   UNL     1      18.374  34.016  29.633  1.00  0.00     0.008 C 
ATOM     11  C   UNL     1      17.712  32.718  30.185  1.00  0.00    -0.018 C 
ATOM     12  C   UNL     1      16.234  32.695  29.724  1.00  0.00     0.088 C 
ATOM     13  C   UNL     1      15.563  31.388  30.034  1.00  0.00     0.159 C 
ATOM     14  O   UNL     1      14.385  31.407  30.481  1.00  0.00    -0.295 OA
ATOM     15  C   UNL     1      17.764  32.727  31.739  1.00  0.00     0.012 C 
ATOM     16  C   UNL     1      14.158  28.884  29.296  1.00  0.00     0.039 C 
ENDROOT
TORSDOF 0
ENDMDL
MODEL 4
REMARK VINA RESULT:    -5.476      2.007      5.525
REMARK INTER + INTRA:          -5.476
REMARK INTER:                  -5.476
REMARK INTRA:                   0.000
REMARK UNBOUND:                 0.000
REMARK SMILES C=C1CCC[C@@]2(C)CC(=O)C(=C(C)C)C[C@H]12
REMARK SMILES IDX 13 1 12 2 11 3 15 4 16 5 2 6 1 7 3 8 4 9 5 10 6 11 8 12 9 13
REMARK SMILES IDX 10 14 7 15 14 16
REMARK H PARENT
REMARK Flexibility Score: inf
ROOT
ATOM      1  C   UNL     1      23.815  28.669  29.308  1.00  0.00     0.039 C 
ATOM      2  C   UNL     1      22.434  28.154  28.974  1.00  0.00    -0.070 C 
ATOM      3  C   UNL     1      21.317  28.894  29.240  1.00  0.00    -0.006 C 
ATOM      4  C   UNL     1      21.421  30.280  29.865  1.00  0.00     0.047 C 
ATOM      5  C   UNL     1      20.272  31.222  29.428  1.00  0.00     0.025 C 
ATOM      6  C   UNL     1      20.301  32.616  30.056  1.00  0.00    -0.073 C 
ATOM      7  C   UNL     1      21.234  33.027  30.936  1.00  0.00     0.008 C 
ATOM      8  C   UNL     1      19.226  33.574  29.603  1.00  0.00     0.031 C 
ATOM      9  C   UNL     1      17.842  32.941  29.770  1.00  0.00     0.005 C 
ATOM     10  C   UNL     1      17.769  31.555  29.108  1.00  0.00     0.008 C 
ATOM     11  C   UNL     1      18.865  30.573  29.623  1.00  0.00    -0.018 C 
ATOM     12  C   UNL     1      18.794  29.281  28.773  1.00  0.00     0.088 C 
ATOM     13  C   UNL     1      19.939  28.352  29.056  1.00  0.00     0.159 C 
ATOM     14  O   UNL     1      19.704  27.117  29.148  1.00  0.00    -0.295 OA
ATOM     15  C   UNL     1      18.591  30.222  31.112  1.00  0.00     0.012 C 
ATOM     16  C   UNL     1      22.351  26.803  28.300  1.00  0.00     0.039 C 
ENDROOT
TORSDOF 0
ENDMDL
MODEL 5
REMARK VINA RESULT:    -5.406      1.845      4.762
REMARK INTER + INTRA:          -5.406
REMARK INTER:                  -5.406
REMARK INTRA:                   0.000
REMARK UNBOUND:                 0.000
REMARK SMILES C=C1CCC[C@@]2(C)CC(=O)C(=C(C)C)C[C@H]12
REMARK SMILES IDX 13 1 12 2 11 3 15 4 16 5 2 6 1 7 3 8 4 9 5 10 6 11 8 12 9 13
REMARK SMILES IDX 10 14 7 15 14 16
REMARK H PARENT
REMARK Flexibility Score: inf
ROOT
ATOM      1  C   UNL     1      18.565  26.622  28.051  1.00  0.00     0.039 C 
ATOM      2  C   UNL     1      19.400  27.753  28.604  1.00  0.00    -0.070 C 
ATOM      3  C   UNL     1      18.821  28.891  29.091  1.00  0.00    -0.006 C 
ATOM      4  C   UNL     1      17.307  29.055  29.116  1.00  0.00     0.047 C 
ATOM      5  C   UNL     1      16.820  29.946  30.285  1.00  0.00     0.025 C 
ATOM      6  C   UNL     1      15.309  30.180  30.338  1.00  0.00    -0.073 C 
ATOM      7  C   UNL     1      14.436  29.675  29.445  1.00  0.00     0.008 C 
ATOM      8  C   UNL     1      14.801  30.996  31.502  1.00  0.00     0.031 C 
ATOM      9  C   UNL     1      15.552  32.327  31.588  1.00  0.00     0.005 C 
ATOM     10  C   UNL     1      17.076  32.120  31.583  1.00  0.00     0.008 C 
ATOM     11  C   UNL     1      17.579  31.309  30.350  1.00  0.00    -0.018 C 
ATOM     12  C   UNL     1      19.089  31.026  30.541  1.00  0.00     0.088 C 
ATOM     13  C   UNL     1      19.624  30.078  29.506  1.00  0.00     0.159 C 
ATOM     14  O   UNL     1      20.749  30.319  28.993  1.00  0.00    -0.295 OA
ATOM     15  C   UNL     1      17.373  32.147  29.057  1.00  0.00     0.012 C 
ATOM     16  C   UNL     1      20.899  27.550  28.627  1.00  0.00     0.039 C 
ENDROOT
TORSDOF 0
ENDMDL
MODEL 6
REMARK VINA RESULT:    -5.399      2.248      5.737
REMARK INTER + INTRA:          -5.399
REMARK INTER:                  -5.399
REMARK INTRA:                   0.000
REMARK UNBOUND:                 0.000
REMARK SMILES C=C1CCC[C@@]2(C)CC(=O)C(=C(C)C)C[C@H]12
REMARK SMILES IDX 13 1 12 2 11 3 15 4 16 5 2 6 1 7 3 8 4 9 5 10 6 11 8 12 9 13
REMARK SMILES IDX 10 14 7 15 14 16
REMARK H PARENT
REMARK Flexibility Score: inf
ROOT
ATOM      1  C   UNL     1      22.118  25.314  28.248  1.00  0.00     0.039 C 
ATOM      2  C   UNL     1      20.648  25.582  28.025  1.00  0.00    -0.070 C 
ATOM      3  C   UNL     1      20.050  26.709  28.515  1.00  0.00    -0.006 C 
ATOM      4  C   UNL     1      20.848  27.752  29.286  1.00  0.00     0.047 C 
ATOM      5  C   UNL     1      20.287  29.186  29.111  1.00  0.00     0.025 C 
ATOM      6  C   UNL     1      21.024  30.271  29.896  1.00  0.00    -0.073 C 
ATOM      7  C   UNL     1      22.080  30.037  30.698  1.00  0.00     0.008 C 
ATOM      8  C   UNL     1      20.536  31.686  29.698  1.00  0.00     0.031 C 
ATOM      9  C   UNL     1      19.028  31.770  29.954  1.00  0.00     0.005 C 
ATOM     10  C   UNL     1      18.255  30.717  29.142  1.00  0.00     0.008 C 
ATOM     11  C   UNL     1      18.754  29.263  29.396  1.00  0.00    -0.018 C 
ATOM     12  C   UNL     1      18.020  28.321  28.410  1.00  0.00     0.088 C 
ATOM     13  C   UNL     1      18.576  26.927  28.436  1.00  0.00     0.159 C 
ATOM     14  O   UNL     1      17.772  25.957  28.404  1.00  0.00    -0.295 OA
ATOM     15  C   UNL     1      18.415  28.843  30.854  1.00  0.00     0.012 C 
ATOM     16  C   UNL     1      19.883  24.566  27.207  1.00  0.00     0.039 C 
ENDROOT
TORSDOF 0
ENDMDL
MODEL 7
REMARK VINA RESULT:    -5.391      2.483      3.825
REMARK INTER + INTRA:          -5.391
REMARK INTER:                  -5.391
REMARK INTRA:                   0.000
REMARK UNBOUND:                 0.000
REMARK SMILES C=C1CCC[C@@]2(C)CC(=O)C(=C(C)C)C[C@H]12
REMARK SMILES IDX 13 1 12 2 11 3 15 4 16 5 2 6 1 7 3 8 4 9 5 10 6 11 8 12 9 13
REMARK SMILES IDX 10 14 7 15 14 16
REMARK H PARENT
REMARK Flexibility Score: inf
ROOT
ATOM      1  C   UNL     1      18.809  30.863  31.774  1.00  0.00     0.039 C 
ATOM      2  C   UNL     1      17.653  30.083  31.191  1.00  0.00    -0.070 C 
ATOM      3  C   UNL     1      17.853  29.117  30.246  1.00  0.00    -0.006 C 
ATOM      4  C   UNL     1      19.254  28.770  29.759  1.00  0.00     0.047 C 
ATOM      5  C   UNL     1      19.391  27.288  29.330  1.00  0.00     0.025 C 
ATOM      6  C   UNL     1      20.766  26.891  28.792  1.00  0.00    -0.073 C 
ATOM      7  C   UNL     1      21.804  27.742  28.675  1.00  0.00     0.008 C 
ATOM      8  C   UNL     1      20.944  25.438  28.422  1.00  0.00     0.031 C 
ATOM      9  C   UNL     1      19.843  24.996  27.455  1.00  0.00     0.005 C 
ATOM     10  C   UNL     1      18.443  25.342  27.991  1.00  0.00     0.008 C 
ATOM     11  C   UNL     1      18.275  26.855  28.327  1.00  0.00    -0.018 C 
ATOM     12  C   UNL     1      16.897  27.048  29.006  1.00  0.00     0.088 C 
ATOM     13  C   UNL     1      16.722  28.436  29.551  1.00  0.00     0.159 C 
ATOM     14  O   UNL     1      15.611  29.010  29.393  1.00  0.00    -0.295 OA
ATOM     15  C   UNL     1      18.321  27.688  27.015  1.00  0.00     0.012 C 
ATOM     16  C   UNL     1      16.275  30.397  31.729  1.00  0.00     0.039 C 
ENDROOT
TORSDOF 0
ENDMDL
MODEL 8
REMARK VINA RESULT:    -5.360      1.688      4.864
REMARK INTER + INTRA:          -5.360
REMARK INTER:                  -5.360
REMARK INTRA:                   0.000
REMARK UNBOUND:                 0.000
REMARK SMILES C=C1CCC[C@@]2(C)CC(=O)C(=C(C)C)C[C@H]12
REMARK SMILES IDX 13 1 12 2 11 3 15 4 16 5 2 6 1 7 3 8 4 9 5 10 6 11 8 12 9 13
REMARK SMILES IDX 10 14 7 15 14 16
REMARK H PARENT
REMARK Flexibility Score: inf
ROOT
ATOM      1  C   UNL     1      18.363  27.372  27.491  1.00  0.00     0.039 C 
ATOM      2  C   UNL     1      19.510  27.602  28.448  1.00  0.00    -0.070 C 
ATOM      3  C   UNL     1      19.647  28.784  29.121  1.00  0.00    -0.006 C 
ATOM      4  C   UNL     1      18.635  29.909  28.951  1.00  0.00     0.047 C 
ATOM      5  C   UNL     1      18.487  30.780  30.223  1.00  0.00     0.025 C 
ATOM      6  C   UNL     1      17.513  31.952  30.098  1.00  0.00    -0.073 C 
ATOM      7  C   UNL     1      16.824  32.244  28.978  1.00  0.00     0.008 C 
ATOM      8  C   UNL     1      17.305  32.782  31.342  1.00  0.00     0.031 C 
ATOM      9  C   UNL     1      18.651  33.261  31.894  1.00  0.00     0.005 C 
ATOM     10  C   UNL     1      19.638  32.096  32.073  1.00  0.00     0.008 C 
ATOM     11  C   UNL     1      19.864  31.280  30.764  1.00  0.00    -0.018 C 
ATOM     12  C   UNL     1      20.737  30.048  31.107  1.00  0.00     0.088 C 
ATOM     13  C   UNL     1      20.845  29.090  29.956  1.00  0.00     0.159 C 
ATOM     14  O   UNL     1      21.966  28.571  29.708  1.00  0.00    -0.295 OA
ATOM     15  C   UNL     1      20.608  32.162  29.723  1.00  0.00     0.012 C 
ATOM     16  C   UNL     1      20.473  26.454  28.651  1.00  0.00     0.039 C 
ENDROOT
TORSDOF 0
ENDMDL
MODEL 9
REMARK VINA RESULT:    -5.258      2.443      5.103
REMARK INTER + INTRA:          -5.258
REMARK INTER:                  -5.258
REMARK INTRA:                   0.000
REMARK UNBOUND:                 0.000
REMARK SMILES C=C1CCC[C@@]2(C)CC(=O)C(=C(C)C)C[C@H]12
REMARK SMILES IDX 13 1 12 2 11 3 15 4 16 5 2 6 1 7 3 8 4 9 5 10 6 11 8 12 9 13
REMARK SMILES IDX 10 14 7 15 14 16
REMARK H PARENT
REMARK Flexibility Score: inf
ROOT
ATOM      1  C   UNL     1      18.538  25.073  27.488  1.00  0.00     0.039 C 
ATOM      2  C   UNL     1      19.861  25.598  27.995  1.00  0.00    -0.070 C 
ATOM      3  C   UNL     1      19.948  26.796  28.645  1.00  0.00    -0.006 C 
ATOM      4  C   UNL     1      18.708  27.642  28.906  1.00  0.00     0.047 C 
ATOM      5  C   UNL     1      18.820  28.489  30.197  1.00  0.00     0.025 C 
ATOM      6  C   UNL     1      17.620  29.391  30.489  1.00  0.00    -0.073 C 
ATOM      7  C   UNL     1      16.532  29.477  29.700  1.00  0.00     0.008 C 
ATOM      8  C   UNL     1      17.677  30.183  31.773  1.00  0.00     0.031 C 
ATOM      9  C   UNL     1      18.979  30.985  31.847  1.00  0.00     0.005 C 
ATOM     10  C   UNL     1      20.209  30.094  31.602  1.00  0.00     0.008 C 
ATOM     11  C   UNL     1      20.142  29.318  30.251  1.00  0.00    -0.018 C 
ATOM     12  C   UNL     1      21.341  28.341  30.196  1.00  0.00     0.088 C 
ATOM     13  C   UNL     1      21.256  27.404  29.026  1.00  0.00     0.159 C 
ATOM     14  O   UNL     1      22.305  27.160  28.372  1.00  0.00    -0.295 OA
ATOM     15  C   UNL     1      20.243  30.322  29.069  1.00  0.00     0.012 C 
ATOM     16  C   UNL     1      21.073  24.719  27.782  1.00  0.00     0.039 C 
ENDROOT
TORSDOF 0
ENDMDL
