MODEL 1
REMARK VINA RESULT:    -2.794      0.000      0.000
REMARK INTER + INTRA:          -5.126
REMARK INTER:                  -4.263
REMARK INTRA:                  -0.863
REMARK UNBOUND:                -0.863
REMARK SMILES O=C([O-])CCCCCCCCC(=O)[O-]
REMARK SMILES IDX 7 1 6 2 5 3 4 4 2 5 1 6 3 7 8 8 9 9 10 10 11 11 12 12 13 13
REMARK SMILES IDX 14 14
REMARK H PARENT
REMARK Flexibility Score: inf
ROOT
ATOM      1  C   UNL     1      -9.766 -17.793  11.474  1.00  0.00     0.000 C 
ENDROOT
BRANCH   1   2
ATOM      2  C   UNL     1      -8.647 -17.672  12.520  1.00  0.00     0.000 C 
BRANCH   2   3
ATOM      3  C   UNL     1      -9.162 -17.178  13.883  1.00  0.00     0.006 C 
BRANCH   3   4
ATOM      4  C   UNL     1     -10.662 -16.855  13.854  1.00  0.00     0.053 C 
BRANCH   4   5
ATOM      5  C   UNL     1     -11.357 -17.337  15.088  1.00  0.00     0.041 C 
ATOM      6  O   UNL     1     -11.234 -18.534  15.461  1.00  0.00    -0.550 OA
ATOM      7  O   UNL     1     -12.116 -16.457  15.848  1.00  0.00    -0.550 OA
ENDBRANCH   4   5
ENDBRANCH   3   4
ENDBRANCH   2   3
ENDBRANCH   1   2
BRANCH   1   8
ATOM      8  C   UNL     1      -9.916 -19.221  10.929  1.00  0.00     0.000 C 
BRANCH   8   9
ATOM      9  C   UNL     1      -8.723 -20.094  11.344  1.00  0.00     0.000 C 
BRANCH   9  10
ATOM     10  C   UNL     1      -9.152 -21.373  12.081  1.00  0.00     0.006 C 
BRANCH  10  11
ATOM     11  C   UNL     1     -10.138 -21.096  13.222  1.00  0.00     0.053 C 
BRANCH  11  12
ATOM     12  C   UNL     1     -11.295 -22.042  13.154  1.00  0.00     0.041 C 
ATOM     13  O   UNL     1     -11.699 -22.624  14.194  1.00  0.00    -0.550 OA
ATOM     14  O   UNL     1     -11.895 -22.320  11.932  1.00  0.00    -0.550 OA
ENDBRANCH  11  12
ENDBRANCH  10  11
ENDBRANCH   9  10
ENDBRANCH   8   9
ENDBRANCH   1   8
TORSDOF 9
ENDMDL
MODEL 2
REMARK VINA RESULT:    -2.779      0.119      4.484
REMARK INTER + INTRA:          -5.104
REMARK INTER:                  -4.243
REMARK INTRA:                  -0.861
REMARK UNBOUND:                -0.863
REMARK SMILES O=C([O-])CCCCCCCCC(=O)[O-]
REMARK SMILES IDX 7 1 6 2 5 3 4 4 2 5 1 6 3 7 8 8 9 9 10 10 11 11 12 12 13 13
REMARK SMILES IDX 14 14
REMARK H PARENT
REMARK Flexibility Score: inf
ROOT
ATOM      1  C   UNL     1      -9.894 -19.149  10.885  1.00  0.00     0.000 C 
ENDROOT
BRANCH   1   2
ATOM      2  C   UNL     1      -8.718 -20.031  11.333  1.00  0.00     0.000 C 
BRANCH   2   3
ATOM      3  C   UNL     1      -9.179 -21.333  12.011  1.00  0.00     0.006 C 
BRANCH   3   4
ATOM      4  C   UNL     1     -10.130 -21.068  13.186  1.00  0.00     0.053 C 
BRANCH   4   5
ATOM      5  C   UNL     1     -11.292 -22.012  13.182  1.00  0.00     0.041 C 
ATOM      6  O   UNL     1     -11.755 -22.455  14.266  1.00  0.00    -0.550 OA
ATOM      7  O   UNL     1     -11.886 -22.378  11.981  1.00  0.00    -0.550 OA
ENDBRANCH   4   5
ENDBRANCH   3   4
ENDBRANCH   2   3
ENDBRANCH   1   2
BRANCH   1   8
ATOM      8  C   UNL     1      -9.784 -17.707  11.403  1.00  0.00     0.000 C 
BRANCH   8   9
ATOM      9  C   UNL     1      -8.654 -17.579  12.435  1.00  0.00     0.000 C 
BRANCH   9  10
ATOM     10  C   UNL     1      -9.171 -17.248  13.843  1.00  0.00     0.006 C 
BRANCH  10  11
ATOM     11  C   UNL     1     -10.658 -16.876  13.855  1.00  0.00     0.053 C 
BRANCH  11  12
ATOM     12  C   UNL     1     -11.311 -17.370  15.108  1.00  0.00     0.041 C 
ATOM     13  O   UNL     1     -12.064 -16.611  15.772  1.00  0.00    -0.550 OA
ATOM     14  O   UNL     1     -11.047 -18.653  15.569  1.00  0.00    -0.550 OA
ENDBRANCH  11  12
ENDBRANCH  10  11
ENDBRANCH   9  10
ENDBRANCH   8   9
ENDBRANCH   1   8
TORSDOF 9
ENDMDL
MODEL 3
REMARK VINA RESULT:    -2.652      2.528      4.249
REMARK INTER + INTRA:          -4.909
REMARK INTER:                  -4.174
REMARK INTRA:                  -0.735
REMARK UNBOUND:                -0.863
REMARK SMILES O=C([O-])CCCCCCCCC(=O)[O-]
REMARK SMILES IDX 7 1 6 2 5 3 4 4 2 5 1 6 3 7 8 8 9 9 10 10 11 11 12 12 13 13
REMARK SMILES IDX 14 14
REMARK H PARENT
REMARK Flexibility Score: inf
ROOT
ATOM      1  C   UNL     1     -10.744 -16.807  13.544  1.00  0.00     0.000 C 
ENDROOT
BRANCH   1   2
ATOM      2  C   UNL     1      -9.251 -17.161  13.619  1.00  0.00     0.000 C 
BRANCH   2   3
ATOM      3  C   UNL     1      -8.765 -17.940  12.384  1.00  0.00     0.006 C 
BRANCH   3   4
ATOM      4  C   UNL     1      -9.910 -18.263  11.415  1.00  0.00     0.053 C 
BRANCH   4   5
ATOM      5  C   UNL     1      -9.563 -17.896  10.006  1.00  0.00     0.041 C 
ATOM      6  O   UNL     1      -9.647 -16.699   9.622  1.00  0.00    -0.550 OA
ATOM      7  O   UNL     1      -9.114 -18.870   9.124  1.00  0.00    -0.550 OA
ENDBRANCH   4   5
ENDBRANCH   3   4
ENDBRANCH   2   3
ENDBRANCH   1   2
BRANCH   1   8
ATOM      8  C   UNL     1     -11.388 -16.657  14.931  1.00  0.00     0.000 C 
BRANCH   8   9
ATOM      9  C   UNL     1     -10.886 -17.747  15.890  1.00  0.00     0.000 C 
BRANCH   9  10
ATOM     10  C   UNL     1     -11.708 -19.042  15.797  1.00  0.00     0.006 C 
BRANCH  10  11
ATOM     11  C   UNL     1     -10.914 -20.204  15.187  1.00  0.00     0.053 C 
BRANCH  11  12
ATOM     12  C   UNL     1     -11.821 -21.356  14.889  1.00  0.00     0.041 C 
ATOM     13  O   UNL     1     -11.368 -22.392  14.335  1.00  0.00    -0.550 OA
ATOM     14  O   UNL     1     -13.177 -21.266  15.176  1.00  0.00    -0.550 OA
ENDBRANCH  11  12
ENDBRANCH  10  11
ENDBRANCH   9  10
ENDBRANCH   8   9
ENDBRANCH   1   8
TORSDOF 9
ENDMDL
MODEL 4
REMARK VINA RESULT:    -2.623      2.465      4.499
REMARK INTER + INTRA:          -4.865
REMARK INTER:                  -4.003
REMARK INTRA:                  -0.863
REMARK UNBOUND:                -0.863
REMARK SMILES O=C([O-])CCCCCCCCC(=O)[O-]
REMARK SMILES IDX 7 1 6 2 5 3 4 4 2 5 1 6 3 7 8 8 9 9 10 10 11 11 12 12 13 13
REMARK SMILES IDX 14 14
REMARK H PARENT
REMARK Flexibility Score: inf
ROOT
ATOM      1  C   UNL     1     -11.317 -16.736  14.886  1.00  0.00     0.000 C 
ENDROOT
BRANCH   1   2
ATOM      2  C   UNL     1     -10.702 -17.780  15.831  1.00  0.00     0.000 C 
BRANCH   2   3
ATOM      3  C   UNL     1     -11.392 -19.151  15.727  1.00  0.00     0.006 C 
BRANCH   3   4
ATOM      4  C   UNL     1     -10.453 -20.230  15.169  1.00  0.00     0.053 C 
BRANCH   4   5
ATOM      5  C   UNL     1     -11.205 -21.282  14.415  1.00  0.00     0.041 C 
ATOM      6  O   UNL     1     -12.210 -21.839  14.932  1.00  0.00    -0.550 OA
ATOM      7  O   UNL     1     -10.817 -21.626  13.126  1.00  0.00    -0.550 OA
ENDBRANCH   4   5
ENDBRANCH   3   4
ENDBRANCH   2   3
ENDBRANCH   1   2
BRANCH   1   8
ATOM      8  C   UNL     1     -10.676 -16.751  13.490  1.00  0.00     0.000 C 
BRANCH   8   9
ATOM      9  C   UNL     1      -9.185 -17.107  13.575  1.00  0.00     0.000 C 
BRANCH   9  10
ATOM     10  C   UNL     1      -8.738 -18.059  12.454  1.00  0.00     0.006 C 
BRANCH  10  11
ATOM     11  C   UNL     1      -9.873 -18.402  11.482  1.00  0.00     0.053 C 
BRANCH  11  12
ATOM     12  C   UNL     1      -9.519 -17.973  10.093  1.00  0.00     0.041 C 
ATOM     13  O   UNL     1      -9.736 -16.789   9.721  1.00  0.00    -0.550 OA
ATOM     14  O   UNL     1      -8.997 -18.893   9.193  1.00  0.00    -0.550 OA
ENDBRANCH  11  12
ENDBRANCH  10  11
ENDBRANCH   9  10
ENDBRANCH   8   9
ENDBRANCH   1   8
TORSDOF 9
ENDMDL
MODEL 5
REMARK VINA RESULT:    -2.567     15.140     17.229
REMARK INTER + INTRA:          -4.780
REMARK INTER:                  -4.315
REMARK INTRA:                  -0.465
REMARK UNBOUND:                -0.863
REMARK SMILES O=C([O-])CCCCCCCCC(=O)[O-]
REMARK SMILES IDX 7 1 6 2 5 3 4 4 2 5 1 6 3 7 8 8 9 9 10 10 11 11 12 12 13 13
REMARK SMILES IDX 14 14
REMARK H PARENT
REMARK Flexibility Score: inf
ROOT
ATOM      1  C   UNL     1      -9.660 -17.574  -2.179  1.00  0.00     0.000 C 
ENDROOT
BRANCH   1   2
ATOM      2  C   UNL     1      -8.935 -18.517  -1.207  1.00  0.00     0.000 C 
BRANCH   2   3
ATOM      3  C   UNL     1      -8.508 -19.838  -1.871  1.00  0.00     0.006 C 
BRANCH   3   4
ATOM      4  C   UNL     1      -9.506 -20.971  -1.599  1.00  0.00     0.053 C 
BRANCH   4   5
ATOM      5  C   UNL     1      -9.899 -21.678  -2.859  1.00  0.00     0.041 C 
ATOM      6  O   UNL     1     -10.258 -22.884  -2.825  1.00  0.00    -0.550 OA
ATOM      7  O   UNL     1      -9.899 -20.994  -4.068  1.00  0.00    -0.550 OA
ENDBRANCH   4   5
ENDBRANCH   3   4
ENDBRANCH   2   3
ENDBRANCH   1   2
BRANCH   1   8
ATOM      8  C   UNL     1      -9.170 -17.725  -3.627  1.00  0.00     0.000 C 
BRANCH   8   9
ATOM      9  C   UNL     1      -7.899 -16.897  -3.866  1.00  0.00     0.000 C 
BRANCH   9  10
ATOM     10  C   UNL     1      -7.875 -15.599  -3.044  1.00  0.00     0.006 C 
BRANCH  10  11
ATOM     11  C   UNL     1      -7.894 -14.342  -3.923  1.00  0.00     0.053 C 
BRANCH  11  12
ATOM     12  C   UNL     1      -7.897 -13.110  -3.074  1.00  0.00     0.041 C 
ATOM     13  O   UNL     1      -7.900 -13.206  -1.819  1.00  0.00    -0.550 OA
ATOM     14  O   UNL     1      -7.947 -11.856  -3.669  1.00  0.00    -0.550 OA
ENDBRANCH  11  12
ENDBRANCH  10  11
ENDBRANCH   9  10
ENDBRANCH   8   9
ENDBRANCH   1   8
TORSDOF 9
ENDMDL
MODEL 6
REMARK VINA RESULT:    -2.489      2.803      3.937
REMARK INTER + INTRA:          -4.661
REMARK INTER:                  -3.817
REMARK INTRA:                  -0.844
REMARK UNBOUND:                -0.863
REMARK SMILES O=C([O-])CCCCCCCCC(=O)[O-]
REMARK SMILES IDX 7 1 6 2 5 3 4 4 2 5 1 6 3 7 8 8 9 9 10 10 11 11 12 12 13 13
REMARK SMILES IDX 14 14
REMARK H PARENT
REMARK Flexibility Score: inf
ROOT
ATOM      1  C   UNL     1     -10.160 -20.757  14.509  1.00  0.00     0.000 C 
ENDROOT
BRANCH   1   2
ATOM      2  C   UNL     1      -9.166 -20.082  15.468  1.00  0.00     0.000 C 
BRANCH   2   3
ATOM      3  C   UNL     1      -9.666 -18.717  15.973  1.00  0.00     0.006 C 
BRANCH   3   4
ATOM      4  C   UNL     1     -10.831 -18.179  15.133  1.00  0.00     0.053 C 
BRANCH   4   5
ATOM      5  C   UNL     1     -10.447 -16.944  14.380  1.00  0.00     0.041 C 
ATOM      6  O   UNL     1     -11.267 -16.398  13.595  1.00  0.00    -0.550 OA
ATOM      7  O   UNL     1      -9.195 -16.375  14.570  1.00  0.00    -0.550 OA
ENDBRANCH   4   5
ENDBRANCH   3   4
ENDBRANCH   2   3
ENDBRANCH   1   2
BRANCH   1   8
ATOM      8  C   UNL     1      -9.463 -21.487  13.351  1.00  0.00     0.000 C 
BRANCH   8   9
ATOM      9  C   UNL     1      -9.833 -20.853  12.002  1.00  0.00     0.000 C 
BRANCH   9  10
ATOM     10  C   UNL     1      -9.210 -19.462  11.810  1.00  0.00     0.006 C 
BRANCH  10  11
ATOM     11  C   UNL     1     -10.095 -18.528  10.975  1.00  0.00     0.053 C 
BRANCH  11  12
ATOM     12  C   UNL     1      -9.355 -18.048   9.767  1.00  0.00     0.041 C 
ATOM     13  O   UNL     1      -8.747 -18.867   9.029  1.00  0.00    -0.550 OA
ATOM     14  O   UNL     1      -9.294 -16.689   9.484  1.00  0.00    -0.550 OA
ENDBRANCH  11  12
ENDBRANCH  10  11
ENDBRANCH   9  10
ENDBRANCH   8   9
ENDBRANCH   1   8
TORSDOF 9
ENDMDL
MODEL 7
REMARK VINA RESULT:    -2.421     15.077     16.179
REMARK INTER + INTRA:          -4.557
REMARK INTER:                  -4.013
REMARK INTRA:                  -0.544
REMARK UNBOUND:                -0.863
REMARK SMILES O=C([O-])CCCCCCCCC(=O)[O-]
REMARK SMILES IDX 7 1 6 2 5 3 4 4 2 5 1 6 3 7 8 8 9 9 10 10 11 11 12 12 13 13
REMARK SMILES IDX 14 14
REMARK H PARENT
REMARK Flexibility Score: inf
ROOT
ATOM      1  C   UNL     1      -9.832 -17.813  -2.299  1.00  0.00     0.000 C 
ENDROOT
BRANCH   1   2
ATOM      2  C   UNL     1      -8.969 -17.861  -3.569  1.00  0.00     0.000 C 
BRANCH   2   3
ATOM      3  C   UNL     1      -8.200 -16.550  -3.811  1.00  0.00     0.006 C 
BRANCH   3   4
ATOM      4  C   UNL     1      -7.879 -15.816  -2.502  1.00  0.00     0.053 C 
BRANCH   4   5
ATOM      5  C   UNL     1      -7.985 -14.331  -2.659  1.00  0.00     0.041 C 
ATOM      6  O   UNL     1      -7.878 -13.577  -1.656  1.00  0.00    -0.550 OA
ATOM      7  O   UNL     1      -8.172 -13.777  -3.919  1.00  0.00    -0.550 OA
ENDBRANCH   4   5
ENDBRANCH   3   4
ENDBRANCH   2   3
ENDBRANCH   1   2
BRANCH   1   8
ATOM      8  C   UNL     1      -9.240 -18.641  -1.148  1.00  0.00     0.000 C 
BRANCH   8   9
ATOM      9  C   UNL     1      -8.008 -19.429  -1.617  1.00  0.00     0.000 C 
BRANCH   9  10
ATOM     10  C   UNL     1      -8.243 -20.947  -1.624  1.00  0.00     0.006 C 
BRANCH  10  11
ATOM     11  C   UNL     1      -9.731 -21.315  -1.627  1.00  0.00     0.053 C 
BRANCH  11  12
ATOM     12  C   UNL     1     -10.132 -21.863  -2.960  1.00  0.00     0.041 C 
ATOM     13  O   UNL     1     -10.819 -22.916  -3.032  1.00  0.00    -0.550 OA
ATOM     14  O   UNL     1      -9.704 -21.239  -4.125  1.00  0.00    -0.550 OA
ENDBRANCH  11  12
ENDBRANCH  10  11
ENDBRANCH   9  10
ENDBRANCH   8   9
ENDBRANCH   1   8
TORSDOF 9
ENDMDL
MODEL 8
REMARK VINA RESULT:    -1.754      2.730      4.855
REMARK INTER + INTRA:          -3.539
REMARK INTER:                  -2.664
REMARK INTRA:                  -0.875
REMARK UNBOUND:                -0.863
REMARK SMILES O=C([O-])CCCCCCCCC(=O)[O-]
REMARK SMILES IDX 7 1 6 2 5 3 4 4 2 5 1 6 3 7 8 8 9 9 10 10 11 11 12 12 13 13
REMARK SMILES IDX 14 14
REMARK H PARENT
REMARK Flexibility Score: inf
ROOT
ATOM      1  C   UNL     1     -10.093 -21.268  12.567  1.00  0.00     0.000 C 
ENDROOT
BRANCH   1   2
ATOM      2  C   UNL     1     -10.024 -20.078  11.598  1.00  0.00     0.000 C 
BRANCH   2   3
ATOM      3  C   UNL     1      -8.647 -19.943  10.925  1.00  0.00     0.006 C 
BRANCH   3   4
ATOM      4  C   UNL     1      -8.684 -19.002   9.713  1.00  0.00     0.053 C 
BRANCH   4   5
ATOM      5  C   UNL     1      -8.702 -17.564  10.129  1.00  0.00     0.041 C 
ATOM      6  O   UNL     1      -7.875 -17.138  10.978  1.00  0.00    -0.550 OA
ATOM      7  O   UNL     1      -9.612 -16.685   9.555  1.00  0.00    -0.550 OA
ENDBRANCH   4   5
ENDBRANCH   3   4
ENDBRANCH   2   3
ENDBRANCH   1   2
BRANCH   1   8
ATOM      8  C   UNL     1      -9.453 -20.961  13.929  1.00  0.00     0.000 C 
BRANCH   8   9
ATOM      9  C   UNL     1     -10.264 -19.902  14.690  1.00  0.00     0.000 C 
BRANCH   9  10
ATOM     10  C   UNL     1      -9.381 -18.795  15.285  1.00  0.00     0.006 C 
BRANCH  10  11
ATOM     11  C   UNL     1      -9.159 -17.628  14.315  1.00  0.00     0.053 C 
BRANCH  11  12
ATOM     12  C   UNL     1     -10.454 -16.937  14.025  1.00  0.00     0.041 C 
ATOM     13  O   UNL     1     -11.203 -16.573  14.969  1.00  0.00    -0.550 OA
ATOM     14  O   UNL     1     -10.857 -16.739  12.710  1.00  0.00    -0.550 OA
ENDBRANCH  11  12
ENDBRANCH  10  11
ENDBRANCH   9  10
ENDBRANCH   8   9
ENDBRANCH   1   8
TORSDOF 9
ENDMDL
